xflr5 v6.61

 Calculated polar for: AG24

 1 1 Reynolds number fixed          Mach number fixed         

 xtrf =   1.000 (top)        1.000 (bottom)
 Mach =   0.000     Re =     0.563 e 6     Ncrit =   9.000

  alpha     CL        CD       CDp       Cm    Top Xtr Bot Xtr   Cpmin    Chinge    XCp    
 ------- -------- --------- --------- -------- ------- ------- -------- --------- ---------
 -10.000  -0.5170   0.11358   0.11146   0.0027  1.0000  0.0134  -2.1832   0.0000   0.0000   0.0000   0.2497
  -9.900  -0.5155   0.11190   0.10978   0.0019  1.0000  0.0134  -2.2044   0.0000   0.0000   0.0000   0.2483
  -8.800  -0.5134   0.08984   0.08783  -0.0089  1.0000  0.0138  -2.7038   0.0000   0.0000   0.0000   0.2277
  -8.700  -0.5167   0.08728   0.08529  -0.0102  1.0000  0.0139  -2.7821   0.0000   0.0000   0.0000   0.2253
  -8.600  -0.5178   0.08520   0.08322  -0.0114  1.0000  0.0141  -2.8236   0.0000   0.0000   0.0000   0.2231
  -8.500  -0.5182   0.08326   0.08129  -0.0127  1.0000  0.0142  -2.8545   0.0000   0.0000   0.0000   0.2208
  -8.400  -0.5183   0.08136   0.07940  -0.0139  1.0000  0.0143  -2.8814   0.0000   0.0000   0.0000   0.2185
  -8.300  -0.5183   0.07946   0.07751  -0.0152  1.0000  0.0143  -2.9074   0.0000   0.0000   0.0000   0.2159
  -8.200  -0.5180   0.07763   0.07569  -0.0166  1.0000  0.0144  -2.9277   0.0000   0.0000   0.0000   0.2134
  -7.400  -0.4960   0.05526   0.05327  -0.0432  1.0000  0.0149  -3.3169   0.0000   0.0000   0.0000   0.1586
  -7.300  -0.4922   0.05218   0.05012  -0.0461  1.0000  0.0150  -3.3800   0.0000   0.0000   0.0000   0.1522
  -7.200  -0.4883   0.04960   0.04748  -0.0482  1.0000  0.0152  -3.4195   0.0000   0.0000   0.0000   0.1472
  -7.100  -0.4842   0.04734   0.04515  -0.0497  1.0000  0.0153  -3.4449   0.0000   0.0000   0.0000   0.1431
  -7.000  -0.4800   0.04528   0.04300  -0.0509  1.0000  0.0155  -3.4620   0.0000   0.0000   0.0000   0.1397
  -6.900  -0.4758   0.04338   0.04102  -0.0518  1.0000  0.0157  -3.4743   0.0000   0.0000   0.0000   0.1369
  -6.800  -0.4717   0.04160   0.03916  -0.0524  1.0000  0.0159  -3.4841   0.0000   0.0000   0.0000   0.1347
  -6.700  -0.4674   0.03989   0.03736  -0.0528  1.0000  0.0161  -3.4933   0.0000   0.0000   0.0000   0.1329
  -6.400  -0.4567   0.02990   0.02662  -0.0532  1.0000  0.0128  -4.2206   0.0000   0.0000   0.0000   0.1290
  -6.300  -0.4539   0.02673   0.02318  -0.0533  1.0000  0.0121  -4.3989   0.0000   0.0000   0.0000   0.1280
  -6.200  -0.4482   0.02470   0.02091  -0.0532  1.0000  0.0119  -4.4902   0.0000   0.0000   0.0000   0.1269
  -6.100  -0.4414   0.02307   0.01908  -0.0529  1.0000  0.0118  -4.5396   0.0000   0.0000   0.0000   0.1256
  -6.000  -0.4340   0.02173   0.01756  -0.0526  1.0000  0.0118  -4.5566   0.0000   0.0000   0.0000   0.1243
  -5.900  -0.4261   0.02058   0.01626  -0.0523  1.0000  0.0118  -4.5496   0.0000   0.0000   0.0000   0.1227
  -5.800  -0.4162   0.01949   0.01501  -0.0523  0.9998  0.0118  -4.5217   0.0000   0.0000   0.0000   0.1197
  -5.700  -0.4020   0.01837   0.01372  -0.0532  0.9990  0.0118  -4.4680   0.0000   0.0000   0.0000   0.1131
  -5.600  -0.3876   0.01758   0.01280  -0.0540  0.9982  0.0120  -4.3765   0.0000   0.0000   0.0000   0.1061
  -5.500  -0.3730   0.01715   0.01229  -0.0548  0.9972  0.0125  -4.2466   0.0000   0.0000   0.0000   0.0985
  -5.400  -0.3583   0.01681   0.01188  -0.0556  0.9963  0.0129  -4.1099   0.0000   0.0000   0.0000   0.0902
  -5.300  -0.3434   0.01645   0.01144  -0.0564  0.9955  0.0131  -3.9789   0.0000   0.0000   0.0000   0.0811
  -5.200  -0.3287   0.01582   0.01071  -0.0572  0.9947  0.0132  -3.8749   0.0000   0.0000   0.0000   0.0712
  -5.100  -0.3141   0.01495   0.00972  -0.0580  0.9941  0.0132  -3.7974   0.0000   0.0000   0.0000   0.0606
  -5.000  -0.3003   0.01428   0.00897  -0.0585  0.9929  0.0133  -3.7067   0.0000   0.0000   0.0000   0.0502
  -4.900  -0.2863   0.01377   0.00839  -0.0592  0.9916  0.0134  -3.6012   0.0000   0.0000   0.0000   0.0384
  -4.800  -0.2722   0.01316   0.00771  -0.0598  0.9904  0.0136  -3.5072   0.0000   0.0000   0.0000   0.0253
  -4.700  -0.2587   0.01182   0.00624  -0.0604  0.9893  0.0142  -3.4862   0.0000   0.0000   0.0000   0.0112
  -4.600  -0.2444   0.01111   0.00546  -0.0612  0.9882  0.0151  -3.3991   0.0000   0.0000   0.0000  -0.0058
  -4.500  -0.2296   0.01076   0.00506  -0.0620  0.9870  0.0160  -3.2682   0.0000   0.0000   0.0000  -0.0256
  -4.400  -0.2146   0.01050   0.00478  -0.0629  0.9859  0.0169  -3.1455   0.0000   0.0000   0.0000  -0.0486
  -4.300  -0.1994   0.01026   0.00452  -0.0637  0.9849  0.0179  -3.0470   0.0000   0.0000   0.0000  -0.0755
  -4.200  -0.1840   0.01003   0.00426  -0.0646  0.9839  0.0191  -2.9489   0.0000   0.0000   0.0000  -0.1073
  -4.100  -0.1686   0.00987   0.00408  -0.0655  0.9830  0.0204  -2.8397   0.0000   0.0000   0.0000  -0.1451
  -4.000  -0.1534   0.00965   0.00383  -0.0664  0.9820  0.0220  -2.7370   0.0000   0.0000   0.0000  -0.1894
  -3.900  -0.1407   0.00926   0.00342  -0.0667  0.9792  0.0257  -2.6672   0.0000   0.0000   0.0000  -0.2311
  -3.800  -0.1272   0.00908   0.00323  -0.0672  0.9766  0.0288  -2.5681   0.0000   0.0000   0.0000  -0.2855
  -3.700  -0.1134   0.00896   0.00308  -0.0677  0.9743  0.0314  -2.4632   0.0000   0.0000   0.0000  -0.3551
  -3.600  -0.0994   0.00864   0.00279  -0.0683  0.9721  0.0418  -2.3745   0.0000   0.0000   0.0000  -0.4456
  -3.500  -0.0856   0.00838   0.00260  -0.0689  0.9701  0.0600  -2.2696   0.0000   0.0000   0.0000  -0.5647
  -3.400  -0.0723   0.00813   0.00247  -0.0694  0.9678  0.0863  -2.1591   0.0000   0.0000   0.0000  -0.7220
  -3.300  -0.0611   0.00793   0.00236  -0.0695  0.9635  0.1119  -2.0561   0.0000   0.0000   0.0000  -0.9001
  -3.200  -0.0492   0.00775   0.00226  -0.0697  0.9598  0.1376  -1.9514   0.0000   0.0000   0.0000  -1.1815
  -3.000  -0.0253   0.00742   0.00211  -0.0701  0.9532  0.1915  -1.7441   0.0000   0.0000   0.0000  -2.5429
  -2.800  -0.0037   0.00713   0.00198  -0.0699  0.9441  0.2448  -1.5518   0.0000   0.0000   0.0000  -18.6465
  -2.700   0.0074   0.00700   0.00192  -0.0698  0.9404  0.2692  -1.4564   0.0000   0.0000   0.0000   9.8143
  -2.600   0.0177   0.00688   0.00188  -0.0697  0.9349  0.2936  -1.3657   0.0000   0.0000   0.0000   4.2057
  -2.500   0.0283   0.00677   0.00183  -0.0695  0.9302  0.3185  -1.2755   0.0000   0.0000   0.0000   2.7199
  -2.400   0.0390   0.00666   0.00178  -0.0693  0.9258  0.3430  -1.1871   0.0000   0.0000   0.0000   2.0419
  -2.300   0.0495   0.00656   0.00173  -0.0692  0.9202  0.3673  -1.1099   0.0000   0.0000   0.0000   1.6575
  -2.200   0.0600   0.00646   0.00169  -0.0690  0.9153  0.3904  -1.0389   0.0000   0.0000   0.0000   1.4073
  -2.100   0.0705   0.00637   0.00166  -0.0688  0.9101  0.4141  -0.9688   0.0000   0.0000   0.0000   1.2308
  -2.000   0.0811   0.00629   0.00162  -0.0686  0.9045  0.4363  -0.8999   0.0000   0.0000   0.0000   1.1005
  -1.900   0.0916   0.00622   0.00159  -0.0684  0.8996  0.4565  -0.8323   0.0000   0.0000   0.0000   1.0001
  -1.800   0.1023   0.00615   0.00156  -0.0683  0.8936  0.4765  -0.7653   0.0000   0.0000   0.0000   0.9199
  -1.600   0.1236   0.00601   0.00151  -0.0679  0.8825  0.5188  -0.6441   0.0000   0.0000   0.0000   0.8012
  -1.500   0.1343   0.00594   0.00148  -0.0677  0.8763  0.5409  -0.5914   0.0000   0.0000   0.0000   0.7559
  -1.400   0.1448   0.00589   0.00146  -0.0675  0.8708  0.5625  -0.5396   0.0000   0.0000   0.0000   0.7173
  -1.300   0.1556   0.00582   0.00144  -0.0674  0.8643  0.5840  -0.4933   0.0000   0.0000   0.0000   0.6839
  -1.200   0.1662   0.00577   0.00142  -0.0672  0.8585  0.6049  -0.4519   0.0000   0.0000   0.0000   0.6548
  -1.100   0.1770   0.00571   0.00141  -0.0670  0.8520  0.6262  -0.4123   0.0000   0.0000   0.0000   0.6291
  -1.000   0.1876   0.00567   0.00139  -0.0668  0.8457  0.6475  -0.4122   0.0000   0.0000   0.0000   0.6064
  -0.900   0.1983   0.00561   0.00139  -0.0666  0.8393  0.6692  -0.4214   0.0000   0.0000   0.0000   0.5862
  -0.700   0.2194   0.00552   0.00137  -0.0662  0.8262  0.7134  -0.4405   0.0000   0.0000   0.0000   0.5515
  -0.600   0.2298   0.00548   0.00137  -0.0659  0.8192  0.7355  -0.4502   0.0000   0.0000   0.0000   0.5365
  -0.500   0.2402   0.00544   0.00137  -0.0656  0.8125  0.7579  -0.4601   0.0000   0.0000   0.0000   0.5228
  -0.400   0.2504   0.00540   0.00137  -0.0653  0.8052  0.7796  -0.4702   0.0000   0.0000   0.0000   0.5103
  -0.300   0.2606   0.00537   0.00137  -0.0649  0.7983  0.8014  -0.4803   0.0000   0.0000   0.0000   0.4987
  -0.200   0.2704   0.00533   0.00137  -0.0645  0.7908  0.8220  -0.4903   0.0000   0.0000   0.0000   0.4879
  -0.100   0.2802   0.00530   0.00136  -0.0641  0.7836  0.8427  -0.5009   0.0000   0.0000   0.0000   0.4779
   0.000   0.2896   0.00527   0.00136  -0.0635  0.7760  0.8631  -0.5111   0.0000   0.0000   0.0000   0.4685
   0.100   0.2987   0.00524   0.00135  -0.0629  0.7684  0.8847  -0.5218   0.0000   0.0000   0.0000   0.4597
   0.200   0.3071   0.00520   0.00133  -0.0621  0.7609  0.9082  -0.5322   0.0000   0.0000   0.0000   0.4511
   0.300   0.3162   0.00515   0.00131  -0.0614  0.7529  0.9369  -0.5430   0.0000   0.0000   0.0000   0.4431
   0.400   0.3308   0.00513   0.00126  -0.0620  0.7448  0.9814  -0.5574   0.0000   0.0000   0.0000   0.4363
   0.500   0.3432   0.00515   0.00125  -0.0623  0.7360  1.0000  -0.5708   0.0000   0.0000   0.0000   0.4301
   0.600   0.3545   0.00519   0.00124  -0.0623  0.7276  1.0000  -0.5837   0.0000   0.0000   0.0000   0.4243
   0.700   0.3657   0.00524   0.00124  -0.0622  0.7191  1.0000  -0.5968   0.0000   0.0000   0.0000   0.4188
   0.800   0.3769   0.00528   0.00124  -0.0622  0.7100  1.0000  -0.6107   0.0000   0.0000   0.0000   0.4136
   0.900   0.3881   0.00534   0.00124  -0.0622  0.7013  1.0000  -0.6247   0.0000   0.0000   0.0000   0.4087
   1.000   0.3993   0.00539   0.00125  -0.0622  0.6921  1.0000  -0.6387   0.0000   0.0000   0.0000   0.4041
   1.100   0.4105   0.00544   0.00125  -0.0622  0.6826  1.0000  -0.6534   0.0000   0.0000   0.0000   0.3997
   1.200   0.4217   0.00549   0.00126  -0.0621  0.6734  1.0000  -0.6685   0.0000   0.0000   0.0000   0.3956
   1.300   0.4328   0.00555   0.00127  -0.0621  0.6639  1.0000  -0.6837   0.0000   0.0000   0.0000   0.3917
   1.400   0.4440   0.00561   0.00128  -0.0621  0.6542  1.0000  -0.6989   0.0000   0.0000   0.0000   0.3880
   1.500   0.4551   0.00567   0.00131  -0.0621  0.6446  1.0000  -0.7147   0.0000   0.0000   0.0000   0.3844
   1.700   0.4774   0.00579   0.00134  -0.0620  0.6248  1.0000  -0.7479   0.0000   0.0000   0.0000   0.3778
   1.800   0.4885   0.00586   0.00136  -0.0620  0.6147  1.0000  -0.7647   0.0000   0.0000   0.0000   0.3748
   1.900   0.4995   0.00593   0.00138  -0.0620  0.6047  1.0000  -0.7829   0.0000   0.0000   0.0000   0.3718
   2.000   0.5106   0.00600   0.00141  -0.0620  0.5945  1.0000  -0.8012   0.0000   0.0000   0.0000   0.3690
   2.100   0.5217   0.00606   0.00143  -0.0619  0.5842  1.0000  -0.8196   0.0000   0.0000   0.0000   0.3664
   2.200   0.5328   0.00614   0.00146  -0.0619  0.5740  1.0000  -0.8381   0.0000   0.0000   0.0000   0.3638
   2.300   0.5438   0.00621   0.00149  -0.0619  0.5641  1.0000  -0.8584   0.0000   0.0000   0.0000   0.3613
   2.400   0.5549   0.00629   0.00153  -0.0619  0.5536  1.0000  -0.8789   0.0000   0.0000   0.0000   0.3589
   2.500   0.5660   0.00636   0.00158  -0.0619  0.5433  1.0000  -0.8995   0.0000   0.0000   0.0000   0.3566
   2.600   0.5770   0.00644   0.00162  -0.0618  0.5333  1.0000  -0.9206   0.0000   0.0000   0.0000   0.3544
   2.700   0.5880   0.00653   0.00166  -0.0618  0.5231  1.0000  -0.9436   0.0000   0.0000   0.0000   0.3523
   2.800   0.5991   0.00660   0.00170  -0.0618  0.5124  1.0000  -0.9669   0.0000   0.0000   0.0000   0.3503
   2.900   0.6101   0.00669   0.00174  -0.0618  0.5020  1.0000  -0.9903   0.0000   0.0000   0.0000   0.3483
   3.000   0.6211   0.00677   0.00179  -0.0618  0.4918  1.0000  -1.0156   0.0000   0.0000   0.0000   0.3464
   3.100   0.6320   0.00687   0.00184  -0.0617  0.4815  1.0000  -1.0423   0.0000   0.0000   0.0000   0.3446
   3.200   0.6431   0.00695   0.00189  -0.0617  0.4709  1.0000  -1.0692   0.0000   0.0000   0.0000   0.3428
   3.300   0.6541   0.00704   0.00194  -0.0617  0.4607  1.0000  -1.0966   0.0000   0.0000   0.0000   0.3411
   3.400   0.6650   0.00713   0.00199  -0.0617  0.4506  1.0000  -1.1280   0.0000   0.0000   0.0000   0.3394
   3.600   0.6869   0.00732   0.00213  -0.0616  0.4296  1.0000  -1.1914   0.0000   0.0000   0.0000   0.3362
   3.700   0.6978   0.00741   0.00219  -0.0616  0.4194  1.0000  -1.2254   0.0000   0.0000   0.0000   0.3347
   3.800   0.7087   0.00752   0.00225  -0.0616  0.4091  1.0000  -1.2633   0.0000   0.0000   0.0000   0.3333
   4.000   0.7304   0.00773   0.00239  -0.0615  0.3877  1.0000  -1.3401   0.0000   0.0000   0.0000   0.3304
   4.100   0.7413   0.00783   0.00246  -0.0615  0.3773  1.0000  -1.3846   0.0000   0.0000   0.0000   0.3291
   4.200   0.7521   0.00794   0.00253  -0.0615  0.3666  1.0000  -1.4309   0.0000   0.0000   0.0000   0.3278
   4.300   0.7629   0.00806   0.00261  -0.0614  0.3559  1.0000  -1.4776   0.0000   0.0000   0.0000   0.3265
   4.400   0.7737   0.00818   0.00269  -0.0614  0.3448  1.0000  -1.5377   0.0000   0.0000   0.0000   0.3252
   4.500   0.7845   0.00829   0.00277  -0.0614  0.3339  1.0000  -1.6031   0.0000   0.0000   0.0000   0.3240
   4.600   0.7952   0.00841   0.00288  -0.0613  0.3228  1.0000  -1.6910   0.0000   0.0000   0.0000   0.3228
   4.700   0.8059   0.00854   0.00297  -0.0613  0.3120  1.0000  -1.7817   0.0000   0.0000   0.0000   0.3216
   4.900   0.8273   0.00880   0.00315  -0.0612  0.2897  1.0000  -1.9665   0.0000   0.0000   0.0000   0.3194
   5.000   0.8379   0.00894   0.00325  -0.0611  0.2781  1.0000  -2.0608   0.0000   0.0000   0.0000   0.3183
   5.100   0.8485   0.00908   0.00335  -0.0611  0.2669  1.0000  -2.1680   0.0000   0.0000   0.0000   0.3172
   5.200   0.8591   0.00923   0.00346  -0.0610  0.2559  1.0000  -2.2804   0.0000   0.0000   0.0000   0.3162
   5.300   0.8696   0.00939   0.00357  -0.0610  0.2443  1.0000  -2.3943   0.0000   0.0000   0.0000   0.3152
   5.500   0.8906   0.00970   0.00380  -0.0609  0.2209  1.0000  -2.6274   0.0000   0.0000   0.0000   0.3132
   5.600   0.9011   0.00986   0.00393  -0.0608  0.2102  1.0000  -2.7466   0.0000   0.0000   0.0000   0.3122
   5.700   0.9115   0.01003   0.00405  -0.0607  0.1990  1.0000  -2.8670   0.0000   0.0000   0.0000   0.3113
   5.800   0.9218   0.01022   0.00421  -0.0607  0.1867  1.0000  -2.9904   0.0000   0.0000   0.0000   0.3104
   5.900   0.9320   0.01041   0.00435  -0.0606  0.1742  1.0000  -3.1149   0.0000   0.0000   0.0000   0.3095
   6.000   0.9422   0.01061   0.00450  -0.0605  0.1623  1.0000  -3.2395   0.0000   0.0000   0.0000   0.3086
   6.200   0.9626   0.01100   0.00480  -0.0603  0.1398  1.0000  -3.4931   0.0000   0.0000   0.0000   0.3068
   6.300   0.9728   0.01120   0.00496  -0.0602  0.1294  1.0000  -3.6219   0.0000   0.0000   0.0000   0.3060
   6.400   0.9829   0.01141   0.00512  -0.0601  0.1186  1.0000  -3.7513   0.0000   0.0000   0.0000   0.3051
   6.500   0.9928   0.01165   0.00530  -0.0600  0.1074  1.0000  -3.8813   0.0000   0.0000   0.0000   0.3043
   6.600   1.0027   0.01189   0.00549  -0.0599  0.0961  1.0000  -4.0120   0.0000   0.0000   0.0000   0.3035
   6.700   1.0125   0.01215   0.00568  -0.0598  0.0853  1.0000  -4.1436   0.0000   0.0000   0.0000   0.3026
   6.800   1.0224   0.01238   0.00587  -0.0597  0.0755  1.0000  -4.2769   0.0000   0.0000   0.0000   0.3018
   6.900   1.0322   0.01263   0.00608  -0.0595  0.0660  1.0000  -4.4102   0.0000   0.0000   0.0000   0.3010
   7.000   1.0418   0.01291   0.00631  -0.0594  0.0571  1.0000  -4.5431   0.0000   0.0000   0.0000   0.3003
   7.100   1.0513   0.01321   0.00655  -0.0592  0.0483  1.0000  -4.6751   0.0000   0.0000   0.0000   0.2995
   7.200   1.0611   0.01346   0.00678  -0.0590  0.0416  1.0000  -4.8085   0.0000   0.0000   0.0000   0.2987
   7.300   1.0705   0.01377   0.00706  -0.0588  0.0345  1.0000  -4.9368   0.0000   0.0000   0.0000   0.2979
   7.400   1.0796   0.01414   0.00740  -0.0586  0.0280  1.0000  -5.0585   0.0000   0.0000   0.0000   0.2971
   7.500   1.0892   0.01443   0.00772  -0.0584  0.0237  1.0000  -5.1792   0.0000   0.0000   0.0000   0.2963
   7.600   1.0983   0.01480   0.00805  -0.0581  0.0198  1.0000  -5.2978   0.0000   0.0000   0.0000   0.2955
   7.700   1.1070   0.01526   0.00854  -0.0577  0.0166  1.0000  -5.3924   0.0000   0.0000   0.0000   0.2946
   7.800   1.1168   0.01547   0.00878  -0.0576  0.0153  1.0000  -5.5214   0.0000   0.0000   0.0000   0.2939
   7.900   1.1263   0.01575   0.00908  -0.0573  0.0139  1.0000  -5.6425   0.0000   0.0000   0.0000   0.2931
   8.000   1.1352   0.01612   0.00945  -0.0571  0.0127  1.0000  -5.7566   0.0000   0.0000   0.0000   0.2923
   8.100   1.1424   0.01681   0.01022  -0.0565  0.0112  1.0000  -5.8495   0.0000   0.0000   0.0000   0.2914
   8.200   1.1500   0.01741   0.01089  -0.0559  0.0106  1.0000  -5.9544   0.0000   0.0000   0.0000   0.2905
   8.300   1.1594   0.01768   0.01120  -0.0557  0.0103  1.0000  -6.1048   0.0000   0.0000   0.0000   0.2898
   8.400   1.1684   0.01800   0.01156  -0.0554  0.0099  1.0000  -6.2487   0.0000   0.0000   0.0000   0.2890
   8.500   1.1771   0.01836   0.01197  -0.0551  0.0095  1.0000  -6.3883   0.0000   0.0000   0.0000   0.2883
   8.600   1.1856   0.01874   0.01240  -0.0547  0.0092  1.0000  -6.5259   0.0000   0.0000   0.0000   0.2875
   8.700   1.1940   0.01915   0.01285  -0.0544  0.0088  1.0000  -6.6631   0.0000   0.0000   0.0000   0.2867
   8.800   1.2022   0.01956   0.01330  -0.0540  0.0085  1.0000  -6.8007   0.0000   0.0000   0.0000   0.2860
   8.900   1.2103   0.01998   0.01377  -0.0536  0.0083  1.0000  -6.9390   0.0000   0.0000   0.0000   0.2852
   9.000   1.2182   0.02043   0.01425  -0.0532  0.0080  1.0000  -7.0770   0.0000   0.0000   0.0000   0.2845
   9.100   1.2258   0.02090   0.01476  -0.0527  0.0078  1.0000  -7.2128   0.0000   0.0000   0.0000   0.2837
   9.200   1.2330   0.02142   0.01533  -0.0523  0.0076  1.0000  -7.3433   0.0000   0.0000   0.0000   0.2829
   9.300   1.2397   0.02200   0.01596  -0.0517  0.0074  1.0000  -7.4655   0.0000   0.0000   0.0000   0.2821
   9.400   1.2459   0.02267   0.01669  -0.0511  0.0073  1.0000  -7.5767   0.0000   0.0000   0.0000   0.2813
   9.500   1.2513   0.02342   0.01754  -0.0504  0.0071  1.0000  -7.6752   0.0000   0.0000   0.0000   0.2805
   9.600   1.2560   0.02429   0.01848  -0.0496  0.0070  1.0000  -7.7608   0.0000   0.0000   0.0000   0.2796
   9.700   1.2596   0.02533   0.01961  -0.0487  0.0068  1.0000  -7.8270   0.0000   0.0000   0.0000   0.2786
   9.800   1.2618   0.02662   0.02101  -0.0477  0.0067  1.0000  -7.8643   0.0000   0.0000   0.0000   0.2776
   9.900   1.2623   0.02828   0.02281  -0.0465  0.0065  1.0000  -7.8622   0.0000   0.0000   0.0000   0.2765
  10.000   1.2677   0.02899   0.02359  -0.0458  0.0064  1.0000  -7.9728   0.0000   0.0000   0.0000   0.2757
  10.100   1.2754   0.02925   0.02390  -0.0455  0.0064  1.0000  -8.1377   0.0000   0.0000   0.0000   0.2751
  10.200   1.2824   0.02962   0.02433  -0.0450  0.0063  1.0000  -8.2890   0.0000   0.0000   0.0000   0.2744
  10.300   1.2886   0.03011   0.02488  -0.0445  0.0062  1.0000  -8.4270   0.0000   0.0000   0.0000   0.2737
  10.400   1.2939   0.03071   0.02555  -0.0439  0.0061  1.0000  -8.5500   0.0000   0.0000   0.0000   0.2729
  10.500   1.2983   0.03145   0.02636  -0.0432  0.0060  1.0000  -8.6535   0.0000   0.0000   0.0000   0.2721
  10.600   1.3019   0.03226   0.02726  -0.0424  0.0060  1.0000  -8.7446   0.0000   0.0000   0.0000   0.2713
  10.700   1.3051   0.03311   0.02820  -0.0416  0.0060  1.0000  -8.8302   0.0000   0.0000   0.0000   0.2705
  10.800   1.3077   0.03399   0.02916  -0.0408  0.0059  1.0000  -8.9101   0.0000   0.0000   0.0000   0.2696
  10.900   1.3096   0.03489   0.03015  -0.0399  0.0059  1.0000  -8.9834   0.0000   0.0000   0.0000   0.2688
  11.000   1.3101   0.03577   0.03112  -0.0388  0.0058  1.0000  -9.0454   0.0000   0.0000   0.0000   0.2678
  11.100   1.3099   0.03669   0.03211  -0.0376  0.0058  1.0000  -9.1009   0.0000   0.0000   0.0000   0.2668
  11.200   1.3091   0.03763   0.03315  -0.0365  0.0058  1.0000  -9.1504   0.0000   0.0000   0.0000   0.2658
  11.300   1.3078   0.03863   0.03422  -0.0355  0.0058  1.0000  -9.1943   0.0000   0.0000   0.0000   0.2649
  11.400   1.3060   0.03967   0.03536  -0.0345  0.0057  1.0000  -9.2329   0.0000   0.0000   0.0000   0.2640
  11.500   1.3038   0.04077   0.03654  -0.0336  0.0057  1.0000  -9.2663   0.0000   0.0000   0.0000   0.2632
  11.600   1.3012   0.04194   0.03780  -0.0328  0.0057  1.0000  -9.2947   0.0000   0.0000   0.0000   0.2625
  11.700   1.2982   0.04318   0.03913  -0.0321  0.0057  1.0000  -9.3184   0.0000   0.0000   0.0000   0.2619
  11.800   1.2949   0.04450   0.04053  -0.0315  0.0057  1.0000  -9.3370   0.0000   0.0000   0.0000   0.2614
  11.900   1.2912   0.04590   0.04202  -0.0311  0.0056  1.0000  -9.3508   0.0000   0.0000   0.0000   0.2610
  12.000   1.2872   0.04739   0.04360  -0.0309  0.0056  1.0000  -9.3597   0.0000   0.0000   0.0000   0.2607
  12.100   1.2829   0.04898   0.04527  -0.0308  0.0056  1.0000  -9.3635   0.0000   0.0000   0.0000   0.2606
  12.200   1.2783   0.05067   0.04705  -0.0308  0.0056  1.0000  -9.3625   0.0000   0.0000   0.0000   0.2606
  12.300   1.2734   0.05246   0.04893  -0.0311  0.0056  1.0000  -9.3563   0.0000   0.0000   0.0000   0.2607
  12.400   1.2681   0.05437   0.05092  -0.0315  0.0056  1.0000  -9.3450   0.0000   0.0000   0.0000   0.2609
  12.500   1.2627   0.05640   0.05304  -0.0321  0.0056  1.0000  -9.3286   0.0000   0.0000   0.0000   0.2614
  12.600   1.2569   0.05855   0.05527  -0.0329  0.0056  1.0000  -9.3070   0.0000   0.0000   0.0000   0.2619
  12.700   1.2508   0.06082   0.05763  -0.0338  0.0056  1.0000  -9.2800   0.0000   0.0000   0.0000   0.2626
  12.800   1.2445   0.06323   0.06011  -0.0349  0.0056  1.0000  -9.2478   0.0000   0.0000   0.0000   0.2635
  12.900   1.2379   0.06577   0.06274  -0.0362  0.0056  1.0000  -9.2102   0.0000   0.0000   0.0000   0.2645
  13.000   1.2311   0.06845   0.06549  -0.0376  0.0056  1.0000  -9.1671   0.0000   0.0000   0.0000   0.2657
  13.100   1.2240   0.07124   0.06835  -0.0392  0.0056  1.0000  -9.1186   0.0000   0.0000   0.0000   0.2670
  13.200   1.2166   0.07416   0.07135  -0.0409  0.0056  1.0000  -9.0646   0.0000   0.0000   0.0000   0.2684
  13.300   1.2091   0.07721   0.07448  -0.0427  0.0056  1.0000  -9.0051   0.0000   0.0000   0.0000   0.2700
  13.400   1.2014   0.08039   0.07772  -0.0447  0.0056  1.0000  -8.9400   0.0000   0.0000   0.0000   0.2716
  13.500   1.1934   0.08368   0.08107  -0.0467  0.0057  1.0000  -8.8692   0.0000   0.0000   0.0000   0.2734
  13.600   1.1852   0.08706   0.08453  -0.0488  0.0057  1.0000  -8.7926   0.0000   0.0000   0.0000   0.2753
  13.700   1.1768   0.09056   0.08809  -0.0509  0.0057  1.0000  -8.7102   0.0000   0.0000   0.0000   0.2773
  13.800   1.1683   0.09418   0.09176  -0.0531  0.0057  1.0000  -8.6215   0.0000   0.0000   0.0000   0.2794
  13.900   1.1596   0.09789   0.09554  -0.0554  0.0058  1.0000  -8.5263   0.0000   0.0000   0.0000   0.2815
  14.000   1.1507   0.10173   0.09943  -0.0577  0.0058  1.0000  -8.4241   0.0000   0.0000   0.0000   0.2838
  14.100   1.1417   0.10566   0.10341  -0.0600  0.0058  1.0000  -8.3145   0.0000   0.0000   0.0000   0.2861
  14.200   1.1325   0.10972   0.10752  -0.0624  0.0059  1.0000  -8.1960   0.0000   0.0000   0.0000   0.2886
  14.300   1.1231   0.11391   0.11176  -0.0649  0.0059  1.0000  -8.0679   0.0000   0.0000   0.0000   0.2912
  14.400   1.1135   0.11827   0.11616  -0.0674  0.0060  1.0000  -7.9275   0.0000   0.0000   0.0000   0.2939
  14.500   1.1036   0.12279   0.12074  -0.0700  0.0060  1.0000  -7.7729   0.0000   0.0000   0.0000   0.2967
  14.600   1.0933   0.12750   0.12548  -0.0726  0.0061  1.0000  -7.6008   0.0000   0.0000   0.0000   0.2997
  14.700   1.0823   0.13249   0.13051  -0.0754  0.0061  1.0000  -7.4029   0.0000   0.0000   0.0000   0.3030
  14.800   1.0703   0.13791   0.13597  -0.0784  0.0062  1.0000  -7.1667   0.0000   0.0000   0.0000   0.3065
  14.900   1.0559   0.14416   0.14226  -0.0817  0.0063  1.0000  -6.8542   0.0000   0.0000   0.0000   0.3108
  21.000   0.7537   0.24716   0.24541  -0.0979  0.0087  1.0000  -1.3814   0.0000   0.0000   0.0000   0.3629
  21.100   0.7548   0.24850   0.24674  -0.0984  0.0086  1.0000  -1.3839   0.0000   0.0000   0.0000   0.3632
  21.200   0.7559   0.24982   0.24807  -0.0989  0.0084  1.0000  -1.3873   0.0000   0.0000   0.0000   0.3635
  21.300   0.7570   0.25114   0.24939  -0.0993  0.0083  1.0000  -1.3916   0.0000   0.0000   0.0000   0.3638
  21.400   0.7582   0.25245   0.25070  -0.0998  0.0082  1.0000  -1.3968   0.0000   0.0000   0.0000   0.3641
  21.500   0.7593   0.25375   0.25200  -0.1003  0.0080  1.0000  -1.4029   0.0000   0.0000   0.0000   0.3644
  21.600   0.7605   0.25504   0.25330  -0.1008  0.0079  1.0000  -1.4098   0.0000   0.0000   0.0000   0.3647
  21.700   0.7616   0.25632   0.25460  -0.1013  0.0078  1.0000  -1.4185   0.0000   0.0000   0.0000   0.3650
  21.800   0.7628   0.25760   0.25588  -0.1017  0.0077  1.0000  -1.4275   0.0000   0.0000   0.0000   0.3652
  21.900   0.7640   0.25887   0.25715  -0.1022  0.0076  1.0000  -1.4373   0.0000   0.0000   0.0000   0.3655
  22.000   0.7652   0.26012   0.25840  -0.1027  0.0075  1.0000  -1.4481   0.0000   0.0000   0.0000   0.3658
  22.100   0.7664   0.26137   0.25965  -0.1031  0.0074  1.0000  -1.4599   0.0000   0.0000   0.0000   0.3660
  22.200   0.7676   0.26260   0.26089  -0.1036  0.0073  1.0000  -1.4730   0.0000   0.0000   0.0000   0.3662
  22.300   0.7688   0.26383   0.26212  -0.1040  0.0073  1.0000  -1.4874   0.0000   0.0000   0.0000   0.3664
  22.400   0.7700   0.26504   0.26333  -0.1045  0.0072  1.0000  -1.5033   0.0000   0.0000   0.0000   0.3667
  22.500   0.7712   0.26623   0.26453  -0.1049  0.0071  1.0000  -1.5209   0.0000   0.0000   0.0000   0.3668
  22.600   0.7725   0.26742   0.26572  -0.1053  0.0070  1.0000  -1.5403   0.0000   0.0000   0.0000   0.3670
  22.700   0.7737   0.26859   0.26689  -0.1058  0.0070  1.0000  -1.5617   0.0000   0.0000   0.0000   0.3671
  22.800   0.7750   0.26975   0.26806  -0.1062  0.0069  1.0000  -1.5855   0.0000   0.0000   0.0000   0.3673
  22.900   0.7764   0.27090   0.26921  -0.1065  0.0068  1.0000  -1.6131   0.0000   0.0000   0.0000   0.3673
  23.000   0.7778   0.27203   0.27034  -0.1068  0.0068  1.0000  -1.6472   0.0000   0.0000   0.0000   0.3673
  23.100   0.7795   0.27319   0.27151  -0.1071  0.0067  1.0000  -1.6913   0.0000   0.0000   0.0000   0.3670
  23.200   0.7796   0.27595   0.27426  -0.1072  0.0065  1.0000  -1.6444   0.0000   0.0000   0.0000   0.3671
  23.300   0.7805   0.27736   0.27567  -0.1078  0.0065  1.0000  -1.6350   0.0000   0.0000   0.0000   0.3675
  23.400   0.7814   0.27877   0.27708  -0.1083  0.0065  1.0000  -1.6244   0.0000   0.0000   0.0000   0.3679
  23.500   0.7823   0.28016   0.27848  -0.1088  0.0064  1.0000  -1.6132   0.0000   0.0000   0.0000   0.3683
  23.600   0.7832   0.28156   0.27987  -0.1094  0.0064  1.0000  -1.6016   0.0000   0.0000   0.0000   0.3687
  23.700   0.7841   0.28296   0.28127  -0.1099  0.0064  1.0000  -1.5896   0.0000   0.0000   0.0000   0.3691
  23.800   0.7850   0.28436   0.28268  -0.1105  0.0064  1.0000  -1.5775   0.0000   0.0000   0.0000   0.3695
  23.900   0.7859   0.28576   0.28408  -0.1110  0.0064  1.0000  -1.5644   0.0000   0.0000   0.0000   0.3698
  24.000   0.7867   0.28720   0.28553  -0.1116  0.0064  1.0000  -1.5421   0.0000   0.0000   0.0000   0.3703
  24.100   0.7874   0.28866   0.28699  -0.1122  0.0064  1.0000  -1.5160   0.0000   0.0000   0.0000   0.3709
  24.200   0.7882   0.29014   0.28846  -0.1128  0.0063  1.0000  -1.4864   0.0000   0.0000   0.0000   0.3714
  24.300   0.7890   0.29164   0.28996  -0.1135  0.0063  1.0000  -1.4509   0.0000   0.0000   0.0000   0.3720
  24.400   0.7899   0.29320   0.29153  -0.1141  0.0061  1.0000  -1.4053   0.0000   0.0000   0.0000   0.3725
  24.500   0.7911   0.29484   0.29317  -0.1147  0.0059  1.0000  -1.3587   0.0000   0.0000   0.0000   0.3729
  24.600   0.7923   0.29638   0.29471  -0.1152  0.0057  1.0000  -1.3307   0.0000   0.0000   0.0000   0.3732
  24.700   0.7934   0.29784   0.29617  -0.1157  0.0055  1.0000  -1.3133   0.0000   0.0000   0.0000   0.3735
  24.800   0.7944   0.29926   0.29760  -0.1162  0.0054  1.0000  -1.3007   0.0000   0.0000   0.0000   0.3738
  24.900   0.7955   0.30068   0.29902  -0.1167  0.0052  1.0000  -1.2910   0.0000   0.0000   0.0000   0.3740
  25.000   0.7965   0.30208   0.30042  -0.1172  0.0051  1.0000  -1.2834   0.0000   0.0000   0.0000   0.3743
  25.100   0.7975   0.30347   0.30182  -0.1176  0.0050  1.0000  -1.2773   0.0000   0.0000   0.0000   0.3745
  25.200   0.7985   0.30485   0.30320  -0.1181  0.0049  1.0000  -1.2726   0.0000   0.0000   0.0000   0.3747
  25.300   0.7995   0.30622   0.30457  -0.1186  0.0048  1.0000  -1.2693   0.0000   0.0000   0.0000   0.3750
  25.400   0.8006   0.30758   0.30593  -0.1191  0.0047  1.0000  -1.2671   0.0000   0.0000   0.0000   0.3752
  25.500   0.8015   0.30893   0.30729  -0.1196  0.0046  1.0000  -1.2662   0.0000   0.0000   0.0000   0.3755
  25.600   0.8025   0.31027   0.30863  -0.1200  0.0045  1.0000  -1.2663   0.0000   0.0000   0.0000   0.3757
  25.700   0.8035   0.31160   0.30997  -0.1205  0.0044  1.0000  -1.2677   0.0000   0.0000   0.0000   0.3759
  25.800   0.8045   0.31293   0.31129  -0.1210  0.0044  1.0000  -1.2703   0.0000   0.0000   0.0000   0.3761
  25.900   0.8055   0.31424   0.31261  -0.1215  0.0043  1.0000  -1.2741   0.0000   0.0000   0.0000   0.3763
  26.000   0.8064   0.31553   0.31392  -0.1219  0.0043  1.0000  -1.2791   0.0000   0.0000   0.0000   0.3766
  26.100   0.8074   0.31683   0.31522  -0.1224  0.0042  1.0000  -1.2856   0.0000   0.0000   0.0000   0.3768
  26.200   0.8083   0.31811   0.31651  -0.1229  0.0041  1.0000  -1.2936   0.0000   0.0000   0.0000   0.3770
  26.300   0.8093   0.31938   0.31778  -0.1233  0.0041  1.0000  -1.3031   0.0000   0.0000   0.0000   0.3772
  26.400   0.8102   0.32064   0.31904  -0.1238  0.0041  1.0000  -1.3144   0.0000   0.0000   0.0000   0.3774
  26.500   0.8111   0.32189   0.32029  -0.1243  0.0040  1.0000  -1.3276   0.0000   0.0000   0.0000   0.3775
  26.600   0.8120   0.32314   0.32154  -0.1247  0.0040  1.0000  -1.3430   0.0000   0.0000   0.0000   0.3777
  26.700   0.8129   0.32437   0.32278  -0.1251  0.0039  1.0000  -1.3607   0.0000   0.0000   0.0000   0.3778
  26.800   0.8139   0.32562   0.32403  -0.1255  0.0039  1.0000  -1.3814   0.0000   0.0000   0.0000   0.3779
  26.900   0.8149   0.32691   0.32533  -0.1259  0.0039  1.0000  -1.4061   0.0000   0.0000   0.0000   0.3779


