xflr5 v6.61

 Calculated polar for: AG24

 1 1 Reynolds number fixed          Mach number fixed         

 xtrf =   1.000 (top)        1.000 (bottom)
 Mach =   0.000     Re =     0.300 e 6     Ncrit =   9.000

  alpha     CL        CD       CDp       Cm    Top Xtr Bot Xtr   Cpmin    Chinge    XCp    
 ------- -------- --------- --------- -------- ------- ------- -------- --------- ---------
 -10.000  -0.3947   0.10530   0.10256  -0.0094  1.0000  0.0264  -1.6140   0.0000   0.0000   0.0000   0.2222
  -9.900  -0.3943   0.10372   0.10099  -0.0099  1.0000  0.0267  -1.6278   0.0000   0.0000   0.0000   0.2210
  -9.800  -0.3941   0.10212   0.09940  -0.0104  1.0000  0.0271  -1.6434   0.0000   0.0000   0.0000   0.2198
  -9.700  -0.3940   0.10048   0.09776  -0.0109  1.0000  0.0275  -1.6611   0.0000   0.0000   0.0000   0.2184
  -9.600  -0.3939   0.09880   0.09609  -0.0115  1.0000  0.0279  -1.6813   0.0000   0.0000   0.0000   0.2170
  -9.500  -0.3940   0.09710   0.09439  -0.0121  1.0000  0.0283  -1.7046   0.0000   0.0000   0.0000   0.2155
  -9.400  -0.3944   0.09535   0.09266  -0.0128  1.0000  0.0287  -1.7322   0.0000   0.0000   0.0000   0.2138
  -9.300  -0.3949   0.09355   0.09086  -0.0136  1.0000  0.0292  -1.7659   0.0000   0.0000   0.0000   0.2118
  -9.200  -0.3958   0.09168   0.08900  -0.0146  1.0000  0.0297  -1.8087   0.0000   0.0000   0.0000   0.2094
  -9.100  -0.3969   0.08978   0.08712  -0.0158  1.0000  0.0302  -1.8623   0.0000   0.0000   0.0000   0.2064
  -9.000  -0.3980   0.08791   0.08526  -0.0172  1.0000  0.0306  -1.9191   0.0000   0.0000   0.0000   0.2030
  -8.900  -0.3984   0.08614   0.08350  -0.0184  1.0000  0.0309  -1.9627   0.0000   0.0000   0.0000   0.2001
  -8.800  -0.3985   0.08439   0.08176  -0.0194  1.0000  0.0310  -1.9968   0.0000   0.0000   0.0000   0.1977
  -8.700  -0.3988   0.08257   0.07995  -0.0203  1.0000  0.0311  -2.0300   0.0000   0.0000   0.0000   0.1954
  -8.600  -0.3993   0.08070   0.07809  -0.0213  1.0000  0.0312  -2.0634   0.0000   0.0000   0.0000   0.1931
  -8.500  -0.4000   0.07879   0.07618  -0.0222  1.0000  0.0312  -2.0977   0.0000   0.0000   0.0000   0.1909
  -8.400  -0.4009   0.07683   0.07424  -0.0232  1.0000  0.0313  -2.1331   0.0000   0.0000   0.0000   0.1885
  -8.300  -0.4019   0.07483   0.07225  -0.0242  1.0000  0.0313  -2.1700   0.0000   0.0000   0.0000   0.1861
  -8.200  -0.4032   0.07279   0.07022  -0.0253  1.0000  0.0313  -2.2086   0.0000   0.0000   0.0000   0.1836
  -8.100  -0.4046   0.07069   0.06813  -0.0265  1.0000  0.0313  -2.2494   0.0000   0.0000   0.0000   0.1810
  -8.000  -0.4064   0.06853   0.06598  -0.0278  1.0000  0.0314  -2.2931   0.0000   0.0000   0.0000   0.1781
  -7.900  -0.4085   0.06629   0.06376  -0.0293  1.0000  0.0314  -2.3406   0.0000   0.0000   0.0000   0.1749
  -7.800  -0.4110   0.06395   0.06142  -0.0310  1.0000  0.0314  -2.3937   0.0000   0.0000   0.0000   0.1711
  -7.700  -0.4143   0.06138   0.05888  -0.0333  1.0000  0.0314  -2.4565   0.0000   0.0000   0.0000   0.1663
  -7.600  -0.4178   0.05812   0.05561  -0.0374  1.0000  0.0314  -2.5426   0.0000   0.0000   0.0000   0.1569
  -7.500  -0.4201   0.05527   0.05270  -0.0408  1.0000  0.0314  -2.6126   0.0000   0.0000   0.0000   0.1494
  -7.400  -0.4221   0.05283   0.05020  -0.0429  1.0000  0.0314  -2.6682   0.0000   0.0000   0.0000   0.1451
  -7.300  -0.4236   0.05051   0.04783  -0.0445  1.0000  0.0314  -2.7181   0.0000   0.0000   0.0000   0.1415
  -7.200  -0.4340   0.04558   0.04286  -0.0469  1.0000  0.0317  -2.8651   0.0000   0.0000   0.0000   0.1385
  -7.100  -0.4405   0.04166   0.03890  -0.0483  1.0000  0.0322  -2.9460   0.0000   0.0000   0.0000   0.1371
  -7.000  -0.4418   0.03923   0.03645  -0.0488  1.0000  0.0326  -2.9621   0.0000   0.0000   0.0000   0.1362
  -6.900  -0.4388   0.03794   0.03518  -0.0485  1.0000  0.0330  -2.9144   0.0000   0.0000   0.0000   0.1362
  -6.800  -0.4357   0.03687   0.03413  -0.0482  1.0000  0.0334  -2.8652   0.0000   0.0000   0.0000   0.1362
  -6.700  -0.4331   0.03574   0.03299  -0.0480  1.0000  0.0337  -2.8283   0.0000   0.0000   0.0000   0.1360
  -6.600  -0.4306   0.03452   0.03176  -0.0480  1.0000  0.0342  -2.8013   0.0000   0.0000   0.0000   0.1356
  -6.500  -0.4284   0.03324   0.03045  -0.0479  1.0000  0.0346  -2.7823   0.0000   0.0000   0.0000   0.1352
  -6.400  -0.4261   0.03197   0.02915  -0.0478  1.0000  0.0351  -2.7659   0.0000   0.0000   0.0000   0.1349
  -6.300  -0.4239   0.03064   0.02777  -0.0477  1.0000  0.0356  -2.7565   0.0000   0.0000   0.0000   0.1345
  -6.200  -0.4216   0.02928   0.02635  -0.0477  1.0000  0.0362  -2.7527   0.0000   0.0000   0.0000   0.1341
  -6.100  -0.4190   0.02801   0.02502  -0.0475  1.0000  0.0370  -2.7451   0.0000   0.0000   0.0000   0.1336
  -6.000  -0.4159   0.02678   0.02370  -0.0474  1.0000  0.0383  -2.7402   0.0000   0.0000   0.0000   0.1331
  -5.400  -0.3778   0.02231   0.01682  -0.0524  1.0000  0.0223  -3.7094   0.0000   0.0000   0.0000   0.1071
  -5.300  -0.3687   0.02191   0.01632  -0.0519  1.0000  0.0219  -3.6525   0.0000   0.0000   0.0000   0.1050
  -5.200  -0.3598   0.02148   0.01581  -0.0515  1.0000  0.0216  -3.5871   0.0000   0.0000   0.0000   0.1027
  -5.100  -0.3508   0.02097   0.01521  -0.0511  1.0000  0.0215  -3.5234   0.0000   0.0000   0.0000   0.1001
  -5.000  -0.3417   0.02035   0.01450  -0.0508  1.0000  0.0213  -3.4652   0.0000   0.0000   0.0000   0.0972
  -4.900  -0.3324   0.01958   0.01362  -0.0505  1.0000  0.0213  -3.4157   0.0000   0.0000   0.0000   0.0937
  -4.800  -0.3226   0.01863   0.01254  -0.0504  1.0000  0.0213  -3.3768   0.0000   0.0000   0.0000   0.0896
  -4.700  -0.3123   0.01749   0.01126  -0.0503  1.0000  0.0214  -3.3488   0.0000   0.0000   0.0000   0.0846
  -4.600  -0.3015   0.01627   0.00990  -0.0503  1.0000  0.0218  -3.3239   0.0000   0.0000   0.0000   0.0786
  -4.500  -0.2906   0.01525   0.00878  -0.0504  1.0000  0.0224  -3.2823   0.0000   0.0000   0.0000   0.0721
  -4.400  -0.2800   0.01454   0.00803  -0.0504  1.0000  0.0231  -3.2142   0.0000   0.0000   0.0000   0.0655
  -4.300  -0.2696   0.01408   0.00751  -0.0504  1.0000  0.0239  -3.1258   0.0000   0.0000   0.0000   0.0588
  -4.200  -0.2595   0.01375   0.00717  -0.0503  1.0000  0.0250  -3.0305   0.0000   0.0000   0.0000   0.0517
  -4.100  -0.2481   0.01357   0.00698  -0.0505  0.9997  0.0267  -2.9339   0.0000   0.0000   0.0000   0.0420
  -4.000  -0.2320   0.01333   0.00671  -0.0515  0.9982  0.0289  -2.8400   0.0000   0.0000   0.0000   0.0233
  -3.900  -0.2159   0.01301   0.00635  -0.0525  0.9969  0.0305  -2.7632   0.0000   0.0000   0.0000   0.0020
  -3.800  -0.1998   0.01256   0.00586  -0.0535  0.9957  0.0319  -2.6987   0.0000   0.0000   0.0000  -0.0228
  -3.700  -0.1837   0.01186   0.00515  -0.0546  0.9948  0.0357  -2.6414   0.0000   0.0000   0.0000  -0.0526
  -3.600  -0.1675   0.01159   0.00485  -0.0557  0.9935  0.0399  -2.5504   0.0000   0.0000   0.0000  -0.0882
  -3.500  -0.1518   0.01125   0.00451  -0.0567  0.9916  0.0466  -2.4634   0.0000   0.0000   0.0000  -0.1292
  -3.400  -0.1359   0.01092   0.00420  -0.0577  0.9898  0.0581  -2.3727   0.0000   0.0000   0.0000  -0.1808
  -3.300  -0.1199   0.01043   0.00387  -0.0589  0.9882  0.0881  -2.2827   0.0000   0.0000   0.0000  -0.2480
  -3.200  -0.1038   0.00999   0.00368  -0.0602  0.9867  0.1413  -2.1709   0.0000   0.0000   0.0000  -0.3370
  -3.100  -0.0876   0.00967   0.00354  -0.0615  0.9852  0.1933  -2.0484   0.0000   0.0000   0.0000  -0.4602
  -3.000  -0.0711   0.00943   0.00346  -0.0628  0.9837  0.2370  -1.9255   0.0000   0.0000   0.0000  -0.6433
  -2.900  -0.0543   0.00922   0.00338  -0.0641  0.9825  0.2781  -1.8021   0.0000   0.0000   0.0000  -0.9436
  -2.800  -0.0394   0.00903   0.00332  -0.0650  0.9799  0.3162  -1.6884   0.0000   0.0000   0.0000  -1.4153
  -2.700  -0.0245   0.00886   0.00327  -0.0659  0.9772  0.3515  -1.5759   0.0000   0.0000   0.0000  -2.4664
  -2.600  -0.0088   0.00870   0.00321  -0.0669  0.9749  0.3869  -1.4620   0.0000   0.0000   0.0000  -7.4266
  -2.500   0.0073   0.00854   0.00316  -0.0680  0.9729  0.4209  -1.3485   0.0000   0.0000   0.0000   9.6311
  -2.400   0.0233   0.00840   0.00311  -0.0691  0.9710  0.4542  -1.2377   0.0000   0.0000   0.0000   3.2300
  -2.300   0.0394   0.00826   0.00306  -0.0701  0.9692  0.4841  -1.1415   0.0000   0.0000   0.0000   2.0417
  -2.200   0.0528   0.00815   0.00301  -0.0705  0.9656  0.5113  -1.0599   0.0000   0.0000   0.0000   1.5951
  -2.100   0.0660   0.00803   0.00297  -0.0709  0.9618  0.5377  -0.9813   0.0000   0.0000   0.0000   1.3304
  -2.000   0.0800   0.00791   0.00293  -0.0714  0.9586  0.5655  -0.9019   0.0000   0.0000   0.0000   1.1479
  -1.900   0.0942   0.00779   0.00289  -0.0720  0.9559  0.5933  -0.8229   0.0000   0.0000   0.0000   1.0175
  -1.800   0.1062   0.00768   0.00286  -0.0720  0.9517  0.6189  -0.7523   0.0000   0.0000   0.0000   0.9310
  -1.700   0.1177   0.00757   0.00283  -0.0720  0.9470  0.6438  -0.6865   0.0000   0.0000   0.0000   0.8636
  -1.600   0.1300   0.00746   0.00280  -0.0720  0.9431  0.6692  -0.6294   0.0000   0.0000   0.0000   0.8059
  -1.500   0.1413   0.00737   0.00277  -0.0718  0.9390  0.6941  -0.5753   0.0000   0.0000   0.0000   0.7600
  -1.300   0.1619   0.00719   0.00271  -0.0710  0.9288  0.7429  -0.4824   0.0000   0.0000   0.0000   0.6896
  -1.200   0.1715   0.00710   0.00270  -0.0704  0.9236  0.7667  -0.4428   0.0000   0.0000   0.0000   0.6613
  -1.100   0.1807   0.00703   0.00267  -0.0697  0.9178  0.7901  -0.4077   0.0000   0.0000   0.0000   0.6363
  -1.000   0.1900   0.00695   0.00264  -0.0690  0.9133  0.8135  -0.4122   0.0000   0.0000   0.0000   0.6134
  -0.900   0.1982   0.00688   0.00262  -0.0680  0.9066  0.8360  -0.4202   0.0000   0.0000   0.0000   0.5936
  -0.800   0.2064   0.00680   0.00258  -0.0670  0.9011  0.8592  -0.4284   0.0000   0.0000   0.0000   0.5749
  -0.700   0.2141   0.00673   0.00254  -0.0660  0.8950  0.8831  -0.4367   0.0000   0.0000   0.0000   0.5580
  -0.600   0.2220   0.00666   0.00249  -0.0649  0.8888  0.9088  -0.4450   0.0000   0.0000   0.0000   0.5420
  -0.500   0.2327   0.00658   0.00241  -0.0644  0.8835  0.9391  -0.4550   0.0000   0.0000   0.0000   0.5264
  -0.300   0.2617   0.00648   0.00225  -0.0655  0.8716  1.0000  -0.4801   0.0000   0.0000   0.0000   0.4997
  -0.200   0.2725   0.00649   0.00222  -0.0654  0.8642  1.0000  -0.4906   0.0000   0.0000   0.0000   0.4892
  -0.100   0.2833   0.00650   0.00218  -0.0652  0.8581  1.0000  -0.5017   0.0000   0.0000   0.0000   0.4792
   0.000   0.2942   0.00652   0.00215  -0.0650  0.8507  1.0000  -0.5128   0.0000   0.0000   0.0000   0.4702
   0.100   0.3050   0.00654   0.00212  -0.0648  0.8443  1.0000  -0.5244   0.0000   0.0000   0.0000   0.4617
   0.200   0.3158   0.00655   0.00210  -0.0647  0.8366  1.0000  -0.5362   0.0000   0.0000   0.0000   0.4539
   0.300   0.3266   0.00658   0.00207  -0.0645  0.8300  1.0000  -0.5481   0.0000   0.0000   0.0000   0.4464
   0.400   0.3375   0.00660   0.00206  -0.0644  0.8219  1.0000  -0.5600   0.0000   0.0000   0.0000   0.4396
   0.500   0.3483   0.00663   0.00203  -0.0642  0.8150  1.0000  -0.5725   0.0000   0.0000   0.0000   0.4331
   0.600   0.3592   0.00666   0.00202  -0.0641  0.8068  1.0000  -0.5853   0.0000   0.0000   0.0000   0.4270
   0.700   0.3701   0.00669   0.00201  -0.0639  0.7993  1.0000  -0.5981   0.0000   0.0000   0.0000   0.4213
   0.800   0.3809   0.00672   0.00200  -0.0638  0.7911  1.0000  -0.6118   0.0000   0.0000   0.0000   0.4159
   0.900   0.3918   0.00676   0.00199  -0.0636  0.7829  1.0000  -0.6256   0.0000   0.0000   0.0000   0.4109
   1.000   0.4026   0.00680   0.00198  -0.0635  0.7750  1.0000  -0.6394   0.0000   0.0000   0.0000   0.4060
   1.100   0.4136   0.00683   0.00198  -0.0633  0.7662  1.0000  -0.6538   0.0000   0.0000   0.0000   0.4015
   1.200   0.4244   0.00688   0.00198  -0.0632  0.7580  1.0000  -0.6687   0.0000   0.0000   0.0000   0.3972
   1.300   0.4353   0.00692   0.00198  -0.0631  0.7490  1.0000  -0.6837   0.0000   0.0000   0.0000   0.3931
   1.400   0.4462   0.00697   0.00199  -0.0629  0.7400  1.0000  -0.6987   0.0000   0.0000   0.0000   0.3892
   1.500   0.4570   0.00702   0.00200  -0.0628  0.7313  1.0000  -0.7143   0.0000   0.0000   0.0000   0.3855
   1.600   0.4679   0.00707   0.00201  -0.0627  0.7217  1.0000  -0.7307   0.0000   0.0000   0.0000   0.3820
   1.700   0.4788   0.00713   0.00202  -0.0626  0.7122  1.0000  -0.7471   0.0000   0.0000   0.0000   0.3786
   1.800   0.4896   0.00719   0.00203  -0.0624  0.7030  1.0000  -0.7636   0.0000   0.0000   0.0000   0.3754
   1.900   0.5005   0.00725   0.00205  -0.0623  0.6931  1.0000  -0.7816   0.0000   0.0000   0.0000   0.3723
   2.000   0.5114   0.00731   0.00207  -0.0622  0.6831  1.0000  -0.7997   0.0000   0.0000   0.0000   0.3694
   2.100   0.5222   0.00737   0.00210  -0.0621  0.6734  1.0000  -0.8178   0.0000   0.0000   0.0000   0.3665
   2.200   0.5330   0.00745   0.00212  -0.0619  0.6634  1.0000  -0.8360   0.0000   0.0000   0.0000   0.3638
   2.300   0.5439   0.00751   0.00215  -0.0619  0.6528  1.0000  -0.8560   0.0000   0.0000   0.0000   0.3613
   2.400   0.5547   0.00758   0.00218  -0.0617  0.6424  1.0000  -0.8763   0.0000   0.0000   0.0000   0.3588
   2.500   0.5655   0.00767   0.00223  -0.0616  0.6320  1.0000  -0.8966   0.0000   0.0000   0.0000   0.3564
   2.600   0.5763   0.00775   0.00227  -0.0615  0.6216  1.0000  -0.9170   0.0000   0.0000   0.0000   0.3541
   2.700   0.5871   0.00783   0.00231  -0.0614  0.6106  1.0000  -0.9399   0.0000   0.0000   0.0000   0.3519
   2.800   0.5979   0.00791   0.00235  -0.0613  0.5998  1.0000  -0.9629   0.0000   0.0000   0.0000   0.3497
   2.900   0.6087   0.00800   0.00240  -0.0612  0.5893  1.0000  -0.9859   0.0000   0.0000   0.0000   0.3477
   3.000   0.6194   0.00809   0.00244  -0.0611  0.5786  1.0000  -1.0103   0.0000   0.0000   0.0000   0.3457
   3.100   0.6302   0.00818   0.00250  -0.0610  0.5674  1.0000  -1.0367   0.0000   0.0000   0.0000   0.3438
   3.200   0.6410   0.00827   0.00255  -0.0609  0.5563  1.0000  -1.0633   0.0000   0.0000   0.0000   0.3419
   3.300   0.6517   0.00837   0.00261  -0.0608  0.5455  1.0000  -1.0900   0.0000   0.0000   0.0000   0.3401
   3.400   0.6624   0.00847   0.00267  -0.0607  0.5346  1.0000  -1.1203   0.0000   0.0000   0.0000   0.3384
   3.500   0.6730   0.00858   0.00276  -0.0606  0.5234  1.0000  -1.1514   0.0000   0.0000   0.0000   0.3367
   3.600   0.6838   0.00868   0.00283  -0.0605  0.5121  1.0000  -1.1828   0.0000   0.0000   0.0000   0.3351
   3.700   0.6945   0.00878   0.00290  -0.0605  0.5009  1.0000  -1.2147   0.0000   0.0000   0.0000   0.3335
   3.800   0.7051   0.00889   0.00297  -0.0604  0.4898  1.0000  -1.2521   0.0000   0.0000   0.0000   0.3320
   3.900   0.7158   0.00901   0.00305  -0.0603  0.4788  1.0000  -1.2897   0.0000   0.0000   0.0000   0.3305
   4.000   0.7263   0.00914   0.00313  -0.0602  0.4678  1.0000  -1.3276   0.0000   0.0000   0.0000   0.3291
   4.100   0.7370   0.00924   0.00321  -0.0601  0.4562  1.0000  -1.3689   0.0000   0.0000   0.0000   0.3277
   4.200   0.7476   0.00936   0.00330  -0.0600  0.4447  1.0000  -1.4147   0.0000   0.0000   0.0000   0.3263
   4.300   0.7582   0.00948   0.00339  -0.0599  0.4334  1.0000  -1.4608   0.0000   0.0000   0.0000   0.3250
   4.400   0.7688   0.00961   0.00349  -0.0598  0.4223  1.0000  -1.5137   0.0000   0.0000   0.0000   0.3237
   4.500   0.7793   0.00975   0.00358  -0.0597  0.4108  1.0000  -1.5777   0.0000   0.0000   0.0000   0.3224
   4.600   0.7898   0.00989   0.00371  -0.0596  0.3990  1.0000  -1.6534   0.0000   0.0000   0.0000   0.3212
   4.700   0.8003   0.01001   0.00381  -0.0595  0.3872  1.0000  -1.7428   0.0000   0.0000   0.0000   0.3200
   4.800   0.8108   0.01015   0.00392  -0.0595  0.3754  1.0000  -1.8329   0.0000   0.0000   0.0000   0.3189
   4.900   0.8213   0.01029   0.00403  -0.0594  0.3634  1.0000  -1.9240   0.0000   0.0000   0.0000   0.3177
   5.000   0.8317   0.01044   0.00415  -0.0593  0.3516  1.0000  -2.0163   0.0000   0.0000   0.0000   0.3166
   5.100   0.8421   0.01060   0.00427  -0.0592  0.3396  1.0000  -2.1096   0.0000   0.0000   0.0000   0.3155
   5.200   0.8524   0.01076   0.00439  -0.0591  0.3276  1.0000  -2.2108   0.0000   0.0000   0.0000   0.3145
   5.400   0.8730   0.01109   0.00465  -0.0589  0.3028  1.0000  -2.4343   0.0000   0.0000   0.0000   0.3124
   5.500   0.8833   0.01125   0.00479  -0.0588  0.2903  1.0000  -2.5485   0.0000   0.0000   0.0000   0.3114
   5.600   0.8936   0.01143   0.00493  -0.0587  0.2777  1.0000  -2.6640   0.0000   0.0000   0.0000   0.3104
   5.700   0.9038   0.01161   0.00508  -0.0586  0.2651  1.0000  -2.7809   0.0000   0.0000   0.0000   0.3095
   5.800   0.9139   0.01180   0.00523  -0.0585  0.2526  1.0000  -2.8991   0.0000   0.0000   0.0000   0.3085
   5.900   0.9240   0.01200   0.00542  -0.0583  0.2399  1.0000  -3.0214   0.0000   0.0000   0.0000   0.3076
   6.000   0.9341   0.01220   0.00559  -0.0582  0.2271  1.0000  -3.1428   0.0000   0.0000   0.0000   0.3067
   6.100   0.9440   0.01242   0.00576  -0.0581  0.2144  1.0000  -3.2648   0.0000   0.0000   0.0000   0.3058
   6.200   0.9540   0.01264   0.00594  -0.0580  0.2019  1.0000  -3.3877   0.0000   0.0000   0.0000   0.3049
   6.300   0.9638   0.01287   0.00613  -0.0579  0.1890  1.0000  -3.5115   0.0000   0.0000   0.0000   0.3041
   6.400   0.9736   0.01312   0.00632  -0.0577  0.1756  1.0000  -3.6361   0.0000   0.0000   0.0000   0.3032
   6.500   0.9834   0.01337   0.00652  -0.0576  0.1622  1.0000  -3.7616   0.0000   0.0000   0.0000   0.3024
   6.600   0.9930   0.01363   0.00673  -0.0575  0.1492  1.0000  -3.8876   0.0000   0.0000   0.0000   0.3016
   6.700   1.0026   0.01391   0.00695  -0.0573  0.1362  1.0000  -4.0141   0.0000   0.0000   0.0000   0.3008
   6.800   1.0121   0.01420   0.00719  -0.0572  0.1233  1.0000  -4.1407   0.0000   0.0000   0.0000   0.3000
   7.000   1.0308   0.01483   0.00771  -0.0568  0.0978  1.0000  -4.3928   0.0000   0.0000   0.0000   0.2984
   7.100   1.0399   0.01519   0.00800  -0.0566  0.0849  1.0000  -4.5168   0.0000   0.0000   0.0000   0.2976
   7.200   1.0488   0.01558   0.00832  -0.0564  0.0724  1.0000  -4.6381   0.0000   0.0000   0.0000   0.2968
   7.300   1.0575   0.01600   0.00868  -0.0561  0.0609  1.0000  -4.7553   0.0000   0.0000   0.0000   0.2960
   7.400   1.0661   0.01644   0.00907  -0.0558  0.0508  1.0000  -4.8666   0.0000   0.0000   0.0000   0.2951
   7.500   1.0746   0.01691   0.00956  -0.0554  0.0425  1.0000  -4.9685   0.0000   0.0000   0.0000   0.2943
   7.600   1.0820   0.01755   0.01015  -0.0550  0.0354  1.0000  -5.0559   0.0000   0.0000   0.0000   0.2934
   7.700   1.0912   0.01789   0.01053  -0.0547  0.0312  1.0000  -5.1615   0.0000   0.0000   0.0000   0.2926
   7.800   1.0983   0.01857   0.01120  -0.0541  0.0273  1.0000  -5.2372   0.0000   0.0000   0.0000   0.2917
   7.900   1.1053   0.01926   0.01195  -0.0535  0.0250  1.0000  -5.2974   0.0000   0.0000   0.0000   0.2907
   8.000   1.1139   0.01968   0.01243  -0.0531  0.0234  1.0000  -5.3830   0.0000   0.0000   0.0000   0.2898
   8.100   1.1223   0.02012   0.01292  -0.0527  0.0217  1.0000  -5.4691   0.0000   0.0000   0.0000   0.2890
   8.200   1.1305   0.02056   0.01338  -0.0523  0.0203  1.0000  -5.5810   0.0000   0.0000   0.0000   0.2882
   8.300   1.1374   0.02118   0.01401  -0.0519  0.0188  1.0000  -5.6934   0.0000   0.0000   0.0000   0.2873
   8.400   1.1401   0.02251   0.01542  -0.0508  0.0173  1.0000  -5.7273   0.0000   0.0000   0.0000   0.2862
   8.500   1.1481   0.02296   0.01591  -0.0504  0.0167  1.0000  -5.8484   0.0000   0.0000   0.0000   0.2854
   8.600   1.1564   0.02338   0.01639  -0.0500  0.0162  1.0000  -5.9709   0.0000   0.0000   0.0000   0.2846
   8.700   1.1639   0.02393   0.01700  -0.0494  0.0157  1.0000  -6.0777   0.0000   0.0000   0.0000   0.2838
   8.800   1.1711   0.02454   0.01767  -0.0489  0.0152  1.0000  -6.1806   0.0000   0.0000   0.0000   0.2829
   8.900   1.1782   0.02517   0.01836  -0.0483  0.0147  1.0000  -6.2810   0.0000   0.0000   0.0000   0.2821
   9.000   1.1851   0.02582   0.01908  -0.0478  0.0143  1.0000  -6.3802   0.0000   0.0000   0.0000   0.2812
   9.100   1.1919   0.02650   0.01982  -0.0472  0.0139  1.0000  -6.4788   0.0000   0.0000   0.0000   0.2804
   9.200   1.1985   0.02719   0.02058  -0.0466  0.0136  1.0000  -6.5767   0.0000   0.0000   0.0000   0.2796
   9.300   1.2050   0.02791   0.02136  -0.0461  0.0133  1.0000  -6.6737   0.0000   0.0000   0.0000   0.2787
   9.400   1.2113   0.02865   0.02217  -0.0455  0.0130  1.0000  -6.7695   0.0000   0.0000   0.0000   0.2779
   9.500   1.2174   0.02943   0.02302  -0.0449  0.0128  1.0000  -6.8634   0.0000   0.0000   0.0000   0.2771
   9.600   1.2233   0.03024   0.02390  -0.0443  0.0126  1.0000  -6.9543   0.0000   0.0000   0.0000   0.2763
   9.700   1.2289   0.03111   0.02484  -0.0436  0.0124  1.0000  -7.0407   0.0000   0.0000   0.0000   0.2755
   9.800   1.2341   0.03203   0.02584  -0.0430  0.0122  1.0000  -7.1218   0.0000   0.0000   0.0000   0.2747
   9.900   1.2390   0.03300   0.02695  -0.0423  0.0121  1.0000  -7.1953   0.0000   0.0000   0.0000   0.2739
  10.000   1.2435   0.03404   0.02808  -0.0416  0.0120  1.0000  -7.2635   0.0000   0.0000   0.0000   0.2731
  10.100   1.2475   0.03513   0.02927  -0.0409  0.0119  1.0000  -7.3250   0.0000   0.0000   0.0000   0.2723
  10.200   1.2511   0.03627   0.03053  -0.0401  0.0119  1.0000  -7.3796   0.0000   0.0000   0.0000   0.2714
  10.300   1.2541   0.03745   0.03183  -0.0393  0.0119  1.0000  -7.4269   0.0000   0.0000   0.0000   0.2706
  10.400   1.2565   0.03868   0.03318  -0.0384  0.0119  1.0000  -7.4664   0.0000   0.0000   0.0000   0.2697
  10.500   1.2581   0.03995   0.03459  -0.0376  0.0119  1.0000  -7.4971   0.0000   0.0000   0.0000   0.2689
  10.600   1.2589   0.04128   0.03605  -0.0366  0.0119  1.0000  -7.5174   0.0000   0.0000   0.0000   0.2680
  10.700   1.2587   0.04266   0.03758  -0.0356  0.0120  1.0000  -7.5264   0.0000   0.0000   0.0000   0.2671
  10.800   1.2574   0.04400   0.03906  -0.0345  0.0120  1.0000  -7.5327   0.0000   0.0000   0.0000   0.2662
  10.900   1.2548   0.04527   0.04045  -0.0333  0.0120  1.0000  -7.5379   0.0000   0.0000   0.0000   0.2651
  11.000   1.2517   0.04654   0.04183  -0.0322  0.0120  1.0000  -7.5433   0.0000   0.0000   0.0000   0.2642
  11.100   1.2480   0.04781   0.04320  -0.0311  0.0120  1.0000  -7.5485   0.0000   0.0000   0.0000   0.2633
  11.200   1.2440   0.04911   0.04460  -0.0302  0.0120  1.0000  -7.5531   0.0000   0.0000   0.0000   0.2625
  11.300   1.2396   0.05045   0.04604  -0.0294  0.0120  1.0000  -7.5565   0.0000   0.0000   0.0000   0.2618
  11.400   1.2350   0.05184   0.04753  -0.0288  0.0120  1.0000  -7.5583   0.0000   0.0000   0.0000   0.2612
  11.500   1.2301   0.05330   0.04908  -0.0283  0.0119  1.0000  -7.5575   0.0000   0.0000   0.0000   0.2608
  11.600   1.2249   0.05485   0.05072  -0.0281  0.0119  1.0000  -7.5533   0.0000   0.0000   0.0000   0.2605
  11.700   1.2194   0.05648   0.05244  -0.0280  0.0119  1.0000  -7.5450   0.0000   0.0000   0.0000   0.2604
  11.800   1.2136   0.05823   0.05428  -0.0280  0.0119  1.0000  -7.5316   0.0000   0.0000   0.0000   0.2604
  11.900   1.2074   0.06009   0.05624  -0.0283  0.0119  1.0000  -7.5117   0.0000   0.0000   0.0000   0.2606
  12.000   1.2009   0.06210   0.05834  -0.0288  0.0119  1.0000  -7.4843   0.0000   0.0000   0.0000   0.2610
  12.100   1.1940   0.06427   0.06060  -0.0295  0.0119  1.0000  -7.4474   0.0000   0.0000   0.0000   0.2616
  12.200   1.1864   0.06664   0.06307  -0.0304  0.0120  1.0000  -7.3975   0.0000   0.0000   0.0000   0.2624
  12.300   1.1780   0.06931   0.06584  -0.0316  0.0121  1.0000  -7.3277   0.0000   0.0000   0.0000   0.2634
  12.400   1.1677   0.07244   0.06910  -0.0332  0.0122  1.0000  -7.2213   0.0000   0.0000   0.0000   0.2649
  12.900   0.9825   0.08336   0.08047  -0.0280  0.0134  1.0000  -6.1145   0.0000   0.0000   0.0000   0.2649
  13.000   0.9718   0.08664   0.08381  -0.0296  0.0135  1.0000  -6.0377   0.0000   0.0000   0.0000   0.2667
  13.100   0.9610   0.08997   0.08719  -0.0312  0.0135  1.0000  -5.9568   0.0000   0.0000   0.0000   0.2687
  13.200   0.9501   0.09337   0.09062  -0.0329  0.0136  1.0000  -5.8713   0.0000   0.0000   0.0000   0.2708
  13.300   0.9392   0.09685   0.09415  -0.0347  0.0136  1.0000  -5.7789   0.0000   0.0000   0.0000   0.2730
  13.400   0.9279   0.10039   0.09774  -0.0365  0.0137  1.0000  -5.6799   0.0000   0.0000   0.0000   0.2754
  13.500   0.9163   0.10398   0.10138  -0.0384  0.0138  1.0000  -5.5728   0.0000   0.0000   0.0000   0.2780
  13.600   0.9045   0.10767   0.10512  -0.0404  0.0139  1.0000  -5.4557   0.0000   0.0000   0.0000   0.2807
  13.700   0.8921   0.11147   0.10896  -0.0425  0.0140  1.0000  -5.3261   0.0000   0.0000   0.0000   0.2836
  13.800   0.8789   0.11533   0.11287  -0.0446  0.0141  1.0000  -5.1817   0.0000   0.0000   0.0000   0.2867
  13.900   0.8647   0.11932   0.11689  -0.0467  0.0143  1.0000  -5.0169   0.0000   0.0000   0.0000   0.2901
  14.000   0.8483   0.12296   0.12057  -0.0484  0.0145  1.0000  -4.8315   0.0000   0.0000   0.0000   0.2933
  14.100   0.8308   0.12684   0.12448  -0.0503  0.0147  1.0000  -4.6147   0.0000   0.0000   0.0000   0.2970
  14.200   0.8127   0.13127   0.12892  -0.0525  0.0150  1.0000  -4.3566   0.0000   0.0000   0.0000   0.3012
  14.300   0.7953   0.13584   0.13351  -0.0546  0.0154  1.0000  -4.0781   0.0000   0.0000   0.0000   0.3054
  14.400   0.7808   0.14001   0.13766  -0.0563  0.0158  1.0000  -3.8245   0.0000   0.0000   0.0000   0.3092
  14.500   0.7697   0.14355   0.14119  -0.0577  0.0162  1.0000  -3.6174   0.0000   0.0000   0.0000   0.3122
  14.600   0.7611   0.14654   0.14418  -0.0589  0.0164  1.0000  -3.4560   0.0000   0.0000   0.0000   0.3147
  14.700   0.7541   0.14920   0.14682  -0.0599  0.0167  1.0000  -3.3231   0.0000   0.0000   0.0000   0.3168
  18.800   1.0448   0.25741   0.25470  -0.1327  0.0170  1.0000  -2.4020   0.0000   0.0000   0.0000   0.3582
  18.900   1.0479   0.25902   0.25630  -0.1338  0.0170  1.0000  -2.3840   0.0000   0.0000   0.0000   0.3587
  19.000   1.0509   0.26060   0.25788  -0.1349  0.0170  1.0000  -2.3662   0.0000   0.0000   0.0000   0.3593
  19.100   1.0540   0.26216   0.25944  -0.1360  0.0169  1.0000  -2.3485   0.0000   0.0000   0.0000   0.3598
  19.200   1.0571   0.26365   0.26096  -0.1371  0.0169  1.0000  -2.3308   0.0000   0.0000   0.0000   0.3603
  19.300   1.0603   0.26513   0.26244  -0.1383  0.0168  1.0000  -2.3124   0.0000   0.0000   0.0000   0.3609
  19.400   1.0631   0.26659   0.26389  -0.1397  0.0168  1.0000  -2.2822   0.0000   0.0000   0.0000   0.3617
  19.500   1.0658   0.26802   0.26532  -0.1413  0.0166  1.0000  -2.2428   0.0000   0.0000   0.0000   0.3627
  19.600   1.0686   0.26949   0.26679  -0.1430  0.0164  1.0000  -2.1956   0.0000   0.0000   0.0000   0.3639
  19.700   1.0718   0.27107   0.26836  -0.1447  0.0161  1.0000  -2.1476   0.0000   0.0000   0.0000   0.3649
  19.800   1.0752   0.27272   0.27001  -0.1461  0.0158  1.0000  -2.1229   0.0000   0.0000   0.0000   0.3657
  19.900   1.0786   0.27431   0.27160  -0.1473  0.0154  1.0000  -2.1111   0.0000   0.0000   0.0000   0.3662
  20.000   1.0819   0.27587   0.27316  -0.1484  0.0151  1.0000  -2.1069   0.0000   0.0000   0.0000   0.3667
  20.100   1.0852   0.27740   0.27469  -0.1494  0.0148  1.0000  -2.1071   0.0000   0.0000   0.0000   0.3671
  20.200   1.0885   0.27889   0.27618  -0.1505  0.0145  1.0000  -2.1101   0.0000   0.0000   0.0000   0.3674
  20.300   1.0917   0.28036   0.27765  -0.1515  0.0143  1.0000  -2.1153   0.0000   0.0000   0.0000   0.3678
  20.400   1.0950   0.28182   0.27910  -0.1524  0.0140  1.0000  -2.1220   0.0000   0.0000   0.0000   0.3681
  20.500   1.0982   0.28325   0.28054  -0.1534  0.0138  1.0000  -2.1302   0.0000   0.0000   0.0000   0.3684
  20.600   1.1015   0.28466   0.28195  -0.1544  0.0136  1.0000  -2.1396   0.0000   0.0000   0.0000   0.3687
  20.700   1.1047   0.28606   0.28335  -0.1553  0.0134  1.0000  -2.1503   0.0000   0.0000   0.0000   0.3689
  20.800   1.1080   0.28745   0.28474  -0.1563  0.0132  1.0000  -2.1620   0.0000   0.0000   0.0000   0.3692
  20.900   1.1112   0.28881   0.28611  -0.1572  0.0130  1.0000  -2.1750   0.0000   0.0000   0.0000   0.3695
  21.000   1.1145   0.29016   0.28746  -0.1582  0.0128  1.0000  -2.1892   0.0000   0.0000   0.0000   0.3697
  21.100   1.1177   0.29150   0.28880  -0.1591  0.0126  1.0000  -2.2046   0.0000   0.0000   0.0000   0.3699
  21.200   1.1209   0.29280   0.29010  -0.1600  0.0125  1.0000  -2.2215   0.0000   0.0000   0.0000   0.3701
  21.300   1.1241   0.29410   0.29140  -0.1609  0.0123  1.0000  -2.2398   0.0000   0.0000   0.0000   0.3704
  21.400   1.1273   0.29537   0.29268  -0.1618  0.0122  1.0000  -2.2598   0.0000   0.0000   0.0000   0.3705
  21.500   1.1305   0.29663   0.29394  -0.1627  0.0120  1.0000  -2.2816   0.0000   0.0000   0.0000   0.3707
  21.600   1.1337   0.29787   0.29518  -0.1635  0.0119  1.0000  -2.3055   0.0000   0.0000   0.0000   0.3709
  21.700   1.1369   0.29909   0.29640  -0.1643  0.0118  1.0000  -2.3316   0.0000   0.0000   0.0000   0.3710
  21.800   1.1400   0.30036   0.29768  -0.1651  0.0116  1.0000  -2.3603   0.0000   0.0000   0.0000   0.3711
  21.900   1.1432   0.30157   0.29889  -0.1659  0.0115  1.0000  -2.3922   0.0000   0.0000   0.0000   0.3711
  22.000   1.1464   0.30277   0.30009  -0.1666  0.0114  1.0000  -2.4278   0.0000   0.0000   0.0000   0.3711
  22.100   1.1495   0.30399   0.30132  -0.1672  0.0113  1.0000  -2.4677   0.0000   0.0000   0.0000   0.3710
  22.200   1.1527   0.30526   0.30259  -0.1677  0.0112  1.0000  -2.5130   0.0000   0.0000   0.0000   0.3709
  22.300   1.1560   0.30668   0.30402  -0.1681  0.0111  1.0000  -2.5663   0.0000   0.0000   0.0000   0.3705
  22.400   1.1595   0.30866   0.30601  -0.1680  0.0109  1.0000  -2.6323   0.0000   0.0000   0.0000   0.3697


