xflr5 v6.61

 Calculated polar for: AG24

 1 1 Reynolds number fixed          Mach number fixed         

 xtrf =   1.000 (top)        1.000 (bottom)
 Mach =   0.000     Re =     0.100 e 6     Ncrit =   9.000

  alpha     CL        CD       CDp       Cm    Top Xtr Bot Xtr   Cpmin    Chinge    XCp    
 ------- -------- --------- --------- -------- ------- ------- -------- --------- ---------
 -10.000  -0.5105   0.12289   0.11793   0.0018  1.0000  0.0799  -1.7301   0.0000   0.0000   0.0000   0.2488
  -9.900  -0.5140   0.12197   0.11704  -0.0004  1.0000  0.0809  -1.7845   0.0000   0.0000   0.0000   0.2444
  -9.800  -0.5184   0.12111   0.11622  -0.0030  1.0000  0.0814  -1.8468   0.0000   0.0000   0.0000   0.2395
  -9.700  -0.5225   0.12016   0.11531  -0.0056  1.0000  0.0817  -1.9063   0.0000   0.0000   0.0000   0.2348
  -9.600  -0.5261   0.11910   0.11428  -0.0080  1.0000  0.0818  -1.9613   0.0000   0.0000   0.0000   0.2305
  -9.500  -0.5295   0.11792   0.11314  -0.0103  1.0000  0.0820  -2.0141   0.0000   0.0000   0.0000   0.2262
  -9.400  -0.5071   0.11349   0.10865  -0.0034  1.0000  0.0838  -1.8362   0.0000   0.0000   0.0000   0.2387
  -9.300  -0.5004   0.11192   0.10707  -0.0024  1.0000  0.0851  -1.7940   0.0000   0.0000   0.0000   0.2407
  -9.200  -0.4962   0.11053   0.10568  -0.0023  1.0000  0.0864  -1.7754   0.0000   0.0000   0.0000   0.2410
  -9.100  -0.4934   0.10916   0.10432  -0.0025  1.0000  0.0878  -1.7690   0.0000   0.0000   0.0000   0.2405
  -9.000  -0.4916   0.10779   0.10296  -0.0031  1.0000  0.0893  -1.7716   0.0000   0.0000   0.0000   0.2394
  -8.900  -0.4907   0.10642   0.10160  -0.0040  1.0000  0.0909  -1.7835   0.0000   0.0000   0.0000   0.2376
  -8.800  -0.4917   0.10509   0.10031  -0.0055  1.0000  0.0927  -1.8124   0.0000   0.0000   0.0000   0.2346
  -8.700  -0.4969   0.10399   0.09925  -0.0085  1.0000  0.0941  -1.8777   0.0000   0.0000   0.0000   0.2287
  -8.600  -0.5041   0.10295   0.09826  -0.0124  1.0000  0.0948  -1.9597   0.0000   0.0000   0.0000   0.2215
  -8.500  -0.5106   0.10175   0.09712  -0.0160  1.0000  0.0951  -2.0342   0.0000   0.0000   0.0000   0.2148
  -8.400  -0.5161   0.10024   0.09566  -0.0204  1.0000  0.0953  -2.1084   0.0000   0.0000   0.0000   0.2068
  -8.300  -0.4927   0.09716   0.09251  -0.0112  1.0000  0.0973  -1.9145   0.0000   0.0000   0.0000   0.2234
  -8.200  -0.4856   0.09580   0.09114  -0.0100  1.0000  0.0988  -1.8680   0.0000   0.0000   0.0000   0.2256
  -8.100  -0.4817   0.09450   0.08984  -0.0098  1.0000  0.1004  -1.8492   0.0000   0.0000   0.0000   0.2258
  -8.000  -0.3879   0.08166   0.07730  -0.0188  1.0000  0.1119  -1.6196   0.0000   0.0000   0.0000   0.1989
  -7.900  -0.3835   0.08027   0.07592  -0.0183  1.0000  0.1137  -1.5955   0.0000   0.0000   0.0000   0.1995
  -7.800  -0.3820   0.07885   0.07451  -0.0185  1.0000  0.1156  -1.5907   0.0000   0.0000   0.0000   0.1990
  -7.700  -0.3830   0.07737   0.07306  -0.0191  1.0000  0.1176  -1.6013   0.0000   0.0000   0.0000   0.1976
  -7.400  -0.4810   0.08341   0.07895  -0.0201  1.0000  0.1111  -1.9724   0.0000   0.0000   0.0000   0.2050
  -7.300  -0.4753   0.08231   0.07786  -0.0185  1.0000  0.1127  -1.9303   0.0000   0.0000   0.0000   0.2077
  -7.200  -0.3998   0.06910   0.06496  -0.0237  1.0000  0.1246  -1.7166   0.0000   0.0000   0.0000   0.1883
  -7.100  -0.3919   0.06783   0.06368  -0.0222  1.0000  0.1266  -1.6690   0.0000   0.0000   0.0000   0.1910
  -6.800  -0.4640   0.07285   0.06845  -0.0302  1.0000  0.1247  -2.0119   0.0000   0.0000   0.0000   0.1820
  -6.700  -0.4586   0.07187   0.06749  -0.0286  1.0000  0.1263  -1.9706   0.0000   0.0000   0.0000   0.1847
  -6.400  -0.4499   0.06555   0.06111  -0.0375  1.0000  0.1376  -2.0444   0.0000   0.0000   0.0000   0.1639
  -6.300  -0.4444   0.06455   0.06015  -0.0357  1.0000  0.1389  -1.9996   0.0000   0.0000   0.0000   0.1669
  -5.900  -0.4261   0.05918   0.05477  -0.0370  1.0000  0.1554  -1.9366   0.0000   0.0000   0.0000   0.1607
  -5.700  -0.4034   0.04040   0.03448  -0.0534  1.0000  0.0670  -2.7843   0.0000   0.0000   0.0000   0.1140
  -5.600  -0.3963   0.03864   0.03265  -0.0535  1.0000  0.0657  -2.7752   0.0000   0.0000   0.0000   0.1114
  -5.500  -0.3887   0.03687   0.03073  -0.0537  1.0000  0.0647  -2.7800   0.0000   0.0000   0.0000   0.1081
  -5.400  -0.3805   0.03516   0.02883  -0.0539  1.0000  0.0640  -2.7879   0.0000   0.0000   0.0000   0.1046
  -5.300  -0.3719   0.03353   0.02700  -0.0541  1.0000  0.0635  -2.7929   0.0000   0.0000   0.0000   0.1009
  -5.200  -0.3629   0.03197   0.02522  -0.0541  1.0000  0.0630  -2.7959   0.0000   0.0000   0.0000   0.0971
  -5.100  -0.3535   0.03038   0.02339  -0.0542  1.0000  0.0620  -2.8038   0.0000   0.0000   0.0000   0.0930
  -5.000  -0.3434   0.02870   0.02140  -0.0542  1.0000  0.0605  -2.8254   0.0000   0.0000   0.0000   0.0884
  -4.900  -0.3328   0.02715   0.01948  -0.0540  1.0000  0.0591  -2.8481   0.0000   0.0000   0.0000   0.0836
  -4.800  -0.3224   0.02593   0.01799  -0.0538  1.0000  0.0586  -2.8435   0.0000   0.0000   0.0000   0.0789
  -4.700  -0.3123   0.02490   0.01679  -0.0536  1.0000  0.0586  -2.8167   0.0000   0.0000   0.0000   0.0742
  -4.600  -0.3022   0.02397   0.01571  -0.0534  1.0000  0.0591  -2.7803   0.0000   0.0000   0.0000   0.0693
  -4.500  -0.2922   0.02311   0.01471  -0.0531  1.0000  0.0598  -2.7360   0.0000   0.0000   0.0000   0.0640
  -4.400  -0.2821   0.02234   0.01384  -0.0529  1.0000  0.0609  -2.6918   0.0000   0.0000   0.0000   0.0584
  -4.300  -0.2720   0.02164   0.01306  -0.0526  1.0000  0.0625  -2.6672   0.0000   0.0000   0.0000   0.0524
  -4.200  -0.2619   0.02114   0.01245  -0.0523  1.0000  0.0656  -2.6336   0.0000   0.0000   0.0000   0.0460
  -4.100  -0.2515   0.02086   0.01195  -0.0519  1.0000  0.0687  -2.6048   0.0000   0.0000   0.0000   0.0392
  -4.000  -0.2416   0.01977   0.01098  -0.0519  1.0000  0.0721  -2.5665   0.0000   0.0000   0.0000   0.0307
  -3.900  -0.2315   0.01919   0.01040  -0.0517  1.0000  0.0753  -2.5292   0.0000   0.0000   0.0000   0.0222
  -3.800  -0.2210   0.01865   0.00979  -0.0514  1.0000  0.0790  -2.4997   0.0000   0.0000   0.0000   0.0129
  -3.700  -0.2103   0.01800   0.00911  -0.0512  1.0000  0.0833  -2.4718   0.0000   0.0000   0.0000   0.0022
  -3.600  -0.2003   0.01749   0.00869  -0.0511  1.0000  0.0909  -2.4178   0.0000   0.0000   0.0000  -0.0097
  -3.500  -0.1899   0.01698   0.00825  -0.0510  1.0000  0.1014  -2.3667   0.0000   0.0000   0.0000  -0.0235
  -3.400  -0.1791   0.01641   0.00775  -0.0510  1.0000  0.1146  -2.3245   0.0000   0.0000   0.0000  -0.0397
  -3.300  -0.1677   0.01576   0.00721  -0.0511  1.0000  0.1374  -2.2860   0.0000   0.0000   0.0000  -0.0596
  -3.200  -0.1559   0.01497   0.00678  -0.0515  1.0000  0.1890  -2.2346   0.0000   0.0000   0.0000  -0.0856
  -3.100  -0.1439   0.01415   0.00649  -0.0521  1.0000  0.2780  -2.1691   0.0000   0.0000   0.0000  -0.1170
  -3.000  -0.1334   0.01375   0.00640  -0.0522  1.0000  0.3504  -2.0851   0.0000   0.0000   0.0000  -0.1470
  -2.900  -0.1234   0.01351   0.00633  -0.0521  1.0000  0.4053  -1.9972   0.0000   0.0000   0.0000  -0.1782
  -2.800  -0.1137   0.01333   0.00630  -0.0519  1.0000  0.4527  -1.9103   0.0000   0.0000   0.0000  -0.2125
  -2.700  -0.1040   0.01317   0.00628  -0.0517  1.0000  0.4944  -1.8232   0.0000   0.0000   0.0000  -0.2529
  -2.600  -0.0945   0.01303   0.00627  -0.0513  1.0000  0.5336  -1.7370   0.0000   0.0000   0.0000  -0.2993
  -2.500  -0.0852   0.01290   0.00626  -0.0509  1.0000  0.5709  -1.6523   0.0000   0.0000   0.0000  -0.3537
  -2.400  -0.0761   0.01279   0.00625  -0.0504  1.0000  0.6077  -1.5689   0.0000   0.0000   0.0000  -0.4195
  -2.300  -0.0675   0.01267   0.00626  -0.0497  1.0000  0.6429  -1.4882   0.0000   0.0000   0.0000  -0.4948
  -2.200  -0.0590   0.01257   0.00626  -0.0490  1.0000  0.6785  -1.4090   0.0000   0.0000   0.0000  -0.5896
  -2.100  -0.0511   0.01248   0.00627  -0.0481  1.0000  0.7136  -1.3331   0.0000   0.0000   0.0000  -0.7006
  -2.000  -0.0440   0.01240   0.00628  -0.0471  1.0000  0.7493  -1.2681   0.0000   0.0000   0.0000  -0.8301
  -1.900  -0.0378   0.01232   0.00628  -0.0457  1.0000  0.7861  -1.2118   0.0000   0.0000   0.0000  -0.9700
  -1.800  -0.0331   0.01222   0.00627  -0.0441  1.0000  0.8246  -1.1603   0.0000   0.0000   0.0000  -1.0952
  -1.700  -0.0295   0.01210   0.00623  -0.0422  1.0000  0.8696  -1.1129   0.0000   0.0000   0.0000  -1.1933
  -1.600  -0.0236   0.01193   0.00610  -0.0409  1.0000  0.9439  -1.0588   0.0000   0.0000   0.0000  -1.5004
  -1.500  -0.0152   0.01192   0.00601  -0.0411  1.0000  1.0000  -1.0016   0.0000   0.0000   0.0000  -2.4816
  -1.400  -0.0032   0.01200   0.00596  -0.0418  1.0000  1.0000  -0.9330   0.0000   0.0000   0.0000  -12.9102
  -1.300   0.0082   0.01209   0.00594  -0.0424  1.0000  1.0000  -0.8667   0.0000   0.0000   0.0000   5.4491
  -1.200   0.0192   0.01218   0.00594  -0.0428  1.0000  1.0000  -0.8023   0.0000   0.0000   0.0000   2.4894
  -1.100   0.0300   0.01229   0.00596  -0.0432  1.0000  1.0000  -0.7396   0.0000   0.0000   0.0000   1.6981
  -1.000   0.0405   0.01241   0.00600  -0.0436  1.0000  1.0000  -0.6875   0.0000   0.0000   0.0000   1.3293
  -0.900   0.0509   0.01253   0.00605  -0.0439  1.0000  1.0000  -0.6376   0.0000   0.0000   0.0000   1.1151
  -0.800   0.0612   0.01266   0.00611  -0.0442  1.0000  1.0000  -0.5887   0.0000   0.0000   0.0000   0.9750
  -0.700   0.0727   0.01281   0.00619  -0.0448  0.9994  1.0000  -0.5384   0.0000   0.0000   0.0000   0.8675
  -0.600   0.0946   0.01295   0.00623  -0.0472  0.9951  1.0000  -0.4753   0.0000   0.0000   0.0000   0.7495
  -0.500   0.1154   0.01308   0.00628  -0.0494  0.9902  1.0000  -0.4202   0.0000   0.0000   0.0000   0.6783
  -0.400   0.1368   0.01320   0.00634  -0.0517  0.9855  1.0000  -0.3947   0.0000   0.0000   0.0000   0.6276
  -0.300   0.1593   0.01333   0.00641  -0.0541  0.9816  1.0000  -0.4105   0.0000   0.0000   0.0000   0.5894
  -0.200   0.1778   0.01342   0.00645  -0.0558  0.9752  1.0000  -0.4240   0.0000   0.0000   0.0000   0.5633
  -0.100   0.1996   0.01351   0.00649  -0.0580  0.9707  1.0000  -0.4403   0.0000   0.0000   0.0000   0.5402
   0.000   0.2192   0.01359   0.00652  -0.0598  0.9652  1.0000  -0.4554   0.0000   0.0000   0.0000   0.5223
   0.100   0.2385   0.01365   0.00655  -0.0616  0.9593  1.0000  -0.4709   0.0000   0.0000   0.0000   0.5073
   0.200   0.2611   0.01369   0.00657  -0.0639  0.9553  1.0000  -0.4889   0.0000   0.0000   0.0000   0.4936
   0.300   0.2773   0.01374   0.00659  -0.0649  0.9480  1.0000  -0.5032   0.0000   0.0000   0.0000   0.4831
   0.400   0.2985   0.01375   0.00659  -0.0669  0.9433  1.0000  -0.5215   0.0000   0.0000   0.0000   0.4729
   0.500   0.3177   0.01377   0.00659  -0.0684  0.9378  1.0000  -0.5384   0.0000   0.0000   0.0000   0.4642
   0.600   0.3350   0.01377   0.00658  -0.0695  0.9313  1.0000  -0.5549   0.0000   0.0000   0.0000   0.4563
   0.700   0.3559   0.01373   0.00653  -0.0713  0.9272  1.0000  -0.5744   0.0000   0.0000   0.0000   0.4489
   0.800   0.3691   0.01375   0.00654  -0.0716  0.9189  1.0000  -0.5887   0.0000   0.0000   0.0000   0.4425
   0.900   0.3879   0.01369   0.00648  -0.0728  0.9141  1.0000  -0.6081   0.0000   0.0000   0.0000   0.4362
   1.000   0.4008   0.01370   0.00648  -0.0730  0.9060  1.0000  -0.6231   0.0000   0.0000   0.0000   0.4305
   1.100   0.4176   0.01363   0.00641  -0.0737  0.9005  1.0000  -0.6416   0.0000   0.0000   0.0000   0.4249
   1.200   0.4298   0.01363   0.00640  -0.0737  0.8923  1.0000  -0.6574   0.0000   0.0000   0.0000   0.4198
   1.300   0.4450   0.01355   0.00633  -0.0741  0.8864  1.0000  -0.6758   0.0000   0.0000   0.0000   0.4147
   1.400   0.4563   0.01355   0.00632  -0.0738  0.8778  1.0000  -0.6910   0.0000   0.0000   0.0000   0.4100
   1.500   0.4704   0.01347   0.00625  -0.0739  0.8718  1.0000  -0.7096   0.0000   0.0000   0.0000   0.4053
   1.600   0.4807   0.01348   0.00626  -0.0735  0.8625  1.0000  -0.7253   0.0000   0.0000   0.0000   0.4010
   1.700   0.4930   0.01343   0.00620  -0.0732  0.8556  1.0000  -0.7431   0.0000   0.0000   0.0000   0.3966
   1.800   0.5036   0.01341   0.00618  -0.0728  0.8468  1.0000  -0.7595   0.0000   0.0000   0.0000   0.3925
   1.900   0.5143   0.01340   0.00616  -0.0723  0.8382  1.0000  -0.7773   0.0000   0.0000   0.0000   0.3885
   2.000   0.5256   0.01335   0.00610  -0.0719  0.8307  1.0000  -0.7961   0.0000   0.0000   0.0000   0.3846
   2.100   0.5354   0.01337   0.00611  -0.0713  0.8209  1.0000  -0.8133   0.0000   0.0000   0.0000   0.3809
   2.200   0.5460   0.01335   0.00608  -0.0708  0.8125  1.0000  -0.8314   0.0000   0.0000   0.0000   0.3773
   2.300   0.5563   0.01334   0.00605  -0.0702  0.8037  1.0000  -0.8511   0.0000   0.0000   0.0000   0.3738
   2.400   0.5662   0.01336   0.00607  -0.0696  0.7936  1.0000  -0.8703   0.0000   0.0000   0.0000   0.3706
   2.500   0.5765   0.01336   0.00608  -0.0691  0.7846  1.0000  -0.8902   0.0000   0.0000   0.0000   0.3673
   2.600   0.5867   0.01336   0.00606  -0.0685  0.7754  1.0000  -0.9102   0.0000   0.0000   0.0000   0.3642
   2.700   0.5965   0.01340   0.00609  -0.0679  0.7648  1.0000  -0.9319   0.0000   0.0000   0.0000   0.3613
   2.800   0.6066   0.01343   0.00610  -0.0674  0.7548  1.0000  -0.9540   0.0000   0.0000   0.0000   0.3584
   2.900   0.6169   0.01344   0.00608  -0.0668  0.7456  1.0000  -0.9768   0.0000   0.0000   0.0000   0.3555
   3.000   0.6268   0.01349   0.00612  -0.0663  0.7346  1.0000  -0.9996   0.0000   0.0000   0.0000   0.3529
   3.100   0.6368   0.01354   0.00616  -0.0658  0.7235  1.0000  -1.0248   0.0000   0.0000   0.0000   0.3504
   3.200   0.6468   0.01359   0.00619  -0.0653  0.7128  1.0000  -1.0505   0.0000   0.0000   0.0000   0.3480
   3.300   0.6570   0.01365   0.00621  -0.0648  0.7025  1.0000  -1.0766   0.0000   0.0000   0.0000   0.3456
   3.400   0.6671   0.01371   0.00624  -0.0643  0.6916  1.0000  -1.1043   0.0000   0.0000   0.0000   0.3433
   3.500   0.6771   0.01379   0.00631  -0.0639  0.6798  1.0000  -1.1343   0.0000   0.0000   0.0000   0.3411
   3.600   0.6871   0.01387   0.00641  -0.0634  0.6681  1.0000  -1.1645   0.0000   0.0000   0.0000   0.3390
   3.700   0.6972   0.01396   0.00648  -0.0630  0.6566  1.0000  -1.1950   0.0000   0.0000   0.0000   0.3370
   3.800   0.7073   0.01405   0.00653  -0.0625  0.6451  1.0000  -1.2284   0.0000   0.0000   0.0000   0.3349
   3.900   0.7174   0.01415   0.00659  -0.0621  0.6339  1.0000  -1.2651   0.0000   0.0000   0.0000   0.3330
   4.000   0.7274   0.01425   0.00667  -0.0616  0.6219  1.0000  -1.3017   0.0000   0.0000   0.0000   0.3311
   4.100   0.7374   0.01437   0.00677  -0.0612  0.6094  1.0000  -1.3385   0.0000   0.0000   0.0000   0.3294
   4.200   0.7474   0.01449   0.00687  -0.0609  0.5969  1.0000  -1.3809   0.0000   0.0000   0.0000   0.3277
   4.300   0.7574   0.01462   0.00698  -0.0605  0.5844  1.0000  -1.4252   0.0000   0.0000   0.0000   0.3260
   4.400   0.7673   0.01476   0.00709  -0.0601  0.5720  1.0000  -1.4706   0.0000   0.0000   0.0000   0.3244
   4.500   0.7773   0.01490   0.00720  -0.0597  0.5594  1.0000  -1.5260   0.0000   0.0000   0.0000   0.3228
   4.600   0.7872   0.01505   0.00732  -0.0593  0.5469  1.0000  -1.5883   0.0000   0.0000   0.0000   0.3212
   4.700   0.7971   0.01520   0.00749  -0.0589  0.5343  1.0000  -1.6580   0.0000   0.0000   0.0000   0.3197
   4.800   0.8069   0.01537   0.00761  -0.0586  0.5216  1.0000  -1.7433   0.0000   0.0000   0.0000   0.3183
   4.900   0.8168   0.01554   0.00775  -0.0582  0.5089  1.0000  -1.8294   0.0000   0.0000   0.0000   0.3168
   5.000   0.8265   0.01571   0.00789  -0.0578  0.4958  1.0000  -1.9163   0.0000   0.0000   0.0000   0.3155
   5.100   0.8363   0.01589   0.00805  -0.0575  0.4824  1.0000  -2.0040   0.0000   0.0000   0.0000   0.3141
   5.200   0.8459   0.01608   0.00822  -0.0571  0.4689  1.0000  -2.0926   0.0000   0.0000   0.0000   0.3128
   5.300   0.8556   0.01627   0.00839  -0.0567  0.4553  1.0000  -2.1820   0.0000   0.0000   0.0000   0.3115
   5.400   0.8651   0.01648   0.00857  -0.0564  0.4416  1.0000  -2.2723   0.0000   0.0000   0.0000   0.3103
   5.500   0.8747   0.01669   0.00876  -0.0560  0.4278  1.0000  -2.3660   0.0000   0.0000   0.0000   0.3091
   5.600   0.8841   0.01690   0.00895  -0.0557  0.4140  1.0000  -2.4716   0.0000   0.0000   0.0000   0.3079
   5.700   0.8935   0.01713   0.00915  -0.0553  0.3999  1.0000  -2.5781   0.0000   0.0000   0.0000   0.3067
   5.800   0.9028   0.01736   0.00935  -0.0550  0.3858  1.0000  -2.6855   0.0000   0.0000   0.0000   0.3056
   5.900   0.9121   0.01760   0.00957  -0.0546  0.3717  1.0000  -2.7936   0.0000   0.0000   0.0000   0.3045
   6.000   0.9213   0.01786   0.00984  -0.0542  0.3573  1.0000  -2.9041   0.0000   0.0000   0.0000   0.3034
   6.100   0.9303   0.01812   0.01006  -0.0539  0.3429  1.0000  -3.0143   0.0000   0.0000   0.0000   0.3023
   6.200   0.9393   0.01839   0.01031  -0.0535  0.3283  1.0000  -3.1243   0.0000   0.0000   0.0000   0.3012
   6.300   0.9483   0.01867   0.01058  -0.0532  0.3132  1.0000  -3.2342   0.0000   0.0000   0.0000   0.3002
   6.400   0.9571   0.01896   0.01085  -0.0528  0.2978  1.0000  -3.3443   0.0000   0.0000   0.0000   0.2992
   6.500   0.9658   0.01927   0.01114  -0.0524  0.2824  1.0000  -3.4543   0.0000   0.0000   0.0000   0.2982
   6.600   0.9744   0.01959   0.01144  -0.0520  0.2670  1.0000  -3.5641   0.0000   0.0000   0.0000   0.2972
   6.700   0.9828   0.01994   0.01175  -0.0516  0.2514  1.0000  -3.6734   0.0000   0.0000   0.0000   0.2963
   6.800   0.9910   0.02030   0.01207  -0.0513  0.2357  1.0000  -3.7820   0.0000   0.0000   0.0000   0.2953
   6.900   0.9991   0.02071   0.01241  -0.0508  0.2202  1.0000  -3.8890   0.0000   0.0000   0.0000   0.2944
   7.000   1.0068   0.02117   0.01278  -0.0504  0.2046  1.0000  -3.9940   0.0000   0.0000   0.0000   0.2934
   7.100   1.0147   0.02162   0.01322  -0.0500  0.1872  1.0000  -4.0958   0.0000   0.0000   0.0000   0.2925
   7.200   1.0222   0.02213   0.01369  -0.0495  0.1705  1.0000  -4.1944   0.0000   0.0000   0.0000   0.2916
   7.300   1.0294   0.02271   0.01420  -0.0491  0.1546  1.0000  -4.2879   0.0000   0.0000   0.0000   0.2907
   7.400   1.0363   0.02332   0.01472  -0.0486  0.1393  1.0000  -4.3783   0.0000   0.0000   0.0000   0.2898
   7.500   1.0430   0.02400   0.01530  -0.0481  0.1249  1.0000  -4.4639   0.0000   0.0000   0.0000   0.2889
   7.600   1.0498   0.02474   0.01598  -0.0475  0.1119  1.0000  -4.5394   0.0000   0.0000   0.0000   0.2879
   7.700   1.0567   0.02548   0.01669  -0.0469  0.1000  1.0000  -4.6104   0.0000   0.0000   0.0000   0.2869
   7.800   1.0636   0.02624   0.01751  -0.0463  0.0897  1.0000  -4.6779   0.0000   0.0000   0.0000   0.2860
   7.900   1.0701   0.02718   0.01837  -0.0458  0.0821  1.0000  -4.7389   0.0000   0.0000   0.0000   0.2851
   8.000   1.0776   0.02797   0.01919  -0.0451  0.0753  1.0000  -4.7946   0.0000   0.0000   0.0000   0.2841
   8.100   1.0845   0.02908   0.02023  -0.0446  0.0700  1.0000  -4.8474   0.0000   0.0000   0.0000   0.2832
   8.200   1.0923   0.02972   0.02097  -0.0440  0.0645  1.0000  -4.9072   0.0000   0.0000   0.0000   0.2823
   8.300   1.0988   0.03077   0.02188  -0.0437  0.0601  1.0000  -4.9802   0.0000   0.0000   0.0000   0.2816
   8.400   1.1072   0.03183   0.02308  -0.0431  0.0571  1.0000  -5.0111   0.0000   0.0000   0.0000   0.2806
   8.500   1.1157   0.03283   0.02421  -0.0425  0.0545  1.0000  -5.0448   0.0000   0.0000   0.0000   0.2797
   8.600   1.1239   0.03381   0.02527  -0.0420  0.0522  1.0000  -5.0884   0.0000   0.0000   0.0000   0.2789
   8.700   1.1314   0.03475   0.02619  -0.0416  0.0498  1.0000  -5.1520   0.0000   0.0000   0.0000   0.2782
   8.800   1.1389   0.03693   0.02828  -0.0414  0.0475  1.0000  -5.2122   0.0000   0.0000   0.0000   0.2777
   8.900   1.1454   0.03750   0.02912  -0.0407  0.0460  1.0000  -5.2728   0.0000   0.0000   0.0000   0.2767
   9.000   1.1521   0.03844   0.03026  -0.0400  0.0443  1.0000  -5.3288   0.0000   0.0000   0.0000   0.2758
   9.100   1.1587   0.03961   0.03161  -0.0394  0.0430  1.0000  -5.3785   0.0000   0.0000   0.0000   0.2749
   9.200   1.1649   0.04095   0.03312  -0.0387  0.0422  1.0000  -5.4190   0.0000   0.0000   0.0000   0.2741
   9.300   1.1705   0.04234   0.03467  -0.0381  0.0415  1.0000  -5.4564   0.0000   0.0000   0.0000   0.2733
   9.400   1.1756   0.04377   0.03627  -0.0374  0.0410  1.0000  -5.4898   0.0000   0.0000   0.0000   0.2725
   9.500   1.1799   0.04526   0.03793  -0.0367  0.0406  1.0000  -5.5181   0.0000   0.0000   0.0000   0.2717
   9.600   1.1834   0.04680   0.03966  -0.0360  0.0402  1.0000  -5.5397   0.0000   0.0000   0.0000   0.2709
   9.700   1.1860   0.04842   0.04147  -0.0352  0.0400  1.0000  -5.5531   0.0000   0.0000   0.0000   0.2701
   9.800   1.1874   0.05012   0.04336  -0.0344  0.0399  1.0000  -5.5569   0.0000   0.0000   0.0000   0.2693
   9.900   1.1875   0.05188   0.04533  -0.0336  0.0399  1.0000  -5.5502   0.0000   0.0000   0.0000   0.2684
  10.000   1.1863   0.05372   0.04738  -0.0327  0.0400  1.0000  -5.5334   0.0000   0.0000   0.0000   0.2676
  10.100   1.1837   0.05561   0.04949  -0.0318  0.0402  1.0000  -5.5075   0.0000   0.0000   0.0000   0.2669
  10.200   1.1799   0.05753   0.05161  -0.0309  0.0404  1.0000  -5.4752   0.0000   0.0000   0.0000   0.2661
  10.300   1.1751   0.05946   0.05372  -0.0301  0.0406  1.0000  -5.4402   0.0000   0.0000   0.0000   0.2654
  10.400   1.1694   0.06136   0.05580  -0.0293  0.0409  1.0000  -5.4028   0.0000   0.0000   0.0000   0.2647
  10.500   1.1625   0.06323   0.05782  -0.0285  0.0411  1.0000  -5.3636   0.0000   0.0000   0.0000   0.2641
  10.600   1.1544   0.06494   0.05967  -0.0276  0.0413  1.0000  -5.3242   0.0000   0.0000   0.0000   0.2634
  10.700   1.1458   0.06671   0.06155  -0.0269  0.0415  1.0000  -5.2835   0.0000   0.0000   0.0000   0.2629
  10.800   1.1367   0.06854   0.06349  -0.0265  0.0418  1.0000  -5.2415   0.0000   0.0000   0.0000   0.2626
  10.900   1.1274   0.07046   0.06552  -0.0264  0.0420  1.0000  -5.1978   0.0000   0.0000   0.0000   0.2626
  11.000   1.1179   0.07251   0.06766  -0.0266  0.0422  1.0000  -5.1522   0.0000   0.0000   0.0000   0.2629
  11.100   1.1082   0.07468   0.06992  -0.0271  0.0425  1.0000  -5.1045   0.0000   0.0000   0.0000   0.2635
  11.200   1.0984   0.07701   0.07233  -0.0280  0.0427  1.0000  -5.0544   0.0000   0.0000   0.0000   0.2644
  11.300   1.0885   0.07950   0.07491  -0.0292  0.0429  1.0000  -5.0014   0.0000   0.0000   0.0000   0.2656
  11.400   1.0785   0.08218   0.07765  -0.0307  0.0431  1.0000  -4.9448   0.0000   0.0000   0.0000   0.2671
  11.500   1.0684   0.08507   0.08060  -0.0326  0.0434  1.0000  -4.8836   0.0000   0.0000   0.0000   0.2690
  11.600   1.0582   0.08817   0.08377  -0.0347  0.0436  1.0000  -4.8171   0.0000   0.0000   0.0000   0.2712
  11.700   1.0479   0.09152   0.08717  -0.0371  0.0439  1.0000  -4.7446   0.0000   0.0000   0.0000   0.2737
  11.800   1.0376   0.09511   0.09081  -0.0398  0.0442  1.0000  -4.6657   0.0000   0.0000   0.0000   0.2765
  11.900   1.0274   0.09891   0.09465  -0.0426  0.0446  1.0000  -4.5807   0.0000   0.0000   0.0000   0.2796
  12.000   1.0176   0.10287   0.09863  -0.0455  0.0449  1.0000  -4.4913   0.0000   0.0000   0.0000   0.2827
  12.100   1.0083   0.10688   0.10266  -0.0482  0.0453  1.0000  -4.4005   0.0000   0.0000   0.0000   0.2858
  12.200   1.0001   0.11084   0.10662  -0.0508  0.0457  1.0000  -4.3127   0.0000   0.0000   0.0000   0.2887
  12.300   0.9929   0.11460   0.11038  -0.0530  0.0461  1.0000  -4.2325   0.0000   0.0000   0.0000   0.2912
  12.400   0.9871   0.11808   0.11385  -0.0548  0.0465  1.0000  -4.1640   0.0000   0.0000   0.0000   0.2933
  12.500   0.9825   0.12120   0.11697  -0.0562  0.0468  1.0000  -4.1104   0.0000   0.0000   0.0000   0.2949
  12.600   0.9797   0.12387   0.11962  -0.0569  0.0472  1.0000  -4.0778   0.0000   0.0000   0.0000   0.2958
  13.100   0.7460   0.13999   0.13577  -0.0513  0.0698  1.0000  -2.5078   0.0000   0.0000   0.0000   0.3086
  13.200   0.7474   0.14128   0.13707  -0.0510  0.0707  1.0000  -2.5080   0.0000   0.0000   0.0000   0.3079
  13.300   0.7514   0.14246   0.13827  -0.0503  0.0713  1.0000  -2.5270   0.0000   0.0000   0.0000   0.3064
  13.400   0.7558   0.14378   0.13960  -0.0496  0.0717  1.0000  -2.5467   0.0000   0.0000   0.0000   0.3050
  14.000   0.9441   0.18472   0.18029  -0.0844  0.0972  1.0000  -2.5015   0.0000   0.0000   0.0000   0.3275
  14.100   0.9379   0.18655   0.18209  -0.0876  0.0969  1.0000  -2.4187   0.0000   0.0000   0.0000   0.3313
  14.200   0.9294   0.18812   0.18356  -0.0914  0.0961  1.0000  -2.3148   0.0000   0.0000   0.0000   0.3363
  14.300   0.9233   0.18945   0.18487  -0.0943  0.0944  1.0000  -2.2398   0.0000   0.0000   0.0000   0.3400
  14.400   0.9229   0.19107   0.18647  -0.0958  0.0927  1.0000  -2.2144   0.0000   0.0000   0.0000   0.3415
  14.500   0.9243   0.19268   0.18807  -0.0967  0.0912  1.0000  -2.2063   0.0000   0.0000   0.0000   0.3423
  14.600   0.9267   0.19427   0.18967  -0.0974  0.0898  1.0000  -2.2076   0.0000   0.0000   0.0000   0.3426
  14.700   0.9298   0.19586   0.19126  -0.0979  0.0886  1.0000  -2.2177   0.0000   0.0000   0.0000   0.3426
  14.800   0.9339   0.19743   0.19289  -0.0980  0.0875  1.0000  -2.2396   0.0000   0.0000   0.0000   0.3422
  14.900   0.9398   0.19912   0.19459  -0.0976  0.0864  1.0000  -2.2789   0.0000   0.0000   0.0000   0.3410
  15.000   0.9510   0.20151   0.19701  -0.0958  0.0854  1.0000  -2.3654   0.0000   0.0000   0.0000   0.3377
  15.100   0.9643   0.20552   0.20104  -0.0927  0.0844  1.0000  -2.4758   0.0000   0.0000   0.0000   0.3329
  15.200   0.9612   0.20699   0.20249  -0.0953  0.0842  1.0000  -2.4128   0.0000   0.0000   0.0000   0.3358
  15.300   0.9574   0.20820   0.20367  -0.0981  0.0839  1.0000  -2.3428   0.0000   0.0000   0.0000   0.3391
  15.400   0.9524   0.20897   0.20440  -0.1010  0.0835  1.0000  -2.2679   0.0000   0.0000   0.0000   0.3426
  15.500   0.9483   0.20980   0.20521  -0.1039  0.0824  1.0000  -2.1977   0.0000   0.0000   0.0000   0.3460
  15.600   0.9481   0.21115   0.20654  -0.1057  0.0807  1.0000  -2.1626   0.0000   0.0000   0.0000   0.3478
  15.700   0.9499   0.21264   0.20803  -0.1069  0.0791  1.0000  -2.1511   0.0000   0.0000   0.0000   0.3487
  15.800   0.9525   0.21412   0.20951  -0.1077  0.0776  1.0000  -2.1519   0.0000   0.0000   0.0000   0.3491
  15.900   0.9559   0.21554   0.21093  -0.1081  0.0761  1.0000  -2.1651   0.0000   0.0000   0.0000   0.3490
  16.000   0.9608   0.21696   0.21236  -0.1080  0.0745  1.0000  -2.2006   0.0000   0.0000   0.0000   0.3482
  16.700   0.7024   0.19583   0.19157  -0.0738  0.0821  1.0000  -1.5267   0.0000   0.0000   0.0000   0.3433
  16.800   0.7012   0.19681   0.19255  -0.0747  0.0807  1.0000  -1.5026   0.0000   0.0000   0.0000   0.3446
  16.900   0.7014   0.19794   0.19368  -0.0753  0.0794  1.0000  -1.4910   0.0000   0.0000   0.0000   0.3453
  17.000   0.7022   0.19911   0.19485  -0.0757  0.0781  1.0000  -1.4860   0.0000   0.0000   0.0000   0.3458
  17.100   0.7034   0.20029   0.19604  -0.0761  0.0769  1.0000  -1.4859   0.0000   0.0000   0.0000   0.3460
  17.200   0.7052   0.20149   0.19729  -0.0764  0.0758  1.0000  -1.4912   0.0000   0.0000   0.0000   0.3460
  17.300   0.7077   0.20275   0.19855  -0.0765  0.0747  1.0000  -1.5047   0.0000   0.0000   0.0000   0.3457
  17.400   0.7123   0.20425   0.20006  -0.0762  0.0736  1.0000  -1.5380   0.0000   0.0000   0.0000   0.3445
  17.500   0.7353   0.21105   0.20688  -0.0737  0.0717  1.0000  -1.6927   0.0000   0.0000   0.0000   0.3374
  17.600   0.7303   0.21108   0.20691  -0.0748  0.0716  1.0000  -1.6471   0.0000   0.0000   0.0000   0.3396
  17.700   0.7256   0.21113   0.20695  -0.0760  0.0714  1.0000  -1.6004   0.0000   0.0000   0.0000   0.3418
  17.800   0.7210   0.21123   0.20704  -0.0772  0.0712  1.0000  -1.5526   0.0000   0.0000   0.0000   0.3440
  17.900   0.7169   0.21146   0.20726  -0.0784  0.0708  1.0000  -1.5042   0.0000   0.0000   0.0000   0.3464
  18.000   0.7139   0.21198   0.20778  -0.0796  0.0699  1.0000  -1.4607   0.0000   0.0000   0.0000   0.3484
  18.100   0.7129   0.21290   0.20870  -0.0805  0.0686  1.0000  -1.4337   0.0000   0.0000   0.0000   0.3498
  18.200   0.7133   0.21401   0.20981  -0.0812  0.0671  1.0000  -1.4212   0.0000   0.0000   0.0000   0.3505
  18.300   0.7143   0.21517   0.21097  -0.0816  0.0657  1.0000  -1.4168   0.0000   0.0000   0.0000   0.3509
  18.400   0.7157   0.21634   0.21215  -0.0820  0.0644  1.0000  -1.4183   0.0000   0.0000   0.0000   0.3511
  18.500   0.7176   0.21753   0.21334  -0.0823  0.0632  1.0000  -1.4254   0.0000   0.0000   0.0000   0.3510
  18.600   0.7200   0.21877   0.21460  -0.0824  0.0622  1.0000  -1.4383   0.0000   0.0000   0.0000   0.3508
  18.700   0.7230   0.22016   0.21600  -0.0825  0.0614  1.0000  -1.4572   0.0000   0.0000   0.0000   0.3502
  18.800   0.7275   0.22195   0.21780  -0.0822  0.0606  1.0000  -1.4903   0.0000   0.0000   0.0000   0.3490
  18.900   0.7503   0.23030   0.22617  -0.0798  0.0594  1.0000  -1.6431   0.0000   0.0000   0.0000   0.3420
  19.000   0.7472   0.23054   0.22640  -0.0807  0.0594  1.0000  -1.6058   0.0000   0.0000   0.0000   0.3436
  19.100   0.7439   0.23069   0.22655  -0.0817  0.0593  1.0000  -1.5674   0.0000   0.0000   0.0000   0.3453
  19.200   0.7408   0.23086   0.22671  -0.0827  0.0592  1.0000  -1.5285   0.0000   0.0000   0.0000   0.3471
  19.300   0.7378   0.23105   0.22689  -0.0837  0.0591  1.0000  -1.4890   0.0000   0.0000   0.0000   0.3489
  19.400   0.7350   0.23130   0.22714  -0.0848  0.0589  1.0000  -1.4487   0.0000   0.0000   0.0000   0.3507
  19.500   0.7326   0.23168   0.22751  -0.0859  0.0585  1.0000  -1.4084   0.0000   0.0000   0.0000   0.3525
  19.600   0.7310   0.23229   0.22813  -0.0869  0.0580  1.0000  -1.3715   0.0000   0.0000   0.0000   0.3541
  19.700   0.7305   0.23322   0.22906  -0.0878  0.0572  1.0000  -1.3438   0.0000   0.0000   0.0000   0.3553
  19.800   0.7309   0.23435   0.23019  -0.0885  0.0563  1.0000  -1.3259   0.0000   0.0000   0.0000   0.3560
  19.900   0.7317   0.23555   0.23140  -0.0891  0.0554  1.0000  -1.3139   0.0000   0.0000   0.0000   0.3566
  20.000   0.7327   0.23679   0.23264  -0.0896  0.0545  1.0000  -1.3054   0.0000   0.0000   0.0000   0.3570
  20.100   0.7338   0.23803   0.23389  -0.0900  0.0536  1.0000  -1.2992   0.0000   0.0000   0.0000   0.3573
  20.200   0.7351   0.23928   0.23514  -0.0905  0.0528  1.0000  -1.2950   0.0000   0.0000   0.0000   0.3576
  20.300   0.7365   0.24053   0.23639  -0.0909  0.0520  1.0000  -1.2930   0.0000   0.0000   0.0000   0.3578
  20.400   0.7381   0.24178   0.23765  -0.0913  0.0513  1.0000  -1.2932   0.0000   0.0000   0.0000   0.3579
  20.500   0.7398   0.24304   0.23892  -0.0916  0.0506  1.0000  -1.2962   0.0000   0.0000   0.0000   0.3579
  20.600   0.7417   0.24434   0.24023  -0.0919  0.0500  1.0000  -1.3028   0.0000   0.0000   0.0000   0.3578
  20.700   0.7440   0.24575   0.24164  -0.0920  0.0494  1.0000  -1.3147   0.0000   0.0000   0.0000   0.3575
  20.800   0.7471   0.24739   0.24330  -0.0920  0.0488  1.0000  -1.3352   0.0000   0.0000   0.0000   0.3568
  20.900   0.7525   0.24995   0.24587  -0.0916  0.0482  1.0000  -1.3766   0.0000   0.0000   0.0000   0.3552
  21.000   0.7671   0.25759   0.25351  -0.0902  0.0475  1.0000  -1.4671   0.0000   0.0000   0.0000   0.3509
  21.100   0.7652   0.25790   0.25382  -0.0911  0.0475  1.0000  -1.4356   0.0000   0.0000   0.0000   0.3522
  21.200   0.7633   0.25821   0.25412  -0.0919  0.0474  1.0000  -1.4040   0.0000   0.0000   0.0000   0.3535
  21.300   0.7615   0.25853   0.25444  -0.0928  0.0473  1.0000  -1.3724   0.0000   0.0000   0.0000   0.3548
  21.400   0.7599   0.25887   0.25479  -0.0937  0.0472  1.0000  -1.3406   0.0000   0.0000   0.0000   0.3561
  21.500   0.7584   0.25926   0.25517  -0.0946  0.0471  1.0000  -1.3085   0.0000   0.0000   0.0000   0.3575
  21.600   0.7571   0.25972   0.25563  -0.0955  0.0469  1.0000  -1.2763   0.0000   0.0000   0.0000   0.3588
  21.700   0.7562   0.26029   0.25620  -0.0964  0.0467  1.0000  -1.2445   0.0000   0.0000   0.0000   0.3601
  21.800   0.7557   0.26104   0.25695  -0.0973  0.0463  1.0000  -1.2149   0.0000   0.0000   0.0000   0.3612
  21.900   0.7557   0.26199   0.25791  -0.0981  0.0458  1.0000  -1.1900   0.0000   0.0000   0.0000   0.3622
  22.000   0.7563   0.26313   0.25905  -0.0988  0.0452  1.0000  -1.1714   0.0000   0.0000   0.0000   0.3629
  22.100   0.7571   0.26436   0.26032  -0.0994  0.0444  1.0000  -1.1611   0.0000   0.0000   0.0000   0.3634
  22.200   0.7581   0.26562   0.26159  -0.1000  0.0437  1.0000  -1.1590   0.0000   0.0000   0.0000   0.3638
  22.300   0.7592   0.26691   0.26288  -0.1005  0.0430  1.0000  -1.1592   0.0000   0.0000   0.0000   0.3642
  22.400   0.7603   0.26820   0.26418  -0.1010  0.0422  1.0000  -1.1611   0.0000   0.0000   0.0000   0.3645
  22.500   0.7616   0.26949   0.26547  -0.1014  0.0415  1.0000  -1.1648   0.0000   0.0000   0.0000   0.3647
  22.600   0.7628   0.27077   0.26676  -0.1019  0.0408  1.0000  -1.1702   0.0000   0.0000   0.0000   0.3649
  22.700   0.7642   0.27205   0.26805  -0.1023  0.0401  1.0000  -1.1775   0.0000   0.0000   0.0000   0.3651
  22.800   0.7656   0.27333   0.26933  -0.1027  0.0395  1.0000  -1.1873   0.0000   0.0000   0.0000   0.3652
  22.900   0.7672   0.27463   0.27064  -0.1030  0.0389  1.0000  -1.2001   0.0000   0.0000   0.0000   0.3652
  23.000   0.7689   0.27596   0.27198  -0.1033  0.0383  1.0000  -1.2171   0.0000   0.0000   0.0000   0.3651
  23.100   0.7709   0.27741   0.27344  -0.1035  0.0377  1.0000  -1.2401   0.0000   0.0000   0.0000   0.3648
  23.200   0.7737   0.27920   0.27524  -0.1035  0.0372  1.0000  -1.2740   0.0000   0.0000   0.0000   0.3641
  23.300   0.7795   0.28265   0.27871  -0.1030  0.0366  1.0000  -1.3411   0.0000   0.0000   0.0000   0.3622
  23.400   0.7889   0.28929   0.28534  -0.1022  0.0362  1.0000  -1.4122   0.0000   0.0000   0.0000   0.3595
  23.500   0.7880   0.28985   0.28590  -0.1029  0.0361  1.0000  -1.3935   0.0000   0.0000   0.0000   0.3605
  23.600   0.7872   0.29044   0.28650  -0.1037  0.0361  1.0000  -1.3750   0.0000   0.0000   0.0000   0.3614
  23.700   0.7865   0.29103   0.28708  -0.1044  0.0361  1.0000  -1.3563   0.0000   0.0000   0.0000   0.3623
  23.800   0.7859   0.29163   0.28768  -0.1052  0.0360  1.0000  -1.3377   0.0000   0.0000   0.0000   0.3632
  23.900   0.7853   0.29225   0.28831  -0.1059  0.0359  1.0000  -1.3189   0.0000   0.0000   0.0000   0.3642
  24.000   0.7848   0.29289   0.28895  -0.1067  0.0359  1.0000  -1.2999   0.0000   0.0000   0.0000   0.3651
  24.100   0.7844   0.29358   0.28964  -0.1075  0.0358  1.0000  -1.2808   0.0000   0.0000   0.0000   0.3660
  24.200   0.7842   0.29431   0.29038  -0.1083  0.0357  1.0000  -1.2617   0.0000   0.0000   0.0000   0.3669
  24.300   0.7842   0.29513   0.29120  -0.1090  0.0355  1.0000  -1.2430   0.0000   0.0000   0.0000   0.3677
  24.400   0.7843   0.29604   0.29211  -0.1098  0.0353  1.0000  -1.2252   0.0000   0.0000   0.0000   0.3685
  24.500   0.7847   0.29706   0.29314  -0.1105  0.0350  1.0000  -1.2094   0.0000   0.0000   0.0000   0.3692
  24.600   0.7853   0.29821   0.29430  -0.1112  0.0347  1.0000  -1.1965   0.0000   0.0000   0.0000   0.3698
  24.700   0.7861   0.29945   0.29554  -0.1118  0.0343  1.0000  -1.1867   0.0000   0.0000   0.0000   0.3703
  24.800   0.7870   0.30074   0.29683  -0.1124  0.0338  1.0000  -1.1796   0.0000   0.0000   0.0000   0.3707
  24.900   0.7880   0.30207   0.29817  -0.1129  0.0334  1.0000  -1.1744   0.0000   0.0000   0.0000   0.3711
  25.000   0.7890   0.30341   0.29952  -0.1134  0.0329  1.0000  -1.1705   0.0000   0.0000   0.0000   0.3714
  25.100   0.7900   0.30477   0.30088  -0.1139  0.0325  1.0000  -1.1676   0.0000   0.0000   0.0000   0.3717
  25.200   0.7910   0.30612   0.30225  -0.1144  0.0321  1.0000  -1.1653   0.0000   0.0000   0.0000   0.3720
  25.300   0.7920   0.30748   0.30361  -0.1149  0.0317  1.0000  -1.1636   0.0000   0.0000   0.0000   0.3722
  25.400   0.7931   0.30884   0.30498  -0.1154  0.0313  1.0000  -1.1624   0.0000   0.0000   0.0000   0.3725
  25.500   0.7941   0.31020   0.30634  -0.1159  0.0309  1.0000  -1.1615   0.0000   0.0000   0.0000   0.3727
  25.600   0.7952   0.31156   0.30771  -0.1164  0.0305  1.0000  -1.1612   0.0000   0.0000   0.0000   0.3730
  25.700   0.7962   0.31291   0.30907  -0.1168  0.0301  1.0000  -1.1612   0.0000   0.0000   0.0000   0.3732
  25.800   0.7972   0.31426   0.31043  -0.1173  0.0297  1.0000  -1.1617   0.0000   0.0000   0.0000   0.3734
  25.900   0.7983   0.31562   0.31179  -0.1178  0.0294  1.0000  -1.1628   0.0000   0.0000   0.0000   0.3736
  26.000   0.7993   0.31697   0.31315  -0.1182  0.0290  1.0000  -1.1645   0.0000   0.0000   0.0000   0.3738
  26.100   0.8004   0.31832   0.31451  -0.1186  0.0287  1.0000  -1.1669   0.0000   0.0000   0.0000   0.3739
  26.200   0.8015   0.31967   0.31590  -0.1191  0.0284  1.0000  -1.1700   0.0000   0.0000   0.0000   0.3741
  26.300   0.8026   0.32104   0.31728  -0.1195  0.0281  1.0000  -1.1743   0.0000   0.0000   0.0000   0.3742
  26.400   0.8037   0.32242   0.31866  -0.1199  0.0277  1.0000  -1.1799   0.0000   0.0000   0.0000   0.3743
  26.500   0.8049   0.32383   0.32008  -0.1203  0.0275  1.0000  -1.1871   0.0000   0.0000   0.0000   0.3743
  26.600   0.8061   0.32528   0.32155  -0.1206  0.0272  1.0000  -1.1965   0.0000   0.0000   0.0000   0.3743
  26.700   0.8075   0.32683   0.32311  -0.1209  0.0269  1.0000  -1.2089   0.0000   0.0000   0.0000   0.3743
  26.800   0.8091   0.32857   0.32486  -0.1212  0.0266  1.0000  -1.2257   0.0000   0.0000   0.0000   0.3740
  26.900   0.8112   0.33076   0.32705  -0.1212  0.0264  1.0000  -1.2501   0.0000   0.0000   0.0000   0.3735
  27.000   0.8153   0.33454   0.33085  -0.1210  0.0261  1.0000  -1.2939   0.0000   0.0000   0.0000   0.3722


