xflr5 v6.61

 Calculated polar for: AG24

 1 1 Reynolds number fixed          Mach number fixed         

 xtrf =   1.000 (top)        1.000 (bottom)
 Mach =   0.000     Re =     0.450 e 6     Ncrit =   9.000

  alpha     CL        CD       CDp       Cm    Top Xtr Bot Xtr   Cpmin    Chinge    XCp    
 ------- -------- --------- --------- -------- ------- ------- -------- --------- ---------
 -10.000  -0.5217   0.11400   0.11163   0.0044  1.0000  0.0156  -2.0380   0.0000   0.0000   0.0000   0.2532
  -9.900  -0.5200   0.11252   0.11015   0.0038  1.0000  0.0158  -2.0399   0.0000   0.0000   0.0000   0.2521
  -9.800  -0.5183   0.11102   0.10865   0.0031  1.0000  0.0159  -2.0436   0.0000   0.0000   0.0000   0.2509
  -9.700  -0.5167   0.10950   0.10714   0.0024  1.0000  0.0161  -2.0489   0.0000   0.0000   0.0000   0.2496
  -9.600  -0.5151   0.10797   0.10562   0.0017  1.0000  0.0162  -2.0559   0.0000   0.0000   0.0000   0.2483
  -9.500  -0.5136   0.10643   0.10408   0.0010  1.0000  0.0164  -2.0646   0.0000   0.0000   0.0000   0.2470
  -9.400  -0.5122   0.10486   0.10252   0.0002  1.0000  0.0166  -2.0748   0.0000   0.0000   0.0000   0.2455
  -9.300  -0.5108   0.10328   0.10094  -0.0006  1.0000  0.0168  -2.0866   0.0000   0.0000   0.0000   0.2440
  -9.200  -0.5094   0.10168   0.09935  -0.0014  1.0000  0.0169  -2.1001   0.0000   0.0000   0.0000   0.2425
  -9.100  -0.5082   0.10006   0.09774  -0.0022  1.0000  0.0171  -2.1152   0.0000   0.0000   0.0000   0.2409
  -9.000  -0.5069   0.09842   0.09611  -0.0031  1.0000  0.0173  -2.1321   0.0000   0.0000   0.0000   0.2392
  -8.900  -0.5057   0.09676   0.09446  -0.0040  1.0000  0.0175  -2.1509   0.0000   0.0000   0.0000   0.2374
  -8.800  -0.5046   0.09508   0.09278  -0.0050  1.0000  0.0178  -2.1717   0.0000   0.0000   0.0000   0.2355
  -8.700  -0.5036   0.09337   0.09108  -0.0060  1.0000  0.0180  -2.1948   0.0000   0.0000   0.0000   0.2336
  -8.600  -0.5026   0.09163   0.08935  -0.0070  1.0000  0.0182  -2.2204   0.0000   0.0000   0.0000   0.2315
  -8.500  -0.5016   0.08985   0.08758  -0.0082  1.0000  0.0185  -2.2489   0.0000   0.0000   0.0000   0.2293
  -8.400  -0.5008   0.08803   0.08578  -0.0094  1.0000  0.0187  -2.2809   0.0000   0.0000   0.0000   0.2269
  -8.300  -0.4999   0.08617   0.08392  -0.0107  1.0000  0.0190  -2.3168   0.0000   0.0000   0.0000   0.2243
  -8.200  -0.4991   0.08424   0.08201  -0.0121  1.0000  0.0193  -2.3581   0.0000   0.0000   0.0000   0.2214
  -8.100  -0.4981   0.08226   0.08004  -0.0137  1.0000  0.0196  -2.4045   0.0000   0.0000   0.0000   0.2182
  -8.000  -0.4968   0.08020   0.07799  -0.0156  1.0000  0.0200  -2.4596   0.0000   0.0000   0.0000   0.2143
  -7.900  -0.4938   0.07824   0.07605  -0.0178  1.0000  0.0205  -2.5120   0.0000   0.0000   0.0000   0.2098
  -7.800  -0.4904   0.07633   0.07415  -0.0200  1.0000  0.0207  -2.5522   0.0000   0.0000   0.0000   0.2050
  -7.700  -0.4869   0.07400   0.07183  -0.0229  1.0000  0.0209  -2.5996   0.0000   0.0000   0.0000   0.1987
  -7.600  -0.4828   0.07125   0.06909  -0.0266  1.0000  0.0209  -2.6566   0.0000   0.0000   0.0000   0.1907
  -7.500  -0.4780   0.06800   0.06583  -0.0312  1.0000  0.0210  -2.7284   0.0000   0.0000   0.0000   0.1806
  -7.400  -0.4725   0.06390   0.06171  -0.0368  1.0000  0.0210  -2.8286   0.0000   0.0000   0.0000   0.1680
  -7.300  -0.4682   0.06013   0.05787  -0.0410  1.0000  0.0210  -2.9316   0.0000   0.0000   0.0000   0.1584
  -7.200  -0.4649   0.05715   0.05481  -0.0439  1.0000  0.0211  -3.0112   0.0000   0.0000   0.0000   0.1515
  -7.100  -0.4617   0.05454   0.05211  -0.0462  1.0000  0.0211  -3.0775   0.0000   0.0000   0.0000   0.1458
  -7.000  -0.4585   0.05217   0.04966  -0.0480  1.0000  0.0211  -3.1341   0.0000   0.0000   0.0000   0.1412
  -6.100  -0.4383   0.02404   0.01966  -0.0534  1.0000  0.0143  -4.4804   0.0000   0.0000   0.0000   0.1235
  -6.000  -0.4303   0.02320   0.01869  -0.0530  1.0000  0.0141  -4.4520   0.0000   0.0000   0.0000   0.1222
  -5.900  -0.4223   0.02239   0.01776  -0.0527  1.0000  0.0140  -4.4108   0.0000   0.0000   0.0000   0.1207
  -5.800  -0.4143   0.02136   0.01659  -0.0524  1.0000  0.0141  -4.3785   0.0000   0.0000   0.0000   0.1190
  -5.700  -0.4064   0.01998   0.01505  -0.0523  1.0000  0.0144  -4.3531   0.0000   0.0000   0.0000   0.1168
  -5.600  -0.3982   0.01922   0.01423  -0.0521  1.0000  0.0149  -4.2623   0.0000   0.0000   0.0000   0.1146
  -5.500  -0.3900   0.01886   0.01384  -0.0519  1.0000  0.0154  -4.1413   0.0000   0.0000   0.0000   0.1126
  -5.400  -0.3815   0.01844   0.01336  -0.0516  1.0000  0.0158  -4.0408   0.0000   0.0000   0.0000   0.1104
  -5.300  -0.3706   0.01767   0.01248  -0.0517  0.9998  0.0159  -3.9759   0.0000   0.0000   0.0000   0.1062
  -5.200  -0.3560   0.01647   0.01109  -0.0523  0.9991  0.0156  -3.9521   0.0000   0.0000   0.0000   0.0985
  -5.100  -0.3414   0.01553   0.01002  -0.0530  0.9982  0.0154  -3.8954   0.0000   0.0000   0.0000   0.0902
  -5.000  -0.3267   0.01479   0.00917  -0.0537  0.9974  0.0155  -3.8130   0.0000   0.0000   0.0000   0.0809
  -4.900  -0.3119   0.01416   0.00847  -0.0545  0.9965  0.0157  -3.7162   0.0000   0.0000   0.0000   0.0705
  -4.800  -0.2969   0.01362   0.00787  -0.0553  0.9956  0.0160  -3.6094   0.0000   0.0000   0.0000   0.0589
  -4.700  -0.2818   0.01315   0.00735  -0.0562  0.9947  0.0165  -3.4962   0.0000   0.0000   0.0000   0.0458
  -4.600  -0.2667   0.01273   0.00688  -0.0570  0.9938  0.0172  -3.3804   0.0000   0.0000   0.0000   0.0313
  -4.500  -0.2523   0.01235   0.00646  -0.0577  0.9924  0.0179  -3.2665   0.0000   0.0000   0.0000   0.0163
  -4.400  -0.2376   0.01199   0.00604  -0.0584  0.9909  0.0188  -3.1486   0.0000   0.0000   0.0000  -0.0010
  -4.300  -0.2228   0.01167   0.00568  -0.0592  0.9895  0.0196  -3.0455   0.0000   0.0000   0.0000  -0.0209
  -4.200  -0.2077   0.01140   0.00538  -0.0600  0.9880  0.0205  -2.9584   0.0000   0.0000   0.0000  -0.0443
  -4.100  -0.1923   0.01129   0.00525  -0.0609  0.9867  0.0213  -2.8493   0.0000   0.0000   0.0000  -0.0721
  -4.000  -0.1772   0.01052   0.00443  -0.0619  0.9856  0.0247  -2.8002   0.0000   0.0000   0.0000  -0.1050
  -3.900  -0.1615   0.01029   0.00419  -0.0628  0.9845  0.0273  -2.6983   0.0000   0.0000   0.0000  -0.1453
  -3.800  -0.1456   0.01007   0.00394  -0.0638  0.9835  0.0299  -2.6016   0.0000   0.0000   0.0000  -0.1950
  -3.700  -0.1295   0.00974   0.00356  -0.0649  0.9826  0.0343  -2.5147   0.0000   0.0000   0.0000  -0.2580
  -3.600  -0.1144   0.00949   0.00333  -0.0657  0.9811  0.0417  -2.4140   0.0000   0.0000   0.0000  -0.3317
  -3.500  -0.1006   0.00920   0.00310  -0.0663  0.9786  0.0568  -2.3189   0.0000   0.0000   0.0000  -0.4171
  -3.400  -0.0865   0.00886   0.00291  -0.0670  0.9763  0.0878  -2.2134   0.0000   0.0000   0.0000  -0.5338
  -3.300  -0.0722   0.00859   0.00276  -0.0678  0.9741  0.1216  -2.0978   0.0000   0.0000   0.0000  -0.6997
  -3.200  -0.0577   0.00835   0.00265  -0.0686  0.9721  0.1546  -1.9822   0.0000   0.0000   0.0000  -0.9525
  -3.100  -0.0432   0.00814   0.00256  -0.0695  0.9702  0.1900  -1.8669   0.0000   0.0000   0.0000  -1.3749
  -3.000  -0.0290   0.00794   0.00248  -0.0702  0.9682  0.2238  -1.7541   0.0000   0.0000   0.0000  -2.1966
  -2.900  -0.0175   0.00778   0.00242  -0.0703  0.9639  0.2515  -1.6548   0.0000   0.0000   0.0000  -3.8027
  -2.800  -0.0050   0.00763   0.00235  -0.0706  0.9603  0.2800  -1.5521   0.0000   0.0000   0.0000  -14.1268
  -2.700   0.0078   0.00748   0.00229  -0.0710  0.9572  0.3095  -1.4499   0.0000   0.0000   0.0000   9.3708
  -2.600   0.0207   0.00735   0.00224  -0.0713  0.9544  0.3377  -1.3493   0.0000   0.0000   0.0000   3.7279
  -2.500   0.0312   0.00723   0.00220  -0.0712  0.9491  0.3636  -1.2600   0.0000   0.0000   0.0000   2.5465
  -2.400   0.0425   0.00711   0.00215  -0.0711  0.9448  0.3891  -1.1709   0.0000   0.0000   0.0000   1.9341
  -2.300   0.0541   0.00700   0.00209  -0.0712  0.9413  0.4150  -1.0937   0.0000   0.0000   0.0000   1.5725
  -2.200   0.0646   0.00690   0.00206  -0.0710  0.9359  0.4391  -1.0234   0.0000   0.0000   0.0000   1.3553
  -2.100   0.0752   0.00681   0.00202  -0.0708  0.9309  0.4611  -0.9534   0.0000   0.0000   0.0000   1.1959
  -1.900   0.0964   0.00664   0.00195  -0.0703  0.9209  0.5040  -0.8172   0.0000   0.0000   0.0000   0.9831
  -1.800   0.1068   0.00655   0.00191  -0.0701  0.9158  0.5261  -0.7513   0.0000   0.0000   0.0000   0.9087
  -1.700   0.1173   0.00647   0.00188  -0.0698  0.9108  0.5493  -0.6870   0.0000   0.0000   0.0000   0.8476
  -1.600   0.1276   0.00639   0.00186  -0.0695  0.9049  0.5714  -0.6345   0.0000   0.0000   0.0000   0.7969
  -1.400   0.1483   0.00624   0.00181  -0.0690  0.8938  0.6159  -0.5315   0.0000   0.0000   0.0000   0.7163
  -1.300   0.1586   0.00618   0.00178  -0.0686  0.8881  0.6378  -0.4879   0.0000   0.0000   0.0000   0.6839
  -1.200   0.1689   0.00611   0.00176  -0.0683  0.8824  0.6602  -0.4472   0.0000   0.0000   0.0000   0.6555
  -1.100   0.1791   0.00604   0.00175  -0.0680  0.8761  0.6824  -0.4094   0.0000   0.0000   0.0000   0.6303
  -1.000   0.1892   0.00599   0.00173  -0.0676  0.8705  0.7053  -0.4127   0.0000   0.0000   0.0000   0.6078
  -0.900   0.1993   0.00592   0.00173  -0.0673  0.8638  0.7281  -0.4217   0.0000   0.0000   0.0000   0.5877
  -0.800   0.2092   0.00587   0.00171  -0.0668  0.8580  0.7506  -0.4308   0.0000   0.0000   0.0000   0.5695
  -0.700   0.2193   0.00582   0.00171  -0.0664  0.8512  0.7735  -0.4402   0.0000   0.0000   0.0000   0.5530
  -0.600   0.2289   0.00577   0.00170  -0.0659  0.8449  0.7953  -0.4495   0.0000   0.0000   0.0000   0.5378
  -0.500   0.2385   0.00573   0.00170  -0.0654  0.8381  0.8172  -0.4590   0.0000   0.0000   0.0000   0.5240
  -0.400   0.2478   0.00569   0.00168  -0.0648  0.8315  0.8387  -0.4685   0.0000   0.0000   0.0000   0.5111
  -0.300   0.2569   0.00564   0.00167  -0.0642  0.8245  0.8600  -0.4781   0.0000   0.0000   0.0000   0.4992
  -0.200   0.2654   0.00560   0.00165  -0.0634  0.8177  0.8823  -0.4873   0.0000   0.0000   0.0000   0.4880
  -0.100   0.2738   0.00555   0.00163  -0.0625  0.8106  0.9061  -0.4970   0.0000   0.0000   0.0000   0.4775
   0.000   0.2829   0.00550   0.00158  -0.0618  0.8035  0.9349  -0.5072   0.0000   0.0000   0.0000   0.4675
   0.100   0.2979   0.00545   0.00153  -0.0624  0.7961  0.9759  -0.5212   0.0000   0.0000   0.0000   0.4587
   0.200   0.3108   0.00547   0.00149  -0.0628  0.7886  1.0000  -0.5343   0.0000   0.0000   0.0000   0.4509
   0.300   0.3220   0.00550   0.00148  -0.0627  0.7806  1.0000  -0.5464   0.0000   0.0000   0.0000   0.4437
   0.400   0.3331   0.00554   0.00147  -0.0627  0.7731  1.0000  -0.5585   0.0000   0.0000   0.0000   0.4369
   0.500   0.3444   0.00557   0.00146  -0.0626  0.7647  1.0000  -0.5711   0.0000   0.0000   0.0000   0.4307
   0.600   0.3555   0.00561   0.00145  -0.0626  0.7567  1.0000  -0.5840   0.0000   0.0000   0.0000   0.4247
   0.700   0.3666   0.00566   0.00145  -0.0625  0.7484  1.0000  -0.5970   0.0000   0.0000   0.0000   0.4192
   0.800   0.3778   0.00570   0.00145  -0.0625  0.7398  1.0000  -0.6109   0.0000   0.0000   0.0000   0.4140
   0.900   0.3888   0.00575   0.00144  -0.0624  0.7315  1.0000  -0.6248   0.0000   0.0000   0.0000   0.4090
   1.000   0.4000   0.00579   0.00145  -0.0624  0.7224  1.0000  -0.6388   0.0000   0.0000   0.0000   0.4044
   1.100   0.4111   0.00584   0.00145  -0.0623  0.7135  1.0000  -0.6534   0.0000   0.0000   0.0000   0.4000
   1.300   0.4332   0.00594   0.00146  -0.0622  0.6949  1.0000  -0.6836   0.0000   0.0000   0.0000   0.3918
   1.400   0.4443   0.00600   0.00147  -0.0622  0.6855  1.0000  -0.6987   0.0000   0.0000   0.0000   0.3881
   1.500   0.4553   0.00606   0.00149  -0.0621  0.6763  1.0000  -0.7144   0.0000   0.0000   0.0000   0.3845
   1.600   0.4664   0.00612   0.00151  -0.0621  0.6664  1.0000  -0.7310   0.0000   0.0000   0.0000   0.3811
   1.700   0.4775   0.00618   0.00152  -0.0620  0.6566  1.0000  -0.7475   0.0000   0.0000   0.0000   0.3778
   1.800   0.4885   0.00625   0.00154  -0.0620  0.6470  1.0000  -0.7642   0.0000   0.0000   0.0000   0.3747
   1.900   0.4995   0.00631   0.00156  -0.0619  0.6368  1.0000  -0.7823   0.0000   0.0000   0.0000   0.3718
   2.000   0.5106   0.00638   0.00159  -0.0619  0.6264  1.0000  -0.8006   0.0000   0.0000   0.0000   0.3689
   2.100   0.5216   0.00645   0.00161  -0.0618  0.6163  1.0000  -0.8189   0.0000   0.0000   0.0000   0.3662
   2.200   0.5325   0.00653   0.00164  -0.0618  0.6062  1.0000  -0.8372   0.0000   0.0000   0.0000   0.3636
   2.300   0.5435   0.00660   0.00167  -0.0617  0.5956  1.0000  -0.8575   0.0000   0.0000   0.0000   0.3611
   2.400   0.5545   0.00667   0.00171  -0.0617  0.5851  1.0000  -0.8779   0.0000   0.0000   0.0000   0.3587
   2.500   0.5655   0.00675   0.00176  -0.0616  0.5749  1.0000  -0.8984   0.0000   0.0000   0.0000   0.3564
   2.600   0.5764   0.00684   0.00179  -0.0616  0.5646  1.0000  -0.9192   0.0000   0.0000   0.0000   0.3541
   2.700   0.5874   0.00691   0.00184  -0.0616  0.5538  1.0000  -0.9422   0.0000   0.0000   0.0000   0.3520
   2.800   0.5984   0.00699   0.00188  -0.0615  0.5433  1.0000  -0.9654   0.0000   0.0000   0.0000   0.3500
   2.900   0.6093   0.00708   0.00192  -0.0615  0.5330  1.0000  -0.9887   0.0000   0.0000   0.0000   0.3480
   3.000   0.6202   0.00717   0.00197  -0.0614  0.5225  1.0000  -1.0137   0.0000   0.0000   0.0000   0.3460
   3.100   0.6311   0.00726   0.00202  -0.0614  0.5115  1.0000  -1.0403   0.0000   0.0000   0.0000   0.3442
   3.200   0.6421   0.00735   0.00207  -0.0613  0.5008  1.0000  -1.0671   0.0000   0.0000   0.0000   0.3424
   3.300   0.6530   0.00744   0.00213  -0.0613  0.4904  1.0000  -1.0940   0.0000   0.0000   0.0000   0.3407
   3.400   0.6638   0.00754   0.00219  -0.0613  0.4799  1.0000  -1.1252   0.0000   0.0000   0.0000   0.3390
   3.500   0.6747   0.00764   0.00227  -0.0612  0.4691  1.0000  -1.1567   0.0000   0.0000   0.0000   0.3374
   3.600   0.6856   0.00773   0.00233  -0.0612  0.4584  1.0000  -1.1884   0.0000   0.0000   0.0000   0.3358
   3.700   0.6964   0.00783   0.00239  -0.0611  0.4479  1.0000  -1.2217   0.0000   0.0000   0.0000   0.3343
   3.800   0.7072   0.00794   0.00246  -0.0611  0.4373  1.0000  -1.2594   0.0000   0.0000   0.0000   0.3328
   4.000   0.7289   0.00815   0.00261  -0.0610  0.4156  1.0000  -1.3359   0.0000   0.0000   0.0000   0.3299
   4.100   0.7397   0.00826   0.00268  -0.0610  0.4048  1.0000  -1.3793   0.0000   0.0000   0.0000   0.3286
   4.200   0.7504   0.00838   0.00276  -0.0609  0.3939  1.0000  -1.4254   0.0000   0.0000   0.0000   0.3272
   4.300   0.7611   0.00850   0.00284  -0.0609  0.3831  1.0000  -1.4719   0.0000   0.0000   0.0000   0.3259
   4.400   0.7718   0.00862   0.00293  -0.0608  0.3718  1.0000  -1.5295   0.0000   0.0000   0.0000   0.3247
   4.500   0.7826   0.00874   0.00301  -0.0608  0.3605  1.0000  -1.5945   0.0000   0.0000   0.0000   0.3234
   4.600   0.7933   0.00886   0.00312  -0.0607  0.3494  1.0000  -1.6786   0.0000   0.0000   0.0000   0.3222
   4.700   0.8039   0.00899   0.00322  -0.0607  0.3382  1.0000  -1.7689   0.0000   0.0000   0.0000   0.3211
   4.800   0.8145   0.00913   0.00331  -0.0606  0.3268  1.0000  -1.8599   0.0000   0.0000   0.0000   0.3199
   5.000   0.8357   0.00940   0.00352  -0.0605  0.3038  1.0000  -2.0462   0.0000   0.0000   0.0000   0.3177
   5.100   0.8463   0.00955   0.00362  -0.0604  0.2921  1.0000  -2.1463   0.0000   0.0000   0.0000   0.3167
   5.200   0.8568   0.00970   0.00374  -0.0604  0.2802  1.0000  -2.2578   0.0000   0.0000   0.0000   0.3156
   5.300   0.8673   0.00985   0.00385  -0.0603  0.2686  1.0000  -2.3709   0.0000   0.0000   0.0000   0.3146
   5.400   0.8777   0.01002   0.00397  -0.0602  0.2571  1.0000  -2.4855   0.0000   0.0000   0.0000   0.3136
   5.500   0.8880   0.01019   0.00410  -0.0602  0.2450  1.0000  -2.6015   0.0000   0.0000   0.0000   0.3126
   5.700   0.9088   0.01053   0.00436  -0.0600  0.2210  1.0000  -2.8388   0.0000   0.0000   0.0000   0.3107
   5.800   0.9192   0.01070   0.00450  -0.0599  0.2095  1.0000  -2.9598   0.0000   0.0000   0.0000   0.3098
   5.900   0.9294   0.01089   0.00467  -0.0599  0.1976  1.0000  -3.0853   0.0000   0.0000   0.0000   0.3089
   6.000   0.9396   0.01109   0.00482  -0.0598  0.1851  1.0000  -3.2090   0.0000   0.0000   0.0000   0.3080
   6.100   0.9497   0.01130   0.00498  -0.0597  0.1724  1.0000  -3.3336   0.0000   0.0000   0.0000   0.3071
   6.200   0.9597   0.01151   0.00514  -0.0596  0.1603  1.0000  -3.4593   0.0000   0.0000   0.0000   0.3062
   6.300   0.9697   0.01174   0.00531  -0.0595  0.1485  1.0000  -3.5860   0.0000   0.0000   0.0000   0.3054
   6.400   0.9797   0.01197   0.00549  -0.0594  0.1367  1.0000  -3.7136   0.0000   0.0000   0.0000   0.3045
   6.500   0.9897   0.01219   0.00567  -0.0592  0.1254  1.0000  -3.8429   0.0000   0.0000   0.0000   0.3037
   6.600   0.9996   0.01242   0.00586  -0.0591  0.1141  1.0000  -3.9729   0.0000   0.0000   0.0000   0.3029
   6.700   1.0094   0.01267   0.00606  -0.0590  0.1027  1.0000  -4.1033   0.0000   0.0000   0.0000   0.3020
   6.800   1.0191   0.01293   0.00627  -0.0589  0.0914  1.0000  -4.2340   0.0000   0.0000   0.0000   0.3012
   6.900   1.0287   0.01321   0.00649  -0.0587  0.0805  1.0000  -4.3646   0.0000   0.0000   0.0000   0.3004
   7.000   1.0382   0.01351   0.00673  -0.0585  0.0699  1.0000  -4.4948   0.0000   0.0000   0.0000   0.2997
   7.100   1.0475   0.01385   0.00700  -0.0584  0.0593  1.0000  -4.6237   0.0000   0.0000   0.0000   0.2989
   7.200   1.0569   0.01415   0.00726  -0.0582  0.0501  1.0000  -4.7533   0.0000   0.0000   0.0000   0.2981
   7.300   1.0663   0.01447   0.00755  -0.0580  0.0420  1.0000  -4.8799   0.0000   0.0000   0.0000   0.2973
   7.400   1.0752   0.01486   0.00793  -0.0577  0.0346  1.0000  -4.9964   0.0000   0.0000   0.0000   0.2965
   7.500   1.0841   0.01527   0.00830  -0.0574  0.0286  1.0000  -5.1095   0.0000   0.0000   0.0000   0.2956
   7.600   1.0929   0.01571   0.00876  -0.0570  0.0243  1.0000  -5.2081   0.0000   0.0000   0.0000   0.2948
   7.700   1.1023   0.01602   0.00909  -0.0568  0.0215  1.0000  -5.3227   0.0000   0.0000   0.0000   0.2940
   7.800   1.1100   0.01662   0.00970  -0.0563  0.0181  1.0000  -5.4040   0.0000   0.0000   0.0000   0.2931
   7.900   1.1185   0.01708   0.01020  -0.0559  0.0165  1.0000  -5.4966   0.0000   0.0000   0.0000   0.2922
   8.000   1.1281   0.01731   0.01048  -0.0557  0.0154  1.0000  -5.6180   0.0000   0.0000   0.0000   0.2915
   8.100   1.1372   0.01763   0.01083  -0.0555  0.0144  1.0000  -5.7502   0.0000   0.0000   0.0000   0.2907
   8.200   1.1461   0.01799   0.01121  -0.0552  0.0135  1.0000  -5.8893   0.0000   0.0000   0.0000   0.2900
   8.300   1.1545   0.01840   0.01166  -0.0548  0.0127  1.0000  -6.0247   0.0000   0.0000   0.0000   0.2892
   8.400   1.1619   0.01899   0.01229  -0.0543  0.0119  1.0000  -6.1376   0.0000   0.0000   0.0000   0.2884
   8.500   1.1670   0.01992   0.01330  -0.0535  0.0112  1.0000  -6.2046   0.0000   0.0000   0.0000   0.2873
   8.600   1.1709   0.02103   0.01451  -0.0525  0.0107  1.0000  -6.2499   0.0000   0.0000   0.0000   0.2862
   8.700   1.1795   0.02138   0.01491  -0.0522  0.0105  1.0000  -6.3873   0.0000   0.0000   0.0000   0.2855
   8.800   1.1877   0.02180   0.01538  -0.0518  0.0103  1.0000  -6.5166   0.0000   0.0000   0.0000   0.2847
   8.900   1.1954   0.02228   0.01592  -0.0513  0.0100  1.0000  -6.6387   0.0000   0.0000   0.0000   0.2839
   9.000   1.2028   0.02281   0.01651  -0.0508  0.0098  1.0000  -6.7551   0.0000   0.0000   0.0000   0.2831
   9.100   1.2099   0.02338   0.01715  -0.0503  0.0096  1.0000  -6.8670   0.0000   0.0000   0.0000   0.2823
   9.200   1.2167   0.02399   0.01782  -0.0497  0.0094  1.0000  -6.9754   0.0000   0.0000   0.0000   0.2815
   9.300   1.2233   0.02464   0.01853  -0.0491  0.0092  1.0000  -7.0808   0.0000   0.0000   0.0000   0.2806
   9.400   1.2296   0.02531   0.01927  -0.0485  0.0091  1.0000  -7.1834   0.0000   0.0000   0.0000   0.2798
   9.500   1.2358   0.02602   0.02004  -0.0479  0.0089  1.0000  -7.2831   0.0000   0.0000   0.0000   0.2790
   9.600   1.2418   0.02676   0.02086  -0.0473  0.0088  1.0000  -7.3796   0.0000   0.0000   0.0000   0.2781
   9.700   1.2475   0.02754   0.02175  -0.0466  0.0087  1.0000  -7.4705   0.0000   0.0000   0.0000   0.2773
   9.800   1.2530   0.02834   0.02263  -0.0459  0.0086  1.0000  -7.5608   0.0000   0.0000   0.0000   0.2765
   9.900   1.2584   0.02912   0.02349  -0.0453  0.0085  1.0000  -7.6566   0.0000   0.0000   0.0000   0.2757
  10.000   1.2638   0.02987   0.02431  -0.0446  0.0084  1.0000  -7.7584   0.0000   0.0000   0.0000   0.2749
  10.100   1.2692   0.03058   0.02509  -0.0440  0.0082  1.0000  -7.8672   0.0000   0.0000   0.0000   0.2741
  10.200   1.2745   0.03124   0.02582  -0.0434  0.0081  1.0000  -7.9833   0.0000   0.0000   0.0000   0.2734
  10.300   1.2796   0.03187   0.02650  -0.0428  0.0079  1.0000  -8.1062   0.0000   0.0000   0.0000   0.2726
  10.400   1.2846   0.03247   0.02716  -0.0422  0.0078  1.0000  -8.2342   0.0000   0.0000   0.0000   0.2719
  10.500   1.2892   0.03307   0.02781  -0.0416  0.0076  1.0000  -8.3636   0.0000   0.0000   0.0000   0.2712
  10.600   1.2933   0.03372   0.02850  -0.0410  0.0075  1.0000  -8.4886   0.0000   0.0000   0.0000   0.2705
  10.700   1.2966   0.03445   0.02928  -0.0403  0.0073  1.0000  -8.6021   0.0000   0.0000   0.0000   0.2697
  10.800   1.2988   0.03531   0.03021  -0.0395  0.0072  1.0000  -8.6971   0.0000   0.0000   0.0000   0.2689
  10.900   1.2996   0.03628   0.03125  -0.0385  0.0071  1.0000  -8.7678   0.0000   0.0000   0.0000   0.2680
  11.000   1.2989   0.03732   0.03237  -0.0374  0.0070  1.0000  -8.8180   0.0000   0.0000   0.0000   0.2670
  11.100   1.2976   0.03841   0.03356  -0.0363  0.0070  1.0000  -8.8565   0.0000   0.0000   0.0000   0.2660
  11.200   1.2958   0.03954   0.03477  -0.0351  0.0069  1.0000  -8.8885   0.0000   0.0000   0.0000   0.2651
  11.300   1.2935   0.04070   0.03603  -0.0341  0.0069  1.0000  -8.9149   0.0000   0.0000   0.0000   0.2642
  11.400   1.2908   0.04191   0.03733  -0.0331  0.0069  1.0000  -8.9363   0.0000   0.0000   0.0000   0.2634
  11.500   1.2876   0.04318   0.03870  -0.0323  0.0069  1.0000  -8.9532   0.0000   0.0000   0.0000   0.2626
  11.600   1.2841   0.04451   0.04012  -0.0315  0.0069  1.0000  -8.9662   0.0000   0.0000   0.0000   0.2620
  11.700   1.2803   0.04590   0.04160  -0.0309  0.0068  1.0000  -8.9755   0.0000   0.0000   0.0000   0.2614
  11.800   1.2762   0.04735   0.04314  -0.0304  0.0068  1.0000  -8.9813   0.0000   0.0000   0.0000   0.2610
  11.900   1.2718   0.04888   0.04476  -0.0301  0.0068  1.0000  -8.9838   0.0000   0.0000   0.0000   0.2606
  12.000   1.2672   0.05048   0.04645  -0.0299  0.0068  1.0000  -8.9832   0.0000   0.0000   0.0000   0.2604
  12.100   1.2624   0.05217   0.04823  -0.0299  0.0068  1.0000  -8.9796   0.0000   0.0000   0.0000   0.2604
  12.200   1.2575   0.05393   0.05007  -0.0301  0.0068  1.0000  -8.9732   0.0000   0.0000   0.0000   0.2604
  12.300   1.2523   0.05577   0.05201  -0.0304  0.0068  1.0000  -8.9639   0.0000   0.0000   0.0000   0.2606
  12.400   1.2471   0.05772   0.05404  -0.0309  0.0068  1.0000  -8.9520   0.0000   0.0000   0.0000   0.2610
  12.500   1.2417   0.05974   0.05615  -0.0316  0.0068  1.0000  -8.9373   0.0000   0.0000   0.0000   0.2614
  12.600   1.2361   0.06186   0.05834  -0.0324  0.0068  1.0000  -8.9198   0.0000   0.0000   0.0000   0.2620
  12.700   1.2305   0.06408   0.06064  -0.0333  0.0068  1.0000  -8.8995   0.0000   0.0000   0.0000   0.2628
  12.800   1.2248   0.06639   0.06304  -0.0345  0.0068  1.0000  -8.8764   0.0000   0.0000   0.0000   0.2636
  12.900   1.2190   0.06880   0.06552  -0.0357  0.0068  1.0000  -8.8501   0.0000   0.0000   0.0000   0.2646
  13.000   1.2130   0.07129   0.06809  -0.0371  0.0068  1.0000  -8.8207   0.0000   0.0000   0.0000   0.2657
  13.100   1.2070   0.07389   0.07076  -0.0385  0.0069  1.0000  -8.7879   0.0000   0.0000   0.0000   0.2669
  13.200   1.2009   0.07659   0.07353  -0.0402  0.0069  1.0000  -8.7514   0.0000   0.0000   0.0000   0.2683
  13.300   1.1946   0.07939   0.07640  -0.0419  0.0069  1.0000  -8.7108   0.0000   0.0000   0.0000   0.2697
  13.400   1.1882   0.08228   0.07936  -0.0436  0.0069  1.0000  -8.6655   0.0000   0.0000   0.0000   0.2712
  13.500   1.1816   0.08527   0.08241  -0.0455  0.0069  1.0000  -8.6151   0.0000   0.0000   0.0000   0.2729
  13.600   1.1749   0.08837   0.08559  -0.0474  0.0069  1.0000  -8.5583   0.0000   0.0000   0.0000   0.2746
  13.700   1.1679   0.09161   0.08889  -0.0495  0.0070  1.0000  -8.4938   0.0000   0.0000   0.0000   0.2765
  13.800   1.1605   0.09499   0.09234  -0.0516  0.0070  1.0000  -8.4196   0.0000   0.0000   0.0000   0.2784
  13.900   1.1527   0.09855   0.09597  -0.0539  0.0070  1.0000  -8.3327   0.0000   0.0000   0.0000   0.2806
  14.000   1.1443   0.10236   0.09985  -0.0562  0.0071  1.0000  -8.2274   0.0000   0.0000   0.0000   0.2829
  14.100   1.1346   0.10657   0.10413  -0.0588  0.0072  1.0000  -8.0920   0.0000   0.0000   0.0000   0.2855
  14.200   1.1228   0.11148   0.10913  -0.0619  0.0073  1.0000  -7.9026   0.0000   0.0000   0.0000   0.2887
  14.300   1.1069   0.11766   0.11541  -0.0656  0.0074  1.0000  -7.6142   0.0000   0.0000   0.0000   0.2929
  14.400   1.0866   0.12529   0.12314  -0.0701  0.0077  1.0000  -7.2115   0.0000   0.0000   0.0000   0.2982


