xflr5 v6.61

 Calculated polar for: AG24

 1 1 Reynolds number fixed          Mach number fixed         

 xtrf =   1.000 (top)        1.000 (bottom)
 Mach =   0.000     Re =     1.000 e 6     Ncrit =   9.000

  alpha     CL        CD       CDp       Cm    Top Xtr Bot Xtr   Cpmin    Chinge    XCp    
 ------- -------- --------- --------- -------- ------- ------- -------- --------- ---------
 -10.000  -0.5242   0.11152   0.10992   0.0047  1.0000  0.0083  -2.3399   0.0000   0.0000   0.0000   0.2534
  -9.900  -0.5229   0.10980   0.10822   0.0039  1.0000  0.0083  -2.3638   0.0000   0.0000   0.0000   0.2520
  -9.800  -0.5216   0.10809   0.10650   0.0031  1.0000  0.0083  -2.3886   0.0000   0.0000   0.0000   0.2506
  -9.700  -0.5204   0.10636   0.10478   0.0024  1.0000  0.0083  -2.4143   0.0000   0.0000   0.0000   0.2492
  -9.600  -0.5193   0.10462   0.10305   0.0016  1.0000  0.0083  -2.4410   0.0000   0.0000   0.0000   0.2477
  -9.500  -0.5181   0.10287   0.10130   0.0007  1.0000  0.0083  -2.4687   0.0000   0.0000   0.0000   0.2462
  -9.400  -0.5171   0.10110   0.09954  -0.0001  1.0000  0.0083  -2.4975   0.0000   0.0000   0.0000   0.2446
  -9.300  -0.5161   0.09933   0.09777  -0.0009  1.0000  0.0083  -2.5274   0.0000   0.0000   0.0000   0.2430
  -9.200  -0.5151   0.09753   0.09598  -0.0018  1.0000  0.0083  -2.5585   0.0000   0.0000   0.0000   0.2413
  -9.100  -0.5142   0.09573   0.09416  -0.0028  1.0000  0.0084  -2.5910   0.0000   0.0000   0.0000   0.2395
  -9.000  -0.5134   0.09390   0.09234  -0.0037  1.0000  0.0084  -2.6249   0.0000   0.0000   0.0000   0.2377
  -8.900  -0.5126   0.09205   0.09050  -0.0047  1.0000  0.0084  -2.6604   0.0000   0.0000   0.0000   0.2358
  -8.800  -0.5120   0.09017   0.08862  -0.0057  1.0000  0.0084  -2.6975   0.0000   0.0000   0.0000   0.2339
  -8.700  -0.5114   0.08827   0.08673  -0.0068  1.0000  0.0084  -2.7363   0.0000   0.0000   0.0000   0.2318
  -8.600  -0.5109   0.08634   0.08481  -0.0079  1.0000  0.0084  -2.7772   0.0000   0.0000   0.0000   0.2296
  -8.500  -0.5105   0.08439   0.08286  -0.0091  1.0000  0.0084  -2.8202   0.0000   0.0000   0.0000   0.2273
  -8.400  -0.5101   0.08239   0.08087  -0.0104  1.0000  0.0084  -2.8656   0.0000   0.0000   0.0000   0.2249
  -8.300  -0.5099   0.08034   0.07884  -0.0117  1.0000  0.0084  -2.9136   0.0000   0.0000   0.0000   0.2223
  -8.200  -0.5098   0.07825   0.07675  -0.0132  1.0000  0.0084  -2.9647   0.0000   0.0000   0.0000   0.2195
  -8.100  -0.5205   0.07345   0.07200  -0.0168  1.0000  0.0085  -3.2616   0.0000   0.0000   0.0000   0.2131
  -8.000  -0.5248   0.06933   0.06790  -0.0210  1.0000  0.0085  -3.4566   0.0000   0.0000   0.0000   0.2053
  -7.300  -0.5458   0.02157   0.01827  -0.0563  1.0000  0.0057  -6.7243   0.0000   0.0000   0.0000   0.1415
  -7.200  -0.5386   0.02067   0.01726  -0.0560  1.0000  0.0058  -6.6699   0.0000   0.0000   0.0000   0.1407
  -7.100  -0.5311   0.02000   0.01650  -0.0556  1.0000  0.0059  -6.5848   0.0000   0.0000   0.0000   0.1399
  -7.000  -0.5234   0.01942   0.01584  -0.0553  1.0000  0.0060  -6.4884   0.0000   0.0000   0.0000   0.1391
  -6.900  -0.5156   0.01890   0.01525  -0.0549  1.0000  0.0061  -6.3890   0.0000   0.0000   0.0000   0.1382
  -6.800  -0.5039   0.01838   0.01466  -0.0553  0.9996  0.0063  -6.2565   0.0000   0.0000   0.0000   0.1350
  -6.700  -0.4905   0.01782   0.01402  -0.0561  0.9989  0.0065  -6.1205   0.0000   0.0000   0.0000   0.1305
  -6.600  -0.4770   0.01722   0.01334  -0.0568  0.9982  0.0067  -5.9943   0.0000   0.0000   0.0000   0.1258
  -6.500  -0.4635   0.01660   0.01263  -0.0575  0.9974  0.0069  -5.8731   0.0000   0.0000   0.0000   0.1207
  -6.400  -0.4499   0.01598   0.01192  -0.0582  0.9967  0.0071  -5.7518   0.0000   0.0000   0.0000   0.1154
  -6.300  -0.4362   0.01539   0.01124  -0.0589  0.9960  0.0072  -5.6271   0.0000   0.0000   0.0000   0.1098
  -6.200  -0.4224   0.01482   0.01058  -0.0596  0.9953  0.0074  -5.4988   0.0000   0.0000   0.0000   0.1037
  -6.100  -0.4086   0.01428   0.00995  -0.0603  0.9947  0.0075  -5.3682   0.0000   0.0000   0.0000   0.0971
  -6.000  -0.3946   0.01377   0.00936  -0.0611  0.9942  0.0076  -5.2331   0.0000   0.0000   0.0000   0.0901
  -5.900  -0.3814   0.01330   0.00882  -0.0616  0.9932  0.0077  -5.0997   0.0000   0.0000   0.0000   0.0833
  -5.800  -0.3681   0.01286   0.00832  -0.0621  0.9920  0.0078  -4.9643   0.0000   0.0000   0.0000   0.0761
  -5.700  -0.3547   0.01245   0.00786  -0.0626  0.9909  0.0079  -4.8258   0.0000   0.0000   0.0000   0.0682
  -5.600  -0.3411   0.01207   0.00742  -0.0632  0.9898  0.0080  -4.6844   0.0000   0.0000   0.0000   0.0594
  -5.500  -0.3273   0.01177   0.00709  -0.0638  0.9887  0.0081  -4.5331   0.0000   0.0000   0.0000   0.0497
  -5.400  -0.3135   0.01164   0.00694  -0.0644  0.9875  0.0083  -4.3624   0.0000   0.0000   0.0000   0.0392
  -5.300  -0.2996   0.01165   0.00694  -0.0650  0.9862  0.0084  -4.1790   0.0000   0.0000   0.0000   0.0278
  -5.200  -0.2868   0.01038   0.00551  -0.0656  0.9849  0.0088  -4.1496   0.0000   0.0000   0.0000   0.0159
  -5.100  -0.2732   0.00980   0.00486  -0.0662  0.9836  0.0092  -4.0450   0.0000   0.0000   0.0000   0.0021
  -5.000  -0.2593   0.00942   0.00443  -0.0668  0.9823  0.0096  -3.9191   0.0000   0.0000   0.0000  -0.0134
  -4.900  -0.2474   0.00918   0.00416  -0.0670  0.9795  0.0100  -3.7894   0.0000   0.0000   0.0000  -0.0264
  -4.800  -0.2356   0.00900   0.00396  -0.0671  0.9765  0.0105  -3.6530   0.0000   0.0000   0.0000  -0.0407
  -4.700  -0.2234   0.00884   0.00379  -0.0673  0.9737  0.0110  -3.5148   0.0000   0.0000   0.0000  -0.0572
  -4.600  -0.2109   0.00868   0.00360  -0.0676  0.9712  0.0116  -3.3751   0.0000   0.0000   0.0000  -0.0763
  -4.500  -0.1985   0.00854   0.00344  -0.0678  0.9688  0.0122  -3.2660   0.0000   0.0000   0.0000  -0.0977
  -4.400  -0.1877   0.00842   0.00330  -0.0676  0.9648  0.0127  -3.1691   0.0000   0.0000   0.0000  -0.1166
  -4.300  -0.1768   0.00833   0.00318  -0.0675  0.9608  0.0131  -3.0666   0.0000   0.0000   0.0000  -0.1383
  -4.200  -0.1657   0.00825   0.00310  -0.0674  0.9572  0.0134  -2.9590   0.0000   0.0000   0.0000  -0.1636
  -4.100  -0.1547   0.00790   0.00265  -0.0673  0.9536  0.0154  -2.9075   0.0000   0.0000   0.0000  -0.1921
  -4.000  -0.1440   0.00774   0.00249  -0.0672  0.9490  0.0174  -2.8170   0.0000   0.0000   0.0000  -0.2234
  -3.900  -0.1334   0.00764   0.00238  -0.0670  0.9446  0.0190  -2.7148   0.0000   0.0000   0.0000  -0.2594
  -3.700  -0.1120   0.00745   0.00215  -0.0666  0.9359  0.0235  -2.5140   0.0000   0.0000   0.0000  -0.3528
  -3.600  -0.1014   0.00730   0.00202  -0.0665  0.9311  0.0294  -2.4178   0.0000   0.0000   0.0000  -0.4140
  -3.500  -0.0908   0.00719   0.00191  -0.0662  0.9269  0.0369  -2.3189   0.0000   0.0000   0.0000  -0.4885
  -3.400  -0.0799   0.00706   0.00182  -0.0662  0.9218  0.0474  -2.2159   0.0000   0.0000   0.0000  -0.5877
  -3.300  -0.0693   0.00694   0.00172  -0.0660  0.9167  0.0601  -2.1118   0.0000   0.0000   0.0000  -0.7143
  -3.200  -0.0586   0.00682   0.00164  -0.0659  0.9120  0.0744  -2.0103   0.0000   0.0000   0.0000  -0.8868
  -3.100  -0.0477   0.00669   0.00157  -0.0659  0.9066  0.0915  -1.9086   0.0000   0.0000   0.0000  -1.1450
  -3.000  -0.0370   0.00658   0.00150  -0.0658  0.9013  0.1101  -1.8090   0.0000   0.0000   0.0000  -1.5453
  -2.900  -0.0261   0.00645   0.00143  -0.0657  0.8962  0.1313  -1.7101   0.0000   0.0000   0.0000  -2.2895
  -2.800  -0.0152   0.00634   0.00137  -0.0657  0.8904  0.1511  -1.6124   0.0000   0.0000   0.0000  -4.1087
  -2.600   0.0067   0.00615   0.00127  -0.0656  0.8795  0.1915  -1.4213   0.0000   0.0000   0.0000  10.1584
  -2.500   0.0176   0.00604   0.00122  -0.0655  0.8738  0.2147  -1.3284   0.0000   0.0000   0.0000   4.0066
  -2.400   0.0286   0.00595   0.00118  -0.0655  0.8682  0.2369  -1.2368   0.0000   0.0000   0.0000   2.5571
  -2.300   0.0397   0.00587   0.00114  -0.0655  0.8622  0.2574  -1.1475   0.0000   0.0000   0.0000   1.9123
  -2.200   0.0506   0.00579   0.00109  -0.0654  0.8565  0.2784  -1.0710   0.0000   0.0000   0.0000   1.5508
  -2.100   0.0618   0.00571   0.00106  -0.0654  0.8503  0.3007  -0.9984   0.0000   0.0000   0.0000   1.3154
  -2.000   0.0728   0.00564   0.00103  -0.0654  0.8443  0.3223  -0.9276   0.0000   0.0000   0.0000   1.1535
  -1.900   0.0840   0.00557   0.00100  -0.0654  0.8381  0.3439  -0.8574   0.0000   0.0000   0.0000   1.0328
  -1.800   0.0950   0.00551   0.00098  -0.0654  0.8317  0.3652  -0.7888   0.0000   0.0000   0.0000   0.9411
  -1.700   0.1062   0.00545   0.00096  -0.0654  0.8256  0.3860  -0.7211   0.0000   0.0000   0.0000   0.8680
  -1.600   0.1173   0.00540   0.00094  -0.0654  0.8189  0.4052  -0.6591   0.0000   0.0000   0.0000   0.8090
  -1.500   0.1285   0.00536   0.00092  -0.0653  0.8126  0.4220  -0.6051   0.0000   0.0000   0.0000   0.7600
  -1.400   0.1397   0.00533   0.00090  -0.0653  0.8057  0.4389  -0.5517   0.0000   0.0000   0.0000   0.7188
  -1.300   0.1508   0.00529   0.00088  -0.0653  0.7992  0.4575  -0.5019   0.0000   0.0000   0.0000   0.6838
  -1.200   0.1620   0.00524   0.00087  -0.0653  0.7921  0.4780  -0.4594   0.0000   0.0000   0.0000   0.6537
  -1.100   0.1732   0.00520   0.00085  -0.0653  0.7853  0.4977  -0.4175   0.0000   0.0000   0.0000   0.6274
  -1.000   0.1844   0.00517   0.00085  -0.0653  0.7779  0.5166  -0.4108   0.0000   0.0000   0.0000   0.6043
  -0.900   0.1955   0.00514   0.00084  -0.0652  0.7708  0.5357  -0.4203   0.0000   0.0000   0.0000   0.5838
  -0.800   0.2067   0.00511   0.00083  -0.0652  0.7632  0.5536  -0.4300   0.0000   0.0000   0.0000   0.5655
  -0.700   0.2179   0.00508   0.00083  -0.0652  0.7558  0.5724  -0.4400   0.0000   0.0000   0.0000   0.5491
  -0.600   0.2290   0.00506   0.00082  -0.0652  0.7479  0.5910  -0.4500   0.0000   0.0000   0.0000   0.5343
  -0.500   0.2402   0.00503   0.00082  -0.0652  0.7402  0.6101  -0.4603   0.0000   0.0000   0.0000   0.5209
  -0.400   0.2513   0.00501   0.00082  -0.0651  0.7323  0.6298  -0.4709   0.0000   0.0000   0.0000   0.5086
  -0.300   0.2625   0.00498   0.00082  -0.0651  0.7240  0.6490  -0.4815   0.0000   0.0000   0.0000   0.4974
  -0.200   0.2735   0.00496   0.00083  -0.0651  0.7160  0.6687  -0.4923   0.0000   0.0000   0.0000   0.4871
  -0.100   0.2846   0.00494   0.00083  -0.0650  0.7074  0.6889  -0.5035   0.0000   0.0000   0.0000   0.4776
   0.000   0.2957   0.00492   0.00084  -0.0650  0.6990  0.7095  -0.5149   0.0000   0.0000   0.0000   0.4688
   0.100   0.3066   0.00491   0.00085  -0.0649  0.6905  0.7306  -0.5267   0.0000   0.0000   0.0000   0.4606
   0.200   0.3175   0.00489   0.00087  -0.0648  0.6816  0.7510  -0.5387   0.0000   0.0000   0.0000   0.4529
   0.300   0.3284   0.00488   0.00088  -0.0647  0.6729  0.7714  -0.5506   0.0000   0.0000   0.0000   0.4458
   0.400   0.3391   0.00487   0.00089  -0.0645  0.6638  0.7906  -0.5624   0.0000   0.0000   0.0000   0.4391
   0.500   0.3498   0.00486   0.00091  -0.0644  0.6546  0.8099  -0.5750   0.0000   0.0000   0.0000   0.4327
   0.600   0.3604   0.00486   0.00092  -0.0642  0.6455  0.8288  -0.5876   0.0000   0.0000   0.0000   0.4267
   0.700   0.3707   0.00486   0.00094  -0.0639  0.6363  0.8473  -0.6003   0.0000   0.0000   0.0000   0.4210
   0.800   0.3809   0.00485   0.00095  -0.0637  0.6272  0.8664  -0.6136   0.0000   0.0000   0.0000   0.4156
   0.900   0.3907   0.00484   0.00097  -0.0633  0.6183  0.8860  -0.6267   0.0000   0.0000   0.0000   0.4104
   1.000   0.3999   0.00482   0.00097  -0.0627  0.6091  0.9079  -0.6393   0.0000   0.0000   0.0000   0.4052
   1.100   0.4084   0.00479   0.00097  -0.0620  0.6004  0.9356  -0.6523   0.0000   0.0000   0.0000   0.4001
   1.200   0.4213   0.00477   0.00095  -0.0623  0.5904  0.9846  -0.6688   0.0000   0.0000   0.0000   0.3960
   1.300   0.4332   0.00483   0.00096  -0.0624  0.5801  1.0000  -0.6845   0.0000   0.0000   0.0000   0.3922
   1.400   0.4445   0.00488   0.00098  -0.0625  0.5704  1.0000  -0.6998   0.0000   0.0000   0.0000   0.3886
   1.500   0.4558   0.00494   0.00100  -0.0625  0.5609  1.0000  -0.7158   0.0000   0.0000   0.0000   0.3851
   1.600   0.4670   0.00501   0.00102  -0.0625  0.5510  1.0000  -0.7325   0.0000   0.0000   0.0000   0.3818
   1.700   0.4784   0.00507   0.00104  -0.0625  0.5412  1.0000  -0.7492   0.0000   0.0000   0.0000   0.3786
   1.800   0.4896   0.00513   0.00106  -0.0626  0.5318  1.0000  -0.7664   0.0000   0.0000   0.0000   0.3756
   1.900   0.5008   0.00520   0.00109  -0.0626  0.5222  1.0000  -0.7847   0.0000   0.0000   0.0000   0.3727
   2.000   0.5121   0.00526   0.00111  -0.0626  0.5124  1.0000  -0.8032   0.0000   0.0000   0.0000   0.3699
   2.100   0.5234   0.00533   0.00114  -0.0626  0.5031  1.0000  -0.8217   0.0000   0.0000   0.0000   0.3673
   2.200   0.5346   0.00540   0.00117  -0.0626  0.4935  1.0000  -0.8406   0.0000   0.0000   0.0000   0.3647
   2.300   0.5458   0.00547   0.00120  -0.0627  0.4835  1.0000  -0.8611   0.0000   0.0000   0.0000   0.3623
   2.400   0.5570   0.00554   0.00123  -0.0627  0.4738  1.0000  -0.8818   0.0000   0.0000   0.0000   0.3599
   2.500   0.5682   0.00561   0.00127  -0.0627  0.4643  1.0000  -0.9025   0.0000   0.0000   0.0000   0.3577
   2.700   0.5905   0.00576   0.00134  -0.0627  0.4449  1.0000  -0.9473   0.0000   0.0000   0.0000   0.3534
   2.800   0.6017   0.00583   0.00138  -0.0627  0.4358  1.0000  -0.9707   0.0000   0.0000   0.0000   0.3514
   3.000   0.6240   0.00599   0.00146  -0.0628  0.4165  1.0000  -1.0204   0.0000   0.0000   0.0000   0.3476
   3.100   0.6351   0.00606   0.00150  -0.0628  0.4071  1.0000  -1.0473   0.0000   0.0000   0.0000   0.3457
   3.200   0.6462   0.00615   0.00155  -0.0628  0.3976  1.0000  -1.0743   0.0000   0.0000   0.0000   0.3440
   3.300   0.6573   0.00623   0.00159  -0.0628  0.3881  1.0000  -1.1029   0.0000   0.0000   0.0000   0.3423
   3.400   0.6684   0.00631   0.00164  -0.0628  0.3785  1.0000  -1.1346   0.0000   0.0000   0.0000   0.3406
   3.500   0.6794   0.00640   0.00170  -0.0628  0.3688  1.0000  -1.1664   0.0000   0.0000   0.0000   0.3390
   3.600   0.6905   0.00649   0.00176  -0.0628  0.3590  1.0000  -1.1985   0.0000   0.0000   0.0000   0.3375
   3.700   0.7015   0.00658   0.00181  -0.0628  0.3495  1.0000  -1.2341   0.0000   0.0000   0.0000   0.3360
   3.800   0.7125   0.00667   0.00187  -0.0628  0.3395  1.0000  -1.2723   0.0000   0.0000   0.0000   0.3345
   4.000   0.7345   0.00686   0.00198  -0.0628  0.3197  1.0000  -1.3503   0.0000   0.0000   0.0000   0.3317
   4.100   0.7455   0.00696   0.00205  -0.0628  0.3097  1.0000  -1.3966   0.0000   0.0000   0.0000   0.3303
   4.200   0.7563   0.00708   0.00212  -0.0628  0.2992  1.0000  -1.4432   0.0000   0.0000   0.0000   0.3290
   4.300   0.7673   0.00718   0.00218  -0.0628  0.2891  1.0000  -1.4908   0.0000   0.0000   0.0000   0.3277
   4.400   0.7782   0.00728   0.00225  -0.0627  0.2799  1.0000  -1.5560   0.0000   0.0000   0.0000   0.3265
   4.500   0.7891   0.00739   0.00232  -0.0627  0.2696  1.0000  -1.6253   0.0000   0.0000   0.0000   0.3253
   4.600   0.7998   0.00752   0.00242  -0.0627  0.2585  1.0000  -1.7174   0.0000   0.0000   0.0000   0.3241
   4.700   0.8107   0.00764   0.00249  -0.0627  0.2480  1.0000  -1.8091   0.0000   0.0000   0.0000   0.3229
   4.800   0.8215   0.00775   0.00257  -0.0627  0.2385  1.0000  -1.9022   0.0000   0.0000   0.0000   0.3218
   4.900   0.8323   0.00788   0.00266  -0.0626  0.2279  1.0000  -1.9962   0.0000   0.0000   0.0000   0.3207
   5.000   0.8429   0.00802   0.00275  -0.0626  0.2168  1.0000  -2.1017   0.0000   0.0000   0.0000   0.3196
   5.100   0.8537   0.00815   0.00284  -0.0626  0.2066  1.0000  -2.2144   0.0000   0.0000   0.0000   0.3185
   5.200   0.8645   0.00826   0.00293  -0.0625  0.1980  1.0000  -2.3295   0.0000   0.0000   0.0000   0.3175
   5.300   0.8751   0.00841   0.00303  -0.0625  0.1878  1.0000  -2.4455   0.0000   0.0000   0.0000   0.3165
   5.400   0.8856   0.00857   0.00314  -0.0625  0.1757  1.0000  -2.5627   0.0000   0.0000   0.0000   0.3155
   5.500   0.8960   0.00875   0.00325  -0.0624  0.1634  1.0000  -2.6814   0.0000   0.0000   0.0000   0.3145
   5.600   0.9066   0.00890   0.00336  -0.0624  0.1528  1.0000  -2.8025   0.0000   0.0000   0.0000   0.3135
   5.700   0.9172   0.00904   0.00347  -0.0623  0.1438  1.0000  -2.9258   0.0000   0.0000   0.0000   0.3126
   5.800   0.9277   0.00920   0.00360  -0.0622  0.1344  1.0000  -3.0528   0.0000   0.0000   0.0000   0.3116
   6.000   0.9484   0.00956   0.00386  -0.0621  0.1133  1.0000  -3.3063   0.0000   0.0000   0.0000   0.3098
   6.100   0.9588   0.00974   0.00400  -0.0620  0.1030  1.0000  -3.4352   0.0000   0.0000   0.0000   0.3090
   6.200   0.9691   0.00993   0.00414  -0.0620  0.0933  1.0000  -3.5650   0.0000   0.0000   0.0000   0.3081
   6.300   0.9792   0.01014   0.00429  -0.0619  0.0835  1.0000  -3.6957   0.0000   0.0000   0.0000   0.3072
   6.400   0.9895   0.01033   0.00443  -0.0618  0.0751  1.0000  -3.8287   0.0000   0.0000   0.0000   0.3064
   6.500   0.9998   0.01050   0.00458  -0.0617  0.0678  1.0000  -3.9635   0.0000   0.0000   0.0000   0.3055
   6.600   1.0099   0.01073   0.00475  -0.0616  0.0592  1.0000  -4.0976   0.0000   0.0000   0.0000   0.3047
   6.700   1.0201   0.01091   0.00490  -0.0615  0.0528  1.0000  -4.2351   0.0000   0.0000   0.0000   0.3039
   6.800   1.0302   0.01112   0.00508  -0.0614  0.0458  1.0000  -4.3723   0.0000   0.0000   0.0000   0.3031
   6.900   1.0402   0.01135   0.00526  -0.0613  0.0392  1.0000  -4.5104   0.0000   0.0000   0.0000   0.3023
   7.000   1.0504   0.01154   0.00543  -0.0612  0.0338  1.0000  -4.6504   0.0000   0.0000   0.0000   0.3015
   7.100   1.0602   0.01178   0.00563  -0.0610  0.0282  1.0000  -4.7893   0.0000   0.0000   0.0000   0.3007
   7.200   1.0704   0.01197   0.00582  -0.0609  0.0241  1.0000  -4.9304   0.0000   0.0000   0.0000   0.2999
   7.300   1.0802   0.01222   0.00605  -0.0608  0.0201  1.0000  -5.0683   0.0000   0.0000   0.0000   0.2992
   7.400   1.0902   0.01245   0.00627  -0.0606  0.0165  1.0000  -5.2028   0.0000   0.0000   0.0000   0.2984
   7.500   1.1002   0.01265   0.00648  -0.0605  0.0146  1.0000  -5.3423   0.0000   0.0000   0.0000   0.2976
   7.600   1.1095   0.01301   0.00681  -0.0602  0.0113  1.0000  -5.4574   0.0000   0.0000   0.0000   0.2968
   7.700   1.1195   0.01323   0.00706  -0.0600  0.0103  1.0000  -5.5870   0.0000   0.0000   0.0000   0.2961
   7.800   1.1296   0.01341   0.00726  -0.0599  0.0096  1.0000  -5.7259   0.0000   0.0000   0.0000   0.2953
   7.900   1.1395   0.01362   0.00749  -0.0598  0.0089  1.0000  -5.8632   0.0000   0.0000   0.0000   0.2946
   8.000   1.1492   0.01388   0.00774  -0.0596  0.0081  1.0000  -6.0245   0.0000   0.0000   0.0000   0.2939
   8.100   1.1583   0.01424   0.00814  -0.0593  0.0072  1.0000  -6.1651   0.0000   0.0000   0.0000   0.2931
   8.200   1.1663   0.01483   0.00883  -0.0588  0.0065  1.0000  -6.2688   0.0000   0.0000   0.0000   0.2922
   8.300   1.1763   0.01501   0.00903  -0.0586  0.0063  1.0000  -6.4415   0.0000   0.0000   0.0000   0.2915
   8.400   1.1861   0.01522   0.00926  -0.0584  0.0062  1.0000  -6.6109   0.0000   0.0000   0.0000   0.2908
   8.500   1.1957   0.01545   0.00952  -0.0582  0.0060  1.0000  -6.7768   0.0000   0.0000   0.0000   0.2901
   8.600   1.2051   0.01572   0.00982  -0.0580  0.0058  1.0000  -6.9399   0.0000   0.0000   0.0000   0.2894
   8.700   1.2145   0.01599   0.01012  -0.0578  0.0055  1.0000  -7.1034   0.0000   0.0000   0.0000   0.2887
   8.800   1.2238   0.01626   0.01042  -0.0575  0.0053  1.0000  -7.2708   0.0000   0.0000   0.0000   0.2881
   8.900   1.2330   0.01653   0.01072  -0.0573  0.0051  1.0000  -7.4426   0.0000   0.0000   0.0000   0.2874
   9.000   1.2423   0.01680   0.01100  -0.0571  0.0049  1.0000  -7.6189   0.0000   0.0000   0.0000   0.2867
   9.100   1.2514   0.01707   0.01130  -0.0569  0.0048  1.0000  -7.7983   0.0000   0.0000   0.0000   0.2861
   9.200   1.2604   0.01736   0.01162  -0.0566  0.0046  1.0000  -7.9770   0.0000   0.0000   0.0000   0.2854
   9.300   1.2689   0.01771   0.01202  -0.0563  0.0044  1.0000  -8.1464   0.0000   0.0000   0.0000   0.2847
   9.400   1.2768   0.01816   0.01251  -0.0559  0.0043  1.0000  -8.3022   0.0000   0.0000   0.0000   0.2840
   9.500   1.2839   0.01872   0.01313  -0.0554  0.0041  1.0000  -8.4376   0.0000   0.0000   0.0000   0.2832
   9.600   1.2902   0.01939   0.01388  -0.0548  0.0040  1.0000  -8.5556   0.0000   0.0000   0.0000   0.2824
   9.700   1.2955   0.02017   0.01474  -0.0540  0.0039  1.0000  -8.6573   0.0000   0.0000   0.0000   0.2815
   9.800   1.2999   0.02107   0.01575  -0.0532  0.0038  1.0000  -8.7402   0.0000   0.0000   0.0000   0.2806
   9.900   1.3031   0.02211   0.01689  -0.0522  0.0038  1.0000  -8.8041   0.0000   0.0000   0.0000   0.2796
  10.000   1.3109   0.02249   0.01731  -0.0518  0.0037  1.0000  -8.9720   0.0000   0.0000   0.0000   0.2789
  10.100   1.3184   0.02289   0.01776  -0.0514  0.0037  1.0000  -9.1377   0.0000   0.0000   0.0000   0.2783
  10.200   1.3257   0.02331   0.01822  -0.0510  0.0037  1.0000  -9.3010   0.0000   0.0000   0.0000   0.2776
  10.300   1.3328   0.02376   0.01871  -0.0505  0.0037  1.0000  -9.4618   0.0000   0.0000   0.0000   0.2769
  10.400   1.3396   0.02422   0.01922  -0.0500  0.0037  1.0000  -9.6201   0.0000   0.0000   0.0000   0.2762
  10.500   1.3461   0.02470   0.01975  -0.0495  0.0036  1.0000  -9.7758   0.0000   0.0000   0.0000   0.2755
  10.600   1.3524   0.02520   0.02031  -0.0489  0.0036  1.0000  -9.9285   0.0000   0.0000   0.0000   0.2747
  10.700   1.3584   0.02572   0.02088  -0.0484  0.0036  1.0000  -10.0783   0.0000   0.0000   0.0000   0.2740
  10.800   1.3641   0.02626   0.02148  -0.0478  0.0035  1.0000  -10.2248   0.0000   0.0000   0.0000   0.2733
  10.900   1.3694   0.02683   0.02210  -0.0471  0.0035  1.0000  -10.3680   0.0000   0.0000   0.0000   0.2725
  11.000   1.3744   0.02741   0.02274  -0.0465  0.0035  1.0000  -10.5075   0.0000   0.0000   0.0000   0.2718
  11.100   1.3791   0.02801   0.02340  -0.0458  0.0034  1.0000  -10.6432   0.0000   0.0000   0.0000   0.2710
  11.200   1.3834   0.02862   0.02407  -0.0451  0.0034  1.0000  -10.7747   0.0000   0.0000   0.0000   0.2703
  11.300   1.3872   0.02926   0.02477  -0.0443  0.0034  1.0000  -10.9018   0.0000   0.0000   0.0000   0.2695
  11.400   1.3906   0.02992   0.02549  -0.0435  0.0033  1.0000  -11.0240   0.0000   0.0000   0.0000   0.2687
  11.500   1.3931   0.03058   0.02621  -0.0426  0.0033  1.0000  -11.1373   0.0000   0.0000   0.0000   0.2678
  11.600   1.3944   0.03124   0.02693  -0.0415  0.0033  1.0000  -11.2389   0.0000   0.0000   0.0000   0.2669
  11.700   1.3951   0.03192   0.02768  -0.0404  0.0033  1.0000  -11.3347   0.0000   0.0000   0.0000   0.2659
  11.800   1.3955   0.03264   0.02846  -0.0393  0.0032  1.0000  -11.4253   0.0000   0.0000   0.0000   0.2650
  11.900   1.3954   0.03340   0.02928  -0.0383  0.0032  1.0000  -11.5115   0.0000   0.0000   0.0000   0.2641
  12.000   1.3951   0.03421   0.03015  -0.0373  0.0032  1.0000  -11.5936   0.0000   0.0000   0.0000   0.2633
  12.100   1.3945   0.03507   0.03109  -0.0365  0.0031  1.0000  -11.6727   0.0000   0.0000   0.0000   0.2625
  12.200   1.3936   0.03598   0.03206  -0.0357  0.0031  1.0000  -11.7477   0.0000   0.0000   0.0000   0.2618
  12.300   1.3925   0.03694   0.03309  -0.0350  0.0031  1.0000  -11.8185   0.0000   0.0000   0.0000   0.2612
  12.400   1.3912   0.03797   0.03419  -0.0344  0.0031  1.0000  -11.8857   0.0000   0.0000   0.0000   0.2606
  12.500   1.3897   0.03907   0.03535  -0.0339  0.0030  1.0000  -11.9488   0.0000   0.0000   0.0000   0.2601
  12.600   1.3878   0.04024   0.03658  -0.0335  0.0030  1.0000  -12.0076   0.0000   0.0000   0.0000   0.2597
  12.700   1.3858   0.04148   0.03789  -0.0333  0.0030  1.0000  -12.0628   0.0000   0.0000   0.0000   0.2594
  12.800   1.3836   0.04280   0.03928  -0.0332  0.0030  1.0000  -12.1132   0.0000   0.0000   0.0000   0.2592
  12.900   1.3810   0.04421   0.04075  -0.0332  0.0030  1.0000  -12.1589   0.0000   0.0000   0.0000   0.2590
  13.000   1.3782   0.04570   0.04231  -0.0333  0.0029  1.0000  -12.1999   0.0000   0.0000   0.0000   0.2590
  13.100   1.3752   0.04729   0.04397  -0.0335  0.0029  1.0000  -12.2361   0.0000   0.0000   0.0000   0.2591
  13.200   1.3718   0.04898   0.04572  -0.0339  0.0029  1.0000  -12.2658   0.0000   0.0000   0.0000   0.2592
  13.300   1.3682   0.05078   0.04758  -0.0344  0.0029  1.0000  -12.2895   0.0000   0.0000   0.0000   0.2595
  13.400   1.3642   0.05269   0.04956  -0.0351  0.0029  1.0000  -12.3070   0.0000   0.0000   0.0000   0.2598
  13.500   1.3599   0.05472   0.05165  -0.0359  0.0029  1.0000  -12.3177   0.0000   0.0000   0.0000   0.2603
  13.600   1.3552   0.05686   0.05387  -0.0368  0.0028  1.0000  -12.3206   0.0000   0.0000   0.0000   0.2609
  13.700   1.3501   0.05913   0.05620  -0.0379  0.0028  1.0000  -12.3148   0.0000   0.0000   0.0000   0.2616
  13.800   1.3446   0.06153   0.05867  -0.0390  0.0028  1.0000  -12.3007   0.0000   0.0000   0.0000   0.2624
  13.900   1.3388   0.06407   0.06127  -0.0403  0.0028  1.0000  -12.2782   0.0000   0.0000   0.0000   0.2633
  14.000   1.3325   0.06674   0.06401  -0.0417  0.0028  1.0000  -12.2461   0.0000   0.0000   0.0000   0.2643
  14.100   1.3258   0.06953   0.06687  -0.0432  0.0028  1.0000  -12.2040   0.0000   0.0000   0.0000   0.2654
  14.200   1.3185   0.07245   0.06985  -0.0448  0.0028  1.0000  -12.1516   0.0000   0.0000   0.0000   0.2666
  14.300   1.3109   0.07552   0.07298  -0.0464  0.0028  1.0000  -12.0889   0.0000   0.0000   0.0000   0.2679
  14.400   1.3028   0.07870   0.07623  -0.0482  0.0028  1.0000  -12.0169   0.0000   0.0000   0.0000   0.2692
  14.500   1.2944   0.08202   0.07961  -0.0500  0.0028  1.0000  -11.9343   0.0000   0.0000   0.0000   0.2707
  14.600   1.2855   0.08543   0.08308  -0.0518  0.0028  1.0000  -11.8422   0.0000   0.0000   0.0000   0.2723
  14.700   1.2762   0.08895   0.08667  -0.0537  0.0028  1.0000  -11.7393   0.0000   0.0000   0.0000   0.2739
  14.800   1.2667   0.09258   0.09036  -0.0557  0.0029  1.0000  -11.6287   0.0000   0.0000   0.0000   0.2756
  14.900   1.2570   0.09634   0.09417  -0.0577  0.0029  1.0000  -11.5093   0.0000   0.0000   0.0000   0.2774
  15.000   1.2470   0.10020   0.09809  -0.0597  0.0029  1.0000  -11.3811   0.0000   0.0000   0.0000   0.2793
  15.100   1.2369   0.10414   0.10209  -0.0618  0.0029  1.0000  -11.2453   0.0000   0.0000   0.0000   0.2813
  15.200   1.2267   0.10815   0.10615  -0.0640  0.0029  1.0000  -11.1018   0.0000   0.0000   0.0000   0.2833
  15.300   1.2163   0.11227   0.11032  -0.0661  0.0030  1.0000  -10.9495   0.0000   0.0000   0.0000   0.2855
  15.400   1.2058   0.11648   0.11459  -0.0684  0.0030  1.0000  -10.7890   0.0000   0.0000   0.0000   0.2877
  15.500   1.1954   0.12078   0.11894  -0.0706  0.0030  1.0000  -10.6203   0.0000   0.0000   0.0000   0.2900
  15.600   1.1848   0.12516   0.12337  -0.0730  0.0030  1.0000  -10.4427   0.0000   0.0000   0.0000   0.2924
  15.700   1.1742   0.12961   0.12785  -0.0753  0.0031  1.0000  -10.2549   0.0000   0.0000   0.0000   0.2949
  15.800   1.1636   0.13416   0.13244  -0.0777  0.0031  1.0000  -10.0574   0.0000   0.0000   0.0000   0.2975
  15.900   1.1528   0.13883   0.13716  -0.0802  0.0031  1.0000  -9.8464   0.0000   0.0000   0.0000   0.3002
  16.000   1.1420   0.14368   0.14205  -0.0827  0.0032  1.0000  -9.6180   0.0000   0.0000   0.0000   0.3031
  16.100   1.1308   0.14874   0.14716  -0.0854  0.0032  1.0000  -9.3665   0.0000   0.0000   0.0000   0.3062
  16.200   1.1191   0.15410   0.15256  -0.0883  0.0033  1.0000  -9.0821   0.0000   0.0000   0.0000   0.3096
  16.300   1.1063   0.15993   0.15844  -0.0914  0.0033  1.0000  -8.7464   0.0000   0.0000   0.0000   0.3134
  16.400   1.0912   0.16671   0.16527  -0.0949  0.0034  1.0000  -8.3100   0.0000   0.0000   0.0000   0.3179
  16.900   0.8394   0.15717   0.15579  -0.0674  0.0038  1.0000  -6.4452   0.0000   0.0000   0.0000   0.3129
  17.000   0.8348   0.15938   0.15802  -0.0685  0.0039  1.0000  -6.3563   0.0000   0.0000   0.0000   0.3146
  17.100   0.8302   0.16166   0.16032  -0.0695  0.0039  1.0000  -6.2583   0.0000   0.0000   0.0000   0.3163
  17.200   0.8250   0.16412   0.16279  -0.0706  0.0039  1.0000  -6.1406   0.0000   0.0000   0.0000   0.3182
  17.300   0.8196   0.16664   0.16533  -0.0717  0.0039  1.0000  -6.0060   0.0000   0.0000   0.0000   0.3202
  17.400   0.8119   0.16983   0.16854  -0.0731  0.0040  1.0000  -5.7925   0.0000   0.0000   0.0000   0.3228
  19.800   1.0811   0.27145   0.26997  -0.1481  0.0045  1.0000  -2.4957   0.0000   0.0000   0.0000   0.3666
  19.900   1.0842   0.27286   0.27138  -0.1490  0.0044  1.0000  -2.5149   0.0000   0.0000   0.0000   0.3669
  20.000   1.0873   0.27425   0.27278  -0.1500  0.0044  1.0000  -2.5355   0.0000   0.0000   0.0000   0.3671
  20.100   1.0904   0.27563   0.27415  -0.1509  0.0043  1.0000  -2.5576   0.0000   0.0000   0.0000   0.3674
  20.200   1.0935   0.27699   0.27551  -0.1518  0.0043  1.0000  -2.5813   0.0000   0.0000   0.0000   0.3677
  20.300   1.0966   0.27830   0.27682  -0.1527  0.0043  1.0000  -2.6077   0.0000   0.0000   0.0000   0.3679
  20.400   1.0997   0.27959   0.27811  -0.1536  0.0042  1.0000  -2.6376   0.0000   0.0000   0.0000   0.3682
  20.500   1.1028   0.28084   0.27937  -0.1545  0.0042  1.0000  -2.6713   0.0000   0.0000   0.0000   0.3684
  20.600   1.1059   0.28205   0.28058  -0.1554  0.0041  1.0000  -2.7089   0.0000   0.0000   0.0000   0.3686
  20.700   1.1090   0.28328   0.28181  -0.1562  0.0041  1.0000  -2.7507   0.0000   0.0000   0.0000   0.3688
  20.800   1.1120   0.28443   0.28296  -0.1570  0.0041  1.0000  -2.7971   0.0000   0.0000   0.0000   0.3689
  20.900   1.1151   0.28552   0.28406  -0.1578  0.0040  1.0000  -2.8484   0.0000   0.0000   0.0000   0.3690
  21.000   1.1181   0.28661   0.28515  -0.1586  0.0040  1.0000  -2.9019   0.0000   0.0000   0.0000   0.3691
  21.100   1.1208   0.28783   0.28636  -0.1594  0.0039  1.0000  -2.9436   0.0000   0.0000   0.0000   0.3692
  21.200   1.1219   0.29093   0.28945  -0.1607  0.0038  1.0000  -2.7809   0.0000   0.0000   0.0000   0.3702
  21.300   1.1251   0.29246   0.29098  -0.1618  0.0038  1.0000  -2.7784   0.0000   0.0000   0.0000   0.3706
  21.400   1.1284   0.29398   0.29251  -0.1628  0.0038  1.0000  -2.7763   0.0000   0.0000   0.0000   0.3709
  21.500   1.1316   0.29550   0.29402  -0.1638  0.0037  1.0000  -2.7747   0.0000   0.0000   0.0000   0.3712
  21.600   1.1348   0.29703   0.29555  -0.1648  0.0037  1.0000  -2.7730   0.0000   0.0000   0.0000   0.3715
  21.700   1.1380   0.29853   0.29706  -0.1658  0.0037  1.0000  -2.7710   0.0000   0.0000   0.0000   0.3718
  21.800   1.1412   0.30004   0.29856  -0.1669  0.0037  1.0000  -2.7685   0.0000   0.0000   0.0000   0.3721
  21.900   1.1445   0.30154   0.30006  -0.1679  0.0037  1.0000  -2.7655   0.0000   0.0000   0.0000   0.3724
  22.000   1.1477   0.30303   0.30156  -0.1689  0.0037  1.0000  -2.7612   0.0000   0.0000   0.0000   0.3727
  22.100   1.1509   0.30453   0.30305  -0.1699  0.0037  1.0000  -2.7561   0.0000   0.0000   0.0000   0.3730
  22.200   1.1542   0.30602   0.30455  -0.1710  0.0037  1.0000  -2.7499   0.0000   0.0000   0.0000   0.3733
  22.300   1.1575   0.30751   0.30604  -0.1720  0.0037  1.0000  -2.7424   0.0000   0.0000   0.0000   0.3736
  22.400   1.1607   0.30899   0.30752  -0.1731  0.0037  1.0000  -2.7332   0.0000   0.0000   0.0000   0.3739
  22.500   1.1641   0.31048   0.30901  -0.1741  0.0037  1.0000  -2.7208   0.0000   0.0000   0.0000   0.3742
  22.600   1.1674   0.31198   0.31051  -0.1752  0.0037  1.0000  -2.7051   0.0000   0.0000   0.0000   0.3745
  22.700   1.1709   0.31365   0.31217  -0.1765  0.0036  1.0000  -2.6649   0.0000   0.0000   0.0000   0.3750
  22.800   1.1751   0.31566   0.31418  -0.1779  0.0035  1.0000  -2.5717   0.0000   0.0000   0.0000   0.3755
  22.900   1.1796   0.31772   0.31624  -0.1791  0.0032  1.0000  -2.4718   0.0000   0.0000   0.0000   0.3759
  23.000   1.1830   0.31921   0.31773  -0.1801  0.0030  1.0000  -2.4528   0.0000   0.0000   0.0000   0.3761
  23.100   1.1862   0.32061   0.31914  -0.1811  0.0029  1.0000  -2.4448   0.0000   0.0000   0.0000   0.3764
  23.200   1.1894   0.32199   0.32051  -0.1821  0.0028  1.0000  -2.4425   0.0000   0.0000   0.0000   0.3766
  23.300   1.1926   0.32333   0.32186  -0.1831  0.0027  1.0000  -2.4442   0.0000   0.0000   0.0000   0.3768
  23.400   1.1958   0.32465   0.32318  -0.1841  0.0026  1.0000  -2.4489   0.0000   0.0000   0.0000   0.3770
  23.500   1.1989   0.32595   0.32448  -0.1851  0.0025  1.0000  -2.4563   0.0000   0.0000   0.0000   0.3773
  23.600   1.2020   0.32724   0.32576  -0.1861  0.0025  1.0000  -2.4662   0.0000   0.0000   0.0000   0.3775
  23.700   1.2051   0.32850   0.32703  -0.1871  0.0024  1.0000  -2.4783   0.0000   0.0000   0.0000   0.3777
  23.800   1.2082   0.32973   0.32827  -0.1881  0.0024  1.0000  -2.4925   0.0000   0.0000   0.0000   0.3779
  23.900   1.2112   0.33097   0.32951  -0.1891  0.0023  1.0000  -2.5090   0.0000   0.0000   0.0000   0.3781
  24.000   1.2142   0.33217   0.33072  -0.1901  0.0023  1.0000  -2.5278   0.0000   0.0000   0.0000   0.3783
  24.100   1.2172   0.33336   0.33191  -0.1911  0.0023  1.0000  -2.5487   0.0000   0.0000   0.0000   0.3785
  24.200   1.2202   0.33453   0.33308  -0.1920  0.0022  1.0000  -2.5717   0.0000   0.0000   0.0000   0.3787
  24.300   1.2231   0.33569   0.33424  -0.1930  0.0022  1.0000  -2.5968   0.0000   0.0000   0.0000   0.3788
  24.400   1.2260   0.33682   0.33537  -0.1940  0.0022  1.0000  -2.6241   0.0000   0.0000   0.0000   0.3790
  24.500   1.2289   0.33793   0.33649  -0.1949  0.0022  1.0000  -2.6535   0.0000   0.0000   0.0000   0.3792
  24.600   1.2317   0.33903   0.33759  -0.1959  0.0021  1.0000  -2.6852   0.0000   0.0000   0.0000   0.3793
  24.700   1.2345   0.34010   0.33866  -0.1968  0.0021  1.0000  -2.7193   0.0000   0.0000   0.0000   0.3795
  24.800   1.2373   0.34115   0.33972  -0.1977  0.0021  1.0000  -2.7560   0.0000   0.0000   0.0000   0.3796
  24.900   1.2399   0.34220   0.34077  -0.1985  0.0021  1.0000  -2.7962   0.0000   0.0000   0.0000   0.3796
  25.000   1.2422   0.34438   0.34294  -0.1995  0.0020  1.0000  -2.6655   0.0000   0.0000   0.0000   0.3800
  25.100   1.2453   0.34576   0.34432  -0.2006  0.0020  1.0000  -2.6494   0.0000   0.0000   0.0000   0.3802
  25.200   1.2484   0.34714   0.34569  -0.2016  0.0020  1.0000  -2.6342   0.0000   0.0000   0.0000   0.3804
  25.300   1.2515   0.34853   0.34709  -0.2027  0.0020  1.0000  -2.6198   0.0000   0.0000   0.0000   0.3807
  25.400   1.2546   0.34988   0.34844  -0.2038  0.0020  1.0000  -2.6060   0.0000   0.0000   0.0000   0.3809
  25.500   1.2577   0.35123   0.34979  -0.2048  0.0020  1.0000  -2.5929   0.0000   0.0000   0.0000   0.3811
  25.600   1.2608   0.35257   0.35113  -0.2059  0.0020  1.0000  -2.5800   0.0000   0.0000   0.0000   0.3813
  25.700   1.2639   0.35391   0.35247  -0.2069  0.0020  1.0000  -2.5672   0.0000   0.0000   0.0000   0.3815
  25.800   1.2670   0.35524   0.35380  -0.2080  0.0020  1.0000  -2.5550   0.0000   0.0000   0.0000   0.3818
  25.900   1.2700   0.35656   0.35512  -0.2091  0.0020  1.0000  -2.5433   0.0000   0.0000   0.0000   0.3820
  26.000   1.2731   0.35788   0.35644  -0.2102  0.0020  1.0000  -2.5320   0.0000   0.0000   0.0000   0.3822
  26.100   1.2761   0.35919   0.35775  -0.2112  0.0020  1.0000  -2.5211   0.0000   0.0000   0.0000   0.3824
  26.200   1.2792   0.36049   0.35906  -0.2123  0.0020  1.0000  -2.5107   0.0000   0.0000   0.0000   0.3826
  26.300   1.2822   0.36179   0.36036  -0.2134  0.0020  1.0000  -2.5006   0.0000   0.0000   0.0000   0.3828
  26.400   1.2852   0.36308   0.36165  -0.2144  0.0020  1.0000  -2.4906   0.0000   0.0000   0.0000   0.3830
  26.500   1.2882   0.36438   0.36295  -0.2155  0.0020  1.0000  -2.4799   0.0000   0.0000   0.0000   0.3832
  26.600   1.2912   0.36567   0.36424  -0.2166  0.0020  1.0000  -2.4697   0.0000   0.0000   0.0000   0.3834
  26.700   1.2943   0.36698   0.36556  -0.2177  0.0020  1.0000  -2.4570   0.0000   0.0000   0.0000   0.3836
  26.800   1.2973   0.36827   0.36684  -0.2188  0.0020  1.0000  -2.4436   0.0000   0.0000   0.0000   0.3839
  26.900   1.3003   0.36956   0.36814  -0.2199  0.0020  1.0000  -2.4306   0.0000   0.0000   0.0000   0.3841
  27.000   1.3033   0.37085   0.36943  -0.2210  0.0020  1.0000  -2.4181   0.0000   0.0000   0.0000   0.3843
  27.100   1.3063   0.37214   0.37071  -0.2221  0.0020  1.0000  -2.4058   0.0000   0.0000   0.0000   0.3845
  27.200   1.3092   0.37341   0.37199  -0.2232  0.0020  1.0000  -2.3939   0.0000   0.0000   0.0000   0.3847
  27.300   1.3122   0.37469   0.37327  -0.2243  0.0019  1.0000  -2.3822   0.0000   0.0000   0.0000   0.3849
  27.400   1.3152   0.37596   0.37455  -0.2254  0.0019  1.0000  -2.3708   0.0000   0.0000   0.0000   0.3851
  27.500   1.3181   0.37722   0.37580  -0.2265  0.0019  1.0000  -2.3597   0.0000   0.0000   0.0000   0.3853
  27.600   1.3211   0.37841   0.37700  -0.2276  0.0019  1.0000  -2.3487   0.0000   0.0000   0.0000   0.3855
  27.700   1.3240   0.37973   0.37833  -0.2287  0.0019  1.0000  -2.3379   0.0000   0.0000   0.0000   0.3857
  27.800   1.3270   0.38098   0.37958  -0.2298  0.0019  1.0000  -2.3272   0.0000   0.0000   0.0000   0.3859
  27.900   1.3299   0.38223   0.38083  -0.2308  0.0019  1.0000  -2.3166   0.0000   0.0000   0.0000   0.3861
  28.000   1.3329   0.38347   0.38207  -0.2319  0.0019  1.0000  -2.3060   0.0000   0.0000   0.0000   0.3863
  28.100   1.3358   0.38471   0.38331  -0.2330  0.0019  1.0000  -2.2955   0.0000   0.0000   0.0000   0.3864
  28.200   1.3387   0.38595   0.38455  -0.2341  0.0019  1.0000  -2.2849   0.0000   0.0000   0.0000   0.3866
  28.300   1.3416   0.38718   0.38578  -0.2352  0.0019  1.0000  -2.2742   0.0000   0.0000   0.0000   0.3868
  28.400   1.3445   0.38841   0.38702  -0.2363  0.0019  1.0000  -2.2634   0.0000   0.0000   0.0000   0.3870
  28.500   1.3474   0.38963   0.38824  -0.2374  0.0019  1.0000  -2.2546   0.0000   0.0000   0.0000   0.3871
  28.600   1.3504   0.39086   0.38947  -0.2385  0.0019  1.0000  -2.2459   0.0000   0.0000   0.0000   0.3873
  28.700   1.3533   0.39207   0.39069  -0.2396  0.0018  1.0000  -2.2372   0.0000   0.0000   0.0000   0.3875
  28.800   1.3561   0.39328   0.39190  -0.2406  0.0018  1.0000  -2.2286   0.0000   0.0000   0.0000   0.3876
  28.900   1.3590   0.39448   0.39310  -0.2417  0.0018  1.0000  -2.2204   0.0000   0.0000   0.0000   0.3878
  29.000   1.3618   0.39568   0.39430  -0.2428  0.0018  1.0000  -2.2130   0.0000   0.0000   0.0000   0.3879
  29.100   1.3647   0.39686   0.39548  -0.2439  0.0018  1.0000  -2.2066   0.0000   0.0000   0.0000   0.3881
  29.200   1.3674   0.39803   0.39666  -0.2449  0.0017  1.0000  -2.2055   0.0000   0.0000   0.0000   0.3882
  29.300   1.3702   0.39919   0.39782  -0.2460  0.0017  1.0000  -2.2132   0.0000   0.0000   0.0000   0.3883
  29.400   1.3729   0.40035   0.39897  -0.2471  0.0017  1.0000  -2.2216   0.0000   0.0000   0.0000   0.3885
  29.500   1.3755   0.40149   0.40012  -0.2482  0.0017  1.0000  -2.2305   0.0000   0.0000   0.0000   0.3886
  29.600   1.3782   0.40262   0.40126  -0.2492  0.0016  1.0000  -2.2399   0.0000   0.0000   0.0000   0.3888
  29.700   1.3808   0.40375   0.40239  -0.2503  0.0016  1.0000  -2.2495   0.0000   0.0000   0.0000   0.3889
  29.800   1.3834   0.40487   0.40350  -0.2514  0.0016  1.0000  -2.2595   0.0000   0.0000   0.0000   0.3891
  29.900   1.3860   0.40597   0.40461  -0.2525  0.0016  1.0000  -2.2698   0.0000   0.0000   0.0000   0.3892
  30.000   1.3885   0.40707   0.40572  -0.2535  0.0015  1.0000  -2.2806   0.0000   0.0000   0.0000   0.3894


