xflr5 v6.61

 Calculated polar for: AG24

 1 1 Reynolds number fixed          Mach number fixed         

 xtrf =   1.000 (top)        1.000 (bottom)
 Mach =   0.000     Re =     0.400 e 6     Ncrit =   9.000

  alpha     CL        CD       CDp       Cm    Top Xtr Bot Xtr   Cpmin    Chinge    XCp    
 ------- -------- --------- --------- -------- ------- ------- -------- --------- ---------
 -10.000  -0.5177   0.11527   0.11274   0.0047  1.0000  0.0182  -1.9269   0.0000   0.0000   0.0000   0.2538
  -9.900  -0.5163   0.11365   0.11113   0.0039  1.0000  0.0184  -1.9451   0.0000   0.0000   0.0000   0.2523
  -9.800  -0.5148   0.11201   0.10950   0.0030  1.0000  0.0187  -1.9661   0.0000   0.0000   0.0000   0.2508
  -9.700  -0.5135   0.11035   0.10785   0.0021  1.0000  0.0190  -1.9906   0.0000   0.0000   0.0000   0.2491
  -9.600  -0.5122   0.10866   0.10616   0.0011  1.0000  0.0193  -2.0198   0.0000   0.0000   0.0000   0.2472
  -9.500  -0.5109   0.10692   0.10442   0.0000  1.0000  0.0196  -2.0556   0.0000   0.0000   0.0000   0.2451
  -9.400  -0.5094   0.10513   0.10265  -0.0012  1.0000  0.0200  -2.0995   0.0000   0.0000   0.0000   0.2426
  -9.300  -0.5074   0.10339   0.10091  -0.0027  1.0000  0.0203  -2.1474   0.0000   0.0000   0.0000   0.2398
  -9.200  -0.5050   0.10177   0.09930  -0.0040  1.0000  0.0206  -2.1843   0.0000   0.0000   0.0000   0.2371
  -9.100  -0.5026   0.10019   0.09773  -0.0051  1.0000  0.0208  -2.2097   0.0000   0.0000   0.0000   0.2349
  -9.000  -0.5006   0.09856   0.09611  -0.0062  1.0000  0.0209  -2.2353   0.0000   0.0000   0.0000   0.2327
  -8.900  -0.4989   0.09687   0.09443  -0.0073  1.0000  0.0209  -2.2618   0.0000   0.0000   0.0000   0.2305
  -8.800  -0.4973   0.09515   0.09272  -0.0084  1.0000  0.0210  -2.2894   0.0000   0.0000   0.0000   0.2283
  -8.700  -0.4958   0.09339   0.09097  -0.0096  1.0000  0.0210  -2.3181   0.0000   0.0000   0.0000   0.2260
  -8.600  -0.4945   0.09160   0.08919  -0.0107  1.0000  0.0210  -2.3481   0.0000   0.0000   0.0000   0.2236
  -8.500  -0.4932   0.08978   0.08737  -0.0119  1.0000  0.0211  -2.3795   0.0000   0.0000   0.0000   0.2211
  -8.400  -0.4920   0.08791   0.08552  -0.0132  1.0000  0.0211  -2.4124   0.0000   0.0000   0.0000   0.2186
  -8.300  -0.4909   0.08602   0.08364  -0.0145  1.0000  0.0211  -2.4470   0.0000   0.0000   0.0000   0.2158
  -8.200  -0.4898   0.08407   0.08170  -0.0160  1.0000  0.0211  -2.4836   0.0000   0.0000   0.0000   0.2129
  -8.100  -0.4889   0.08208   0.07972  -0.0175  1.0000  0.0211  -2.5225   0.0000   0.0000   0.0000   0.2098
  -8.000  -0.4880   0.08002   0.07767  -0.0192  1.0000  0.0211  -2.5640   0.0000   0.0000   0.0000   0.2063
  -7.900  -0.4872   0.07785   0.07553  -0.0211  1.0000  0.0212  -2.6092   0.0000   0.0000   0.0000   0.2024
  -7.800  -0.4854   0.07543   0.07312  -0.0237  1.0000  0.0212  -2.6612   0.0000   0.0000   0.0000   0.1969
  -7.700  -0.4822   0.07252   0.07021  -0.0273  1.0000  0.0212  -2.7253   0.0000   0.0000   0.0000   0.1891
  -7.600  -0.4779   0.06889   0.06657  -0.0323  1.0000  0.0212  -2.8124   0.0000   0.0000   0.0000   0.1781
  -7.500  -0.4734   0.06447   0.06210  -0.0381  1.0000  0.0212  -2.9332   0.0000   0.0000   0.0000   0.1653
  -7.400  -0.4708   0.06148   0.05905  -0.0412  1.0000  0.0212  -3.0117   0.0000   0.0000   0.0000   0.1581
  -7.300  -0.4805   0.05473   0.05218  -0.0467  1.0000  0.0216  -3.2964   0.0000   0.0000   0.0000   0.1484
  -7.200  -0.4835   0.05074   0.04813  -0.0494  1.0000  0.0220  -3.4111   0.0000   0.0000   0.0000   0.1436
  -7.100  -0.4819   0.04831   0.04564  -0.0507  1.0000  0.0222  -3.4387   0.0000   0.0000   0.0000   0.1404
  -7.000  -0.4787   0.04640   0.04365  -0.0517  1.0000  0.0225  -3.4393   0.0000   0.0000   0.0000   0.1378
  -6.900  -0.4740   0.04515   0.04237  -0.0520  1.0000  0.0228  -3.3990   0.0000   0.0000   0.0000   0.1361
  -6.800  -0.4690   0.04401   0.04120  -0.0523  1.0000  0.0231  -3.3561   0.0000   0.0000   0.0000   0.1345
  -6.700  -0.4641   0.04285   0.04001  -0.0525  1.0000  0.0234  -3.3187   0.0000   0.0000   0.0000   0.1328
  -6.600  -0.4592   0.04167   0.03877  -0.0527  1.0000  0.0237  -3.2870   0.0000   0.0000   0.0000   0.1313
  -6.500  -0.4541   0.04044   0.03749  -0.0528  1.0000  0.0241  -3.2609   0.0000   0.0000   0.0000   0.1297
  -6.000  -0.4261   0.02990   0.02605  -0.0528  1.0000  0.0199  -3.7051   0.0000   0.0000   0.0000   0.1219
  -5.900  -0.4215   0.02698   0.02288  -0.0530  1.0000  0.0185  -3.8173   0.0000   0.0000   0.0000   0.1201
  -5.800  -0.4146   0.02461   0.02024  -0.0529  1.0000  0.0174  -3.9207   0.0000   0.0000   0.0000   0.1182
  -5.700  -0.4068   0.02362   0.01910  -0.0526  1.0000  0.0177  -3.8923   0.0000   0.0000   0.0000   0.1165
  -5.600  -0.3987   0.02290   0.01828  -0.0522  1.0000  0.0182  -3.8369   0.0000   0.0000   0.0000   0.1147
  -5.500  -0.3904   0.02210   0.01736  -0.0519  1.0000  0.0186  -3.7914   0.0000   0.0000   0.0000   0.1128
  -5.400  -0.3818   0.02111   0.01622  -0.0516  1.0000  0.0187  -3.7632   0.0000   0.0000   0.0000   0.1105
  -5.300  -0.3727   0.01990   0.01484  -0.0514  1.0000  0.0183  -3.7548   0.0000   0.0000   0.0000   0.1078
  -5.200  -0.3631   0.01863   0.01337  -0.0512  1.0000  0.0178  -3.7563   0.0000   0.0000   0.0000   0.1046
  -5.100  -0.3532   0.01757   0.01214  -0.0510  1.0000  0.0175  -3.7403   0.0000   0.0000   0.0000   0.1012
  -5.000  -0.3418   0.01663   0.01106  -0.0511  0.9998  0.0173  -3.7029   0.0000   0.0000   0.0000   0.0961
  -4.900  -0.3269   0.01575   0.01005  -0.0518  0.9990  0.0173  -3.6389   0.0000   0.0000   0.0000   0.0870
  -4.800  -0.3119   0.01502   0.00922  -0.0526  0.9981  0.0175  -3.5598   0.0000   0.0000   0.0000   0.0769
  -4.700  -0.2969   0.01439   0.00851  -0.0533  0.9971  0.0179  -3.4699   0.0000   0.0000   0.0000   0.0657
  -4.600  -0.2817   0.01384   0.00789  -0.0541  0.9962  0.0184  -3.3728   0.0000   0.0000   0.0000   0.0531
  -4.500  -0.2664   0.01336   0.00734  -0.0550  0.9952  0.0191  -3.2689   0.0000   0.0000   0.0000   0.0388
  -4.400  -0.2509   0.01294   0.00685  -0.0559  0.9943  0.0198  -3.1555   0.0000   0.0000   0.0000   0.0223
  -4.300  -0.2359   0.01261   0.00648  -0.0567  0.9930  0.0205  -3.0392   0.0000   0.0000   0.0000   0.0048
  -4.200  -0.2210   0.01238   0.00621  -0.0574  0.9914  0.0211  -2.9489   0.0000   0.0000   0.0000  -0.0148
  -4.100  -0.2065   0.01148   0.00525  -0.0583  0.9902  0.0234  -2.9157   0.0000   0.0000   0.0000  -0.0375
  -4.000  -0.1913   0.01120   0.00497  -0.0592  0.9887  0.0258  -2.8130   0.0000   0.0000   0.0000  -0.0649
  -3.900  -0.1758   0.01095   0.00471  -0.0601  0.9872  0.0281  -2.7197   0.0000   0.0000   0.0000  -0.0976
  -3.800  -0.1600   0.01071   0.00443  -0.0610  0.9858  0.0303  -2.6304   0.0000   0.0000   0.0000  -0.1375
  -3.700  -0.1441   0.01030   0.00397  -0.0621  0.9847  0.0343  -2.5539   0.0000   0.0000   0.0000  -0.1871
  -3.600  -0.1280   0.01003   0.00371  -0.0631  0.9836  0.0408  -2.4526   0.0000   0.0000   0.0000  -0.2502
  -3.500  -0.1117   0.00972   0.00344  -0.0643  0.9826  0.0537  -2.3516   0.0000   0.0000   0.0000  -0.3328
  -3.400  -0.0965   0.00934   0.00320  -0.0652  0.9811  0.0831  -2.2503   0.0000   0.0000   0.0000  -0.4343
  -3.300  -0.0825   0.00902   0.00304  -0.0660  0.9787  0.1204  -2.1397   0.0000   0.0000   0.0000  -0.5598
  -3.200  -0.0679   0.00876   0.00291  -0.0669  0.9765  0.1579  -2.0232   0.0000   0.0000   0.0000  -0.7464
  -3.100  -0.0532   0.00852   0.00282  -0.0678  0.9744  0.1962  -1.9074   0.0000   0.0000   0.0000  -1.0373
  -3.000  -0.0383   0.00832   0.00273  -0.0686  0.9723  0.2320  -1.7916   0.0000   0.0000   0.0000  -1.5590
  -2.900  -0.0233   0.00813   0.00266  -0.0695  0.9704  0.2645  -1.6766   0.0000   0.0000   0.0000  -2.7609
  -2.800  -0.0084   0.00796   0.00259  -0.0704  0.9687  0.2980  -1.5635   0.0000   0.0000   0.0000  -8.2461
  -2.700   0.0034   0.00782   0.00253  -0.0706  0.9645  0.3269  -1.4659   0.0000   0.0000   0.0000  21.2903
  -2.600   0.0162   0.00768   0.00248  -0.0709  0.9609  0.3561  -1.3653   0.0000   0.0000   0.0000   4.6562
  -2.500   0.0294   0.00755   0.00243  -0.0713  0.9577  0.3850  -1.2649   0.0000   0.0000   0.0000   2.6909
  -2.400   0.0427   0.00742   0.00238  -0.0718  0.9551  0.4131  -1.1696   0.0000   0.0000   0.0000   1.9410
  -2.300   0.0536   0.00730   0.00233  -0.0717  0.9501  0.4385  -1.0951   0.0000   0.0000   0.0000   1.5948
  -2.200   0.0651   0.00720   0.00229  -0.0717  0.9456  0.4624  -1.0213   0.0000   0.0000   0.0000   1.3571
  -2.100   0.0769   0.00709   0.00224  -0.0717  0.9420  0.4856  -0.9476   0.0000   0.0000   0.0000   1.1870
  -2.000   0.0877   0.00700   0.00221  -0.0715  0.9370  0.5080  -0.8787   0.0000   0.0000   0.0000   1.0699
  -1.900   0.0983   0.00691   0.00218  -0.0713  0.9318  0.5305  -0.8112   0.0000   0.0000   0.0000   0.9788
  -1.800   0.1092   0.00682   0.00214  -0.0711  0.9276  0.5544  -0.7439   0.0000   0.0000   0.0000   0.9040
  -1.700   0.1194   0.00673   0.00212  -0.0708  0.9219  0.5775  -0.6818   0.0000   0.0000   0.0000   0.8452
  -1.600   0.1297   0.00664   0.00209  -0.0705  0.9166  0.6001  -0.6295   0.0000   0.0000   0.0000   0.7953
  -1.500   0.1401   0.00656   0.00206  -0.0702  0.9119  0.6228  -0.5777   0.0000   0.0000   0.0000   0.7524
  -1.400   0.1502   0.00648   0.00204  -0.0698  0.9057  0.6452  -0.5271   0.0000   0.0000   0.0000   0.7162
  -1.300   0.1603   0.00641   0.00200  -0.0694  0.9006  0.6677  -0.4848   0.0000   0.0000   0.0000   0.6841
  -1.200   0.1703   0.00634   0.00199  -0.0690  0.8946  0.6908  -0.4445   0.0000   0.0000   0.0000   0.6561
  -1.100   0.1802   0.00626   0.00197  -0.0686  0.8886  0.7137  -0.4079   0.0000   0.0000   0.0000   0.6312
  -1.000   0.1900   0.00620   0.00196  -0.0681  0.8830  0.7367  -0.4129   0.0000   0.0000   0.0000   0.6089
  -0.900   0.1998   0.00614   0.00195  -0.0676  0.8765  0.7598  -0.4218   0.0000   0.0000   0.0000   0.5888
  -0.800   0.2092   0.00608   0.00193  -0.0670  0.8710  0.7822  -0.4306   0.0000   0.0000   0.0000   0.5705
  -0.700   0.2187   0.00603   0.00192  -0.0665  0.8640  0.8045  -0.4398   0.0000   0.0000   0.0000   0.5540
  -0.600   0.2277   0.00598   0.00190  -0.0658  0.8582  0.8265  -0.4487   0.0000   0.0000   0.0000   0.5387
  -0.500   0.2367   0.00593   0.00189  -0.0651  0.8512  0.8483  -0.4578   0.0000   0.0000   0.0000   0.5247
  -0.400   0.2453   0.00588   0.00186  -0.0643  0.8449  0.8706  -0.4670   0.0000   0.0000   0.0000   0.5117
  -0.300   0.2534   0.00582   0.00184  -0.0634  0.8380  0.8939  -0.4760   0.0000   0.0000   0.0000   0.4995
  -0.200   0.2618   0.00577   0.00180  -0.0625  0.8314  0.9199  -0.4852   0.0000   0.0000   0.0000   0.4879
  -0.100   0.2737   0.00571   0.00175  -0.0624  0.8245  0.9532  -0.4968   0.0000   0.0000   0.0000   0.4771
   0.000   0.2896   0.00568   0.00168  -0.0633  0.8175  1.0000  -0.5110   0.0000   0.0000   0.0000   0.4676
   0.100   0.3008   0.00571   0.00166  -0.0632  0.8100  1.0000  -0.5228   0.0000   0.0000   0.0000   0.4593
   0.200   0.3119   0.00574   0.00164  -0.0631  0.8029  1.0000  -0.5347   0.0000   0.0000   0.0000   0.4515
   0.300   0.3230   0.00577   0.00162  -0.0631  0.7950  1.0000  -0.5468   0.0000   0.0000   0.0000   0.4443
   0.400   0.3340   0.00581   0.00161  -0.0630  0.7877  1.0000  -0.5588   0.0000   0.0000   0.0000   0.4374
   0.500   0.3452   0.00584   0.00160  -0.0630  0.7794  1.0000  -0.5714   0.0000   0.0000   0.0000   0.4311
   0.600   0.3562   0.00588   0.00159  -0.0629  0.7717  1.0000  -0.5843   0.0000   0.0000   0.0000   0.4252
   0.700   0.3673   0.00591   0.00158  -0.0628  0.7633  1.0000  -0.5973   0.0000   0.0000   0.0000   0.4196
   0.800   0.3784   0.00595   0.00158  -0.0627  0.7550  1.0000  -0.6111   0.0000   0.0000   0.0000   0.4143
   0.900   0.3894   0.00600   0.00157  -0.0626  0.7468  1.0000  -0.6249   0.0000   0.0000   0.0000   0.4093
   1.000   0.4005   0.00604   0.00158  -0.0626  0.7378  1.0000  -0.6389   0.0000   0.0000   0.0000   0.4047
   1.100   0.4116   0.00609   0.00158  -0.0625  0.7293  1.0000  -0.6534   0.0000   0.0000   0.0000   0.4002
   1.200   0.4226   0.00614   0.00158  -0.0624  0.7202  1.0000  -0.6684   0.0000   0.0000   0.0000   0.3960
   1.300   0.4337   0.00619   0.00159  -0.0624  0.7109  1.0000  -0.6836   0.0000   0.0000   0.0000   0.3920
   1.400   0.4447   0.00625   0.00160  -0.0623  0.7019  1.0000  -0.6987   0.0000   0.0000   0.0000   0.3882
   1.500   0.4557   0.00630   0.00161  -0.0622  0.6923  1.0000  -0.7143   0.0000   0.0000   0.0000   0.3846
   1.600   0.4667   0.00636   0.00163  -0.0622  0.6826  1.0000  -0.7308   0.0000   0.0000   0.0000   0.3812
   1.700   0.4777   0.00642   0.00164  -0.0621  0.6732  1.0000  -0.7474   0.0000   0.0000   0.0000   0.3779
   1.800   0.4886   0.00649   0.00166  -0.0620  0.6634  1.0000  -0.7639   0.0000   0.0000   0.0000   0.3748
   1.900   0.4997   0.00655   0.00168  -0.0620  0.6533  1.0000  -0.7821   0.0000   0.0000   0.0000   0.3718
   2.000   0.5107   0.00661   0.00171  -0.0619  0.6433  1.0000  -0.8003   0.0000   0.0000   0.0000   0.3689
   2.100   0.5216   0.00669   0.00173  -0.0618  0.6333  1.0000  -0.8185   0.0000   0.0000   0.0000   0.3662
   2.200   0.5325   0.00676   0.00176  -0.0618  0.6227  1.0000  -0.8369   0.0000   0.0000   0.0000   0.3636
   2.300   0.5435   0.00683   0.00179  -0.0617  0.6123  1.0000  -0.8571   0.0000   0.0000   0.0000   0.3611
   2.400   0.5545   0.00690   0.00182  -0.0616  0.6019  1.0000  -0.8774   0.0000   0.0000   0.0000   0.3586
   2.500   0.5653   0.00699   0.00187  -0.0616  0.5915  1.0000  -0.8978   0.0000   0.0000   0.0000   0.3563
   2.600   0.5763   0.00707   0.00191  -0.0615  0.5810  1.0000  -0.9186   0.0000   0.0000   0.0000   0.3541
   2.700   0.5872   0.00714   0.00195  -0.0615  0.5703  1.0000  -0.9416   0.0000   0.0000   0.0000   0.3519
   2.800   0.5981   0.00723   0.00199  -0.0614  0.5598  1.0000  -0.9647   0.0000   0.0000   0.0000   0.3498
   2.900   0.6090   0.00732   0.00204  -0.0613  0.5493  1.0000  -0.9878   0.0000   0.0000   0.0000   0.3478
   3.000   0.6199   0.00741   0.00209  -0.0613  0.5387  1.0000  -1.0127   0.0000   0.0000   0.0000   0.3459
   3.100   0.6308   0.00750   0.00214  -0.0612  0.5277  1.0000  -1.0393   0.0000   0.0000   0.0000   0.3440
   3.200   0.6416   0.00759   0.00219  -0.0612  0.5169  1.0000  -1.0660   0.0000   0.0000   0.0000   0.3422
   3.300   0.6525   0.00769   0.00225  -0.0611  0.5063  1.0000  -1.0928   0.0000   0.0000   0.0000   0.3405
   3.500   0.6741   0.00788   0.00239  -0.0610  0.4846  1.0000  -1.1552   0.0000   0.0000   0.0000   0.3371
   3.600   0.6850   0.00798   0.00245  -0.0610  0.4738  1.0000  -1.1868   0.0000   0.0000   0.0000   0.3356
   3.700   0.6958   0.00808   0.00252  -0.0609  0.4632  1.0000  -1.2196   0.0000   0.0000   0.0000   0.3340
   3.800   0.7065   0.00820   0.00259  -0.0608  0.4525  1.0000  -1.2572   0.0000   0.0000   0.0000   0.3325
   3.900   0.7173   0.00830   0.00266  -0.0608  0.4414  1.0000  -1.2952   0.0000   0.0000   0.0000   0.3311
   4.000   0.7281   0.00841   0.00274  -0.0607  0.4304  1.0000  -1.3336   0.0000   0.0000   0.0000   0.3297
   4.100   0.7388   0.00852   0.00282  -0.0607  0.4196  1.0000  -1.3764   0.0000   0.0000   0.0000   0.3283
   4.200   0.7495   0.00864   0.00290  -0.0606  0.4087  1.0000  -1.4223   0.0000   0.0000   0.0000   0.3269
   4.300   0.7602   0.00876   0.00298  -0.0606  0.3975  1.0000  -1.4686   0.0000   0.0000   0.0000   0.3256
   4.400   0.7709   0.00888   0.00307  -0.0605  0.3862  1.0000  -1.5250   0.0000   0.0000   0.0000   0.3244
   4.500   0.7816   0.00900   0.00316  -0.0605  0.3749  1.0000  -1.5899   0.0000   0.0000   0.0000   0.3231
   4.600   0.7922   0.00913   0.00327  -0.0604  0.3635  1.0000  -1.6717   0.0000   0.0000   0.0000   0.3219
   4.700   0.8028   0.00926   0.00337  -0.0603  0.3522  1.0000  -1.7616   0.0000   0.0000   0.0000   0.3208
   4.800   0.8134   0.00940   0.00347  -0.0603  0.3408  1.0000  -1.8523   0.0000   0.0000   0.0000   0.3196
   5.000   0.8345   0.00968   0.00368  -0.0601  0.3173  1.0000  -2.0378   0.0000   0.0000   0.0000   0.3174
   5.100   0.8451   0.00982   0.00379  -0.0601  0.3057  1.0000  -2.1340   0.0000   0.0000   0.0000   0.3163
   5.200   0.8555   0.00997   0.00390  -0.0600  0.2938  1.0000  -2.2450   0.0000   0.0000   0.0000   0.3153
   5.300   0.8660   0.01013   0.00402  -0.0599  0.2818  1.0000  -2.3575   0.0000   0.0000   0.0000   0.3143
   5.400   0.8764   0.01029   0.00415  -0.0599  0.2699  1.0000  -2.4715   0.0000   0.0000   0.0000   0.3132
   5.500   0.8867   0.01047   0.00428  -0.0598  0.2581  1.0000  -2.5870   0.0000   0.0000   0.0000   0.3123
   5.600   0.8970   0.01065   0.00441  -0.0597  0.2458  1.0000  -2.7038   0.0000   0.0000   0.0000   0.3113
   5.700   0.9073   0.01082   0.00455  -0.0596  0.2334  1.0000  -2.8227   0.0000   0.0000   0.0000   0.3104
   5.800   0.9176   0.01100   0.00469  -0.0595  0.2213  1.0000  -2.9430   0.0000   0.0000   0.0000   0.3094
   5.900   0.9279   0.01118   0.00486  -0.0594  0.2095  1.0000  -3.0679   0.0000   0.0000   0.0000   0.3085
   6.000   0.9381   0.01138   0.00502  -0.0593  0.1975  1.0000  -3.1912   0.0000   0.0000   0.0000   0.3076
   6.100   0.9481   0.01159   0.00518  -0.0592  0.1847  1.0000  -3.3152   0.0000   0.0000   0.0000   0.3067
   6.200   0.9582   0.01181   0.00534  -0.0591  0.1719  1.0000  -3.4401   0.0000   0.0000   0.0000   0.3059
   6.300   0.9681   0.01203   0.00552  -0.0590  0.1595  1.0000  -3.5662   0.0000   0.0000   0.0000   0.3050
   6.400   0.9781   0.01226   0.00570  -0.0589  0.1474  1.0000  -3.6931   0.0000   0.0000   0.0000   0.3042
   6.500   0.9879   0.01251   0.00589  -0.0588  0.1355  1.0000  -3.8208   0.0000   0.0000   0.0000   0.3033
   6.700   1.0075   0.01301   0.00629  -0.0585  0.1120  1.0000  -4.0789   0.0000   0.0000   0.0000   0.3017
   6.800   1.0172   0.01327   0.00651  -0.0584  0.1002  1.0000  -4.2088   0.0000   0.0000   0.0000   0.3009
   6.900   1.0268   0.01355   0.00673  -0.0582  0.0885  1.0000  -4.3386   0.0000   0.0000   0.0000   0.3001
   7.000   1.0363   0.01385   0.00698  -0.0581  0.0773  1.0000  -4.4680   0.0000   0.0000   0.0000   0.2993
   7.100   1.0456   0.01417   0.00724  -0.0579  0.0666  1.0000  -4.5963   0.0000   0.0000   0.0000   0.2985
   7.200   1.0548   0.01451   0.00753  -0.0577  0.0563  1.0000  -4.7225   0.0000   0.0000   0.0000   0.2977
   7.300   1.0637   0.01491   0.00786  -0.0574  0.0465  1.0000  -4.8444   0.0000   0.0000   0.0000   0.2969
   7.400   1.0725   0.01531   0.00821  -0.0572  0.0381  1.0000  -4.9628   0.0000   0.0000   0.0000   0.2961
   7.500   1.0817   0.01568   0.00862  -0.0569  0.0322  1.0000  -5.0732   0.0000   0.0000   0.0000   0.2953
   7.600   1.0890   0.01639   0.00929  -0.0563  0.0258  1.0000  -5.1491   0.0000   0.0000   0.0000   0.2943
   7.700   1.0987   0.01663   0.00959  -0.0561  0.0237  1.0000  -5.2633   0.0000   0.0000   0.0000   0.2935
   7.800   1.1078   0.01697   0.00995  -0.0558  0.0213  1.0000  -5.3713   0.0000   0.0000   0.0000   0.2928
   7.900   1.1157   0.01752   0.01050  -0.0554  0.0187  1.0000  -5.4597   0.0000   0.0000   0.0000   0.2919
   8.000   1.1223   0.01829   0.01134  -0.0548  0.0168  1.0000  -5.5142   0.0000   0.0000   0.0000   0.2909
   8.100   1.1320   0.01850   0.01159  -0.0546  0.0159  1.0000  -5.6488   0.0000   0.0000   0.0000   0.2902
   8.200   1.1410   0.01883   0.01196  -0.0543  0.0150  1.0000  -5.7868   0.0000   0.0000   0.0000   0.2894
   8.300   1.1495   0.01923   0.01240  -0.0539  0.0141  1.0000  -5.9164   0.0000   0.0000   0.0000   0.2886
   8.400   1.1579   0.01964   0.01285  -0.0536  0.0134  1.0000  -6.0479   0.0000   0.0000   0.0000   0.2879
   8.500   1.1659   0.02008   0.01332  -0.0532  0.0128  1.0000  -6.1791   0.0000   0.0000   0.0000   0.2871
   8.600   1.1733   0.02062   0.01390  -0.0527  0.0123  1.0000  -6.3001   0.0000   0.0000   0.0000   0.2863
   8.700   1.1794   0.02135   0.01469  -0.0521  0.0117  1.0000  -6.3957   0.0000   0.0000   0.0000   0.2854
   8.800   1.1837   0.02238   0.01579  -0.0512  0.0112  1.0000  -6.4547   0.0000   0.0000   0.0000   0.2843
   8.900   1.1860   0.02378   0.01730  -0.0500  0.0108  1.0000  -6.4715   0.0000   0.0000   0.0000   0.2832
   9.000   1.1921   0.02456   0.01816  -0.0494  0.0106  1.0000  -6.5593   0.0000   0.0000   0.0000   0.2823
   9.100   1.1998   0.02505   0.01871  -0.0489  0.0105  1.0000  -6.6791   0.0000   0.0000   0.0000   0.2815
   9.200   1.2070   0.02562   0.01934  -0.0484  0.0103  1.0000  -6.7907   0.0000   0.0000   0.0000   0.2807
   9.300   1.2138   0.02626   0.02005  -0.0478  0.0102  1.0000  -6.8954   0.0000   0.0000   0.0000   0.2799
   9.400   1.2203   0.02695   0.02082  -0.0472  0.0100  1.0000  -6.9938   0.0000   0.0000   0.0000   0.2791
   9.500   1.2265   0.02770   0.02165  -0.0466  0.0099  1.0000  -7.0869   0.0000   0.0000   0.0000   0.2782
   9.600   1.2323   0.02851   0.02254  -0.0459  0.0098  1.0000  -7.1748   0.0000   0.0000   0.0000   0.2774
   9.700   1.2379   0.02937   0.02349  -0.0453  0.0097  1.0000  -7.2576   0.0000   0.0000   0.0000   0.2766
   9.800   1.2431   0.03028   0.02453  -0.0446  0.0096  1.0000  -7.3331   0.0000   0.0000   0.0000   0.2757
   9.900   1.2480   0.03124   0.02559  -0.0438  0.0096  1.0000  -7.4044   0.0000   0.0000   0.0000   0.2749
  10.000   1.2524   0.03225   0.02670  -0.0431  0.0095  1.0000  -7.4710   0.0000   0.0000   0.0000   0.2740
  10.100   1.2566   0.03325   0.02780  -0.0423  0.0095  1.0000  -7.5395   0.0000   0.0000   0.0000   0.2732
  10.200   1.2606   0.03422   0.02888  -0.0416  0.0094  1.0000  -7.6109   0.0000   0.0000   0.0000   0.2724
  10.300   1.2644   0.03516   0.02992  -0.0408  0.0093  1.0000  -7.6852   0.0000   0.0000   0.0000   0.2715
  10.400   1.2678   0.03607   0.03092  -0.0401  0.0091  1.0000  -7.7621   0.0000   0.0000   0.0000   0.2707
  10.500   1.2710   0.03695   0.03190  -0.0393  0.0090  1.0000  -7.8416   0.0000   0.0000   0.0000   0.2699
  10.600   1.2737   0.03781   0.03284  -0.0386  0.0088  1.0000  -7.9230   0.0000   0.0000   0.0000   0.2691
  10.700   1.2761   0.03865   0.03376  -0.0378  0.0087  1.0000  -8.0056   0.0000   0.0000   0.0000   0.2683
  10.800   1.2779   0.03946   0.03466  -0.0370  0.0086  1.0000  -8.0864   0.0000   0.0000   0.0000   0.2675
  10.900   1.2784   0.04025   0.03552  -0.0360  0.0084  1.0000  -8.1599   0.0000   0.0000   0.0000   0.2666
  11.000   1.2784   0.04107   0.03641  -0.0350  0.0083  1.0000  -8.2293   0.0000   0.0000   0.0000   0.2657
  11.100   1.2778   0.04193   0.03734  -0.0340  0.0082  1.0000  -8.2925   0.0000   0.0000   0.0000   0.2648
  11.200   1.2766   0.04287   0.03835  -0.0331  0.0081  1.0000  -8.3469   0.0000   0.0000   0.0000   0.2639
  11.300   1.2747   0.04390   0.03947  -0.0322  0.0081  1.0000  -8.3890   0.0000   0.0000   0.0000   0.2632
  11.400   1.2719   0.04508   0.04074  -0.0314  0.0080  1.0000  -8.4141   0.0000   0.0000   0.0000   0.2624
  11.500   1.2681   0.04643   0.04218  -0.0307  0.0080  1.0000  -8.4206   0.0000   0.0000   0.0000   0.2618
  11.600   1.2638   0.04786   0.04371  -0.0301  0.0080  1.0000  -8.4199   0.0000   0.0000   0.0000   0.2613
  11.700   1.2591   0.04939   0.04534  -0.0296  0.0080  1.0000  -8.4132   0.0000   0.0000   0.0000   0.2609
  11.800   1.2539   0.05102   0.04707  -0.0294  0.0080  1.0000  -8.4004   0.0000   0.0000   0.0000   0.2606
  11.900   1.2483   0.05277   0.04892  -0.0293  0.0080  1.0000  -8.3814   0.0000   0.0000   0.0000   0.2605
  12.000   1.2423   0.05464   0.05089  -0.0294  0.0081  1.0000  -8.3563   0.0000   0.0000   0.0000   0.2605
  12.100   1.2359   0.05663   0.05298  -0.0297  0.0081  1.0000  -8.3250   0.0000   0.0000   0.0000   0.2608
  12.200   1.2291   0.05877   0.05522  -0.0302  0.0081  1.0000  -8.2876   0.0000   0.0000   0.0000   0.2612
  12.300   1.2220   0.06105   0.05759  -0.0310  0.0081  1.0000  -8.2442   0.0000   0.0000   0.0000   0.2618
  12.400   1.2145   0.06347   0.06011  -0.0320  0.0081  1.0000  -8.1950   0.0000   0.0000   0.0000   0.2626
  12.500   1.2068   0.06606   0.06279  -0.0332  0.0082  1.0000  -8.1401   0.0000   0.0000   0.0000   0.2636
  12.600   1.1988   0.06880   0.06563  -0.0346  0.0082  1.0000  -8.0795   0.0000   0.0000   0.0000   0.2648
  12.700   1.1906   0.07169   0.06861  -0.0362  0.0082  1.0000  -8.0135   0.0000   0.0000   0.0000   0.2662
  12.800   1.1821   0.07474   0.07174  -0.0380  0.0083  1.0000  -7.9420   0.0000   0.0000   0.0000   0.2678
  12.900   1.1734   0.07796   0.07504  -0.0400  0.0083  1.0000  -7.8651   0.0000   0.0000   0.0000   0.2695
  13.000   1.1645   0.08133   0.07849  -0.0421  0.0084  1.0000  -7.7828   0.0000   0.0000   0.0000   0.2715
  13.100   1.1554   0.08484   0.08208  -0.0444  0.0084  1.0000  -7.6951   0.0000   0.0000   0.0000   0.2736
  13.200   1.1462   0.08849   0.08580  -0.0468  0.0085  1.0000  -7.6017   0.0000   0.0000   0.0000   0.2759
  13.300   1.1367   0.09230   0.08968  -0.0493  0.0085  1.0000  -7.5019   0.0000   0.0000   0.0000   0.2783
  13.400   1.1271   0.09626   0.09371  -0.0519  0.0086  1.0000  -7.3952   0.0000   0.0000   0.0000   0.2809
  13.500   1.1173   0.10037   0.09789  -0.0545  0.0087  1.0000  -7.2808   0.0000   0.0000   0.0000   0.2836
  13.600   1.1073   0.10463   0.10221  -0.0573  0.0087  1.0000  -7.1577   0.0000   0.0000   0.0000   0.2864
  13.700   1.0970   0.10907   0.10670  -0.0601  0.0088  1.0000  -7.0242   0.0000   0.0000   0.0000   0.2894
  13.800   1.0860   0.11383   0.11152  -0.0630  0.0089  1.0000  -6.8691   0.0000   0.0000   0.0000   0.2926
  13.900   1.0726   0.11943   0.11717  -0.0664  0.0091  1.0000  -6.6542   0.0000   0.0000   0.0000   0.2965
  14.000   1.0559   0.12613   0.12393  -0.0704  0.0094  1.0000  -6.3571   0.0000   0.0000   0.0000   0.3013
  14.100   1.0359   0.13387   0.13170  -0.0747  0.0099  1.0000  -5.9750   0.0000   0.0000   0.0000   0.3069
  14.600   0.9986   0.15617   0.15402  -0.0856  0.0111  1.0000  -5.0872   0.0000   0.0000   0.0000   0.3206
  20.200   0.7437   0.23657   0.23448  -0.0934  0.0128  1.0000  -1.3931   0.0000   0.0000   0.0000   0.3596
  20.300   0.7449   0.23781   0.23572  -0.0938  0.0127  1.0000  -1.3933   0.0000   0.0000   0.0000   0.3598
  20.400   0.7462   0.23903   0.23694  -0.0943  0.0125  1.0000  -1.3951   0.0000   0.0000   0.0000   0.3601
  20.500   0.7474   0.24021   0.23813  -0.0947  0.0123  1.0000  -1.3988   0.0000   0.0000   0.0000   0.3603
  20.600   0.7487   0.24140   0.23932  -0.0952  0.0121  1.0000  -1.4045   0.0000   0.0000   0.0000   0.3605
  20.700   0.7500   0.24257   0.24049  -0.0956  0.0120  1.0000  -1.4122   0.0000   0.0000   0.0000   0.3607
  20.800   0.7514   0.24376   0.24169  -0.0960  0.0118  1.0000  -1.4224   0.0000   0.0000   0.0000   0.3609
  20.900   0.7528   0.24490   0.24283  -0.0964  0.0117  1.0000  -1.4415   0.0000   0.0000   0.0000   0.3610
  21.000   0.7543   0.24603   0.24396  -0.0967  0.0116  1.0000  -1.4660   0.0000   0.0000   0.0000   0.3611
  21.100   0.7558   0.24714   0.24508  -0.0971  0.0114  1.0000  -1.4939   0.0000   0.0000   0.0000   0.3611
  21.200   0.7575   0.24826   0.24620  -0.0974  0.0113  1.0000  -1.5258   0.0000   0.0000   0.0000   0.3610
  22.700   0.7730   0.27033   0.26831  -0.1041  0.0106  1.0000  -1.5163   0.0000   0.0000   0.0000   0.3652
  22.800   0.7737   0.27167   0.26965  -0.1047  0.0105  1.0000  -1.5035   0.0000   0.0000   0.0000   0.3657
  22.900   0.7743   0.27301   0.27099  -0.1054  0.0105  1.0000  -1.4889   0.0000   0.0000   0.0000   0.3663
  23.000   0.7750   0.27434   0.27233  -0.1060  0.0105  1.0000  -1.4733   0.0000   0.0000   0.0000   0.3669
  23.100   0.7756   0.27568   0.27367  -0.1067  0.0104  1.0000  -1.4560   0.0000   0.0000   0.0000   0.3675
  23.200   0.7764   0.27702   0.27501  -0.1073  0.0104  1.0000  -1.4367   0.0000   0.0000   0.0000   0.3681
  23.300   0.7772   0.27839   0.27638  -0.1080  0.0103  1.0000  -1.4147   0.0000   0.0000   0.0000   0.3687
  23.400   0.7781   0.27980   0.27779  -0.1086  0.0101  1.0000  -1.3914   0.0000   0.0000   0.0000   0.3693
  23.500   0.7792   0.28124   0.27924  -0.1093  0.0099  1.0000  -1.3700   0.0000   0.0000   0.0000   0.3698
  23.600   0.7804   0.28269   0.28069  -0.1098  0.0097  1.0000  -1.3530   0.0000   0.0000   0.0000   0.3701
  23.700   0.7815   0.28412   0.28212  -0.1103  0.0094  1.0000  -1.3413   0.0000   0.0000   0.0000   0.3705
  23.800   0.7826   0.28552   0.28353  -0.1108  0.0091  1.0000  -1.3339   0.0000   0.0000   0.0000   0.3708
  23.900   0.7838   0.28689   0.28490  -0.1113  0.0089  1.0000  -1.3298   0.0000   0.0000   0.0000   0.3710
  24.000   0.7849   0.28825   0.28626  -0.1118  0.0086  1.0000  -1.3282   0.0000   0.0000   0.0000   0.3713
  24.100   0.7860   0.28959   0.28760  -0.1123  0.0083  1.0000  -1.3289   0.0000   0.0000   0.0000   0.3715
  24.200   0.7871   0.29091   0.28893  -0.1128  0.0081  1.0000  -1.3311   0.0000   0.0000   0.0000   0.3718
  24.300   0.7882   0.29222   0.29024  -0.1132  0.0079  1.0000  -1.3343   0.0000   0.0000   0.0000   0.3720
  24.400   0.7893   0.29353   0.29156  -0.1137  0.0078  1.0000  -1.3371   0.0000   0.0000   0.0000   0.3723
  24.500   0.7904   0.29484   0.29287  -0.1142  0.0077  1.0000  -1.3401   0.0000   0.0000   0.0000   0.3725
  24.600   0.7914   0.29613   0.29417  -0.1147  0.0075  1.0000  -1.3444   0.0000   0.0000   0.0000   0.3727
  24.700   0.7925   0.29742   0.29545  -0.1151  0.0074  1.0000  -1.3502   0.0000   0.0000   0.0000   0.3729
  24.800   0.7936   0.29868   0.29672  -0.1156  0.0073  1.0000  -1.3576   0.0000   0.0000   0.0000   0.3731
  24.900   0.7947   0.29994   0.29798  -0.1160  0.0072  1.0000  -1.3669   0.0000   0.0000   0.0000   0.3733
  25.000   0.7958   0.30117   0.29922  -0.1165  0.0071  1.0000  -1.3783   0.0000   0.0000   0.0000   0.3734
  25.100   0.7968   0.30240   0.30045  -0.1169  0.0070  1.0000  -1.3923   0.0000   0.0000   0.0000   0.3736
  25.200   0.7979   0.30362   0.30168  -0.1173  0.0069  1.0000  -1.4091   0.0000   0.0000   0.0000   0.3737
  25.300   0.7991   0.30484   0.30289  -0.1177  0.0068  1.0000  -1.4295   0.0000   0.0000   0.0000   0.3737
  25.400   0.8003   0.30607   0.30413  -0.1180  0.0068  1.0000  -1.4542   0.0000   0.0000   0.0000   0.3737
  25.500   0.8016   0.30737   0.30544  -0.1183  0.0067  1.0000  -1.4848   0.0000   0.0000   0.0000   0.3736
  25.600   0.8037   0.30925   0.30733  -0.1182  0.0065  1.0000  -1.5325   0.0000   0.0000   0.0000   0.3728
  25.700   0.8044   0.31158   0.30966  -0.1185  0.0065  1.0000  -1.4904   0.0000   0.0000   0.0000   0.3730
  25.800   0.8051   0.31300   0.31108  -0.1191  0.0065  1.0000  -1.4730   0.0000   0.0000   0.0000   0.3733
  25.900   0.8059   0.31442   0.31250  -0.1196  0.0065  1.0000  -1.4558   0.0000   0.0000   0.0000   0.3737
  26.000   0.8067   0.31585   0.31394  -0.1201  0.0065  1.0000  -1.4389   0.0000   0.0000   0.0000   0.3741
  26.100   0.8074   0.31726   0.31535  -0.1207  0.0064  1.0000  -1.4219   0.0000   0.0000   0.0000   0.3744
  26.200   0.8080   0.31867   0.31677  -0.1213  0.0064  1.0000  -1.3996   0.0000   0.0000   0.0000   0.3749
  26.300   0.8087   0.32009   0.31819  -0.1218  0.0064  1.0000  -1.3779   0.0000   0.0000   0.0000   0.3753
  26.400   0.8093   0.32151   0.31961  -0.1224  0.0064  1.0000  -1.3566   0.0000   0.0000   0.0000   0.3757
  26.500   0.8100   0.32293   0.32103  -0.1230  0.0064  1.0000  -1.3356   0.0000   0.0000   0.0000   0.3762
  26.600   0.8106   0.32434   0.32245  -0.1236  0.0064  1.0000  -1.3150   0.0000   0.0000   0.0000   0.3766
  26.700   0.8113   0.32576   0.32387  -0.1241  0.0064  1.0000  -1.2944   0.0000   0.0000   0.0000   0.3770
  26.800   0.8120   0.32719   0.32529  -0.1247  0.0064  1.0000  -1.2739   0.0000   0.0000   0.0000   0.3774
  26.900   0.8128   0.32861   0.32672  -0.1253  0.0063  1.0000  -1.2531   0.0000   0.0000   0.0000   0.3778
  27.000   0.8135   0.33004   0.32816  -0.1259  0.0063  1.0000  -1.2319   0.0000   0.0000   0.0000   0.3782
  27.100   0.8144   0.33148   0.32960  -0.1264  0.0063  1.0000  -1.2102   0.0000   0.0000   0.0000   0.3786
  27.200   0.8152   0.33294   0.33106  -0.1270  0.0062  1.0000  -1.1881   0.0000   0.0000   0.0000   0.3789
  27.300   0.8161   0.33441   0.33253  -0.1276  0.0061  1.0000  -1.1663   0.0000   0.0000   0.0000   0.3793
  27.400   0.8171   0.33588   0.33400  -0.1281  0.0061  1.0000  -1.1461   0.0000   0.0000   0.0000   0.3796
  27.500   0.8181   0.33736   0.33549  -0.1286  0.0060  1.0000  -1.1291   0.0000   0.0000   0.0000   0.3798
  27.600   0.8190   0.33882   0.33696  -0.1291  0.0059  1.0000  -1.1153   0.0000   0.0000   0.0000   0.3801
  27.700   0.8199   0.34026   0.33840  -0.1296  0.0058  1.0000  -1.1042   0.0000   0.0000   0.0000   0.3803
  27.800   0.8208   0.34170   0.33984  -0.1301  0.0057  1.0000  -1.0950   0.0000   0.0000   0.0000   0.3805
  27.900   0.8217   0.34314   0.34128  -0.1305  0.0056  1.0000  -1.0872   0.0000   0.0000   0.0000   0.3808
  28.000   0.8225   0.34457   0.34272  -0.1310  0.0055  1.0000  -1.0804   0.0000   0.0000   0.0000   0.3810
  28.100   0.8233   0.34599   0.34414  -0.1315  0.0054  1.0000  -1.0744   0.0000   0.0000   0.0000   0.3812
  28.200   0.8241   0.34741   0.34556  -0.1320  0.0054  1.0000  -1.0690   0.0000   0.0000   0.0000   0.3814
  28.300   0.8249   0.34882   0.34698  -0.1325  0.0053  1.0000  -1.0642   0.0000   0.0000   0.0000   0.3816
  28.400   0.8257   0.35023   0.34839  -0.1329  0.0052  1.0000  -1.0599   0.0000   0.0000   0.0000   0.3819
  28.500   0.8265   0.35163   0.34980  -0.1334  0.0051  1.0000  -1.0559   0.0000   0.0000   0.0000   0.3821
  28.600   0.8272   0.35303   0.35121  -0.1339  0.0051  1.0000  -1.0523   0.0000   0.0000   0.0000   0.3823
  28.700   0.8280   0.35443   0.35261  -0.1344  0.0050  1.0000  -1.0491   0.0000   0.0000   0.0000   0.3825
  28.800   0.8287   0.35583   0.35401  -0.1349  0.0049  1.0000  -1.0461   0.0000   0.0000   0.0000   0.3827
  28.900   0.8295   0.35722   0.35541  -0.1353  0.0049  1.0000  -1.0435   0.0000   0.0000   0.0000   0.3830
  29.000   0.8302   0.35861   0.35680  -0.1358  0.0048  1.0000  -1.0412   0.0000   0.0000   0.0000   0.3832
  29.100   0.8309   0.36000   0.35819  -0.1363  0.0048  1.0000  -1.0391   0.0000   0.0000   0.0000   0.3834
  29.200   0.8316   0.36138   0.35958  -0.1368  0.0047  1.0000  -1.0373   0.0000   0.0000   0.0000   0.3836
  29.300   0.8323   0.36277   0.36097  -0.1373  0.0047  1.0000  -1.0359   0.0000   0.0000   0.0000   0.3838
  29.400   0.8330   0.36414   0.36235  -0.1377  0.0046  1.0000  -1.0346   0.0000   0.0000   0.0000   0.3840
  29.500   0.8337   0.36552   0.36373  -0.1382  0.0046  1.0000  -1.0337   0.0000   0.0000   0.0000   0.3843
  29.600   0.8343   0.36689   0.36510  -0.1387  0.0045  1.0000  -1.0358   0.0000   0.0000   0.0000   0.3845
  29.700   0.8350   0.36826   0.36649  -0.1392  0.0045  1.0000  -1.0428   0.0000   0.0000   0.0000   0.3847
  29.800   0.8356   0.36962   0.36786  -0.1397  0.0044  1.0000  -1.0502   0.0000   0.0000   0.0000   0.3849
  29.900   0.8362   0.37098   0.36922  -0.1401  0.0044  1.0000  -1.0577   0.0000   0.0000   0.0000   0.3851
  30.000   0.8368   0.37234   0.37059  -0.1406  0.0043  1.0000  -1.0655   0.0000   0.0000   0.0000   0.3853


