xflr5 v6.61

 Calculated polar for: AG24

 1 1 Reynolds number fixed          Mach number fixed         

 xtrf =   1.000 (top)        1.000 (bottom)
 Mach =   0.000     Re =     0.160 e 6     Ncrit =   9.000

  alpha     CL        CD       CDp       Cm    Top Xtr Bot Xtr   Cpmin    Chinge    XCp    
 ------- -------- --------- --------- -------- ------- ------- -------- --------- ---------
 -10.000  -0.5243   0.12025   0.11638  -0.0060  1.0000  0.0432  -2.1046   0.0000   0.0000   0.0000   0.2336
  -9.900  -0.5208   0.11630   0.11241  -0.0027  1.0000  0.0442  -2.0250   0.0000   0.0000   0.0000   0.2398
  -9.800  -0.5153   0.11491   0.11101  -0.0015  1.0000  0.0449  -1.9606   0.0000   0.0000   0.0000   0.2421
  -9.700  -0.5108   0.11363   0.10973  -0.0010  1.0000  0.0455  -1.9188   0.0000   0.0000   0.0000   0.2432
  -9.600  -0.5069   0.11241   0.10851  -0.0007  1.0000  0.0463  -1.8848   0.0000   0.0000   0.0000   0.2438
  -9.500  -0.5036   0.11118   0.10728  -0.0007  1.0000  0.0472  -1.8623   0.0000   0.0000   0.0000   0.2438
  -9.400  -0.5011   0.10988   0.10599  -0.0011  1.0000  0.0483  -1.8515   0.0000   0.0000   0.0000   0.2432
  -9.300  -0.4990   0.10852   0.10464  -0.0016  1.0000  0.0494  -1.8504   0.0000   0.0000   0.0000   0.2421
  -9.200  -0.4974   0.10709   0.10321  -0.0023  1.0000  0.0505  -1.8579   0.0000   0.0000   0.0000   0.2407
  -9.100  -0.4963   0.10559   0.10173  -0.0033  1.0000  0.0516  -1.8741   0.0000   0.0000   0.0000   0.2388
  -9.000  -0.4958   0.10404   0.10020  -0.0046  1.0000  0.0528  -1.9021   0.0000   0.0000   0.0000   0.2363
  -8.900  -0.4963   0.10243   0.09861  -0.0065  1.0000  0.0538  -1.9484   0.0000   0.0000   0.0000   0.2325
  -8.800  -0.4978   0.10078   0.09699  -0.0091  1.0000  0.0546  -2.0154   0.0000   0.0000   0.0000   0.2274
  -8.700  -0.4996   0.09910   0.09534  -0.0120  1.0000  0.0550  -2.0879   0.0000   0.0000   0.0000   0.2217
  -8.600  -0.5010   0.09740   0.09367  -0.0148  1.0000  0.0553  -2.1538   0.0000   0.0000   0.0000   0.2163
  -8.500  -0.5024   0.09561   0.09190  -0.0174  1.0000  0.0555  -2.2142   0.0000   0.0000   0.0000   0.2111
  -8.400  -0.5037   0.09369   0.09002  -0.0202  1.0000  0.0556  -2.2724   0.0000   0.0000   0.0000   0.2058
  -8.300  -0.5044   0.09163   0.08797  -0.0234  1.0000  0.0557  -2.3296   0.0000   0.0000   0.0000   0.1997
  -8.200  -0.5028   0.08912   0.08548  -0.0276  1.0000  0.0558  -2.3906   0.0000   0.0000   0.0000   0.1911
  -8.100  -0.4922   0.08876   0.08510  -0.0147  1.0000  0.0582  -2.1096   0.0000   0.0000   0.0000   0.2161
  -8.000  -0.4882   0.08769   0.08403  -0.0143  1.0000  0.0591  -2.0737   0.0000   0.0000   0.0000   0.2168
  -7.900  -0.4856   0.08642   0.08277  -0.0145  1.0000  0.0600  -2.0594   0.0000   0.0000   0.0000   0.2162
  -7.800  -0.4837   0.08507   0.08143  -0.0151  1.0000  0.0608  -2.0551   0.0000   0.0000   0.0000   0.2150
  -7.700  -0.4823   0.08363   0.08001  -0.0159  1.0000  0.0617  -2.0586   0.0000   0.0000   0.0000   0.2132
  -7.600  -0.4813   0.08210   0.07850  -0.0171  1.0000  0.0626  -2.0691   0.0000   0.0000   0.0000   0.2109
  -7.500  -0.4801   0.08039   0.07681  -0.0188  1.0000  0.0637  -2.0872   0.0000   0.0000   0.0000   0.2072
  -7.400  -0.4781   0.07834   0.07478  -0.0216  1.0000  0.0649  -2.1184   0.0000   0.0000   0.0000   0.2013
  -7.300  -0.4758   0.07542   0.07187  -0.0274  1.0000  0.0666  -2.1962   0.0000   0.0000   0.0000   0.1889
  -7.200  -0.4769   0.06921   0.06538  -0.0446  1.0000  0.0686  -2.5287   0.0000   0.0000   0.0000   0.1529
  -6.900  -0.4668   0.06323   0.05956  -0.0432  1.0000  0.0704  -2.4444   0.0000   0.0000   0.0000   0.1541
  -6.800  -0.4618   0.06244   0.05881  -0.0420  1.0000  0.0712  -2.3850   0.0000   0.0000   0.0000   0.1557
  -6.700  -0.4569   0.06153   0.05792  -0.0414  1.0000  0.0720  -2.3394   0.0000   0.0000   0.0000   0.1561
  -6.600  -0.4521   0.06036   0.05674  -0.0415  1.0000  0.0731  -2.3100   0.0000   0.0000   0.0000   0.1549
  -6.500  -0.4472   0.05890   0.05527  -0.0423  1.0000  0.0745  -2.2957   0.0000   0.0000   0.0000   0.1523
  -6.400  -0.4424   0.05712   0.05345  -0.0436  1.0000  0.0763  -2.2990   0.0000   0.0000   0.0000   0.1482
  -6.300  -0.4415   0.05245   0.04828  -0.0513  1.0000  0.0828  -2.5213   0.0000   0.0000   0.0000   0.1304
  -6.200  -0.4362   0.05091   0.04684  -0.0506  1.0000  0.0836  -2.4666   0.0000   0.0000   0.0000   0.1307
  -6.100  -0.4306   0.04985   0.04585  -0.0499  1.0000  0.0844  -2.4123   0.0000   0.0000   0.0000   0.1310
  -6.000  -0.4250   0.04885   0.04487  -0.0494  1.0000  0.0854  -2.3672   0.0000   0.0000   0.0000   0.1306
  -5.900  -0.4192   0.04780   0.04382  -0.0492  1.0000  0.0867  -2.3311   0.0000   0.0000   0.0000   0.1296
  -5.800  -0.4137   0.04587   0.04135  -0.0525  1.0000  0.0961  -2.4261   0.0000   0.0000   0.0000   0.1198
  -5.700  -0.4082   0.04406   0.03965  -0.0521  1.0000  0.0969  -2.3823   0.0000   0.0000   0.0000   0.1192
  -5.600  -0.3914   0.03368   0.02793  -0.0536  1.0000  0.0436  -3.1211   0.0000   0.0000   0.0000   0.1090
  -5.500  -0.3850   0.03116   0.02549  -0.0537  1.0000  0.0411  -3.1125   0.0000   0.0000   0.0000   0.1066
  -5.400  -0.3771   0.02937   0.02354  -0.0537  1.0000  0.0398  -3.1197   0.0000   0.0000   0.0000   0.1037
  -5.300  -0.3685   0.02769   0.02165  -0.0536  1.0000  0.0385  -3.1343   0.0000   0.0000   0.0000   0.1004
  -5.200  -0.3593   0.02608   0.01981  -0.0535  1.0000  0.0374  -3.1532   0.0000   0.0000   0.0000   0.0970
  -5.100  -0.3496   0.02463   0.01810  -0.0533  1.0000  0.0366  -3.1664   0.0000   0.0000   0.0000   0.0933
  -5.000  -0.3398   0.02340   0.01663  -0.0531  1.0000  0.0362  -3.1638   0.0000   0.0000   0.0000   0.0895
  -4.900  -0.3299   0.02236   0.01541  -0.0529  1.0000  0.0361  -3.1438   0.0000   0.0000   0.0000   0.0855
  -4.800  -0.3202   0.02156   0.01447  -0.0526  1.0000  0.0366  -3.1010   0.0000   0.0000   0.0000   0.0814
  -4.700  -0.3107   0.02104   0.01386  -0.0524  1.0000  0.0381  -3.0319   0.0000   0.0000   0.0000   0.0772
  -4.600  -0.3011   0.02056   0.01327  -0.0521  1.0000  0.0398  -2.9662   0.0000   0.0000   0.0000   0.0727
  -4.500  -0.2912   0.02005   0.01263  -0.0518  1.0000  0.0411  -2.9084   0.0000   0.0000   0.0000   0.0679
  -4.400  -0.2811   0.01946   0.01188  -0.0515  1.0000  0.0418  -2.8552   0.0000   0.0000   0.0000   0.0625
  -4.300  -0.2708   0.01884   0.01115  -0.0512  1.0000  0.0423  -2.8043   0.0000   0.0000   0.0000   0.0566
  -4.200  -0.2606   0.01834   0.01054  -0.0509  1.0000  0.0429  -2.7656   0.0000   0.0000   0.0000   0.0503
  -4.100  -0.2498   0.01733   0.00948  -0.0508  1.0000  0.0440  -2.7543   0.0000   0.0000   0.0000   0.0420
  -4.000  -0.2392   0.01646   0.00863  -0.0508  1.0000  0.0458  -2.7226   0.0000   0.0000   0.0000   0.0329
  -3.900  -0.2289   0.01597   0.00816  -0.0507  1.0000  0.0480  -2.6726   0.0000   0.0000   0.0000   0.0238
  -3.800  -0.2187   0.01565   0.00782  -0.0506  1.0000  0.0512  -2.6167   0.0000   0.0000   0.0000   0.0140
  -3.700  -0.2086   0.01548   0.00758  -0.0504  1.0000  0.0552  -2.5589   0.0000   0.0000   0.0000   0.0038
  -3.600  -0.1976   0.01479   0.00697  -0.0506  1.0000  0.0601  -2.5085   0.0000   0.0000   0.0000  -0.0108
  -3.500  -0.1867   0.01443   0.00661  -0.0506  1.0000  0.0655  -2.4557   0.0000   0.0000   0.0000  -0.0257
  -3.400  -0.1752   0.01392   0.00613  -0.0507  1.0000  0.0732  -2.4067   0.0000   0.0000   0.0000  -0.0447
  -3.300  -0.1638   0.01352   0.00579  -0.0510  1.0000  0.0873  -2.3450   0.0000   0.0000   0.0000  -0.0663
  -3.200  -0.1514   0.01296   0.00540  -0.0514  1.0000  0.1179  -2.2857   0.0000   0.0000   0.0000  -0.0949
  -3.100  -0.1381   0.01223   0.00508  -0.0523  1.0000  0.1912  -2.2129   0.0000   0.0000   0.0000  -0.1339
  -3.000  -0.1263   0.01183   0.00499  -0.0528  1.0000  0.2605  -2.1198   0.0000   0.0000   0.0000  -0.1737
  -2.900  -0.1150   0.01159   0.00492  -0.0531  1.0000  0.3124  -2.0230   0.0000   0.0000   0.0000  -0.2178
  -2.800  -0.1040   0.01142   0.00490  -0.0533  1.0000  0.3563  -1.9278   0.0000   0.0000   0.0000  -0.2691
  -2.700  -0.0931   0.01128   0.00489  -0.0535  1.0000  0.3966  -1.8331   0.0000   0.0000   0.0000  -0.3315
  -2.600  -0.0823   0.01115   0.00489  -0.0536  1.0000  0.4344  -1.7394   0.0000   0.0000   0.0000  -0.4089
  -2.500  -0.0716   0.01104   0.00490  -0.0537  1.0000  0.4707  -1.6470   0.0000   0.0000   0.0000  -0.5079
  -2.400  -0.0610   0.01095   0.00491  -0.0537  1.0000  0.5040  -1.5561   0.0000   0.0000   0.0000  -0.6397
  -2.300  -0.0505   0.01087   0.00493  -0.0537  1.0000  0.5372  -1.4669   0.0000   0.0000   0.0000  -0.8237
  -2.200  -0.0402   0.01079   0.00496  -0.0536  1.0000  0.5690  -1.3794   0.0000   0.0000   0.0000  -1.0981
  -2.100  -0.0300   0.01071   0.00499  -0.0535  1.0000  0.6009  -1.2940   0.0000   0.0000   0.0000  -1.5504
  -2.000  -0.0202   0.01065   0.00503  -0.0534  1.0000  0.6331  -1.2191   0.0000   0.0000   0.0000  -2.4181
  -1.900  -0.0072   0.01057   0.00507  -0.0537  0.9984  0.6686  -1.1396   0.0000   0.0000   0.0000  -7.2866
  -1.800   0.0093   0.01048   0.00507  -0.0547  0.9955  0.7077  -1.0488   0.0000   0.0000   0.0000   6.1740
  -1.700   0.0248   0.01039   0.00508  -0.0554  0.9923  0.7461  -0.9638   0.0000   0.0000   0.0000   2.4955
  -1.600   0.0390   0.01030   0.00509  -0.0557  0.9883  0.7830  -0.8844   0.0000   0.0000   0.0000   1.6879
  -1.500   0.0534   0.01022   0.00509  -0.0561  0.9848  0.8209  -0.8056   0.0000   0.0000   0.0000   1.3054
  -1.400   0.0678   0.01015   0.00507  -0.0563  0.9818  0.8608  -0.7281   0.0000   0.0000   0.0000   1.0841
  -1.300   0.0788   0.01004   0.00501  -0.0559  0.9765  0.9043  -0.6713   0.0000   0.0000   0.0000   0.9621
  -1.200   0.1001   0.00989   0.00487  -0.0577  0.9720  1.0000  -0.5929   0.0000   0.0000   0.0000   0.8285
  -1.100   0.1208   0.00990   0.00480  -0.0598  0.9694  1.0000  -0.5205   0.0000   0.0000   0.0000   0.7460
  -1.000   0.1381   0.00991   0.00473  -0.0611  0.9650  1.0000  -0.4669   0.0000   0.0000   0.0000   0.6936
  -0.900   0.1560   0.00991   0.00467  -0.0626  0.9608  1.0000  -0.4157   0.0000   0.0000   0.0000   0.6517
  -0.800   0.1756   0.00990   0.00460  -0.0643  0.9577  1.0000  -0.4077   0.0000   0.0000   0.0000   0.6166
  -0.700   0.1954   0.00988   0.00453  -0.0661  0.9551  1.0000  -0.4220   0.0000   0.0000   0.0000   0.5882
  -0.600   0.2096   0.00988   0.00448  -0.0667  0.9491  1.0000  -0.4335   0.0000   0.0000   0.0000   0.5681
  -0.500   0.2264   0.00985   0.00442  -0.0678  0.9448  1.0000  -0.4465   0.0000   0.0000   0.0000   0.5491
  -0.400   0.2444   0.00982   0.00434  -0.0691  0.9415  1.0000  -0.4609   0.0000   0.0000   0.0000   0.5322
  -0.300   0.2574   0.00981   0.00429  -0.0694  0.9352  1.0000  -0.4725   0.0000   0.0000   0.0000   0.5190
  -0.200   0.2726   0.00978   0.00423  -0.0700  0.9304  1.0000  -0.4855   0.0000   0.0000   0.0000   0.5064
  -0.100   0.2882   0.00974   0.00415  -0.0708  0.9264  1.0000  -0.4995   0.0000   0.0000   0.0000   0.4949
   0.000   0.2996   0.00973   0.00412  -0.0707  0.9191  1.0000  -0.5109   0.0000   0.0000   0.0000   0.4852
   0.100   0.3137   0.00969   0.00405  -0.0711  0.9144  1.0000  -0.5247   0.0000   0.0000   0.0000   0.4757
   0.200   0.3251   0.00968   0.00402  -0.0710  0.9075  1.0000  -0.5368   0.0000   0.0000   0.0000   0.4673
   0.300   0.3375   0.00965   0.00396  -0.0710  0.9017  1.0000  -0.5497   0.0000   0.0000   0.0000   0.4593
   0.400   0.3489   0.00964   0.00392  -0.0708  0.8951  1.0000  -0.5622   0.0000   0.0000   0.0000   0.4519
   0.500   0.3602   0.00961   0.00387  -0.0706  0.8885  1.0000  -0.5752   0.0000   0.0000   0.0000   0.4448
   0.600   0.3713   0.00960   0.00383  -0.0704  0.8819  1.0000  -0.5881   0.0000   0.0000   0.0000   0.4382
   0.700   0.3820   0.00959   0.00379  -0.0700  0.8747  1.0000  -0.6012   0.0000   0.0000   0.0000   0.4320
   0.800   0.3926   0.00958   0.00375  -0.0697  0.8678  1.0000  -0.6148   0.0000   0.0000   0.0000   0.4261
   0.900   0.4032   0.00957   0.00372  -0.0693  0.8604  1.0000  -0.6284   0.0000   0.0000   0.0000   0.4205
   1.000   0.4135   0.00957   0.00369  -0.0689  0.8528  1.0000  -0.6418   0.0000   0.0000   0.0000   0.4152
   1.100   0.4240   0.00957   0.00366  -0.0685  0.8455  1.0000  -0.6563   0.0000   0.0000   0.0000   0.4100
   1.200   0.4342   0.00958   0.00365  -0.0682  0.8371  1.0000  -0.6707   0.0000   0.0000   0.0000   0.4053
   1.300   0.4448   0.00958   0.00360  -0.0677  0.8302  1.0000  -0.6855   0.0000   0.0000   0.0000   0.4006
   1.400   0.4549   0.00960   0.00361  -0.0674  0.8210  1.0000  -0.7000   0.0000   0.0000   0.0000   0.3963
   1.500   0.4653   0.00962   0.00360  -0.0670  0.8131  1.0000  -0.7155   0.0000   0.0000   0.0000   0.3921
   1.600   0.4756   0.00964   0.00359  -0.0666  0.8044  1.0000  -0.7314   0.0000   0.0000   0.0000   0.3881
   1.700   0.4859   0.00967   0.00359  -0.0663  0.7954  1.0000  -0.7474   0.0000   0.0000   0.0000   0.3843
   1.800   0.4963   0.00969   0.00357  -0.0658  0.7876  1.0000  -0.7636   0.0000   0.0000   0.0000   0.3806
   1.900   0.5067   0.00972   0.00358  -0.0655  0.7776  1.0000  -0.7811   0.0000   0.0000   0.0000   0.3772
   2.000   0.5171   0.00976   0.00359  -0.0652  0.7683  1.0000  -0.7988   0.0000   0.0000   0.0000   0.3739
   2.100   0.5275   0.00980   0.00358  -0.0648  0.7599  1.0000  -0.8167   0.0000   0.0000   0.0000   0.3706
   2.200   0.5379   0.00985   0.00360  -0.0645  0.7494  1.0000  -0.8345   0.0000   0.0000   0.0000   0.3677
   2.300   0.5483   0.00990   0.00362  -0.0642  0.7394  1.0000  -0.8541   0.0000   0.0000   0.0000   0.3648
   2.400   0.5587   0.00995   0.00363  -0.0639  0.7300  1.0000  -0.8740   0.0000   0.0000   0.0000   0.3619
   2.500   0.5692   0.01001   0.00368  -0.0636  0.7200  1.0000  -0.8939   0.0000   0.0000   0.0000   0.3592
   2.600   0.5796   0.01007   0.00371  -0.0633  0.7092  1.0000  -0.9139   0.0000   0.0000   0.0000   0.3567
   2.700   0.5901   0.01013   0.00374  -0.0631  0.6988  1.0000  -0.9363   0.0000   0.0000   0.0000   0.3542
   2.800   0.6005   0.01020   0.00377  -0.0628  0.6888  1.0000  -0.9589   0.0000   0.0000   0.0000   0.3518
   2.900   0.6109   0.01028   0.00381  -0.0625  0.6780  1.0000  -0.9816   0.0000   0.0000   0.0000   0.3495
   3.000   0.6214   0.01035   0.00386  -0.0623  0.6667  1.0000  -1.0053   0.0000   0.0000   0.0000   0.3473
   3.100   0.6318   0.01044   0.00391  -0.0620  0.6556  1.0000  -1.0312   0.0000   0.0000   0.0000   0.3451
   3.200   0.6423   0.01053   0.00395  -0.0617  0.6447  1.0000  -1.0573   0.0000   0.0000   0.0000   0.3431
   3.300   0.6526   0.01062   0.00400  -0.0615  0.6339  1.0000  -1.0836   0.0000   0.0000   0.0000   0.3411
   3.400   0.6630   0.01072   0.00406  -0.0612  0.6224  1.0000  -1.1125   0.0000   0.0000   0.0000   0.3391
   3.500   0.6735   0.01081   0.00413  -0.0610  0.6107  1.0000  -1.1431   0.0000   0.0000   0.0000   0.3373
   3.600   0.6839   0.01092   0.00424  -0.0608  0.5991  1.0000  -1.1740   0.0000   0.0000   0.0000   0.3355
   3.700   0.6942   0.01103   0.00431  -0.0605  0.5876  1.0000  -1.2050   0.0000   0.0000   0.0000   0.3338
   3.800   0.7046   0.01114   0.00438  -0.0603  0.5761  1.0000  -1.2403   0.0000   0.0000   0.0000   0.3321
   3.900   0.7149   0.01127   0.00446  -0.0601  0.5648  1.0000  -1.2773   0.0000   0.0000   0.0000   0.3304
   4.000   0.7252   0.01139   0.00455  -0.0599  0.5527  1.0000  -1.3146   0.0000   0.0000   0.0000   0.3288
   4.100   0.7355   0.01151   0.00465  -0.0596  0.5405  1.0000  -1.3526   0.0000   0.0000   0.0000   0.3273
   4.200   0.7458   0.01163   0.00475  -0.0594  0.5284  1.0000  -1.3974   0.0000   0.0000   0.0000   0.3258
   4.300   0.7561   0.01177   0.00485  -0.0592  0.5164  1.0000  -1.4426   0.0000   0.0000   0.0000   0.3244
   4.400   0.7663   0.01191   0.00496  -0.0590  0.5044  1.0000  -1.4908   0.0000   0.0000   0.0000   0.3230
   4.500   0.7765   0.01205   0.00507  -0.0588  0.4924  1.0000  -1.5508   0.0000   0.0000   0.0000   0.3216
   4.600   0.7866   0.01220   0.00518  -0.0586  0.4805  1.0000  -1.6142   0.0000   0.0000   0.0000   0.3202
   4.700   0.7968   0.01236   0.00533  -0.0584  0.4683  1.0000  -1.6983   0.0000   0.0000   0.0000   0.3189
   4.800   0.8069   0.01251   0.00546  -0.0582  0.4555  1.0000  -1.7856   0.0000   0.0000   0.0000   0.3177
   4.900   0.8170   0.01266   0.00560  -0.0580  0.4428  1.0000  -1.8740   0.0000   0.0000   0.0000   0.3164
   5.000   0.8271   0.01282   0.00574  -0.0578  0.4302  1.0000  -1.9634   0.0000   0.0000   0.0000   0.3152
   5.100   0.8371   0.01299   0.00588  -0.0575  0.4174  1.0000  -2.0539   0.0000   0.0000   0.0000   0.3141
   5.200   0.8471   0.01316   0.00602  -0.0573  0.4045  1.0000  -2.1453   0.0000   0.0000   0.0000   0.3129
   5.300   0.8571   0.01334   0.00618  -0.0571  0.3917  1.0000  -2.2378   0.0000   0.0000   0.0000   0.3118
   5.400   0.8670   0.01352   0.00633  -0.0569  0.3787  1.0000  -2.3424   0.0000   0.0000   0.0000   0.3107
   5.500   0.8768   0.01371   0.00650  -0.0567  0.3655  1.0000  -2.4513   0.0000   0.0000   0.0000   0.3096
   5.600   0.8866   0.01391   0.00666  -0.0565  0.3522  1.0000  -2.5614   0.0000   0.0000   0.0000   0.3085
   5.700   0.8964   0.01411   0.00684  -0.0563  0.3390  1.0000  -2.6727   0.0000   0.0000   0.0000   0.3075
   5.800   0.9061   0.01432   0.00702  -0.0561  0.3256  1.0000  -2.7852   0.0000   0.0000   0.0000   0.3065
   5.900   0.9157   0.01454   0.00721  -0.0559  0.3119  1.0000  -2.8987   0.0000   0.0000   0.0000   0.3055
   6.000   0.9253   0.01477   0.00745  -0.0556  0.2982  1.0000  -3.0160   0.0000   0.0000   0.0000   0.3045
   6.100   0.9349   0.01500   0.00765  -0.0554  0.2844  1.0000  -3.1318   0.0000   0.0000   0.0000   0.3036
   6.200   0.9444   0.01524   0.00786  -0.0552  0.2704  1.0000  -3.2483   0.0000   0.0000   0.0000   0.3027
   6.300   0.9538   0.01549   0.00809  -0.0550  0.2562  1.0000  -3.3654   0.0000   0.0000   0.0000   0.3017
   6.400   0.9632   0.01576   0.00832  -0.0548  0.2420  1.0000  -3.4830   0.0000   0.0000   0.0000   0.3008
   6.500   0.9725   0.01603   0.00856  -0.0546  0.2277  1.0000  -3.6010   0.0000   0.0000   0.0000   0.3000
   6.600   0.9817   0.01632   0.00882  -0.0543  0.2130  1.0000  -3.7193   0.0000   0.0000   0.0000   0.2991
   6.700   0.9908   0.01663   0.00909  -0.0541  0.1982  1.0000  -3.8376   0.0000   0.0000   0.0000   0.2982
   6.800   0.9997   0.01696   0.00937  -0.0539  0.1833  1.0000  -3.9554   0.0000   0.0000   0.0000   0.2974
   6.900   1.0085   0.01731   0.00968  -0.0536  0.1683  1.0000  -4.0723   0.0000   0.0000   0.0000   0.2966
   7.000   1.0171   0.01771   0.01000  -0.0533  0.1529  1.0000  -4.1878   0.0000   0.0000   0.0000   0.2957
   7.100   1.0253   0.01815   0.01035  -0.0530  0.1374  1.0000  -4.3006   0.0000   0.0000   0.0000   0.2949
   7.200   1.0336   0.01861   0.01075  -0.0527  0.1218  1.0000  -4.4100   0.0000   0.0000   0.0000   0.2941
   7.300   1.0417   0.01911   0.01120  -0.0524  0.1062  1.0000  -4.5150   0.0000   0.0000   0.0000   0.2932
   7.400   1.0494   0.01968   0.01170  -0.0520  0.0918  1.0000  -4.6132   0.0000   0.0000   0.0000   0.2924
   7.500   1.0566   0.02034   0.01229  -0.0515  0.0796  1.0000  -4.6989   0.0000   0.0000   0.0000   0.2915
   7.600   1.0632   0.02109   0.01296  -0.0509  0.0697  1.0000  -4.7759   0.0000   0.0000   0.0000   0.2905
   7.700   1.0703   0.02173   0.01361  -0.0505  0.0610  1.0000  -4.8576   0.0000   0.0000   0.0000   0.2896
   7.800   1.0778   0.02236   0.01428  -0.0499  0.0540  1.0000  -4.9290   0.0000   0.0000   0.0000   0.2887
   7.900   1.0840   0.02314   0.01501  -0.0493  0.0491  1.0000  -4.9982   0.0000   0.0000   0.0000   0.2878
   8.000   1.0902   0.02404   0.01594  -0.0486  0.0455  1.0000  -5.0421   0.0000   0.0000   0.0000   0.2867
   8.100   1.0981   0.02459   0.01656  -0.0481  0.0419  1.0000  -5.1107   0.0000   0.0000   0.0000   0.2858
   8.200   1.1052   0.02519   0.01715  -0.0476  0.0387  1.0000  -5.1945   0.0000   0.0000   0.0000   0.2850
   8.300   1.1092   0.02659   0.01848  -0.0468  0.0360  1.0000  -5.2267   0.0000   0.0000   0.0000   0.2840
   8.400   1.1179   0.02703   0.01904  -0.0463  0.0343  1.0000  -5.2975   0.0000   0.0000   0.0000   0.2831
   8.500   1.1256   0.02777   0.01987  -0.0458  0.0328  1.0000  -5.3615   0.0000   0.0000   0.0000   0.2822
   8.600   1.1331   0.02855   0.02072  -0.0452  0.0315  1.0000  -5.4420   0.0000   0.0000   0.0000   0.2813
   8.700   1.1406   0.02936   0.02158  -0.0446  0.0303  1.0000  -5.5248   0.0000   0.0000   0.0000   0.2805
   8.800   1.1479   0.03019   0.02245  -0.0441  0.0293  1.0000  -5.6096   0.0000   0.0000   0.0000   0.2797
   8.900   1.1551   0.03110   0.02340  -0.0436  0.0284  1.0000  -5.6931   0.0000   0.0000   0.0000   0.2789
   9.000   1.1620   0.03217   0.02451  -0.0431  0.0276  1.0000  -5.7711   0.0000   0.0000   0.0000   0.2781
   9.100   1.1682   0.03368   0.02607  -0.0426  0.0268  1.0000  -5.8292   0.0000   0.0000   0.0000   0.2773
   9.200   1.1726   0.03619   0.02875  -0.0420  0.0259  1.0000  -5.8283   0.0000   0.0000   0.0000   0.2766
   9.300   1.1788   0.03688   0.02957  -0.0413  0.0254  1.0000  -5.9058   0.0000   0.0000   0.0000   0.2757
   9.400   1.1852   0.03742   0.03026  -0.0407  0.0248  1.0000  -5.9919   0.0000   0.0000   0.0000   0.2749
   9.500   1.1911   0.03821   0.03120  -0.0401  0.0241  1.0000  -6.0652   0.0000   0.0000   0.0000   0.2741
   9.600   1.1963   0.03923   0.03236  -0.0394  0.0236  1.0000  -6.1241   0.0000   0.0000   0.0000   0.2733
   9.700   1.2007   0.04049   0.03379  -0.0387  0.0233  1.0000  -6.1640   0.0000   0.0000   0.0000   0.2724
   9.800   1.2044   0.04185   0.03532  -0.0379  0.0231  1.0000  -6.1942   0.0000   0.0000   0.0000   0.2716
   9.900   1.2071   0.04326   0.03691  -0.0371  0.0230  1.0000  -6.2174   0.0000   0.0000   0.0000   0.2707
  10.000   1.2090   0.04474   0.03855  -0.0363  0.0229  1.0000  -6.2337   0.0000   0.0000   0.0000   0.2699
  10.100   1.2100   0.04625   0.04024  -0.0354  0.0228  1.0000  -6.2432   0.0000   0.0000   0.0000   0.2690
  10.200   1.2100   0.04781   0.04197  -0.0345  0.0228  1.0000  -6.2465   0.0000   0.0000   0.0000   0.2682
  10.300   1.2090   0.04940   0.04373  -0.0336  0.0228  1.0000  -6.2438   0.0000   0.0000   0.0000   0.2674
  10.400   1.2070   0.05101   0.04550  -0.0327  0.0228  1.0000  -6.2359   0.0000   0.0000   0.0000   0.2665
  10.500   1.2041   0.05262   0.04727  -0.0318  0.0229  1.0000  -6.2235   0.0000   0.0000   0.0000   0.2657
  10.600   1.2001   0.05421   0.04900  -0.0308  0.0229  1.0000  -6.2072   0.0000   0.0000   0.0000   0.2649
  10.700   1.1947   0.05570   0.05062  -0.0297  0.0230  1.0000  -6.1880   0.0000   0.0000   0.0000   0.2640
  10.800   1.1886   0.05721   0.05225  -0.0287  0.0230  1.0000  -6.1665   0.0000   0.0000   0.0000   0.2631
  10.900   1.1821   0.05877   0.05392  -0.0279  0.0231  1.0000  -6.1428   0.0000   0.0000   0.0000   0.2625
  11.000   1.1752   0.06039   0.05564  -0.0272  0.0232  1.0000  -6.1169   0.0000   0.0000   0.0000   0.2620
  11.100   1.1680   0.06208   0.05744  -0.0269  0.0233  1.0000  -6.0890   0.0000   0.0000   0.0000   0.2616
  11.200   1.1605   0.06387   0.05933  -0.0267  0.0233  1.0000  -6.0589   0.0000   0.0000   0.0000   0.2615
  11.300   1.1529   0.06575   0.06131  -0.0268  0.0234  1.0000  -6.0266   0.0000   0.0000   0.0000   0.2616
  11.400   1.1451   0.06775   0.06340  -0.0271  0.0235  1.0000  -5.9920   0.0000   0.0000   0.0000   0.2620
  11.500   1.1371   0.06987   0.06561  -0.0277  0.0236  1.0000  -5.9549   0.0000   0.0000   0.0000   0.2625
  11.600   1.1290   0.07211   0.06794  -0.0286  0.0236  1.0000  -5.9151   0.0000   0.0000   0.0000   0.2633
  11.700   1.1208   0.07449   0.07040  -0.0297  0.0237  1.0000  -5.8724   0.0000   0.0000   0.0000   0.2643
  11.800   1.1125   0.07701   0.07300  -0.0310  0.0238  1.0000  -5.8265   0.0000   0.0000   0.0000   0.2656
  11.900   1.1040   0.07969   0.07575  -0.0326  0.0239  1.0000  -5.7770   0.0000   0.0000   0.0000   0.2671
  12.000   1.0955   0.08252   0.07865  -0.0344  0.0240  1.0000  -5.7236   0.0000   0.0000   0.0000   0.2688
  12.100   1.0868   0.08553   0.08173  -0.0364  0.0240  1.0000  -5.6657   0.0000   0.0000   0.0000   0.2708
  12.200   1.0780   0.08871   0.08497  -0.0386  0.0241  1.0000  -5.6028   0.0000   0.0000   0.0000   0.2730
  12.300   1.0691   0.09206   0.08838  -0.0410  0.0242  1.0000  -5.5344   0.0000   0.0000   0.0000   0.2754
  12.400   1.0601   0.09559   0.09197  -0.0436  0.0244  1.0000  -5.4598   0.0000   0.0000   0.0000   0.2780
  12.500   1.0509   0.09931   0.09574  -0.0462  0.0245  1.0000  -5.3782   0.0000   0.0000   0.0000   0.2808
  12.600   1.0417   0.10322   0.09969  -0.0490  0.0246  1.0000  -5.2889   0.0000   0.0000   0.0000   0.2838
  12.700   1.0324   0.10728   0.10378  -0.0518  0.0248  1.0000  -5.1917   0.0000   0.0000   0.0000   0.2869
  12.800   1.0230   0.11146   0.10800  -0.0546  0.0249  1.0000  -5.0868   0.0000   0.0000   0.0000   0.2900
  12.900   1.0137   0.11573   0.11229  -0.0573  0.0251  1.0000  -4.9751   0.0000   0.0000   0.0000   0.2932
  13.000   1.0048   0.11997   0.11654  -0.0598  0.0254  1.0000  -4.8602   0.0000   0.0000   0.0000   0.2961
  13.100   0.9967   0.12397   0.12053  -0.0618  0.0256  1.0000  -4.7498   0.0000   0.0000   0.0000   0.2986
  13.500   0.8407   0.11767   0.11440  -0.0415  0.0263  1.0000  -4.3766   0.0000   0.0000   0.0000   0.2863
  13.600   0.9437   0.15781   0.15432  -0.0798  0.0344  1.0000  -3.3034   0.0000   0.0000   0.0000   0.3219
  13.700   0.9434   0.16003   0.15654  -0.0805  0.0349  1.0000  -3.2802   0.0000   0.0000   0.0000   0.3227
  13.800   0.9437   0.16176   0.15827  -0.0807  0.0355  1.0000  -3.2889   0.0000   0.0000   0.0000   0.3226
  13.900   0.7293   0.14937   0.14603  -0.0573  0.0433  1.0000  -2.3920   0.0000   0.0000   0.0000   0.3177
  14.000   0.7277   0.15106   0.14771  -0.0576  0.0447  1.0000  -2.3600   0.0000   0.0000   0.0000   0.3183
  14.100   0.7297   0.15209   0.14875  -0.0572  0.0462  1.0000  -2.3851   0.0000   0.0000   0.0000   0.3174
  16.000   0.9751   0.21464   0.21104  -0.1022  0.0473  1.0000  -2.5582   0.0000   0.0000   0.0000   0.3401
  16.100   0.9756   0.21643   0.21281  -0.1041  0.0472  1.0000  -2.5091   0.0000   0.0000   0.0000   0.3419
  16.200   0.9755   0.21810   0.21447  -0.1064  0.0469  1.0000  -2.4463   0.0000   0.0000   0.0000   0.3442
  16.300   0.9738   0.21956   0.21591  -0.1092  0.0465  1.0000  -2.3612   0.0000   0.0000   0.0000   0.3473
  16.400   0.9729   0.22112   0.21745  -0.1120  0.0456  1.0000  -2.2819   0.0000   0.0000   0.0000   0.3501
  16.500   0.9744   0.22283   0.21915  -0.1137  0.0445  1.0000  -2.2444   0.0000   0.0000   0.0000   0.3516
  16.600   0.9767   0.22450   0.22082  -0.1149  0.0436  1.0000  -2.2265   0.0000   0.0000   0.0000   0.3524
  16.700   0.9793   0.22609   0.22240  -0.1160  0.0428  1.0000  -2.2167   0.0000   0.0000   0.0000   0.3531
  16.800   0.9820   0.22766   0.22398  -0.1169  0.0420  1.0000  -2.2118   0.0000   0.0000   0.0000   0.3536
  16.900   0.9849   0.22919   0.22551  -0.1178  0.0414  1.0000  -2.2107   0.0000   0.0000   0.0000   0.3540
  17.000   0.9879   0.23068   0.22699  -0.1186  0.0407  1.0000  -2.2130   0.0000   0.0000   0.0000   0.3543
  17.100   0.9910   0.23213   0.22844  -0.1193  0.0401  1.0000  -2.2188   0.0000   0.0000   0.0000   0.3545
  17.200   0.9942   0.23353   0.22985  -0.1200  0.0395  1.0000  -2.2285   0.0000   0.0000   0.0000   0.3546
  17.300   0.9976   0.23494   0.23126  -0.1206  0.0390  1.0000  -2.2429   0.0000   0.0000   0.0000   0.3546
  17.400   1.0012   0.23630   0.23263  -0.1210  0.0385  1.0000  -2.2632   0.0000   0.0000   0.0000   0.3545
  17.500   1.0051   0.23766   0.23399  -0.1213  0.0380  1.0000  -2.2914   0.0000   0.0000   0.0000   0.3541
  17.600   1.0095   0.23908   0.23542  -0.1213  0.0376  1.0000  -2.3315   0.0000   0.0000   0.0000   0.3534
  17.700   1.0152   0.24081   0.23717  -0.1206  0.0371  1.0000  -2.3954   0.0000   0.0000   0.0000   0.3519
  17.800   1.0231   0.24624   0.24260  -0.1177  0.0362  1.0000  -2.5048   0.0000   0.0000   0.0000   0.3479
  17.900   1.0255   0.24784   0.24420  -0.1190  0.0362  1.0000  -2.4800   0.0000   0.0000   0.0000   0.3487
  18.000   1.0279   0.24937   0.24572  -0.1203  0.0361  1.0000  -2.4531   0.0000   0.0000   0.0000   0.3496
  18.100   1.0297   0.25077   0.24711  -0.1219  0.0360  1.0000  -2.4164   0.0000   0.0000   0.0000   0.3508
  18.200   1.0314   0.25206   0.24839  -0.1235  0.0359  1.0000  -2.3770   0.0000   0.0000   0.0000   0.3521
  18.300   1.0329   0.25316   0.24948  -0.1254  0.0358  1.0000  -2.3318   0.0000   0.0000   0.0000   0.3536
  18.400   1.0335   0.25400   0.25031  -0.1275  0.0357  1.0000  -2.2762   0.0000   0.0000   0.0000   0.3555
  18.500   1.0341   0.25483   0.25112  -0.1300  0.0354  1.0000  -2.2122   0.0000   0.0000   0.0000   0.3577
  18.600   1.0355   0.25589   0.25217  -0.1324  0.0348  1.0000  -2.1450   0.0000   0.0000   0.0000   0.3597
  18.700   1.0380   0.25731   0.25358  -0.1342  0.0339  1.0000  -2.1001   0.0000   0.0000   0.0000   0.3611
  18.800   1.0410   0.25880   0.25507  -0.1355  0.0329  1.0000  -2.0784   0.0000   0.0000   0.0000   0.3618
  18.900   1.0441   0.26027   0.25654  -0.1366  0.0321  1.0000  -2.0677   0.0000   0.0000   0.0000   0.3623
  19.000   1.0473   0.26170   0.25797  -0.1376  0.0313  1.0000  -2.0630   0.0000   0.0000   0.0000   0.3627
  19.100   1.0505   0.26306   0.25933  -0.1385  0.0306  1.0000  -2.0624   0.0000   0.0000   0.0000   0.3630
  19.200   1.0538   0.26444   0.26071  -0.1393  0.0300  1.0000  -2.0649   0.0000   0.0000   0.0000   0.3632
  19.300   1.0570   0.26580   0.26208  -0.1402  0.0294  1.0000  -2.0696   0.0000   0.0000   0.0000   0.3634
  19.400   1.0603   0.26715   0.26343  -0.1410  0.0290  1.0000  -2.0757   0.0000   0.0000   0.0000   0.3636
  19.500   1.0637   0.26845   0.26473  -0.1417  0.0286  1.0000  -2.0845   0.0000   0.0000   0.0000   0.3637
  19.600   1.0670   0.26980   0.26609  -0.1424  0.0282  1.0000  -2.0968   0.0000   0.0000   0.0000   0.3638
  19.700   1.0705   0.27109   0.26742  -0.1430  0.0278  1.0000  -2.1132   0.0000   0.0000   0.0000   0.3637
  19.800   1.0740   0.27242   0.26876  -0.1436  0.0275  1.0000  -2.1349   0.0000   0.0000   0.0000   0.3636
  19.900   1.0776   0.27379   0.27013  -0.1440  0.0272  1.0000  -2.1634   0.0000   0.0000   0.0000   0.3633
  20.000   1.0815   0.27530   0.27165  -0.1441  0.0269  1.0000  -2.2017   0.0000   0.0000   0.0000   0.3628
  20.100   1.0861   0.27727   0.27363  -0.1438  0.0265  1.0000  -2.2579   0.0000   0.0000   0.0000   0.3617
  20.200   0.7393   0.23853   0.23524  -0.0910  0.0348  1.0000  -1.3430   0.0000   0.0000   0.0000   0.3573
  20.300   0.7394   0.23970   0.23641  -0.0918  0.0340  1.0000  -1.3102   0.0000   0.0000   0.0000   0.3584
  20.400   0.7401   0.24097   0.23768  -0.0925  0.0332  1.0000  -1.2906   0.0000   0.0000   0.0000   0.3590
  20.500   0.7411   0.24225   0.23896  -0.0930  0.0324  1.0000  -1.2781   0.0000   0.0000   0.0000   0.3595
  20.600   0.7422   0.24353   0.24024  -0.0935  0.0316  1.0000  -1.2699   0.0000   0.0000   0.0000   0.3599
  20.700   0.7434   0.24479   0.24151  -0.0940  0.0309  1.0000  -1.2645   0.0000   0.0000   0.0000   0.3602
  20.800   0.7447   0.24603   0.24276  -0.0945  0.0303  1.0000  -1.2616   0.0000   0.0000   0.0000   0.3605
  20.900   0.7460   0.24723   0.24396  -0.0949  0.0297  1.0000  -1.2607   0.0000   0.0000   0.0000   0.3607
  21.000   0.7473   0.24846   0.24520  -0.0953  0.0292  1.0000  -1.2615   0.0000   0.0000   0.0000   0.3609
  21.100   0.7488   0.24970   0.24644  -0.0957  0.0287  1.0000  -1.2637   0.0000   0.0000   0.0000   0.3610
  21.200   0.7502   0.25095   0.24769  -0.0961  0.0284  1.0000  -1.2671   0.0000   0.0000   0.0000   0.3611
  21.300   0.7518   0.25218   0.24893  -0.0965  0.0280  1.0000  -1.2728   0.0000   0.0000   0.0000   0.3612
  21.400   0.7534   0.25341   0.25017  -0.0968  0.0276  1.0000  -1.2816   0.0000   0.0000   0.0000   0.3612
  21.500   0.7552   0.25468   0.25144  -0.0971  0.0273  1.0000  -1.2943   0.0000   0.0000   0.0000   0.3610
  21.600   0.7573   0.25601   0.25278  -0.0972  0.0270  1.0000  -1.3175   0.0000   0.0000   0.0000   0.3608
  21.700   0.7599   0.25751   0.25432  -0.0973  0.0267  1.0000  -1.3543   0.0000   0.0000   0.0000   0.3602
  21.800   0.7640   0.25963   0.25645  -0.0970  0.0263  1.0000  -1.4108   0.0000   0.0000   0.0000   0.3589
  21.900   0.7734   0.26570   0.26251  -0.0959  0.0258  1.0000  -1.4946   0.0000   0.0000   0.0000   0.3558
  22.000   0.7735   0.26682   0.26364  -0.0966  0.0258  1.0000  -1.4830   0.0000   0.0000   0.0000   0.3565
  22.100   0.7737   0.26792   0.26474  -0.0972  0.0258  1.0000  -1.4708   0.0000   0.0000   0.0000   0.3572
  22.200   0.7737   0.26898   0.26580  -0.0979  0.0258  1.0000  -1.4581   0.0000   0.0000   0.0000   0.3579
  22.300   0.7736   0.26996   0.26678  -0.0986  0.0257  1.0000  -1.4430   0.0000   0.0000   0.0000   0.3587
  22.400   0.7733   0.27091   0.26773  -0.0993  0.0257  1.0000  -1.4264   0.0000   0.0000   0.0000   0.3596
  22.500   0.7730   0.27185   0.26867  -0.1000  0.0257  1.0000  -1.4095   0.0000   0.0000   0.0000   0.3604
  22.600   0.7728   0.27278   0.26961  -0.1007  0.0256  1.0000  -1.3923   0.0000   0.0000   0.0000   0.3613
  22.700   0.7726   0.27371   0.27054  -0.1015  0.0256  1.0000  -1.3745   0.0000   0.0000   0.0000   0.3621
  22.800   0.7725   0.27464   0.27147  -0.1022  0.0255  1.0000  -1.3561   0.0000   0.0000   0.0000   0.3630
  22.900   0.7724   0.27558   0.27241  -0.1030  0.0254  1.0000  -1.3368   0.0000   0.0000   0.0000   0.3639
  23.000   0.7724   0.27653   0.27336  -0.1038  0.0253  1.0000  -1.3167   0.0000   0.0000   0.0000   0.3648
  23.100   0.7725   0.27753   0.27436  -0.1045  0.0252  1.0000  -1.2959   0.0000   0.0000   0.0000   0.3657
  23.200   0.7728   0.27859   0.27542  -0.1053  0.0249  1.0000  -1.2757   0.0000   0.0000   0.0000   0.3665
  23.300   0.7734   0.27975   0.27658  -0.1060  0.0247  1.0000  -1.2579   0.0000   0.0000   0.0000   0.3672
  23.400   0.7742   0.28101   0.27785  -0.1067  0.0243  1.0000  -1.2442   0.0000   0.0000   0.0000   0.3678
  23.500   0.7752   0.28232   0.27917  -0.1073  0.0240  1.0000  -1.2348   0.0000   0.0000   0.0000   0.3683
  23.600   0.7763   0.28366   0.28051  -0.1079  0.0236  1.0000  -1.2286   0.0000   0.0000   0.0000   0.3687
  23.700   0.7773   0.28502   0.28187  -0.1084  0.0233  1.0000  -1.2244   0.0000   0.0000   0.0000   0.3690
  23.800   0.7784   0.28637   0.28323  -0.1089  0.0229  1.0000  -1.2216   0.0000   0.0000   0.0000   0.3693
  23.900   0.7795   0.28773   0.28459  -0.1094  0.0226  1.0000  -1.2197   0.0000   0.0000   0.0000   0.3696
  24.000   0.7806   0.28909   0.28596  -0.1099  0.0222  1.0000  -1.2186   0.0000   0.0000   0.0000   0.3699
  24.100   0.7817   0.29044   0.28732  -0.1104  0.0219  1.0000  -1.2179   0.0000   0.0000   0.0000   0.3702
  24.200   0.7828   0.29180   0.28867  -0.1109  0.0216  1.0000  -1.2178   0.0000   0.0000   0.0000   0.3704
  24.300   0.7839   0.29314   0.29003  -0.1113  0.0213  1.0000  -1.2180   0.0000   0.0000   0.0000   0.3707
  24.400   0.7850   0.29449   0.29138  -0.1118  0.0210  1.0000  -1.2186   0.0000   0.0000   0.0000   0.3709
  24.500   0.7861   0.29583   0.29272  -0.1123  0.0208  1.0000  -1.2196   0.0000   0.0000   0.0000   0.3712
  24.600   0.7872   0.29717   0.29407  -0.1128  0.0205  1.0000  -1.2210   0.0000   0.0000   0.0000   0.3714
  24.700   0.7883   0.29850   0.29541  -0.1132  0.0202  1.0000  -1.2228   0.0000   0.0000   0.0000   0.3716
  24.800   0.7894   0.29983   0.29674  -0.1137  0.0200  1.0000  -1.2252   0.0000   0.0000   0.0000   0.3718
  24.900   0.7905   0.30116   0.29808  -0.1142  0.0197  1.0000  -1.2282   0.0000   0.0000   0.0000   0.3720
  25.000   0.7916   0.30248   0.29940  -0.1146  0.0195  1.0000  -1.2318   0.0000   0.0000   0.0000   0.3722
  25.100   0.7927   0.30380   0.30073  -0.1150  0.0193  1.0000  -1.2363   0.0000   0.0000   0.0000   0.3724
  25.200   0.7938   0.30511   0.30205  -0.1155  0.0190  1.0000  -1.2417   0.0000   0.0000   0.0000   0.3725
  25.300   0.7950   0.30643   0.30337  -0.1159  0.0188  1.0000  -1.2483   0.0000   0.0000   0.0000   0.3727
  25.400   0.7961   0.30775   0.30469  -0.1163  0.0186  1.0000  -1.2563   0.0000   0.0000   0.0000   0.3728
  25.500   0.7973   0.30907   0.30603  -0.1167  0.0184  1.0000  -1.2660   0.0000   0.0000   0.0000   0.3729
  25.600   0.7985   0.31043   0.30739  -0.1171  0.0182  1.0000  -1.2781   0.0000   0.0000   0.0000   0.3729
  25.700   0.7998   0.31183   0.30880  -0.1174  0.0180  1.0000  -1.2930   0.0000   0.0000   0.0000   0.3729
  25.800   0.8013   0.31334   0.31031  -0.1177  0.0178  1.0000  -1.3120   0.0000   0.0000   0.0000   0.3727


