xflr5 v6.61

 Calculated polar for: AG24

 1 1 Reynolds number fixed          Mach number fixed         

 xtrf =   1.000 (top)        1.000 (bottom)
 Mach =   0.000     Re =     0.500 e 6     Ncrit =   9.000

  alpha     CL        CD       CDp       Cm    Top Xtr Bot Xtr   Cpmin    Chinge    XCp    
 ------- -------- --------- --------- -------- ------- ------- -------- --------- ---------
 -10.000  -0.4024   0.10241   0.10029  -0.0092  1.0000  0.0158  -1.7801   0.0000   0.0000   0.0000   0.2231
  -9.900  -0.4019   0.10085   0.09873  -0.0096  1.0000  0.0160  -1.7871   0.0000   0.0000   0.0000   0.2220
  -9.800  -0.4014   0.09926   0.09714  -0.0101  1.0000  0.0161  -1.7954   0.0000   0.0000   0.0000   0.2209
  -9.700  -0.4010   0.09764   0.09553  -0.0105  1.0000  0.0163  -1.8052   0.0000   0.0000   0.0000   0.2198
  -9.600  -0.4008   0.09600   0.09389  -0.0110  1.0000  0.0164  -1.8166   0.0000   0.0000   0.0000   0.2186
  -9.500  -0.4006   0.09434   0.09224  -0.0115  1.0000  0.0166  -1.8295   0.0000   0.0000   0.0000   0.2174
  -9.400  -0.4005   0.09265   0.09056  -0.0120  1.0000  0.0168  -1.8438   0.0000   0.0000   0.0000   0.2162
  -9.300  -0.4004   0.09093   0.08884  -0.0125  1.0000  0.0170  -1.8596   0.0000   0.0000   0.0000   0.2149
  -9.200  -0.4004   0.08919   0.08711  -0.0131  1.0000  0.0171  -1.8769   0.0000   0.0000   0.0000   0.2135
  -9.100  -0.4006   0.08742   0.08535  -0.0137  1.0000  0.0173  -1.8959   0.0000   0.0000   0.0000   0.2121
  -9.000  -0.4009   0.08563   0.08356  -0.0142  1.0000  0.0175  -1.9166   0.0000   0.0000   0.0000   0.2107
  -8.900  -0.4012   0.08380   0.08174  -0.0149  1.0000  0.0177  -1.9392   0.0000   0.0000   0.0000   0.2092
  -8.800  -0.4017   0.08195   0.07989  -0.0155  1.0000  0.0179  -1.9637   0.0000   0.0000   0.0000   0.2077
  -8.700  -0.4023   0.08006   0.07802  -0.0162  1.0000  0.0182  -1.9905   0.0000   0.0000   0.0000   0.2061
  -8.600  -0.4031   0.07814   0.07610  -0.0169  1.0000  0.0184  -2.0197   0.0000   0.0000   0.0000   0.2044
  -8.500  -0.4040   0.07619   0.07417  -0.0177  1.0000  0.0186  -2.0512   0.0000   0.0000   0.0000   0.2026
  -8.400  -0.4051   0.07420   0.07218  -0.0185  1.0000  0.0188  -2.0858   0.0000   0.0000   0.0000   0.2008
  -8.300  -0.4064   0.07217   0.07016  -0.0194  1.0000  0.0190  -2.1238   0.0000   0.0000   0.0000   0.1988
  -8.200  -0.4077   0.07012   0.06812  -0.0203  1.0000  0.0193  -2.1638   0.0000   0.0000   0.0000   0.1967
  -8.100  -0.4092   0.06802   0.06603  -0.0213  1.0000  0.0195  -2.2077   0.0000   0.0000   0.0000   0.1945
  -6.300  -0.4522   0.02705   0.02317  -0.0536  1.0000  0.0141  -4.4253   0.0000   0.0000   0.0000   0.1269
  -6.200  -0.4443   0.02656   0.02260  -0.0531  1.0000  0.0139  -4.3773   0.0000   0.0000   0.0000   0.1260
  -6.000  -0.4304   0.02414   0.02002  -0.0524  1.0000  0.0130  -4.3607   0.0000   0.0000   0.0000   0.1237
  -5.900  -0.4233   0.02272   0.01842  -0.0522  1.0000  0.0129  -4.3701   0.0000   0.0000   0.0000   0.1222
  -5.800  -0.4156   0.02154   0.01708  -0.0519  1.0000  0.0129  -4.3566   0.0000   0.0000   0.0000   0.1205
  -5.700  -0.4075   0.02056   0.01597  -0.0516  1.0000  0.0129  -4.3233   0.0000   0.0000   0.0000   0.1188
  -5.600  -0.3991   0.02037   0.01570  -0.0512  1.0000  0.0132  -4.2221   0.0000   0.0000   0.0000   0.1173
  -5.500  -0.3848   0.01956   0.01469  -0.0521  0.9992  0.0137  -4.1324   0.0000   0.0000   0.0000   0.1102
  -5.400  -0.3712   0.01766   0.01255  -0.0530  0.9985  0.0140  -4.1281   0.0000   0.0000   0.0000   0.1026
  -5.300  -0.3571   0.01657   0.01132  -0.0538  0.9977  0.0142  -4.0618   0.0000   0.0000   0.0000   0.0946
  -5.200  -0.3425   0.01581   0.01046  -0.0546  0.9968  0.0141  -3.9744   0.0000   0.0000   0.0000   0.0860
  -5.100  -0.3279   0.01505   0.00960  -0.0553  0.9960  0.0141  -3.8875   0.0000   0.0000   0.0000   0.0766
  -5.000  -0.3134   0.01424   0.00870  -0.0561  0.9952  0.0142  -3.8059   0.0000   0.0000   0.0000   0.0663
  -4.900  -0.2989   0.01342   0.00779  -0.0569  0.9945  0.0145  -3.7249   0.0000   0.0000   0.0000   0.0549
  -4.800  -0.2844   0.01272   0.00703  -0.0576  0.9937  0.0149  -3.6326   0.0000   0.0000   0.0000   0.0425
  -4.700  -0.2703   0.01222   0.00649  -0.0583  0.9924  0.0155  -3.5223   0.0000   0.0000   0.0000   0.0294
  -4.600  -0.2560   0.01185   0.00610  -0.0590  0.9910  0.0162  -3.3979   0.0000   0.0000   0.0000   0.0143
  -4.500  -0.2413   0.01154   0.00576  -0.0598  0.9895  0.0169  -3.2688   0.0000   0.0000   0.0000  -0.0029
  -4.400  -0.2265   0.01124   0.00541  -0.0606  0.9882  0.0178  -3.1404   0.0000   0.0000   0.0000  -0.0227
  -4.300  -0.2114   0.01096   0.00509  -0.0614  0.9869  0.0188  -3.0476   0.0000   0.0000   0.0000  -0.0459
  -4.200  -0.1962   0.01070   0.00480  -0.0623  0.9858  0.0198  -2.9567   0.0000   0.0000   0.0000  -0.0730
  -4.100  -0.1807   0.01057   0.00465  -0.0632  0.9847  0.0209  -2.8459   0.0000   0.0000   0.0000  -0.1054
  -4.000  -0.1652   0.01002   0.00405  -0.0641  0.9838  0.0237  -2.7789   0.0000   0.0000   0.0000  -0.1445
  -3.900  -0.1495   0.00976   0.00378  -0.0651  0.9829  0.0267  -2.6774   0.0000   0.0000   0.0000  -0.1924
  -3.800  -0.1339   0.00956   0.00356  -0.0661  0.9818  0.0296  -2.5759   0.0000   0.0000   0.0000  -0.2504
  -3.700  -0.1208   0.00933   0.00329  -0.0664  0.9791  0.0333  -2.4899   0.0000   0.0000   0.0000  -0.3074
  -3.600  -0.1070   0.00907   0.00306  -0.0670  0.9767  0.0417  -2.3953   0.0000   0.0000   0.0000  -0.3844
  -3.500  -0.0928   0.00878   0.00284  -0.0677  0.9744  0.0595  -2.2943   0.0000   0.0000   0.0000  -0.4878
  -3.400  -0.0787   0.00848   0.00269  -0.0684  0.9723  0.0891  -2.1833   0.0000   0.0000   0.0000  -0.6297
  -3.300  -0.0645   0.00824   0.00255  -0.0691  0.9704  0.1202  -2.0673   0.0000   0.0000   0.0000  -0.8331
  -3.100  -0.0392   0.00786   0.00237  -0.0699  0.9641  0.1781  -1.8524   0.0000   0.0000   0.0000  -1.5519
  -3.000  -0.0270   0.00767   0.00229  -0.0702  0.9605  0.2087  -1.7486   0.0000   0.0000   0.0000  -2.3705
  -2.900  -0.0146   0.00751   0.00222  -0.0705  0.9573  0.2380  -1.6448   0.0000   0.0000   0.0000  -4.6212
  -2.800  -0.0020   0.00736   0.00216  -0.0708  0.9544  0.2650  -1.5420   0.0000   0.0000   0.0000  -34.8564
  -2.700   0.0084   0.00724   0.00211  -0.0706  0.9493  0.2905  -1.4497   0.0000   0.0000   0.0000   8.6912
  -2.600   0.0195   0.00711   0.00206  -0.0706  0.9449  0.3170  -1.3560   0.0000   0.0000   0.0000   3.8883
  -2.500   0.0309   0.00699   0.00200  -0.0706  0.9413  0.3430  -1.2628   0.0000   0.0000   0.0000   2.5465
  -2.400   0.0414   0.00688   0.00197  -0.0704  0.9360  0.3680  -1.1757   0.0000   0.0000   0.0000   1.9622
  -2.300   0.0520   0.00677   0.00191  -0.0702  0.9311  0.3919  -1.1012   0.0000   0.0000   0.0000   1.6091
  -2.100   0.0731   0.00659   0.00184  -0.0698  0.9212  0.4394  -0.9602   0.0000   0.0000   0.0000   1.2100
  -2.000   0.0836   0.00650   0.00180  -0.0696  0.9161  0.4603  -0.8917   0.0000   0.0000   0.0000   1.0866
  -1.900   0.0941   0.00643   0.00176  -0.0694  0.9112  0.4812  -0.8242   0.0000   0.0000   0.0000   0.9904
  -1.800   0.1047   0.00635   0.00174  -0.0692  0.9053  0.5019  -0.7580   0.0000   0.0000   0.0000   0.9138
  -1.700   0.1151   0.00628   0.00170  -0.0689  0.9003  0.5240  -0.6931   0.0000   0.0000   0.0000   0.8512
  -1.600   0.1256   0.00620   0.00168  -0.0687  0.8944  0.5465  -0.6392   0.0000   0.0000   0.0000   0.7989
  -1.500   0.1361   0.00613   0.00166  -0.0685  0.8887  0.5684  -0.5871   0.0000   0.0000   0.0000   0.7547
  -1.400   0.1466   0.00606   0.00163  -0.0682  0.8832  0.5905  -0.5355   0.0000   0.0000   0.0000   0.7167
  -1.300   0.1571   0.00600   0.00161  -0.0680  0.8768  0.6118  -0.4906   0.0000   0.0000   0.0000   0.6839
  -1.100   0.1781   0.00587   0.00158  -0.0675  0.8648  0.6553  -0.4108   0.0000   0.0000   0.0000   0.6297
  -0.900   0.1989   0.00576   0.00155  -0.0670  0.8524  0.7001  -0.4216   0.0000   0.0000   0.0000   0.5869
  -0.800   0.2091   0.00571   0.00155  -0.0666  0.8460  0.7224  -0.4309   0.0000   0.0000   0.0000   0.5687
  -0.700   0.2194   0.00566   0.00154  -0.0663  0.8395  0.7451  -0.4404   0.0000   0.0000   0.0000   0.5522
  -0.600   0.2295   0.00562   0.00154  -0.0660  0.8328  0.7673  -0.4499   0.0000   0.0000   0.0000   0.5372
  -0.500   0.2395   0.00558   0.00153  -0.0656  0.8262  0.7893  -0.4596   0.0000   0.0000   0.0000   0.5234
  -0.400   0.2493   0.00554   0.00153  -0.0651  0.8192  0.8110  -0.4695   0.0000   0.0000   0.0000   0.5107
  -0.300   0.2590   0.00550   0.00152  -0.0646  0.8124  0.8320  -0.4793   0.0000   0.0000   0.0000   0.4989
  -0.200   0.2683   0.00546   0.00151  -0.0640  0.8051  0.8530  -0.4890   0.0000   0.0000   0.0000   0.4880
  -0.100   0.2773   0.00543   0.00150  -0.0634  0.7980  0.8744  -0.4991   0.0000   0.0000   0.0000   0.4778
   0.000   0.2859   0.00539   0.00148  -0.0626  0.7907  0.8972  -0.5089   0.0000   0.0000   0.0000   0.4681
   0.100   0.2944   0.00534   0.00146  -0.0618  0.7834  0.9234  -0.5191   0.0000   0.0000   0.0000   0.4589
   0.200   0.3061   0.00530   0.00141  -0.0617  0.7757  0.9576  -0.5316   0.0000   0.0000   0.0000   0.4504
   0.300   0.3213   0.00528   0.00137  -0.0625  0.7675  1.0000  -0.5462   0.0000   0.0000   0.0000   0.4434
   0.400   0.3325   0.00533   0.00136  -0.0624  0.7599  1.0000  -0.5583   0.0000   0.0000   0.0000   0.4366
   0.500   0.3438   0.00536   0.00135  -0.0624  0.7513  1.0000  -0.5709   0.0000   0.0000   0.0000   0.4304
   0.600   0.3549   0.00541   0.00135  -0.0624  0.7432  1.0000  -0.5839   0.0000   0.0000   0.0000   0.4245
   0.700   0.3661   0.00545   0.00134  -0.0624  0.7346  1.0000  -0.5969   0.0000   0.0000   0.0000   0.4189
   0.800   0.3773   0.00549   0.00134  -0.0623  0.7259  1.0000  -0.6108   0.0000   0.0000   0.0000   0.4137
   0.900   0.3884   0.00554   0.00134  -0.0623  0.7174  1.0000  -0.6247   0.0000   0.0000   0.0000   0.4088
   1.000   0.3996   0.00559   0.00134  -0.0623  0.7082  1.0000  -0.6387   0.0000   0.0000   0.0000   0.4042
   1.100   0.4108   0.00564   0.00135  -0.0622  0.6991  1.0000  -0.6534   0.0000   0.0000   0.0000   0.3998
   1.200   0.4218   0.00570   0.00136  -0.0622  0.6900  1.0000  -0.6684   0.0000   0.0000   0.0000   0.3957
   1.300   0.4330   0.00575   0.00137  -0.0622  0.6803  1.0000  -0.6836   0.0000   0.0000   0.0000   0.3917
   1.400   0.4441   0.00580   0.00138  -0.0621  0.6709  1.0000  -0.6988   0.0000   0.0000   0.0000   0.3880
   1.500   0.4552   0.00587   0.00140  -0.0621  0.6615  1.0000  -0.7145   0.0000   0.0000   0.0000   0.3844
   1.600   0.4663   0.00593   0.00141  -0.0620  0.6515  1.0000  -0.7311   0.0000   0.0000   0.0000   0.3810
   1.700   0.4774   0.00598   0.00143  -0.0620  0.6418  1.0000  -0.7477   0.0000   0.0000   0.0000   0.3778
   1.800   0.4884   0.00605   0.00145  -0.0620  0.6320  1.0000  -0.7644   0.0000   0.0000   0.0000   0.3747
   1.900   0.4995   0.00612   0.00147  -0.0619  0.6217  1.0000  -0.7826   0.0000   0.0000   0.0000   0.3718
   2.000   0.5106   0.00619   0.00150  -0.0619  0.6113  1.0000  -0.8009   0.0000   0.0000   0.0000   0.3690
   2.100   0.5216   0.00626   0.00152  -0.0619  0.6012  1.0000  -0.8192   0.0000   0.0000   0.0000   0.3663
   2.200   0.5326   0.00633   0.00155  -0.0618  0.5911  1.0000  -0.8376   0.0000   0.0000   0.0000   0.3637
   2.300   0.5436   0.00641   0.00158  -0.0618  0.5805  1.0000  -0.8579   0.0000   0.0000   0.0000   0.3612
   2.400   0.5547   0.00648   0.00162  -0.0618  0.5702  1.0000  -0.8784   0.0000   0.0000   0.0000   0.3588
   2.500   0.5657   0.00656   0.00167  -0.0617  0.5601  1.0000  -0.8989   0.0000   0.0000   0.0000   0.3565
   2.600   0.5767   0.00664   0.00170  -0.0617  0.5497  1.0000  -0.9198   0.0000   0.0000   0.0000   0.3543
   2.700   0.5877   0.00672   0.00174  -0.0617  0.5392  1.0000  -0.9429   0.0000   0.0000   0.0000   0.3521
   2.800   0.5987   0.00680   0.00179  -0.0616  0.5288  1.0000  -0.9661   0.0000   0.0000   0.0000   0.3501
   2.900   0.6097   0.00689   0.00183  -0.0616  0.5184  1.0000  -0.9894   0.0000   0.0000   0.0000   0.3481
   3.000   0.6206   0.00698   0.00188  -0.0616  0.5079  1.0000  -1.0146   0.0000   0.0000   0.0000   0.3462
   3.100   0.6315   0.00707   0.00193  -0.0615  0.4972  1.0000  -1.0412   0.0000   0.0000   0.0000   0.3444
   3.200   0.6425   0.00715   0.00198  -0.0615  0.4867  1.0000  -1.0681   0.0000   0.0000   0.0000   0.3426
   3.300   0.6535   0.00724   0.00203  -0.0615  0.4763  1.0000  -1.0952   0.0000   0.0000   0.0000   0.3409
   3.400   0.6643   0.00734   0.00209  -0.0614  0.4660  1.0000  -1.1265   0.0000   0.0000   0.0000   0.3392
   3.500   0.6752   0.00744   0.00217  -0.0614  0.4554  1.0000  -1.1581   0.0000   0.0000   0.0000   0.3376
   3.600   0.6862   0.00753   0.00223  -0.0614  0.4448  1.0000  -1.1899   0.0000   0.0000   0.0000   0.3360
   3.700   0.6971   0.00763   0.00229  -0.0613  0.4343  1.0000  -1.2235   0.0000   0.0000   0.0000   0.3345
   3.800   0.7079   0.00774   0.00236  -0.0613  0.4239  1.0000  -1.2613   0.0000   0.0000   0.0000   0.3330
   3.900   0.7187   0.00784   0.00243  -0.0613  0.4132  1.0000  -1.2994   0.0000   0.0000   0.0000   0.3316
   4.000   0.7296   0.00794   0.00250  -0.0612  0.4024  1.0000  -1.3379   0.0000   0.0000   0.0000   0.3302
   4.100   0.7404   0.00805   0.00257  -0.0612  0.3916  1.0000  -1.3818   0.0000   0.0000   0.0000   0.3288
   4.200   0.7512   0.00817   0.00265  -0.0612  0.3810  1.0000  -1.4281   0.0000   0.0000   0.0000   0.3275
   4.300   0.7619   0.00829   0.00273  -0.0611  0.3701  1.0000  -1.4746   0.0000   0.0000   0.0000   0.3262
   4.400   0.7727   0.00840   0.00281  -0.0611  0.3589  1.0000  -1.5335   0.0000   0.0000   0.0000   0.3249
   4.500   0.7835   0.00852   0.00289  -0.0610  0.3479  1.0000  -1.5987   0.0000   0.0000   0.0000   0.3237
   4.600   0.7942   0.00864   0.00300  -0.0610  0.3369  1.0000  -1.6846   0.0000   0.0000   0.0000   0.3225
   4.700   0.8049   0.00877   0.00309  -0.0610  0.3257  1.0000  -1.7750   0.0000   0.0000   0.0000   0.3213
   4.800   0.8155   0.00891   0.00319  -0.0609  0.3145  1.0000  -1.8663   0.0000   0.0000   0.0000   0.3202
   4.900   0.8261   0.00904   0.00328  -0.0609  0.3032  1.0000  -1.9592   0.0000   0.0000   0.0000   0.3191
   5.000   0.8368   0.00917   0.00339  -0.0608  0.2917  1.0000  -2.0534   0.0000   0.0000   0.0000   0.3180
   5.100   0.8474   0.00932   0.00349  -0.0608  0.2800  1.0000  -2.1568   0.0000   0.0000   0.0000   0.3169
   5.200   0.8579   0.00947   0.00360  -0.0607  0.2685  1.0000  -2.2687   0.0000   0.0000   0.0000   0.3159
   5.300   0.8684   0.00962   0.00371  -0.0606  0.2572  1.0000  -2.3822   0.0000   0.0000   0.0000   0.3149
   5.400   0.8788   0.00979   0.00383  -0.0606  0.2454  1.0000  -2.4971   0.0000   0.0000   0.0000   0.3139
   5.500   0.8892   0.00995   0.00395  -0.0605  0.2332  1.0000  -2.6139   0.0000   0.0000   0.0000   0.3129
   5.600   0.8997   0.01011   0.00408  -0.0604  0.2217  1.0000  -2.7326   0.0000   0.0000   0.0000   0.3119
   5.700   0.9101   0.01028   0.00421  -0.0604  0.2106  1.0000  -2.8527   0.0000   0.0000   0.0000   0.3110
   5.800   0.9204   0.01046   0.00434  -0.0603  0.1990  1.0000  -2.9739   0.0000   0.0000   0.0000   0.3101
   5.900   0.9307   0.01065   0.00451  -0.0602  0.1866  1.0000  -3.0997   0.0000   0.0000   0.0000   0.3091
   6.000   0.9408   0.01086   0.00466  -0.0601  0.1740  1.0000  -3.2238   0.0000   0.0000   0.0000   0.3082
   6.100   0.9509   0.01107   0.00482  -0.0600  0.1620  1.0000  -3.3489   0.0000   0.0000   0.0000   0.3074
   6.200   0.9610   0.01128   0.00498  -0.0599  0.1502  1.0000  -3.4750   0.0000   0.0000   0.0000   0.3065
   6.300   0.9712   0.01148   0.00514  -0.0598  0.1388  1.0000  -3.6031   0.0000   0.0000   0.0000   0.3056
   6.400   0.9813   0.01169   0.00530  -0.0597  0.1280  1.0000  -3.7324   0.0000   0.0000   0.0000   0.3048
   6.500   0.9913   0.01191   0.00548  -0.0596  0.1171  1.0000  -3.8621   0.0000   0.0000   0.0000   0.3040
   6.600   1.0012   0.01215   0.00567  -0.0595  0.1058  1.0000  -3.9923   0.0000   0.0000   0.0000   0.3031
   6.700   1.0109   0.01241   0.00587  -0.0594  0.0945  1.0000  -4.1231   0.0000   0.0000   0.0000   0.3023
   6.800   1.0206   0.01268   0.00608  -0.0592  0.0836  1.0000  -4.2541   0.0000   0.0000   0.0000   0.3015
   6.900   1.0303   0.01296   0.00630  -0.0591  0.0730  1.0000  -4.3858   0.0000   0.0000   0.0000   0.3007
   7.000   1.0399   0.01322   0.00652  -0.0589  0.0633  1.0000  -4.5184   0.0000   0.0000   0.0000   0.2999
   7.100   1.0495   0.01350   0.00676  -0.0588  0.0543  1.0000  -4.6502   0.0000   0.0000   0.0000   0.2992
   7.200   1.0589   0.01382   0.00703  -0.0586  0.0457  1.0000  -4.7797   0.0000   0.0000   0.0000   0.2984
   7.300   1.0680   0.01418   0.00733  -0.0584  0.0376  1.0000  -4.9054   0.0000   0.0000   0.0000   0.2976
   7.400   1.0776   0.01447   0.00765  -0.0582  0.0318  1.0000  -5.0288   0.0000   0.0000   0.0000   0.2968
   7.500   1.0861   0.01496   0.00810  -0.0578  0.0254  1.0000  -5.1320   0.0000   0.0000   0.0000   0.2959
   7.600   1.0958   0.01521   0.00838  -0.0576  0.0224  1.0000  -5.2549   0.0000   0.0000   0.0000   0.2951
   7.700   1.1043   0.01568   0.00883  -0.0572  0.0187  1.0000  -5.3562   0.0000   0.0000   0.0000   0.2943
   7.800   1.1129   0.01614   0.00934  -0.0569  0.0165  1.0000  -5.4484   0.0000   0.0000   0.0000   0.2934
   7.900   1.1226   0.01637   0.00959  -0.0567  0.0153  1.0000  -5.5734   0.0000   0.0000   0.0000   0.2927
   8.000   1.1320   0.01666   0.00992  -0.0564  0.0141  1.0000  -5.6901   0.0000   0.0000   0.0000   0.2919
   8.100   1.1410   0.01701   0.01028  -0.0561  0.0131  1.0000  -5.8296   0.0000   0.0000   0.0000   0.2912
   8.200   1.1491   0.01750   0.01081  -0.0557  0.0121  1.0000  -5.9539   0.0000   0.0000   0.0000   0.2904
   8.300   1.1548   0.01839   0.01179  -0.0550  0.0110  1.0000  -6.0231   0.0000   0.0000   0.0000   0.2893
   8.400   1.1615   0.01908   0.01256  -0.0544  0.0106  1.0000  -6.1182   0.0000   0.0000   0.0000   0.2884
   8.500   1.1705   0.01940   0.01292  -0.0541  0.0104  1.0000  -6.2615   0.0000   0.0000   0.0000   0.2877
   8.600   1.1790   0.01977   0.01334  -0.0537  0.0101  1.0000  -6.3976   0.0000   0.0000   0.0000   0.2869
   8.700   1.1872   0.02020   0.01382  -0.0533  0.0098  1.0000  -6.5279   0.0000   0.0000   0.0000   0.2861
   8.800   1.1951   0.02066   0.01433  -0.0529  0.0095  1.0000  -6.6541   0.0000   0.0000   0.0000   0.2853
   8.900   1.2027   0.02115   0.01487  -0.0524  0.0092  1.0000  -6.7777   0.0000   0.0000   0.0000   0.2845
   9.000   1.2102   0.02166   0.01544  -0.0519  0.0089  1.0000  -6.8997   0.0000   0.0000   0.0000   0.2837
   9.100   1.2175   0.02219   0.01602  -0.0514  0.0087  1.0000  -7.0204   0.0000   0.0000   0.0000   0.2829
   9.200   1.2246   0.02273   0.01662  -0.0509  0.0085  1.0000  -7.1404   0.0000   0.0000   0.0000   0.2821
   9.300   1.2315   0.02330   0.01724  -0.0504  0.0083  1.0000  -7.2594   0.0000   0.0000   0.0000   0.2813
   9.400   1.2382   0.02389   0.01788  -0.0498  0.0082  1.0000  -7.3770   0.0000   0.0000   0.0000   0.2805
   9.500   1.2447   0.02450   0.01855  -0.0492  0.0080  1.0000  -7.4926   0.0000   0.0000   0.0000   0.2797
   9.600   1.2510   0.02514   0.01928  -0.0487  0.0079  1.0000  -7.6041   0.0000   0.0000   0.0000   0.2789
   9.700   1.2572   0.02577   0.01997  -0.0481  0.0078  1.0000  -7.7205   0.0000   0.0000   0.0000   0.2782
   9.800   1.2633   0.02639   0.02065  -0.0475  0.0077  1.0000  -7.8424   0.0000   0.0000   0.0000   0.2774
   9.900   1.2692   0.02701   0.02132  -0.0469  0.0075  1.0000  -7.9671   0.0000   0.0000   0.0000   0.2766
  10.000   1.2747   0.02767   0.02203  -0.0463  0.0074  1.0000  -8.0900   0.0000   0.0000   0.0000   0.2759
  10.100   1.2796   0.02842   0.02283  -0.0457  0.0072  1.0000  -8.2037   0.0000   0.0000   0.0000   0.2751
  10.200   1.2834   0.02931   0.02380  -0.0449  0.0071  1.0000  -8.2991   0.0000   0.0000   0.0000   0.2743
  10.300   1.2860   0.03043   0.02499  -0.0440  0.0069  1.0000  -8.3671   0.0000   0.0000   0.0000   0.2734
  10.400   1.2869   0.03180   0.02648  -0.0430  0.0068  1.0000  -8.4019   0.0000   0.0000   0.0000   0.2724
  10.500   1.2863   0.03343   0.02824  -0.0419  0.0066  1.0000  -8.4051   0.0000   0.0000   0.0000   0.2714
  10.600   1.2846   0.03519   0.03015  -0.0406  0.0066  1.0000  -8.3896   0.0000   0.0000   0.0000   0.2704
  10.700   1.2826   0.03689   0.03200  -0.0395  0.0065  1.0000  -8.3764   0.0000   0.0000   0.0000   0.2694
  10.800   1.2815   0.03824   0.03346  -0.0384  0.0065  1.0000  -8.3944   0.0000   0.0000   0.0000   0.2685
  10.900   1.2823   0.03896   0.03426  -0.0373  0.0065  1.0000  -8.4703   0.0000   0.0000   0.0000   0.2675
  11.000   1.2823   0.03976   0.03514  -0.0363  0.0064  1.0000  -8.5348   0.0000   0.0000   0.0000   0.2666
  11.100   1.2815   0.04064   0.03611  -0.0352  0.0064  1.0000  -8.5903   0.0000   0.0000   0.0000   0.2656
  11.200   1.2802   0.04159   0.03713  -0.0342  0.0064  1.0000  -8.6381   0.0000   0.0000   0.0000   0.2648
  11.300   1.2783   0.04260   0.03824  -0.0333  0.0064  1.0000  -8.6791   0.0000   0.0000   0.0000   0.2640
  11.400   1.2760   0.04369   0.03941  -0.0325  0.0064  1.0000  -8.7141   0.0000   0.0000   0.0000   0.2632
  11.500   1.2732   0.04486   0.04067  -0.0318  0.0064  1.0000  -8.7432   0.0000   0.0000   0.0000   0.2626
  11.600   1.2701   0.04611   0.04201  -0.0313  0.0063  1.0000  -8.7666   0.0000   0.0000   0.0000   0.2621
  11.700   1.2665   0.04745   0.04343  -0.0308  0.0063  1.0000  -8.7846   0.0000   0.0000   0.0000   0.2616
  11.800   1.2626   0.04889   0.04495  -0.0305  0.0063  1.0000  -8.7971   0.0000   0.0000   0.0000   0.2613
  11.900   1.2584   0.05042   0.04657  -0.0304  0.0063  1.0000  -8.8042   0.0000   0.0000   0.0000   0.2612
  12.000   1.2538   0.05206   0.04830  -0.0305  0.0063  1.0000  -8.8059   0.0000   0.0000   0.0000   0.2611
  12.100   1.2489   0.05381   0.05013  -0.0306  0.0063  1.0000  -8.8020   0.0000   0.0000   0.0000   0.2612
  12.200   1.2437   0.05567   0.05208  -0.0310  0.0063  1.0000  -8.7925   0.0000   0.0000   0.0000   0.2615
  12.300   1.2381   0.05767   0.05416  -0.0316  0.0063  1.0000  -8.7775   0.0000   0.0000   0.0000   0.2619
  12.400   1.2323   0.05979   0.05636  -0.0323  0.0063  1.0000  -8.7563   0.0000   0.0000   0.0000   0.2624
  12.500   1.2261   0.06204   0.05870  -0.0332  0.0063  1.0000  -8.7290   0.0000   0.0000   0.0000   0.2631
  12.600   1.2195   0.06443   0.06117  -0.0343  0.0063  1.0000  -8.6954   0.0000   0.0000   0.0000   0.2640
  12.700   1.2127   0.06698   0.06380  -0.0356  0.0063  1.0000  -8.6550   0.0000   0.0000   0.0000   0.2650
  12.800   1.2055   0.06966   0.06656  -0.0370  0.0063  1.0000  -8.6070   0.0000   0.0000   0.0000   0.2662
  12.900   1.1979   0.07251   0.06948  -0.0386  0.0063  1.0000  -8.5507   0.0000   0.0000   0.0000   0.2676
  13.000   1.1898   0.07553   0.07258  -0.0403  0.0064  1.0000  -8.4847   0.0000   0.0000   0.0000   0.2691
  13.100   1.1811   0.07876   0.07588  -0.0422  0.0064  1.0000  -8.4063   0.0000   0.0000   0.0000   0.2708
  13.200   1.1715   0.08225   0.07944  -0.0443  0.0064  1.0000  -8.3080   0.0000   0.0000   0.0000   0.2727
  14.000   1.1181   0.10779   0.10539  -0.0597  0.0066  1.0000  -7.8227   0.0000   0.0000   0.0000   0.2873
  14.100   1.1132   0.11090   0.10855  -0.0616  0.0066  1.0000  -7.7788   0.0000   0.0000   0.0000   0.2891
  14.200   1.1084   0.11406   0.11175  -0.0635  0.0066  1.0000  -7.7319   0.0000   0.0000   0.0000   0.2910
  14.300   1.1036   0.11727   0.11500  -0.0655  0.0066  1.0000  -7.6819   0.0000   0.0000   0.0000   0.2929
  14.400   1.0988   0.12052   0.11829  -0.0674  0.0066  1.0000  -7.6284   0.0000   0.0000   0.0000   0.2948
  14.500   1.0941   0.12381   0.12161  -0.0694  0.0066  1.0000  -7.5706   0.0000   0.0000   0.0000   0.2968
  14.600   1.0893   0.12715   0.12499  -0.0713  0.0067  1.0000  -7.5078   0.0000   0.0000   0.0000   0.2987
  14.700   1.0845   0.13057   0.12844  -0.0733  0.0067  1.0000  -7.4386   0.0000   0.0000   0.0000   0.3008
  14.800   1.0796   0.13408   0.13198  -0.0753  0.0067  1.0000  -7.3608   0.0000   0.0000   0.0000   0.3029
  14.900   1.0745   0.13773   0.13567  -0.0774  0.0068  1.0000  -7.2704   0.0000   0.0000   0.0000   0.3051
  15.000   1.0690   0.14162   0.13960  -0.0795  0.0068  1.0000  -7.1596   0.0000   0.0000   0.0000   0.3074
  15.100   1.0622   0.14606   0.14408  -0.0820  0.0069  1.0000  -7.0030   0.0000   0.0000   0.0000   0.3102


