xflr5 v6.61

 Calculated polar for: AG24

 1 1 Reynolds number fixed          Mach number fixed         

 xtrf =   1.000 (top)        1.000 (bottom)
 Mach =   0.000     Re =     0.130 e 6     Ncrit =   9.000

  alpha     CL        CD       CDp       Cm    Top Xtr Bot Xtr   Cpmin    Chinge    XCp    
 ------- -------- --------- --------- -------- ------- ------- -------- --------- ---------
 -10.000  -0.3966   0.11071   0.10661  -0.0117  1.0000  0.0673  -1.5464   0.0000   0.0000   0.0000   0.2169
  -9.900  -0.4015   0.10947   0.10540  -0.0133  1.0000  0.0679  -1.6018   0.0000   0.0000   0.0000   0.2133
  -9.800  -0.4063   0.10820   0.10415  -0.0149  1.0000  0.0682  -1.6572   0.0000   0.0000   0.0000   0.2097
  -9.700  -0.4105   0.10687   0.10284  -0.0165  1.0000  0.0684  -1.7085   0.0000   0.0000   0.0000   0.2063
  -9.600  -0.4143   0.10546   0.10145  -0.0180  1.0000  0.0686  -1.7559   0.0000   0.0000   0.0000   0.2032
  -9.500  -0.4177   0.10399   0.10000  -0.0194  1.0000  0.0687  -1.7998   0.0000   0.0000   0.0000   0.2002
  -9.400  -0.4210   0.10245   0.09848  -0.0208  1.0000  0.0688  -1.8428   0.0000   0.0000   0.0000   0.1973
  -9.300  -0.3982   0.09892   0.09491  -0.0154  1.0000  0.0706  -1.6609   0.0000   0.0000   0.0000   0.2080
  -9.200  -0.3921   0.09753   0.09353  -0.0146  1.0000  0.0716  -1.6178   0.0000   0.0000   0.0000   0.2095
  -9.100  -0.3887   0.09616   0.09215  -0.0144  1.0000  0.0726  -1.5981   0.0000   0.0000   0.0000   0.2097
  -9.000  -0.3866   0.09474   0.09075  -0.0144  1.0000  0.0737  -1.5897   0.0000   0.0000   0.0000   0.2094
  -8.900  -0.3853   0.09328   0.08930  -0.0147  1.0000  0.0747  -1.5888   0.0000   0.0000   0.0000   0.2086
  -8.800  -0.3848   0.09178   0.08781  -0.0151  1.0000  0.0759  -1.5940   0.0000   0.0000   0.0000   0.2076
  -8.700  -0.3850   0.09023   0.08627  -0.0157  1.0000  0.0771  -1.6055   0.0000   0.0000   0.0000   0.2061
  -8.600  -0.3862   0.08865   0.08470  -0.0165  1.0000  0.0784  -1.6260   0.0000   0.0000   0.0000   0.2042
  -8.500  -0.3895   0.08702   0.08310  -0.0178  1.0000  0.0797  -1.6644   0.0000   0.0000   0.0000   0.2011
  -8.400  -0.3965   0.08540   0.08151  -0.0202  1.0000  0.0808  -1.7343   0.0000   0.0000   0.0000   0.1961
  -8.300  -0.4047   0.08378   0.07993  -0.0229  1.0000  0.0813  -1.8132   0.0000   0.0000   0.0000   0.1905
  -8.200  -0.4123   0.08209   0.07827  -0.0254  1.0000  0.0816  -1.8840   0.0000   0.0000   0.0000   0.1854
  -8.100  -0.4191   0.08034   0.07656  -0.0279  1.0000  0.0818  -1.9472   0.0000   0.0000   0.0000   0.1806
  -8.000  -0.4258   0.07843   0.07468  -0.0306  1.0000  0.0819  -2.0096   0.0000   0.0000   0.0000   0.1755
  -7.900  -0.4319   0.07582   0.07208  -0.0350  1.0000  0.0820  -2.0871   0.0000   0.0000   0.0000   0.1663
  -7.800  -0.3955   0.07480   0.07101  -0.0222  1.0000  0.0848  -1.7680   0.0000   0.0000   0.0000   0.1911
  -7.700  -0.3918   0.07350   0.06972  -0.0218  1.0000  0.0860  -1.7404   0.0000   0.0000   0.0000   0.1917
  -7.600  -0.3902   0.07210   0.06833  -0.0218  1.0000  0.0872  -1.7302   0.0000   0.0000   0.0000   0.1914
  -7.500  -0.3901   0.07061   0.06686  -0.0222  1.0000  0.0884  -1.7317   0.0000   0.0000   0.0000   0.1905
  -7.400  -0.3912   0.06905   0.06532  -0.0228  1.0000  0.0897  -1.7431   0.0000   0.0000   0.0000   0.1891
  -7.300  -0.3941   0.06742   0.06372  -0.0238  1.0000  0.0911  -1.7658   0.0000   0.0000   0.0000   0.1871
  -7.200  -0.4767   0.07482   0.07092  -0.0300  1.0000  0.0841  -2.1717   0.0000   0.0000   0.0000   0.1838
  -7.100  -0.4719   0.07401   0.07012  -0.0284  1.0000  0.0852  -2.1217   0.0000   0.0000   0.0000   0.1865
  -6.600  -0.4562   0.06206   0.05798  -0.0443  1.0000  0.0967  -2.3009   0.0000   0.0000   0.0000   0.1499
  -6.500  -0.4507   0.06112   0.05709  -0.0427  1.0000  0.0975  -2.2429   0.0000   0.0000   0.0000   0.1522
  -6.400  -0.4455   0.06018   0.05619  -0.0418  1.0000  0.0986  -2.1974   0.0000   0.0000   0.0000   0.1532
  -6.300  -0.4403   0.05909   0.05510  -0.0415  1.0000  0.1001  -2.1655   0.0000   0.0000   0.0000   0.1528
  -6.200  -0.4352   0.05770   0.05369  -0.0421  1.0000  0.1023  -2.1510   0.0000   0.0000   0.0000   0.1504
  -6.100  -0.4330   0.05407   0.04977  -0.0482  1.0000  0.1101  -2.2706   0.0000   0.0000   0.0000   0.1356
  -6.000  -0.4275   0.05292   0.04869  -0.0472  1.0000  0.1111  -2.2218   0.0000   0.0000   0.0000   0.1366
  -5.900  -0.4219   0.05191   0.04773  -0.0464  1.0000  0.1123  -2.1793   0.0000   0.0000   0.0000   0.1371
  -5.700  -0.4004   0.03804   0.03219  -0.0540  1.0000  0.0562  -2.9516   0.0000   0.0000   0.0000   0.1115
  -5.600  -0.3945   0.03563   0.02999  -0.0538  1.0000  0.0531  -2.9138   0.0000   0.0000   0.0000   0.1099
  -5.500  -0.3871   0.03362   0.02786  -0.0539  1.0000  0.0506  -2.9287   0.0000   0.0000   0.0000   0.1069
  -5.400  -0.3754   0.03038   0.02377  -0.0540  1.0000  0.0440  -3.1622   0.0000   0.0000   0.0000   0.1021
  -5.300  -0.3657   0.03000   0.02323  -0.0535  1.0000  0.0434  -3.1259   0.0000   0.0000   0.0000   0.0996
  -5.000  -0.3389   0.02582   0.01850  -0.0533  1.0000  0.0439  -3.0772   0.0000   0.0000   0.0000   0.0886
  -4.900  -0.3302   0.02435   0.01695  -0.0534  1.0000  0.0453  -3.0309   0.0000   0.0000   0.0000   0.0842
  -4.800  -0.3213   0.02362   0.01620  -0.0533  1.0000  0.0469  -2.9574   0.0000   0.0000   0.0000   0.0801
  -4.700  -0.3118   0.02288   0.01537  -0.0530  1.0000  0.0479  -2.9027   0.0000   0.0000   0.0000   0.0758
  -4.600  -0.3017   0.02201   0.01434  -0.0528  1.0000  0.0482  -2.8676   0.0000   0.0000   0.0000   0.0709
  -4.500  -0.2914   0.02118   0.01338  -0.0525  1.0000  0.0486  -2.8282   0.0000   0.0000   0.0000   0.0656
  -4.400  -0.2812   0.02044   0.01249  -0.0522  1.0000  0.0492  -2.7813   0.0000   0.0000   0.0000   0.0600
  -4.300  -0.2710   0.01975   0.01171  -0.0520  1.0000  0.0502  -2.7370   0.0000   0.0000   0.0000   0.0539
  -4.200  -0.2606   0.01912   0.01099  -0.0517  1.0000  0.0514  -2.7140   0.0000   0.0000   0.0000   0.0474
  -4.100  -0.2503   0.01854   0.01033  -0.0514  1.0000  0.0530  -2.6885   0.0000   0.0000   0.0000   0.0403
  -4.000  -0.2400   0.01812   0.00981  -0.0511  1.0000  0.0550  -2.6556   0.0000   0.0000   0.0000   0.0327
  -3.900  -0.2297   0.01732   0.00905  -0.0511  1.0000  0.0586  -2.6121   0.0000   0.0000   0.0000   0.0231
  -3.800  -0.2198   0.01695   0.00871  -0.0510  1.0000  0.0630  -2.5518   0.0000   0.0000   0.0000   0.0135
  -3.700  -0.2093   0.01654   0.00825  -0.0508  1.0000  0.0670  -2.5126   0.0000   0.0000   0.0000   0.0028
  -3.600  -0.1984   0.01587   0.00761  -0.0507  1.0000  0.0713  -2.4758   0.0000   0.0000   0.0000  -0.0105
  -3.500  -0.1877   0.01543   0.00721  -0.0507  1.0000  0.0780  -2.4245   0.0000   0.0000   0.0000  -0.0251
  -3.400  -0.1768   0.01498   0.00681  -0.0508  1.0000  0.0890  -2.3679   0.0000   0.0000   0.0000  -0.0424
  -3.300  -0.1655   0.01451   0.00641  -0.0510  1.0000  0.1068  -2.3154   0.0000   0.0000   0.0000  -0.0631
  -3.200  -0.1528   0.01374   0.00590  -0.0515  1.0000  0.1454  -2.2665   0.0000   0.0000   0.0000  -0.0924
  -3.100  -0.1401   0.01297   0.00562  -0.0523  1.0000  0.2306  -2.1936   0.0000   0.0000   0.0000  -0.1287
  -3.000  -0.1288   0.01258   0.00553  -0.0527  1.0000  0.3005  -2.1049   0.0000   0.0000   0.0000  -0.1644
  -2.900  -0.1181   0.01234   0.00546  -0.0528  1.0000  0.3533  -2.0117   0.0000   0.0000   0.0000  -0.2033
  -2.800  -0.1075   0.01217   0.00544  -0.0529  1.0000  0.3990  -1.9196   0.0000   0.0000   0.0000  -0.2482
  -2.700  -0.0970   0.01202   0.00542  -0.0529  1.0000  0.4409  -1.8275   0.0000   0.0000   0.0000  -0.3020
  -2.600  -0.0866   0.01188   0.00542  -0.0529  1.0000  0.4791  -1.7362   0.0000   0.0000   0.0000  -0.3676
  -2.500  -0.0763   0.01177   0.00542  -0.0528  1.0000  0.5150  -1.6462   0.0000   0.0000   0.0000  -0.4495
  -2.400  -0.0663   0.01166   0.00543  -0.0526  1.0000  0.5499  -1.5583   0.0000   0.0000   0.0000  -0.5523
  -2.300  -0.0565   0.01157   0.00544  -0.0524  1.0000  0.5835  -1.4724   0.0000   0.0000   0.0000  -0.6866
  -2.200  -0.0468   0.01148   0.00546  -0.0521  1.0000  0.6172  -1.3879   0.0000   0.0000   0.0000  -0.8736
  -2.100  -0.0374   0.01140   0.00549  -0.0517  1.0000  0.6510  -1.3057   0.0000   0.0000   0.0000  -1.1453
  -2.000  -0.0285   0.01133   0.00552  -0.0512  1.0000  0.6842  -1.2351   0.0000   0.0000   0.0000  -1.5615
  -1.900  -0.0201   0.01127   0.00556  -0.0506  1.0000  0.7184  -1.1712   0.0000   0.0000   0.0000  -2.2909
  -1.800  -0.0125   0.01121   0.00558  -0.0497  1.0000  0.7521  -1.1097   0.0000   0.0000   0.0000  -3.7600
  -1.700  -0.0054   0.01117   0.00562  -0.0488  1.0000  0.7880  -1.0515   0.0000   0.0000   0.0000  -8.9204
  -1.600   0.0004   0.01112   0.00565  -0.0475  1.0000  0.8251  -0.9984   0.0000   0.0000   0.0000  134.1214
  -1.500   0.0046   0.01105   0.00566  -0.0459  1.0000  0.8677  -0.9507   0.0000   0.0000   0.0000  10.2864
  -1.400   0.0084   0.01095   0.00564  -0.0442  1.0000  0.9336  -0.9051   0.0000   0.0000   0.0000   5.5270
  -1.300   0.0305   0.01096   0.00557  -0.0469  0.9945  1.0000  -0.8057   0.0000   0.0000   0.0000   1.7964
  -1.200   0.0504   0.01103   0.00553  -0.0489  0.9904  1.0000  -0.7157   0.0000   0.0000   0.0000   1.2247
  -1.100   0.0707   0.01110   0.00550  -0.0510  0.9865  1.0000  -0.6403   0.0000   0.0000   0.0000   0.9737
  -1.000   0.0919   0.01117   0.00548  -0.0532  0.9833  1.0000  -0.5639   0.0000   0.0000   0.0000   0.8304
  -0.900   0.1109   0.01122   0.00545  -0.0550  0.9790  1.0000  -0.5014   0.0000   0.0000   0.0000   0.7466
  -0.800   0.1298   0.01127   0.00542  -0.0567  0.9743  1.0000  -0.4449   0.0000   0.0000   0.0000   0.6872
  -0.700   0.1504   0.01131   0.00540  -0.0587  0.9707  1.0000  -0.3954   0.0000   0.0000   0.0000   0.6405
  -0.600   0.1699   0.01135   0.00538  -0.0604  0.9667  1.0000  -0.4092   0.0000   0.0000   0.0000   0.6058
  -0.500   0.1870   0.01137   0.00536  -0.0617  0.9612  1.0000  -0.4222   0.0000   0.0000   0.0000   0.5799
  -0.400   0.2072   0.01138   0.00532  -0.0636  0.9574  1.0000  -0.4370   0.0000   0.0000   0.0000   0.5565
  -0.300   0.2290   0.01138   0.00528  -0.0657  0.9547  1.0000  -0.4535   0.0000   0.0000   0.0000   0.5364
  -0.200   0.2435   0.01139   0.00525  -0.0664  0.9480  1.0000  -0.4658   0.0000   0.0000   0.0000   0.5220
  -0.100   0.2623   0.01138   0.00520  -0.0678  0.9437  1.0000  -0.4810   0.0000   0.0000   0.0000   0.5080
   0.000   0.2811   0.01135   0.00515  -0.0693  0.9400  1.0000  -0.4968   0.0000   0.0000   0.0000   0.4957
   0.100   0.2947   0.01135   0.00512  -0.0697  0.9330  1.0000  -0.5095   0.0000   0.0000   0.0000   0.4856
   0.200   0.3122   0.01131   0.00506  -0.0708  0.9287  1.0000  -0.5255   0.0000   0.0000   0.0000   0.4758
   0.300   0.3261   0.01130   0.00503  -0.0712  0.9224  1.0000  -0.5393   0.0000   0.0000   0.0000   0.4673
   0.400   0.3408   0.01127   0.00497  -0.0717  0.9166  1.0000  -0.5536   0.0000   0.0000   0.0000   0.4593
   0.500   0.3557   0.01122   0.00492  -0.0722  0.9115  1.0000  -0.5689   0.0000   0.0000   0.0000   0.4518
   0.600   0.3676   0.01121   0.00489  -0.0721  0.9040  1.0000  -0.5823   0.0000   0.0000   0.0000   0.4450
   0.700   0.3821   0.01115   0.00481  -0.0725  0.8993  1.0000  -0.5980   0.0000   0.0000   0.0000   0.4384
   0.800   0.3925   0.01116   0.00480  -0.0722  0.8908  1.0000  -0.6113   0.0000   0.0000   0.0000   0.4324
   0.900   0.4057   0.01110   0.00472  -0.0722  0.8855  1.0000  -0.6268   0.0000   0.0000   0.0000   0.4265
   1.000   0.4158   0.01110   0.00471  -0.0718  0.8769  1.0000  -0.6400   0.0000   0.0000   0.0000   0.4211
   1.100   0.4280   0.01106   0.00464  -0.0716  0.8712  1.0000  -0.6558   0.0000   0.0000   0.0000   0.4157
   1.200   0.4379   0.01106   0.00463  -0.0711  0.8622  1.0000  -0.6700   0.0000   0.0000   0.0000   0.4108
   1.300   0.4489   0.01104   0.00459  -0.0708  0.8553  1.0000  -0.6852   0.0000   0.0000   0.0000   0.4059
   1.400   0.4592   0.01104   0.00457  -0.0703  0.8469  1.0000  -0.6998   0.0000   0.0000   0.0000   0.4013
   1.500   0.4695   0.01104   0.00456  -0.0699  0.8389  1.0000  -0.7153   0.0000   0.0000   0.0000   0.3969
   1.600   0.4801   0.01102   0.00452  -0.0694  0.8312  1.0000  -0.7315   0.0000   0.0000   0.0000   0.3926
   1.700   0.4901   0.01104   0.00452  -0.0689  0.8220  1.0000  -0.7472   0.0000   0.0000   0.0000   0.3887
   1.800   0.5005   0.01103   0.00448  -0.0685  0.8144  1.0000  -0.7637   0.0000   0.0000   0.0000   0.3847
   1.900   0.5106   0.01105   0.00449  -0.0680  0.8050  1.0000  -0.7810   0.0000   0.0000   0.0000   0.3811
   2.000   0.5207   0.01108   0.00449  -0.0676  0.7958  1.0000  -0.7985   0.0000   0.0000   0.0000   0.3775
   2.200   0.5412   0.01112   0.00448  -0.0667  0.7776  1.0000  -0.8339   0.0000   0.0000   0.0000   0.3709
   2.300   0.5514   0.01115   0.00449  -0.0662  0.7679  1.0000  -0.8533   0.0000   0.0000   0.0000   0.3677
   2.400   0.5617   0.01118   0.00447  -0.0658  0.7591  1.0000  -0.8732   0.0000   0.0000   0.0000   0.3647
   2.500   0.5719   0.01123   0.00453  -0.0654  0.7487  1.0000  -0.8928   0.0000   0.0000   0.0000   0.3618
   2.600   0.5821   0.01128   0.00455  -0.0650  0.7383  1.0000  -0.9126   0.0000   0.0000   0.0000   0.3591
   2.700   0.5924   0.01133   0.00457  -0.0646  0.7284  1.0000  -0.9349   0.0000   0.0000   0.0000   0.3564
   2.800   0.6027   0.01138   0.00458  -0.0642  0.7187  1.0000  -0.9574   0.0000   0.0000   0.0000   0.3538
   2.900   0.6130   0.01144   0.00462  -0.0639  0.7074  1.0000  -0.9798   0.0000   0.0000   0.0000   0.3514
   3.000   0.6232   0.01151   0.00467  -0.0635  0.6965  1.0000  -1.0031   0.0000   0.0000   0.0000   0.3490
   3.100   0.6335   0.01158   0.00470  -0.0632  0.6858  1.0000  -1.0289   0.0000   0.0000   0.0000   0.3467
   3.200   0.6438   0.01166   0.00473  -0.0628  0.6754  1.0000  -1.0549   0.0000   0.0000   0.0000   0.3445
   3.300   0.6541   0.01174   0.00479  -0.0625  0.6641  1.0000  -1.0810   0.0000   0.0000   0.0000   0.3424
   3.400   0.6644   0.01183   0.00485  -0.0622  0.6524  1.0000  -1.1093   0.0000   0.0000   0.0000   0.3404
   3.500   0.6746   0.01192   0.00492  -0.0618  0.6407  1.0000  -1.1397   0.0000   0.0000   0.0000   0.3384
   3.600   0.6849   0.01202   0.00501  -0.0615  0.6293  1.0000  -1.1704   0.0000   0.0000   0.0000   0.3365
   3.700   0.6951   0.01212   0.00508  -0.0612  0.6180  1.0000  -1.2013   0.0000   0.0000   0.0000   0.3346
   3.800   0.7054   0.01224   0.00514  -0.0609  0.6068  1.0000  -1.2358   0.0000   0.0000   0.0000   0.3328
   3.900   0.7156   0.01235   0.00523  -0.0606  0.5946  1.0000  -1.2725   0.0000   0.0000   0.0000   0.3311
   4.000   0.7258   0.01246   0.00533  -0.0603  0.5823  1.0000  -1.3095   0.0000   0.0000   0.0000   0.3294
   4.100   0.7360   0.01259   0.00543  -0.0600  0.5701  1.0000  -1.3467   0.0000   0.0000   0.0000   0.3278
   4.200   0.7462   0.01272   0.00553  -0.0598  0.5580  1.0000  -1.3908   0.0000   0.0000   0.0000   0.3263
   4.300   0.7563   0.01285   0.00563  -0.0595  0.5459  1.0000  -1.4357   0.0000   0.0000   0.0000   0.3247
   4.400   0.7664   0.01299   0.00573  -0.0592  0.5338  1.0000  -1.4828   0.0000   0.0000   0.0000   0.3232
   4.500   0.7765   0.01314   0.00584  -0.0589  0.5217  1.0000  -1.5409   0.0000   0.0000   0.0000   0.3218
   4.700   0.7965   0.01345   0.00612  -0.0584  0.4967  1.0000  -1.6820   0.0000   0.0000   0.0000   0.3190
   4.800   0.8066   0.01360   0.00626  -0.0581  0.4839  1.0000  -1.7683   0.0000   0.0000   0.0000   0.3177
   4.900   0.8166   0.01376   0.00640  -0.0578  0.4710  1.0000  -1.8556   0.0000   0.0000   0.0000   0.3164
   5.000   0.8265   0.01393   0.00655  -0.0576  0.4580  1.0000  -1.9438   0.0000   0.0000   0.0000   0.3151
   5.100   0.8364   0.01410   0.00670  -0.0573  0.4450  1.0000  -2.0331   0.0000   0.0000   0.0000   0.3139
   5.200   0.8462   0.01429   0.00685  -0.0571  0.4319  1.0000  -2.1233   0.0000   0.0000   0.0000   0.3127
   5.300   0.8560   0.01447   0.00701  -0.0568  0.4188  1.0000  -2.2145   0.0000   0.0000   0.0000   0.3115
   5.400   0.8658   0.01466   0.00718  -0.0565  0.4054  1.0000  -2.3083   0.0000   0.0000   0.0000   0.3103
   5.500   0.8755   0.01486   0.00735  -0.0563  0.3920  1.0000  -2.4153   0.0000   0.0000   0.0000   0.3092
   5.600   0.8851   0.01507   0.00753  -0.0560  0.3786  1.0000  -2.5234   0.0000   0.0000   0.0000   0.3081
   5.700   0.8947   0.01528   0.00772  -0.0557  0.3649  1.0000  -2.6327   0.0000   0.0000   0.0000   0.3070
   5.800   0.9043   0.01549   0.00791  -0.0555  0.3510  1.0000  -2.7429   0.0000   0.0000   0.0000   0.3060
   5.900   0.9137   0.01572   0.00811  -0.0552  0.3372  1.0000  -2.8541   0.0000   0.0000   0.0000   0.3049
   6.000   0.9232   0.01595   0.00836  -0.0549  0.3233  1.0000  -2.9685   0.0000   0.0000   0.0000   0.3039
   6.100   0.9325   0.01620   0.00858  -0.0546  0.3090  1.0000  -3.0818   0.0000   0.0000   0.0000   0.3029
   6.200   0.9418   0.01645   0.00880  -0.0544  0.2946  1.0000  -3.1955   0.0000   0.0000   0.0000   0.3020
   6.300   0.9510   0.01671   0.00904  -0.0541  0.2803  1.0000  -3.3096   0.0000   0.0000   0.0000   0.3010
   6.400   0.9601   0.01699   0.00929  -0.0538  0.2657  1.0000  -3.4240   0.0000   0.0000   0.0000   0.3001
   6.500   0.9691   0.01728   0.00955  -0.0535  0.2509  1.0000  -3.5387   0.0000   0.0000   0.0000   0.2991
   6.600   0.9780   0.01759   0.00982  -0.0532  0.2361  1.0000  -3.6532   0.0000   0.0000   0.0000   0.2982
   6.700   0.9867   0.01792   0.01010  -0.0530  0.2212  1.0000  -3.7674   0.0000   0.0000   0.0000   0.2973
   6.800   0.9953   0.01828   0.01040  -0.0526  0.2061  1.0000  -3.8809   0.0000   0.0000   0.0000   0.2965
   6.900   1.0036   0.01867   0.01072  -0.0523  0.1908  1.0000  -3.9931   0.0000   0.0000   0.0000   0.2956
   7.000   1.0121   0.01906   0.01109  -0.0520  0.1746  1.0000  -4.1043   0.0000   0.0000   0.0000   0.2947
   7.100   1.0204   0.01949   0.01149  -0.0517  0.1582  1.0000  -4.2128   0.0000   0.0000   0.0000   0.2939
   7.200   1.0283   0.01997   0.01190  -0.0513  0.1419  1.0000  -4.3185   0.0000   0.0000   0.0000   0.2930
   7.300   1.0358   0.02051   0.01235  -0.0509  0.1262  1.0000  -4.4194   0.0000   0.0000   0.0000   0.2922
   7.400   1.0429   0.02115   0.01289  -0.0505  0.1117  1.0000  -4.5118   0.0000   0.0000   0.0000   0.2913
   7.500   1.0498   0.02182   0.01348  -0.0500  0.0982  1.0000  -4.5991   0.0000   0.0000   0.0000   0.2904
   7.600   1.0570   0.02247   0.01408  -0.0495  0.0860  1.0000  -4.6823   0.0000   0.0000   0.0000   0.2895
   7.700   1.0641   0.02320   0.01486  -0.0489  0.0761  1.0000  -4.7491   0.0000   0.0000   0.0000   0.2885
   7.800   1.0702   0.02408   0.01570  -0.0482  0.0687  1.0000  -4.8083   0.0000   0.0000   0.0000   0.2875
   7.900   1.0774   0.02470   0.01630  -0.0477  0.0618  1.0000  -4.8859   0.0000   0.0000   0.0000   0.2866
   8.000   1.0839   0.02557   0.01718  -0.0471  0.0565  1.0000  -4.9426   0.0000   0.0000   0.0000   0.2856
   8.100   1.0914   0.02623   0.01788  -0.0466  0.0520  1.0000  -5.0057   0.0000   0.0000   0.0000   0.2847
   8.200   1.0975   0.02720   0.01877  -0.0460  0.0489  1.0000  -5.0639   0.0000   0.0000   0.0000   0.2838
   8.300   1.1043   0.02838   0.01998  -0.0453  0.0463  1.0000  -5.0971   0.0000   0.0000   0.0000   0.2828
   8.400   1.1126   0.02901   0.02074  -0.0447  0.0436  1.0000  -5.1529   0.0000   0.0000   0.0000   0.2819
   8.500   1.1202   0.02960   0.02138  -0.0443  0.0408  1.0000  -5.2251   0.0000   0.0000   0.0000   0.2811
   8.600   1.1271   0.03031   0.02207  -0.0439  0.0385  1.0000  -5.3136   0.0000   0.0000   0.0000   0.2804
   8.700   1.1333   0.03195   0.02368  -0.0434  0.0366  1.0000  -5.3733   0.0000   0.0000   0.0000   0.2796
   8.800   1.1410   0.03330   0.02513  -0.0428  0.0357  1.0000  -5.4245   0.0000   0.0000   0.0000   0.2788
   8.900   1.1490   0.03422   0.02620  -0.0423  0.0349  1.0000  -5.4891   0.0000   0.0000   0.0000   0.2779
   9.000   1.1567   0.03528   0.02741  -0.0417  0.0342  1.0000  -5.5463   0.0000   0.0000   0.0000   0.2770
   9.100   1.1639   0.03645   0.02874  -0.0411  0.0335  1.0000  -5.5975   0.0000   0.0000   0.0000   0.2762
   9.200   1.1706   0.03770   0.03015  -0.0404  0.0330  1.0000  -5.6428   0.0000   0.0000   0.0000   0.2753
   9.300   1.1767   0.03903   0.03164  -0.0398  0.0325  1.0000  -5.6824   0.0000   0.0000   0.0000   0.2745
   9.400   1.1821   0.04034   0.03313  -0.0391  0.0321  1.0000  -5.7209   0.0000   0.0000   0.0000   0.2736
   9.500   1.1869   0.04161   0.03456  -0.0384  0.0315  1.0000  -5.7629   0.0000   0.0000   0.0000   0.2728
   9.600   1.1913   0.04279   0.03589  -0.0377  0.0308  1.0000  -5.8118   0.0000   0.0000   0.0000   0.2720
   9.700   1.1956   0.04386   0.03708  -0.0371  0.0301  1.0000  -5.8724   0.0000   0.0000   0.0000   0.2713
   9.800   1.1999   0.04483   0.03812  -0.0366  0.0293  1.0000  -5.9472   0.0000   0.0000   0.0000   0.2706
   9.900   1.2032   0.04583   0.03922  -0.0360  0.0286  1.0000  -6.0174   0.0000   0.0000   0.0000   0.2699
  10.000   1.2061   0.04693   0.04039  -0.0354  0.0279  1.0000  -6.0872   0.0000   0.0000   0.0000   0.2692
  10.100   1.2082   0.04828   0.04182  -0.0348  0.0274  1.0000  -6.1405   0.0000   0.0000   0.0000   0.2686
  10.200   1.2091   0.04985   0.04351  -0.0341  0.0271  1.0000  -6.1692   0.0000   0.0000   0.0000   0.2679
  10.300   1.2089   0.05149   0.04529  -0.0333  0.0270  1.0000  -6.1799   0.0000   0.0000   0.0000   0.2671
  10.400   1.2079   0.05309   0.04705  -0.0325  0.0269  1.0000  -6.1807   0.0000   0.0000   0.0000   0.2664
  10.500   1.2060   0.05467   0.04879  -0.0316  0.0270  1.0000  -6.1766   0.0000   0.0000   0.0000   0.2656
  10.600   1.2032   0.05623   0.05050  -0.0307  0.0270  1.0000  -6.1672   0.0000   0.0000   0.0000   0.2648
  10.700   1.1995   0.05777   0.05220  -0.0298  0.0271  1.0000  -6.1520   0.0000   0.0000   0.0000   0.2640
  10.800   1.1941   0.05922   0.05379  -0.0288  0.0272  1.0000  -6.1302   0.0000   0.0000   0.0000   0.2631
  10.900   1.1879   0.06069   0.05540  -0.0278  0.0273  1.0000  -6.1026   0.0000   0.0000   0.0000   0.2623
  11.000   1.1809   0.06225   0.05709  -0.0269  0.0275  1.0000  -6.0681   0.0000   0.0000   0.0000   0.2616
  11.100   1.1730   0.06391   0.05889  -0.0263  0.0276  1.0000  -6.0264   0.0000   0.0000   0.0000   0.2611
  11.200   1.1645   0.06572   0.06082  -0.0259  0.0278  1.0000  -5.9776   0.0000   0.0000   0.0000   0.2608
  11.300   1.1553   0.06768   0.06291  -0.0259  0.0280  1.0000  -5.9227   0.0000   0.0000   0.0000   0.2609
  11.400   1.1456   0.06980   0.06516  -0.0262  0.0282  1.0000  -5.8629   0.0000   0.0000   0.0000   0.2612
  11.500   1.1335   0.07227   0.06776  -0.0270  0.0284  1.0000  -5.7812   0.0000   0.0000   0.0000   0.2620
  11.600   1.1209   0.07500   0.07063  -0.0283  0.0287  1.0000  -5.6929   0.0000   0.0000   0.0000   0.2633
  11.700   1.1085   0.07799   0.07374  -0.0300  0.0290  1.0000  -5.6016   0.0000   0.0000   0.0000   0.2650
  11.800   1.0961   0.08125   0.07711  -0.0321  0.0292  1.0000  -5.5064   0.0000   0.0000   0.0000   0.2671
  11.900   1.0835   0.08479   0.08075  -0.0346  0.0295  1.0000  -5.4061   0.0000   0.0000   0.0000   0.2696
  12.000   1.0708   0.08868   0.08472  -0.0375  0.0298  1.0000  -5.2973   0.0000   0.0000   0.0000   0.2726
  12.100   1.0551   0.09357   0.08971  -0.0413  0.0304  1.0000  -5.1403   0.0000   0.0000   0.0000   0.2767
  12.200   1.0375   0.09941   0.09563  -0.0458  0.0316  1.0000  -4.9402   0.0000   0.0000   0.0000   0.2816
  12.300   1.0239   0.10461   0.10087  -0.0494  0.0327  1.0000  -4.7820   0.0000   0.0000   0.0000   0.2857
  12.400   1.0130   0.10928   0.10556  -0.0525  0.0335  1.0000  -4.6542   0.0000   0.0000   0.0000   0.2893
  12.500   1.0038   0.11356   0.10985  -0.0551  0.0342  1.0000  -4.5446   0.0000   0.0000   0.0000   0.2923
  12.600   0.9959   0.11755   0.11383  -0.0573  0.0347  1.0000  -4.4480   0.0000   0.0000   0.0000   0.2949
  12.700   0.9892   0.12125   0.11753  -0.0592  0.0351  1.0000  -4.3626   0.0000   0.0000   0.0000   0.2972
  12.800   0.9834   0.12469   0.12095  -0.0608  0.0355  1.0000  -4.2884   0.0000   0.0000   0.0000   0.2991
  12.900   0.9788   0.12781   0.12406  -0.0620  0.0358  1.0000  -4.2272   0.0000   0.0000   0.0000   0.3006
  13.000   0.9755   0.13053   0.12676  -0.0627  0.0361  1.0000  -4.1845   0.0000   0.0000   0.0000   0.3014
  13.200   0.7652   0.13388   0.13023  -0.0501  0.0438  1.0000  -2.9138   0.0000   0.0000   0.0000   0.3045
  13.300   0.7591   0.13599   0.13233  -0.0508  0.0444  1.0000  -2.8441   0.0000   0.0000   0.0000   0.3060
  13.400   0.7543   0.13797   0.13430  -0.0515  0.0449  1.0000  -2.7872   0.0000   0.0000   0.0000   0.3073
  13.500   0.7505   0.13981   0.13614  -0.0521  0.0454  1.0000  -2.7417   0.0000   0.0000   0.0000   0.3084
  13.600   0.7477   0.14151   0.13784  -0.0525  0.0459  1.0000  -2.7080   0.0000   0.0000   0.0000   0.3092
  13.700   0.7458   0.14309   0.13941  -0.0528  0.0463  1.0000  -2.6858   0.0000   0.0000   0.0000   0.3097
  13.800   0.7448   0.14451   0.14083  -0.0529  0.0468  1.0000  -2.6786   0.0000   0.0000   0.0000   0.3098
  13.900   0.7423   0.15025   0.14657  -0.0532  0.0593  1.0000  -2.4566   0.0000   0.0000   0.0000   0.3108
  14.000   0.7403   0.16022   0.15655  -0.0556  0.0844  1.0000  -2.1267   0.0000   0.0000   0.0000   0.3147
  14.100   0.7359   0.16178   0.15811  -0.0567  0.0843  1.0000  -2.0796   0.0000   0.0000   0.0000   0.3166
  14.200   0.7305   0.16324   0.15956  -0.0579  0.0841  1.0000  -2.0255   0.0000   0.0000   0.0000   0.3189
  14.300   0.7239   0.16458   0.16088  -0.0594  0.0839  1.0000  -1.9614   0.0000   0.0000   0.0000   0.3216
  14.400   0.7154   0.16572   0.16200  -0.0611  0.0835  1.0000  -1.8826   0.0000   0.0000   0.0000   0.3250
  14.500   0.7052   0.16659   0.16286  -0.0630  0.0826  1.0000  -1.7951   0.0000   0.0000   0.0000   0.3290
  14.600   0.6996   0.16769   0.16394  -0.0643  0.0813  1.0000  -1.7409   0.0000   0.0000   0.0000   0.3315
  14.700   0.6975   0.16892   0.16518  -0.0651  0.0800  1.0000  -1.7153   0.0000   0.0000   0.0000   0.3329
  14.800   0.6968   0.17017   0.16642  -0.0656  0.0788  1.0000  -1.7009   0.0000   0.0000   0.0000   0.3337
  14.900   0.6968   0.17137   0.16763  -0.0661  0.0777  1.0000  -1.6934   0.0000   0.0000   0.0000   0.3343
  15.000   0.6975   0.17259   0.16885  -0.0664  0.0767  1.0000  -1.6921   0.0000   0.0000   0.0000   0.3346
  15.100   0.6988   0.17377   0.17003  -0.0667  0.0757  1.0000  -1.6981   0.0000   0.0000   0.0000   0.3347
  15.200   0.7012   0.17494   0.17121  -0.0667  0.0748  1.0000  -1.7138   0.0000   0.0000   0.0000   0.3343
  15.300   0.7055   0.17618   0.17246  -0.0665  0.0739  1.0000  -1.7460   0.0000   0.0000   0.0000   0.3333
  15.400   0.7158   0.17799   0.17429  -0.0654  0.0728  1.0000  -1.8260   0.0000   0.0000   0.0000   0.3302
  15.500   0.7332   0.18213   0.17844  -0.0631  0.0718  1.0000  -1.9565   0.0000   0.0000   0.0000   0.3246
  15.600   0.7296   0.18326   0.17957  -0.0642  0.0717  1.0000  -1.9107   0.0000   0.0000   0.0000   0.3266
  15.700   0.7251   0.18426   0.18056  -0.0655  0.0715  1.0000  -1.8592   0.0000   0.0000   0.0000   0.3288
  15.800   0.7200   0.18510   0.18139  -0.0668  0.0714  1.0000  -1.8032   0.0000   0.0000   0.0000   0.3312
  15.900   0.7138   0.18569   0.18197  -0.0682  0.0711  1.0000  -1.7416   0.0000   0.0000   0.0000   0.3340
  16.000   0.7072   0.18621   0.18248  -0.0697  0.0706  1.0000  -1.6758   0.0000   0.0000   0.0000   0.3370
  16.100   0.7021   0.18699   0.18325  -0.0711  0.0696  1.0000  -1.6165   0.0000   0.0000   0.0000   0.3398
  16.200   0.7003   0.18810   0.18435  -0.0721  0.0683  1.0000  -1.5849   0.0000   0.0000   0.0000   0.3414
  16.300   0.7001   0.18928   0.18554  -0.0727  0.0670  1.0000  -1.5700   0.0000   0.0000   0.0000   0.3423
  16.400   0.7006   0.19046   0.18671  -0.0732  0.0656  1.0000  -1.5643   0.0000   0.0000   0.0000   0.3428
  16.500   0.7019   0.19159   0.18785  -0.0735  0.0643  1.0000  -1.5677   0.0000   0.0000   0.0000   0.3430
  16.600   0.7042   0.19266   0.18893  -0.0737  0.0629  1.0000  -1.5849   0.0000   0.0000   0.0000   0.3427
  16.700   0.7097   0.19375   0.19004  -0.0732  0.0614  1.0000  -1.6406   0.0000   0.0000   0.0000   0.3410
  20.700   1.1008   0.28657   0.28247  -0.1533  0.0319  1.0000  -1.9758   0.0000   0.0000   0.0000   0.3678
  20.800   1.1041   0.28789   0.28380  -0.1543  0.0314  1.0000  -1.9822   0.0000   0.0000   0.0000   0.3681
  20.900   1.1073   0.28928   0.28519  -0.1553  0.0309  1.0000  -1.9901   0.0000   0.0000   0.0000   0.3684
  21.000   1.1106   0.29063   0.28654  -0.1562  0.0304  1.0000  -1.9994   0.0000   0.0000   0.0000   0.3687
  21.100   1.1139   0.29195   0.28786  -0.1571  0.0300  1.0000  -2.0102   0.0000   0.0000   0.0000   0.3689
  21.200   1.1172   0.29327   0.28919  -0.1580  0.0296  1.0000  -2.0225   0.0000   0.0000   0.0000   0.3691
  21.300   1.1205   0.29458   0.29050  -0.1589  0.0292  1.0000  -2.0365   0.0000   0.0000   0.0000   0.3693
  21.400   1.1239   0.29587   0.29179  -0.1598  0.0288  1.0000  -2.0523   0.0000   0.0000   0.0000   0.3694
  21.500   1.1272   0.29715   0.29308  -0.1606  0.0285  1.0000  -2.0703   0.0000   0.0000   0.0000   0.3695
  21.600   1.1305   0.29851   0.29443  -0.1613  0.0281  1.0000  -2.0909   0.0000   0.0000   0.0000   0.3696
  21.700   1.1338   0.29981   0.29575  -0.1621  0.0278  1.0000  -2.1145   0.0000   0.0000   0.0000   0.3696
  21.800   1.1372   0.30115   0.29709  -0.1627  0.0275  1.0000  -2.1420   0.0000   0.0000   0.0000   0.3695
  21.900   1.1407   0.30256   0.29851  -0.1632  0.0272  1.0000  -2.1746   0.0000   0.0000   0.0000   0.3693
  22.000   1.1443   0.30415   0.30011  -0.1636  0.0269  1.0000  -2.2144   0.0000   0.0000   0.0000   0.3690
  22.100   1.1481   0.30614   0.30211  -0.1636  0.0266  1.0000  -2.2656   0.0000   0.0000   0.0000   0.3683
  22.200   1.1531   0.30955   0.30554  -0.1629  0.0263  1.0000  -2.3437   0.0000   0.0000   0.0000   0.3669
  22.300   1.1609   0.31856   0.31455  -0.1608  0.0258  1.0000  -2.4361   0.0000   0.0000   0.0000   0.3641
  22.400   1.1635   0.31949   0.31547  -0.1621  0.0258  1.0000  -2.4250   0.0000   0.0000   0.0000   0.3647
  22.500   1.1660   0.32039   0.31637  -0.1635  0.0258  1.0000  -2.4133   0.0000   0.0000   0.0000   0.3653
  22.600   1.1686   0.32119   0.31717  -0.1648  0.0258  1.0000  -2.4007   0.0000   0.0000   0.0000   0.3660
  22.700   1.1709   0.32179   0.31776  -0.1663  0.0257  1.0000  -2.3842   0.0000   0.0000   0.0000   0.3668
  22.800   1.1732   0.32230   0.31827  -0.1678  0.0257  1.0000  -2.3661   0.0000   0.0000   0.0000   0.3676
  22.900   1.1755   0.32280   0.31877  -0.1693  0.0257  1.0000  -2.3476   0.0000   0.0000   0.0000   0.3684
  23.000   1.1778   0.32329   0.31925  -0.1709  0.0256  1.0000  -2.3283   0.0000   0.0000   0.0000   0.3692
  23.100   1.1803   0.32376   0.31972  -0.1724  0.0256  1.0000  -2.3083   0.0000   0.0000   0.0000   0.3701
  23.200   1.1828   0.32423   0.32018  -0.1740  0.0255  1.0000  -2.2871   0.0000   0.0000   0.0000   0.3709
  23.300   1.1854   0.32470   0.32065  -0.1757  0.0254  1.0000  -2.2647   0.0000   0.0000   0.0000   0.3718
  23.400   1.1881   0.32522   0.32117  -0.1773  0.0253  1.0000  -2.2410   0.0000   0.0000   0.0000   0.3726
  23.500   1.1910   0.32582   0.32177  -0.1790  0.0251  1.0000  -2.2165   0.0000   0.0000   0.0000   0.3734
  23.600   1.1941   0.32656   0.32250  -0.1806  0.0249  1.0000  -2.1927   0.0000   0.0000   0.0000   0.3742
  23.700   1.1974   0.32748   0.32342  -0.1821  0.0247  1.0000  -2.1718   0.0000   0.0000   0.0000   0.3748
  23.800   1.2008   0.32859   0.32453  -0.1835  0.0244  1.0000  -2.1561   0.0000   0.0000   0.0000   0.3754
  23.900   1.2041   0.32978   0.32572  -0.1847  0.0240  1.0000  -2.1455   0.0000   0.0000   0.0000   0.3758
  24.000   1.2075   0.33103   0.32698  -0.1859  0.0237  1.0000  -2.1389   0.0000   0.0000   0.0000   0.3761
  24.100   1.2108   0.33231   0.32826  -0.1870  0.0233  1.0000  -2.1350   0.0000   0.0000   0.0000   0.3764
  24.200   1.2140   0.33358   0.32957  -0.1881  0.0230  1.0000  -2.1327   0.0000   0.0000   0.0000   0.3767
  24.300   1.2172   0.33486   0.33085  -0.1892  0.0227  1.0000  -2.1317   0.0000   0.0000   0.0000   0.3769
  24.400   1.2205   0.33613   0.33212  -0.1902  0.0224  1.0000  -2.1316   0.0000   0.0000   0.0000   0.3772
  24.500   1.2236   0.33739   0.33339  -0.1913  0.0221  1.0000  -2.1323   0.0000   0.0000   0.0000   0.3774
  24.600   1.2268   0.33864   0.33465  -0.1923  0.0218  1.0000  -2.1336   0.0000   0.0000   0.0000   0.3776
  24.700   1.2300   0.33989   0.33590  -0.1933  0.0215  1.0000  -2.1354   0.0000   0.0000   0.0000   0.3778
  24.800   1.2331   0.34113   0.33714  -0.1943  0.0212  1.0000  -2.1378   0.0000   0.0000   0.0000   0.3780
  24.900   1.2362   0.34236   0.33838  -0.1953  0.0209  1.0000  -2.1408   0.0000   0.0000   0.0000   0.3782
  25.000   1.2394   0.34358   0.33960  -0.1963  0.0206  1.0000  -2.1443   0.0000   0.0000   0.0000   0.3784
  25.100   1.2424   0.34479   0.34082  -0.1973  0.0204  1.0000  -2.1485   0.0000   0.0000   0.0000   0.3786
  25.200   1.2455   0.34600   0.34203  -0.1983  0.0201  1.0000  -2.1534   0.0000   0.0000   0.0000   0.3788
  25.300   1.2486   0.34719   0.34323  -0.1993  0.0199  1.0000  -2.1591   0.0000   0.0000   0.0000   0.3789
  25.400   1.2516   0.34838   0.34442  -0.2003  0.0196  1.0000  -2.1658   0.0000   0.0000   0.0000   0.3791
  25.500   1.2547   0.34956   0.34561  -0.2012  0.0194  1.0000  -2.1735   0.0000   0.0000   0.0000   0.3792
  25.600   1.2577   0.35074   0.34679  -0.2022  0.0192  1.0000  -2.1824   0.0000   0.0000   0.0000   0.3793
  25.700   1.2606   0.35191   0.34797  -0.2031  0.0190  1.0000  -2.1929   0.0000   0.0000   0.0000   0.3795
  25.800   1.2636   0.35309   0.34915  -0.2040  0.0188  1.0000  -2.2050   0.0000   0.0000   0.0000   0.3795
  25.900   1.2665   0.35428   0.35035  -0.2049  0.0186  1.0000  -2.2191   0.0000   0.0000   0.0000   0.3796
  26.000   1.2694   0.35549   0.35157  -0.2057  0.0184  1.0000  -2.2359   0.0000   0.0000   0.0000   0.3796
  26.100   1.2723   0.35678   0.35287  -0.2064  0.0182  1.0000  -2.2570   0.0000   0.0000   0.0000   0.3796
  26.200   1.2751   0.35817   0.35427  -0.2071  0.0180  1.0000  -2.2834   0.0000   0.0000   0.0000   0.3795
  26.300   1.2780   0.35984   0.35595  -0.2075  0.0178  1.0000  -2.3174   0.0000   0.0000   0.0000   0.3792
  26.400   1.2810   0.36219   0.35831  -0.2077  0.0176  1.0000  -2.3633   0.0000   0.0000   0.0000   0.3787
  26.500   1.2849   0.36765   0.36379  -0.2067  0.0173  1.0000  -2.4418   0.0000   0.0000   0.0000   0.3772


