xflr5 v6.61

 Calculated polar for: AG35

 1 1 Reynolds number fixed          Mach number fixed         

 xtrf =   1.000 (top)        1.000 (bottom)
 Mach =   0.000     Re =     0.719 e 6     Ncrit =   9.000

  alpha     CL        CD       CDp       Cm    Top Xtr Bot Xtr   Cpmin    Chinge    XCp    
 ------- -------- --------- --------- -------- ------- ------- -------- --------- ---------
  -9.000  -0.5491   0.03422   0.03147  -0.0476  1.0000  0.0142  -5.1527   0.0000   0.0000   0.0000   0.1603
  -8.900  -0.5437   0.03313   0.03032  -0.0475  1.0000  0.0143  -5.0856   0.0000   0.0000   0.0000   0.1596
  -8.800  -0.5372   0.03163   0.02872  -0.0470  1.0000  0.0135  -5.1336   0.0000   0.0000   0.0000   0.1594
  -8.700  -0.5368   0.02875   0.02560  -0.0467  1.0000  0.0133  -5.2487   0.0000   0.0000   0.0000   0.1600
  -8.600  -0.5350   0.02621   0.02279  -0.0461  1.0000  0.0133  -5.3513   0.0000   0.0000   0.0000   0.1608
  -8.500  -0.5315   0.02422   0.02055  -0.0455  1.0000  0.0133  -5.4081   0.0000   0.0000   0.0000   0.1616
  -8.400  -0.5268   0.02271   0.01884  -0.0447  1.0000  0.0133  -5.4213   0.0000   0.0000   0.0000   0.1622
  -8.300  -0.5212   0.02155   0.01751  -0.0440  1.0000  0.0134  -5.4038   0.0000   0.0000   0.0000   0.1628
  -8.200  -0.5151   0.02064   0.01644  -0.0432  0.9999  0.0135  -5.3634   0.0000   0.0000   0.0000   0.1632
  -8.100  -0.5021   0.01974   0.01537  -0.0438  0.9989  0.0136  -5.2780   0.0000   0.0000   0.0000   0.1598
  -8.000  -0.4885   0.01918   0.01468  -0.0444  0.9979  0.0137  -5.1641   0.0000   0.0000   0.0000   0.1562
  -7.900  -0.4765   0.01757   0.01282  -0.0450  0.9968  0.0139  -5.1302   0.0000   0.0000   0.0000   0.1526
  -7.800  -0.4645   0.01617   0.01127  -0.0456  0.9958  0.0143  -5.0614   0.0000   0.0000   0.0000   0.1489
  -7.700  -0.4509   0.01575   0.01083  -0.0463  0.9949  0.0146  -4.9170   0.0000   0.0000   0.0000   0.1444
  -7.600  -0.4375   0.01552   0.01058  -0.0468  0.9937  0.0149  -4.7759   0.0000   0.0000   0.0000   0.1399
  -7.500  -0.4241   0.01526   0.01029  -0.0474  0.9923  0.0153  -4.6442   0.0000   0.0000   0.0000   0.1352
  -7.400  -0.4105   0.01495   0.00994  -0.0479  0.9909  0.0156  -4.5214   0.0000   0.0000   0.0000   0.1301
  -7.300  -0.3968   0.01453   0.00947  -0.0485  0.9896  0.0159  -4.4139   0.0000   0.0000   0.0000   0.1246
  -7.200  -0.3830   0.01409   0.00896  -0.0491  0.9882  0.0161  -4.3110   0.0000   0.0000   0.0000   0.1187
  -7.100  -0.3691   0.01367   0.00848  -0.0496  0.9868  0.0164  -4.2073   0.0000   0.0000   0.0000   0.1123
  -7.000  -0.3553   0.01328   0.00803  -0.0502  0.9854  0.0167  -4.1020   0.0000   0.0000   0.0000   0.1054
  -6.900  -0.3425   0.01293   0.00763  -0.0504  0.9829  0.0169  -4.0001   0.0000   0.0000   0.0000   0.0992
  -6.800  -0.3300   0.01262   0.00727  -0.0507  0.9800  0.0172  -3.8969   0.0000   0.0000   0.0000   0.0928
  -6.700  -0.3170   0.01235   0.00696  -0.0510  0.9775  0.0174  -3.7897   0.0000   0.0000   0.0000   0.0853
  -6.600  -0.3036   0.01213   0.00669  -0.0514  0.9753  0.0177  -3.6782   0.0000   0.0000   0.0000   0.0768
  -6.500  -0.2904   0.01197   0.00649  -0.0518  0.9730  0.0178  -3.5640   0.0000   0.0000   0.0000   0.0677
  -6.400  -0.2803   0.01113   0.00560  -0.0517  0.9687  0.0185  -3.5067   0.0000   0.0000   0.0000   0.0617
  -6.300  -0.2685   0.01083   0.00529  -0.0518  0.9650  0.0190  -3.4011   0.0000   0.0000   0.0000   0.0530
  -6.200  -0.2563   0.01066   0.00512  -0.0520  0.9617  0.0196  -3.2863   0.0000   0.0000   0.0000   0.0430
  -6.100  -0.2453   0.01052   0.00497  -0.0519  0.9569  0.0201  -3.1817   0.0000   0.0000   0.0000   0.0342
  -6.000  -0.2343   0.01037   0.00479  -0.0517  0.9521  0.0206  -3.0943   0.0000   0.0000   0.0000   0.0246
  -5.900  -0.2233   0.01020   0.00460  -0.0516  0.9481  0.0211  -3.0108   0.0000   0.0000   0.0000   0.0142
  -5.800  -0.2128   0.01004   0.00441  -0.0513  0.9429  0.0216  -2.9306   0.0000   0.0000   0.0000   0.0039
  -5.700  -0.2023   0.00990   0.00424  -0.0511  0.9379  0.0221  -2.8497   0.0000   0.0000   0.0000  -0.0075
  -5.600  -0.1918   0.00978   0.00409  -0.0508  0.9333  0.0225  -2.7679   0.0000   0.0000   0.0000  -0.0201
  -5.500  -0.1813   0.00968   0.00397  -0.0505  0.9279  0.0229  -2.6844   0.0000   0.0000   0.0000  -0.0343
  -5.400  -0.1715   0.00932   0.00355  -0.0502  0.9230  0.0239  -2.6238   0.0000   0.0000   0.0000  -0.0485
  -5.300  -0.1611   0.00913   0.00335  -0.0499  0.9180  0.0249  -2.5452   0.0000   0.0000   0.0000  -0.0661
  -5.200  -0.1506   0.00901   0.00322  -0.0497  0.9127  0.0259  -2.4611   0.0000   0.0000   0.0000  -0.0866
  -5.000  -0.1294   0.00884   0.00301  -0.0493  0.9026  0.0281  -2.2936   0.0000   0.0000   0.0000  -0.1382
  -4.900  -0.1187   0.00879   0.00293  -0.0491  0.8975  0.0291  -2.2099   0.0000   0.0000   0.0000  -0.1712
  -4.800  -0.1082   0.00859   0.00270  -0.0488  0.8926  0.0312  -2.1406   0.0000   0.0000   0.0000  -0.2100
  -4.700  -0.0975   0.00847   0.00257  -0.0487  0.8869  0.0334  -2.0724   0.0000   0.0000   0.0000  -0.2586
  -4.500  -0.0759   0.00833   0.00238  -0.0483  0.8758  0.0372  -1.9331   0.0000   0.0000   0.0000  -0.3980
  -4.400  -0.0653   0.00818   0.00222  -0.0481  0.8703  0.0416  -1.8699   0.0000   0.0000   0.0000  -0.5003
  -4.300  -0.0543   0.00810   0.00213  -0.0480  0.8647  0.0457  -1.7998   0.0000   0.0000   0.0000  -0.6486
  -4.200  -0.0435   0.00799   0.00203  -0.0478  0.8591  0.0524  -1.7322   0.0000   0.0000   0.0000  -0.8677
  -4.100  -0.0327   0.00789   0.00194  -0.0477  0.8535  0.0615  -1.6632   0.0000   0.0000   0.0000  -1.2362
  -4.000  -0.0219   0.00776   0.00186  -0.0476  0.8476  0.0753  -1.5942   0.0000   0.0000   0.0000  -1.9657
  -3.900  -0.0110   0.00765   0.00179  -0.0475  0.8419  0.0928  -1.5250   0.0000   0.0000   0.0000  -4.1358
  -3.800  -0.0002   0.00752   0.00173  -0.0474  0.8357  0.1139  -1.4561   0.0000   0.0000   0.0000  -257.2361
  -3.700   0.0106   0.00739   0.00167  -0.0473  0.8297  0.1381  -1.3876   0.0000   0.0000   0.0000   4.7856
  -3.600   0.0214   0.00727   0.00161  -0.0473  0.8232  0.1653  -1.3197   0.0000   0.0000   0.0000   2.4920
  -3.500   0.0322   0.00715   0.00156  -0.0472  0.8171  0.1938  -1.2525   0.0000   0.0000   0.0000   1.7389
  -3.400   0.0430   0.00704   0.00152  -0.0471  0.8109  0.2224  -1.1859   0.0000   0.0000   0.0000   1.3626
  -3.300   0.0538   0.00693   0.00148  -0.0470  0.8050  0.2523  -1.1204   0.0000   0.0000   0.0000   1.1384
  -3.200   0.0647   0.00682   0.00144  -0.0470  0.7986  0.2829  -1.0605   0.0000   0.0000   0.0000   0.9878
  -3.100   0.0755   0.00673   0.00141  -0.0469  0.7926  0.3128  -1.0036   0.0000   0.0000   0.0000   0.8811
  -3.000   0.0864   0.00663   0.00139  -0.0469  0.7860  0.3425  -0.9469   0.0000   0.0000   0.0000   0.8005
  -2.900   0.0972   0.00653   0.00136  -0.0468  0.7798  0.3751  -0.8915   0.0000   0.0000   0.0000   0.7387
  -2.800   0.1081   0.00640   0.00133  -0.0468  0.7730  0.4125  -0.8364   0.0000   0.0000   0.0000   0.6890
  -2.700   0.1187   0.00628   0.00131  -0.0467  0.7663  0.4553  -0.7827   0.0000   0.0000   0.0000   0.6488
  -2.600   0.1294   0.00612   0.00129  -0.0467  0.7590  0.5069  -0.7296   0.0000   0.0000   0.0000   0.6153
  -2.500   0.1398   0.00594   0.00128  -0.0465  0.7519  0.5669  -0.6780   0.0000   0.0000   0.0000   0.5872
  -2.400   0.1499   0.00573   0.00127  -0.0464  0.7439  0.6379  -0.6280   0.0000   0.0000   0.0000   0.5630
  -2.300   0.1595   0.00551   0.00127  -0.0460  0.7358  0.7118  -0.5849   0.0000   0.0000   0.0000   0.5418
  -2.100   0.1763   0.00513   0.00129  -0.0445  0.7176  0.8481  -0.5048   0.0000   0.0000   0.0000   0.5050
  -2.000   0.1836   0.00503   0.00130  -0.0433  0.7074  0.9013  -0.4674   0.0000   0.0000   0.0000   0.4884
  -1.900   0.1937   0.00500   0.00130  -0.0428  0.6952  0.9435  -0.4686   0.0000   0.0000   0.0000   0.4730
  -1.800   0.2099   0.00502   0.00127  -0.0437  0.6786  0.9714  -0.4821   0.0000   0.0000   0.0000   0.4602
  -1.700   0.2278   0.00508   0.00123  -0.0452  0.6498  0.9876  -0.4974   0.0000   0.0000   0.0000   0.4499
  -1.600   0.2456   0.00519   0.00120  -0.0466  0.6253  0.9974  -0.5126   0.0000   0.0000   0.0000   0.4412
  -1.500   0.2587   0.00528   0.00119  -0.0471  0.6110  1.0000  -0.5255   0.0000   0.0000   0.0000   0.4332
  -1.400   0.2691   0.00536   0.00119  -0.0469  0.6006  1.0000  -0.5369   0.0000   0.0000   0.0000   0.4254
  -1.300   0.2796   0.00543   0.00120  -0.0468  0.5920  1.0000  -0.5485   0.0000   0.0000   0.0000   0.4182
  -1.200   0.2903   0.00549   0.00120  -0.0467  0.5852  1.0000  -0.5602   0.0000   0.0000   0.0000   0.4115
  -1.100   0.3010   0.00554   0.00121  -0.0466  0.5789  1.0000  -0.5725   0.0000   0.0000   0.0000   0.4053
  -1.000   0.3117   0.00559   0.00122  -0.0465  0.5735  1.0000  -0.5850   0.0000   0.0000   0.0000   0.3995
  -0.900   0.3226   0.00563   0.00123  -0.0464  0.5682  1.0000  -0.5979   0.0000   0.0000   0.0000   0.3941
  -0.800   0.3334   0.00569   0.00124  -0.0463  0.5633  1.0000  -0.6112   0.0000   0.0000   0.0000   0.3890
  -0.700   0.3443   0.00573   0.00125  -0.0463  0.5587  1.0000  -0.6246   0.0000   0.0000   0.0000   0.3843
  -0.600   0.3552   0.00576   0.00126  -0.0462  0.5541  1.0000  -0.6381   0.0000   0.0000   0.0000   0.3799
  -0.500   0.3661   0.00582   0.00127  -0.0462  0.5498  1.0000  -0.6516   0.0000   0.0000   0.0000   0.3757
  -0.400   0.3770   0.00585   0.00129  -0.0461  0.5458  1.0000  -0.6655   0.0000   0.0000   0.0000   0.3718
  -0.300   0.3881   0.00589   0.00130  -0.0461  0.5415  1.0000  -0.6800   0.0000   0.0000   0.0000   0.3681
  -0.200   0.3990   0.00593   0.00132  -0.0460  0.5375  1.0000  -0.6946   0.0000   0.0000   0.0000   0.3646
  -0.100   0.4100   0.00598   0.00134  -0.0460  0.5337  1.0000  -0.7092   0.0000   0.0000   0.0000   0.3613
   0.000   0.4211   0.00601   0.00135  -0.0460  0.5297  1.0000  -0.7240   0.0000   0.0000   0.0000   0.3582
   0.100   0.4321   0.00605   0.00137  -0.0460  0.5256  1.0000  -0.7391   0.0000   0.0000   0.0000   0.3552
   0.200   0.4431   0.00610   0.00139  -0.0459  0.5219  1.0000  -0.7548   0.0000   0.0000   0.0000   0.3524
   0.300   0.4543   0.00613   0.00141  -0.0459  0.5181  1.0000  -0.7708   0.0000   0.0000   0.0000   0.3497
   0.400   0.4654   0.00616   0.00143  -0.0459  0.5141  1.0000  -0.7868   0.0000   0.0000   0.0000   0.3471
   0.500   0.4764   0.00621   0.00145  -0.0459  0.5103  1.0000  -0.8029   0.0000   0.0000   0.0000   0.3447
   0.600   0.4875   0.00625   0.00148  -0.0459  0.5067  1.0000  -0.8202   0.0000   0.0000   0.0000   0.3424
   0.700   0.4987   0.00628   0.00150  -0.0459  0.5027  1.0000  -0.8376   0.0000   0.0000   0.0000   0.3402
   0.800   0.5098   0.00632   0.00152  -0.0459  0.4986  1.0000  -0.8553   0.0000   0.0000   0.0000   0.3380
   0.900   0.5208   0.00637   0.00155  -0.0459  0.4948  1.0000  -0.8740   0.0000   0.0000   0.0000   0.3360
   1.000   0.5320   0.00639   0.00157  -0.0459  0.4906  1.0000  -0.8938   0.0000   0.0000   0.0000   0.3340
   1.100   0.5432   0.00643   0.00160  -0.0459  0.4862  1.0000  -0.9144   0.0000   0.0000   0.0000   0.3322
   1.300   0.5654   0.00651   0.00165  -0.0459  0.4773  1.0000  -0.9560   0.0000   0.0000   0.0000   0.3286
   1.400   0.5765   0.00655   0.00168  -0.0459  0.4724  1.0000  -0.9783   0.0000   0.0000   0.0000   0.3269
   1.500   0.5876   0.00660   0.00171  -0.0459  0.4677  1.0000  -1.0012   0.0000   0.0000   0.0000   0.3253
   1.600   0.5988   0.00663   0.00174  -0.0460  0.4618  1.0000  -1.0243   0.0000   0.0000   0.0000   0.3238
   1.700   0.6099   0.00668   0.00177  -0.0460  0.4560  1.0000  -1.0478   0.0000   0.0000   0.0000   0.3223
   1.800   0.6210   0.00672   0.00180  -0.0460  0.4496  1.0000  -1.0734   0.0000   0.0000   0.0000   0.3208
   1.900   0.6321   0.00678   0.00182  -0.0460  0.4432  1.0000  -1.0990   0.0000   0.0000   0.0000   0.3194
   2.000   0.6431   0.00682   0.00186  -0.0460  0.4357  1.0000  -1.1248   0.0000   0.0000   0.0000   0.3181
   2.100   0.6541   0.00688   0.00189  -0.0460  0.4286  1.0000  -1.1508   0.0000   0.0000   0.0000   0.3168
   2.200   0.6651   0.00695   0.00194  -0.0460  0.4209  1.0000  -1.1794   0.0000   0.0000   0.0000   0.3155
   2.300   0.6761   0.00701   0.00198  -0.0460  0.4130  1.0000  -1.2083   0.0000   0.0000   0.0000   0.3142
   2.400   0.6870   0.00709   0.00202  -0.0460  0.4049  1.0000  -1.2372   0.0000   0.0000   0.0000   0.3130
   2.500   0.6980   0.00716   0.00207  -0.0460  0.3959  1.0000  -1.2663   0.0000   0.0000   0.0000   0.3119
   2.600   0.7089   0.00724   0.00212  -0.0461  0.3868  1.0000  -1.2979   0.0000   0.0000   0.0000   0.3107
   2.700   0.7197   0.00733   0.00217  -0.0460  0.3774  1.0000  -1.3303   0.0000   0.0000   0.0000   0.3096
   2.800   0.7305   0.00743   0.00223  -0.0460  0.3675  1.0000  -1.3628   0.0000   0.0000   0.0000   0.3085
   2.900   0.7413   0.00752   0.00229  -0.0460  0.3569  1.0000  -1.3983   0.0000   0.0000   0.0000   0.3075
   3.000   0.7520   0.00762   0.00236  -0.0460  0.3465  1.0000  -1.4347   0.0000   0.0000   0.0000   0.3065
   3.100   0.7628   0.00773   0.00243  -0.0460  0.3361  1.0000  -1.4725   0.0000   0.0000   0.0000   0.3055
   3.200   0.7734   0.00784   0.00250  -0.0460  0.3253  1.0000  -1.5130   0.0000   0.0000   0.0000   0.3045
   3.300   0.7840   0.00797   0.00258  -0.0460  0.3141  1.0000  -1.5540   0.0000   0.0000   0.0000   0.3035
   3.500   0.8053   0.00821   0.00274  -0.0460  0.2922  1.0000  -1.6618   0.0000   0.0000   0.0000   0.3017
   3.600   0.8159   0.00834   0.00283  -0.0460  0.2816  1.0000  -1.7254   0.0000   0.0000   0.0000   0.3008
   3.700   0.8264   0.00847   0.00292  -0.0460  0.2710  1.0000  -1.7970   0.0000   0.0000   0.0000   0.2999
   3.800   0.8369   0.00861   0.00302  -0.0459  0.2606  1.0000  -1.8713   0.0000   0.0000   0.0000   0.2991
   3.900   0.8474   0.00875   0.00312  -0.0459  0.2504  1.0000  -1.9465   0.0000   0.0000   0.0000   0.2982
   4.000   0.8579   0.00888   0.00322  -0.0459  0.2405  1.0000  -2.0228   0.0000   0.0000   0.0000   0.2974
   4.100   0.8685   0.00901   0.00332  -0.0459  0.2312  1.0000  -2.1001   0.0000   0.0000   0.0000   0.2966
   4.200   0.8789   0.00916   0.00342  -0.0459  0.2220  1.0000  -2.1811   0.0000   0.0000   0.0000   0.2958
   4.400   0.8999   0.00944   0.00363  -0.0459  0.2046  1.0000  -2.3556   0.0000   0.0000   0.0000   0.2943
   4.500   0.9103   0.00958   0.00374  -0.0458  0.1963  1.0000  -2.4444   0.0000   0.0000   0.0000   0.2935
   4.700   0.9311   0.00987   0.00398  -0.0458  0.1793  1.0000  -2.6249   0.0000   0.0000   0.0000   0.2921
   4.800   0.9414   0.01003   0.00410  -0.0458  0.1708  1.0000  -2.7165   0.0000   0.0000   0.0000   0.2914
   4.900   0.9516   0.01020   0.00423  -0.0457  0.1620  1.0000  -2.8086   0.0000   0.0000   0.0000   0.2907
   5.000   0.9620   0.01035   0.00435  -0.0457  0.1534  1.0000  -2.9023   0.0000   0.0000   0.0000   0.2900
   5.100   0.9723   0.01050   0.00447  -0.0457  0.1455  1.0000  -2.9970   0.0000   0.0000   0.0000   0.2893
   5.200   0.9824   0.01068   0.00461  -0.0456  0.1375  1.0000  -3.0918   0.0000   0.0000   0.0000   0.2886
   5.300   0.9926   0.01084   0.00474  -0.0456  0.1295  1.0000  -3.1952   0.0000   0.0000   0.0000   0.2879
   5.400   1.0028   0.01100   0.00488  -0.0456  0.1220  1.0000  -3.3016   0.0000   0.0000   0.0000   0.2873
   5.500   1.0128   0.01119   0.00503  -0.0455  0.1141  1.0000  -3.4082   0.0000   0.0000   0.0000   0.2866
   5.600   1.0228   0.01137   0.00518  -0.0455  0.1062  1.0000  -3.5162   0.0000   0.0000   0.0000   0.2860
   5.700   1.0329   0.01155   0.00533  -0.0454  0.0992  1.0000  -3.6254   0.0000   0.0000   0.0000   0.2853
   5.800   1.0427   0.01176   0.00550  -0.0453  0.0919  1.0000  -3.7344   0.0000   0.0000   0.0000   0.2847
   5.900   1.0527   0.01194   0.00566  -0.0453  0.0853  1.0000  -3.8456   0.0000   0.0000   0.0000   0.2841
   6.000   1.0626   0.01214   0.00583  -0.0452  0.0792  1.0000  -3.9570   0.0000   0.0000   0.0000   0.2834
   6.100   1.0724   0.01234   0.00600  -0.0451  0.0732  1.0000  -4.0691   0.0000   0.0000   0.0000   0.2828
   6.200   1.0823   0.01253   0.00618  -0.0450  0.0679  1.0000  -4.1827   0.0000   0.0000   0.0000   0.2822
   6.300   1.0919   0.01276   0.00637  -0.0449  0.0619  1.0000  -4.2957   0.0000   0.0000   0.0000   0.2816
   6.400   1.1017   0.01295   0.00656  -0.0449  0.0568  1.0000  -4.4107   0.0000   0.0000   0.0000   0.2810
   6.500   1.1111   0.01321   0.00677  -0.0447  0.0508  1.0000  -4.5236   0.0000   0.0000   0.0000   0.2804
   6.600   1.1208   0.01340   0.00696  -0.0446  0.0460  1.0000  -4.6397   0.0000   0.0000   0.0000   0.2798
   6.700   1.1300   0.01367   0.00720  -0.0445  0.0405  1.0000  -4.7528   0.0000   0.0000   0.0000   0.2792
   6.800   1.1394   0.01392   0.00742  -0.0444  0.0358  1.0000  -4.8675   0.0000   0.0000   0.0000   0.2786
   6.900   1.1486   0.01419   0.00767  -0.0442  0.0314  1.0000  -4.9801   0.0000   0.0000   0.0000   0.2779
   7.000   1.1576   0.01449   0.00794  -0.0440  0.0275  1.0000  -5.0915   0.0000   0.0000   0.0000   0.2773
   7.100   1.1668   0.01476   0.00821  -0.0438  0.0245  1.0000  -5.2022   0.0000   0.0000   0.0000   0.2767
   7.200   1.1758   0.01504   0.00849  -0.0436  0.0221  1.0000  -5.3137   0.0000   0.0000   0.0000   0.2761
   7.300   1.1843   0.01540   0.00885  -0.0434  0.0198  1.0000  -5.4160   0.0000   0.0000   0.0000   0.2754
   7.400   1.1937   0.01562   0.00909  -0.0432  0.0186  1.0000  -5.5309   0.0000   0.0000   0.0000   0.2748
   7.500   1.2027   0.01588   0.00937  -0.0430  0.0174  1.0000  -5.6446   0.0000   0.0000   0.0000   0.2742
   7.600   1.2110   0.01626   0.00976  -0.0427  0.0161  1.0000  -5.7557   0.0000   0.0000   0.0000   0.2736
   7.700   1.2194   0.01660   0.01013  -0.0424  0.0152  1.0000  -5.8729   0.0000   0.0000   0.0000   0.2729
   7.800   1.2287   0.01682   0.01037  -0.0423  0.0146  1.0000  -6.0039   0.0000   0.0000   0.0000   0.2723
   7.900   1.2377   0.01706   0.01064  -0.0421  0.0139  1.0000  -6.1346   0.0000   0.0000   0.0000   0.2718
   8.000   1.2465   0.01732   0.01092  -0.0419  0.0133  1.0000  -6.2659   0.0000   0.0000   0.0000   0.2712
   8.100   1.2549   0.01764   0.01126  -0.0416  0.0128  1.0000  -6.3931   0.0000   0.0000   0.0000   0.2706
   8.200   1.2622   0.01809   0.01173  -0.0412  0.0122  1.0000  -6.5055   0.0000   0.0000   0.0000   0.2699
   8.300   1.2687   0.01863   0.01231  -0.0407  0.0117  1.0000  -6.6057   0.0000   0.0000   0.0000   0.2691
   8.400   1.2774   0.01887   0.01260  -0.0405  0.0115  1.0000  -6.7368   0.0000   0.0000   0.0000   0.2686
   8.500   1.2858   0.01916   0.01292  -0.0402  0.0112  1.0000  -6.8651   0.0000   0.0000   0.0000   0.2680
   8.600   1.2939   0.01946   0.01326  -0.0399  0.0109  1.0000  -6.9917   0.0000   0.0000   0.0000   0.2674
   8.700   1.3019   0.01978   0.01362  -0.0396  0.0107  1.0000  -7.1180   0.0000   0.0000   0.0000   0.2668
   8.800   1.3096   0.02011   0.01398  -0.0393  0.0104  1.0000  -7.2447   0.0000   0.0000   0.0000   0.2661
   8.900   1.3172   0.02045   0.01435  -0.0390  0.0101  1.0000  -7.3717   0.0000   0.0000   0.0000   0.2655
   9.000   1.3246   0.02081   0.01473  -0.0386  0.0099  1.0000  -7.4986   0.0000   0.0000   0.0000   0.2649
   9.100   1.3317   0.02118   0.01514  -0.0382  0.0097  1.0000  -7.6240   0.0000   0.0000   0.0000   0.2643
   9.200   1.3382   0.02161   0.01560  -0.0378  0.0095  1.0000  -7.7438   0.0000   0.0000   0.0000   0.2636
   9.300   1.3436   0.02213   0.01615  -0.0372  0.0093  1.0000  -7.8514   0.0000   0.0000   0.0000   0.2629
   9.400   1.3475   0.02279   0.01686  -0.0364  0.0091  1.0000  -7.9391   0.0000   0.0000   0.0000   0.2620
   9.500   1.3490   0.02366   0.01780  -0.0353  0.0089  1.0000  -7.9975   0.0000   0.0000   0.0000   0.2611
   9.600   1.3537   0.02419   0.01838  -0.0347  0.0088  1.0000  -8.0963   0.0000   0.0000   0.0000   0.2603
   9.700   1.3602   0.02455   0.01877  -0.0342  0.0087  1.0000  -8.2186   0.0000   0.0000   0.0000   0.2596
   9.800   1.3663   0.02492   0.01919  -0.0337  0.0086  1.0000  -8.3378   0.0000   0.0000   0.0000   0.2590
   9.900   1.3719   0.02533   0.01964  -0.0332  0.0085  1.0000  -8.4541   0.0000   0.0000   0.0000   0.2583
  10.000   1.3772   0.02575   0.02010  -0.0326  0.0083  1.0000  -8.5674   0.0000   0.0000   0.0000   0.2576
  10.100   1.3819   0.02618   0.02058  -0.0319  0.0082  1.0000  -8.6776   0.0000   0.0000   0.0000   0.2568
  10.200   1.3855   0.02662   0.02106  -0.0311  0.0081  1.0000  -8.7798   0.0000   0.0000   0.0000   0.2560
  10.300   1.3887   0.02708   0.02156  -0.0302  0.0080  1.0000  -8.8790   0.0000   0.0000   0.0000   0.2551
  10.400   1.3915   0.02755   0.02209  -0.0294  0.0079  1.0000  -8.9768   0.0000   0.0000   0.0000   0.2542
  10.500   1.3942   0.02806   0.02263  -0.0285  0.0078  1.0000  -9.0732   0.0000   0.0000   0.0000   0.2534
  10.600   1.3966   0.02859   0.02321  -0.0277  0.0077  1.0000  -9.1680   0.0000   0.0000   0.0000   0.2526
  10.700   1.3988   0.02915   0.02381  -0.0269  0.0076  1.0000  -9.2607   0.0000   0.0000   0.0000   0.2518
  10.800   1.4007   0.02976   0.02446  -0.0262  0.0075  1.0000  -9.3508   0.0000   0.0000   0.0000   0.2511
  10.900   1.4023   0.03040   0.02514  -0.0255  0.0074  1.0000  -9.4375   0.0000   0.0000   0.0000   0.2504
  11.000   1.4037   0.03109   0.02587  -0.0249  0.0073  1.0000  -9.5225   0.0000   0.0000   0.0000   0.2497
  11.100   1.4049   0.03181   0.02664  -0.0243  0.0073  1.0000  -9.6054   0.0000   0.0000   0.0000   0.2490
  11.200   1.4058   0.03258   0.02745  -0.0237  0.0072  1.0000  -9.6862   0.0000   0.0000   0.0000   0.2484
  11.300   1.4065   0.03341   0.02832  -0.0233  0.0071  1.0000  -9.7639   0.0000   0.0000   0.0000   0.2479
  11.400   1.4068   0.03429   0.02924  -0.0228  0.0071  1.0000  -9.8380   0.0000   0.0000   0.0000   0.2474
  11.500   1.4068   0.03524   0.03024  -0.0225  0.0070  1.0000  -9.9080   0.0000   0.0000   0.0000   0.2469
  11.600   1.4063   0.03626   0.03131  -0.0222  0.0070  1.0000  -9.9724   0.0000   0.0000   0.0000   0.2465
  11.700   1.4054   0.03737   0.03246  -0.0219  0.0069  1.0000  -10.0304   0.0000   0.0000   0.0000   0.2461
  11.800   1.4040   0.03857   0.03371  -0.0218  0.0069  1.0000  -10.0819   0.0000   0.0000   0.0000   0.2458
  11.900   1.4020   0.03986   0.03506  -0.0217  0.0068  1.0000  -10.1259   0.0000   0.0000   0.0000   0.2455
  12.000   1.3995   0.04126   0.03651  -0.0217  0.0068  1.0000  -10.1618   0.0000   0.0000   0.0000   0.2453
  12.100   1.3965   0.04275   0.03806  -0.0217  0.0067  1.0000  -10.1900   0.0000   0.0000   0.0000   0.2452
  12.200   1.3930   0.04435   0.03971  -0.0218  0.0067  1.0000  -10.2105   0.0000   0.0000   0.0000   0.2451
  12.300   1.3890   0.04603   0.04146  -0.0220  0.0067  1.0000  -10.2234   0.0000   0.0000   0.0000   0.2450
  12.400   1.3845   0.04782   0.04331  -0.0222  0.0066  1.0000  -10.2291   0.0000   0.0000   0.0000   0.2450
  12.500   1.3797   0.04969   0.04525  -0.0225  0.0066  1.0000  -10.2284   0.0000   0.0000   0.0000   0.2451
  12.600   1.3746   0.05167   0.04730  -0.0229  0.0066  1.0000  -10.2213   0.0000   0.0000   0.0000   0.2453
  12.700   1.3692   0.05373   0.04943  -0.0234  0.0065  1.0000  -10.2085   0.0000   0.0000   0.0000   0.2455
  12.800   1.3634   0.05587   0.05163  -0.0240  0.0065  1.0000  -10.1906   0.0000   0.0000   0.0000   0.2457
  12.900   1.3600   0.05776   0.05359  -0.0246  0.0065  1.0000  -10.2041   0.0000   0.0000   0.0000   0.2461
  13.000   1.3576   0.05955   0.05544  -0.0253  0.0065  1.0000  -10.2328   0.0000   0.0000   0.0000   0.2464
  13.100   1.3548   0.06141   0.05735  -0.0261  0.0065  1.0000  -10.2568   0.0000   0.0000   0.0000   0.2468
  13.200   1.3517   0.06332   0.05932  -0.0269  0.0065  1.0000  -10.2758   0.0000   0.0000   0.0000   0.2472
  13.300   1.3482   0.06529   0.06135  -0.0277  0.0064  1.0000  -10.2901   0.0000   0.0000   0.0000   0.2476
  13.400   1.3444   0.06732   0.06344  -0.0285  0.0064  1.0000  -10.3002   0.0000   0.0000   0.0000   0.2481
  13.500   1.3403   0.06941   0.06559  -0.0294  0.0064  1.0000  -10.3061   0.0000   0.0000   0.0000   0.2486
  13.600   1.3360   0.07155   0.06779  -0.0302  0.0064  1.0000  -10.3079   0.0000   0.0000   0.0000   0.2491
  13.700   1.3313   0.07375   0.07005  -0.0312  0.0064  1.0000  -10.3053   0.0000   0.0000   0.0000   0.2497
  13.800   1.3264   0.07600   0.07236  -0.0321  0.0064  1.0000  -10.2986   0.0000   0.0000   0.0000   0.2503
  13.900   1.3213   0.07832   0.07473  -0.0331  0.0064  1.0000  -10.2885   0.0000   0.0000   0.0000   0.2509
  14.000   1.3161   0.08070   0.07717  -0.0341  0.0064  1.0000  -10.2791   0.0000   0.0000   0.0000   0.2516
  14.100   1.3107   0.08315   0.07967  -0.0352  0.0064  1.0000  -10.2667   0.0000   0.0000   0.0000   0.2524
  14.200   1.3052   0.08565   0.08223  -0.0364  0.0064  1.0000  -10.2509   0.0000   0.0000   0.0000   0.2532
  14.300   1.2996   0.08821   0.08485  -0.0376  0.0064  1.0000  -10.2314   0.0000   0.0000   0.0000   0.2540
  14.400   1.2938   0.09082   0.08751  -0.0388  0.0064  1.0000  -10.2080   0.0000   0.0000   0.0000   0.2549
  14.500   1.2879   0.09348   0.09023  -0.0400  0.0064  1.0000  -10.1813   0.0000   0.0000   0.0000   0.2558
  14.600   1.2819   0.09620   0.09300  -0.0413  0.0064  1.0000  -10.1514   0.0000   0.0000   0.0000   0.2568
  14.700   1.2758   0.09897   0.09582  -0.0426  0.0064  1.0000  -10.1180   0.0000   0.0000   0.0000   0.2578
  14.800   1.2696   0.10181   0.09871  -0.0440  0.0064  1.0000  -10.0808   0.0000   0.0000   0.0000   0.2589
  14.900   1.2634   0.10469   0.10165  -0.0454  0.0064  1.0000  -10.0404   0.0000   0.0000   0.0000   0.2600
  15.000   1.2571   0.10760   0.10461  -0.0468  0.0064  1.0000  -9.9967   0.0000   0.0000   0.0000   0.2611
  15.100   1.2507   0.11055   0.10762  -0.0483  0.0064  1.0000  -9.9497   0.0000   0.0000   0.0000   0.2623
  15.200   1.2444   0.11356   0.11067  -0.0498  0.0064  1.0000  -9.8992   0.0000   0.0000   0.0000   0.2636
  15.300   1.2379   0.11662   0.11379  -0.0513  0.0064  1.0000  -9.8443   0.0000   0.0000   0.0000   0.2649
  15.400   1.2314   0.11973   0.11695  -0.0529  0.0064  1.0000  -9.7860   0.0000   0.0000   0.0000   0.2663
  15.500   1.2250   0.12286   0.12013  -0.0545  0.0064  1.0000  -9.7246   0.0000   0.0000   0.0000   0.2677
  15.600   1.2185   0.12604   0.12336  -0.0561  0.0064  1.0000  -9.6596   0.0000   0.0000   0.0000   0.2692
  15.700   1.2119   0.12927   0.12664  -0.0578  0.0064  1.0000  -9.5885   0.0000   0.0000   0.0000   0.2707
  15.800   1.2052   0.13254   0.12996  -0.0595  0.0064  1.0000  -9.5130   0.0000   0.0000   0.0000   0.2723
  15.900   1.1987   0.13583   0.13330  -0.0613  0.0064  1.0000  -9.4343   0.0000   0.0000   0.0000   0.2739
  16.000   1.1920   0.13919   0.13671  -0.0631  0.0064  1.0000  -9.3498   0.0000   0.0000   0.0000   0.2756
  16.100   1.1853   0.14264   0.14021  -0.0650  0.0064  1.0000  -9.2576   0.0000   0.0000   0.0000   0.2774
  16.200   1.1786   0.14613   0.14375  -0.0669  0.0064  1.0000  -9.1611   0.0000   0.0000   0.0000   0.2793
  16.300   1.1719   0.14968   0.14734  -0.0688  0.0064  1.0000  -9.0581   0.0000   0.0000   0.0000   0.2812
  16.400   1.1649   0.15336   0.15107  -0.0709  0.0064  1.0000  -8.9425   0.0000   0.0000   0.0000   0.2833
  16.500   1.1578   0.15710   0.15486  -0.0730  0.0065  1.0000  -8.8185   0.0000   0.0000   0.0000   0.2855
  16.600   1.1506   0.16093   0.15874  -0.0751  0.0065  1.0000  -8.6843   0.0000   0.0000   0.0000   0.2878
  16.700   1.1428   0.16500   0.16285  -0.0774  0.0065  1.0000  -8.5286   0.0000   0.0000   0.0000   0.2903
  17.100   1.1257   0.17853   0.17654  -0.0853  0.0066  1.0000  -8.1552   0.0000   0.0000   0.0000   0.2982
  17.200   1.1211   0.18222   0.18026  -0.0875  0.0066  1.0000  -8.0331   0.0000   0.0000   0.0000   0.3005
  17.300   1.1153   0.18642   0.18451  -0.0899  0.0066  1.0000  -7.8676   0.0000   0.0000   0.0000   0.3032
  19.700   0.7306   0.23935   0.23770  -0.0802  0.0099  1.0000  -1.5935   0.0000   0.0000   0.0000   0.3416
  19.800   0.7317   0.24050   0.23885  -0.0807  0.0097  1.0000  -1.5982   0.0000   0.0000   0.0000   0.3419
  19.900   0.7329   0.24163   0.23998  -0.0811  0.0096  1.0000  -1.6062   0.0000   0.0000   0.0000   0.3422
  20.000   0.7342   0.24271   0.24107  -0.0816  0.0095  1.0000  -1.6177   0.0000   0.0000   0.0000   0.3425
  20.100   0.7354   0.24376   0.24212  -0.0820  0.0094  1.0000  -1.6330   0.0000   0.0000   0.0000   0.3427
  20.200   0.7368   0.24477   0.24314  -0.0825  0.0093  1.0000  -1.6577   0.0000   0.0000   0.0000   0.3429
  20.300   0.7383   0.24573   0.24410  -0.0829  0.0092  1.0000  -1.6880   0.0000   0.0000   0.0000   0.3430
  20.400   0.7398   0.24664   0.24501  -0.0832  0.0091  1.0000  -1.7236   0.0000   0.0000   0.0000   0.3431
  20.500   0.7415   0.24749   0.24587  -0.0836  0.0090  1.0000  -1.7662   0.0000   0.0000   0.0000   0.3430
  20.600   0.7435   0.24828   0.24666  -0.0838  0.0090  1.0000  -1.8189   0.0000   0.0000   0.0000   0.3428
  21.800   0.7498   0.26740   0.26580  -0.0906  0.0074  1.0000  -1.4688   0.0000   0.0000   0.0000   0.3500
  21.900   0.7509   0.26865   0.26705  -0.0910  0.0073  1.0000  -1.4717   0.0000   0.0000   0.0000   0.3504
  22.000   0.7520   0.26988   0.26828  -0.0915  0.0072  1.0000  -1.4766   0.0000   0.0000   0.0000   0.3507
  22.100   0.7530   0.27108   0.26948  -0.0920  0.0071  1.0000  -1.4842   0.0000   0.0000   0.0000   0.3510
  22.200   0.7541   0.27224   0.27065  -0.0925  0.0070  1.0000  -1.4951   0.0000   0.0000   0.0000   0.3512
  22.300   0.7553   0.27339   0.27181  -0.0930  0.0069  1.0000  -1.5098   0.0000   0.0000   0.0000   0.3515
  22.400   0.7565   0.27448   0.27290  -0.0934  0.0068  1.0000  -1.5286   0.0000   0.0000   0.0000   0.3517
  22.500   0.7577   0.27552   0.27394  -0.0939  0.0068  1.0000  -1.5522   0.0000   0.0000   0.0000   0.3519
  22.600   0.7589   0.27651   0.27493  -0.0943  0.0067  1.0000  -1.5812   0.0000   0.0000   0.0000   0.3520
  22.700   0.7603   0.27744   0.27587  -0.0947  0.0067  1.0000  -1.6168   0.0000   0.0000   0.0000   0.3521
  22.800   0.7618   0.27832   0.27675  -0.0951  0.0066  1.0000  -1.6610   0.0000   0.0000   0.0000   0.3520
  22.900   0.7637   0.27915   0.27759  -0.0952  0.0065  1.0000  -1.7225   0.0000   0.0000   0.0000   0.3516
  23.000   0.7646   0.28069   0.27913  -0.0956  0.0065  1.0000  -1.7175   0.0000   0.0000   0.0000   0.3517
  23.100   0.7649   0.28230   0.28074  -0.0962  0.0065  1.0000  -1.6780   0.0000   0.0000   0.0000   0.3524
  23.200   0.7653   0.28395   0.28239  -0.0968  0.0065  1.0000  -1.6337   0.0000   0.0000   0.0000   0.3531
  23.300   0.7655   0.28569   0.28413  -0.0975  0.0064  1.0000  -1.5791   0.0000   0.0000   0.0000   0.3539
  23.400   0.7657   0.28757   0.28601  -0.0982  0.0064  1.0000  -1.5130   0.0000   0.0000   0.0000   0.3547
  23.500   0.7660   0.28969   0.28813  -0.0989  0.0063  1.0000  -1.4184   0.0000   0.0000   0.0000   0.3556
  23.600   0.7669   0.29152   0.28996  -0.0994  0.0060  1.0000  -1.3620   0.0000   0.0000   0.0000   0.3562
  23.700   0.7678   0.29298   0.29142  -0.0999  0.0059  1.0000  -1.3418   0.0000   0.0000   0.0000   0.3565
  23.800   0.7687   0.29436   0.29281  -0.1004  0.0057  1.0000  -1.3296   0.0000   0.0000   0.0000   0.3568
  23.900   0.7697   0.29569   0.29414  -0.1009  0.0056  1.0000  -1.3211   0.0000   0.0000   0.0000   0.3571
  24.000   0.7706   0.29702   0.29547  -0.1014  0.0055  1.0000  -1.3152   0.0000   0.0000   0.0000   0.3574
  24.100   0.7716   0.29832   0.29679  -0.1018  0.0054  1.0000  -1.3115   0.0000   0.0000   0.0000   0.3577
  24.200   0.7725   0.29961   0.29807  -0.1023  0.0053  1.0000  -1.3098   0.0000   0.0000   0.0000   0.3580
  24.300   0.7735   0.30087   0.29934  -0.1028  0.0052  1.0000  -1.3100   0.0000   0.0000   0.0000   0.3583
  24.400   0.7745   0.30211   0.30059  -0.1033  0.0051  1.0000  -1.3157   0.0000   0.0000   0.0000   0.3586
  24.500   0.7754   0.30333   0.30181  -0.1038  0.0050  1.0000  -1.3271   0.0000   0.0000   0.0000   0.3589
  24.600   0.7764   0.30453   0.30301  -0.1043  0.0050  1.0000  -1.3404   0.0000   0.0000   0.0000   0.3591
  24.700   0.7773   0.30573   0.30422  -0.1048  0.0049  1.0000  -1.3559   0.0000   0.0000   0.0000   0.3594
  24.800   0.7783   0.30689   0.30537  -0.1053  0.0049  1.0000  -1.3736   0.0000   0.0000   0.0000   0.3596
  24.900   0.7793   0.30801   0.30651  -0.1057  0.0048  1.0000  -1.3939   0.0000   0.0000   0.0000   0.3598
  25.000   0.7802   0.30911   0.30761  -0.1062  0.0048  1.0000  -1.4175   0.0000   0.0000   0.0000   0.3600
  25.100   0.7812   0.31018   0.30868  -0.1067  0.0047  1.0000  -1.4447   0.0000   0.0000   0.0000   0.3601
  25.200   0.7823   0.31121   0.30972  -0.1071  0.0047  1.0000  -1.4770   0.0000   0.0000   0.0000   0.3602
  25.300   0.7834   0.31223   0.31074  -0.1074  0.0047  1.0000  -1.5173   0.0000   0.0000   0.0000   0.3602
  26.000   0.7878   0.32320   0.32172  -0.1111  0.0046  1.0000  -1.3820   0.0000   0.0000   0.0000   0.3631
  26.100   0.7885   0.32488   0.32340  -0.1116  0.0046  1.0000  -1.3500   0.0000   0.0000   0.0000   0.3635
  26.200   0.7893   0.32659   0.32511  -0.1122  0.0045  1.0000  -1.3162   0.0000   0.0000   0.0000   0.3639
  26.300   0.7902   0.32827   0.32680  -0.1127  0.0044  1.0000  -1.2857   0.0000   0.0000   0.0000   0.3643
  26.400   0.7911   0.32980   0.32833  -0.1131  0.0043  1.0000  -1.2691   0.0000   0.0000   0.0000   0.3646
  26.500   0.7919   0.33122   0.32976  -0.1136  0.0042  1.0000  -1.2612   0.0000   0.0000   0.0000   0.3649
  26.600   0.7927   0.33261   0.33114  -0.1141  0.0040  1.0000  -1.2575   0.0000   0.0000   0.0000   0.3652
  26.700   0.7935   0.33394   0.33248  -0.1146  0.0039  1.0000  -1.2561   0.0000   0.0000   0.0000   0.3654
  26.800   0.7942   0.33529   0.33383  -0.1151  0.0039  1.0000  -1.2562   0.0000   0.0000   0.0000   0.3657
  26.900   0.7950   0.33662   0.33517  -0.1156  0.0038  1.0000  -1.2572   0.0000   0.0000   0.0000   0.3660
  27.000   0.7958   0.33794   0.33650  -0.1161  0.0037  1.0000  -1.2584   0.0000   0.0000   0.0000   0.3662
  27.100   0.7965   0.33925   0.33781  -0.1166  0.0036  1.0000  -1.2603   0.0000   0.0000   0.0000   0.3665
  27.200   0.7973   0.34055   0.33911  -0.1171  0.0036  1.0000  -1.2631   0.0000   0.0000   0.0000   0.3668
  27.300   0.7980   0.34183   0.34040  -0.1176  0.0035  1.0000  -1.2670   0.0000   0.0000   0.0000   0.3670
  27.400   0.7987   0.34310   0.34167  -0.1181  0.0035  1.0000  -1.2720   0.0000   0.0000   0.0000   0.3673
  27.500   0.7994   0.34435   0.34292  -0.1186  0.0034  1.0000  -1.2784   0.0000   0.0000   0.0000   0.3676
  27.600   0.8001   0.34561   0.34419  -0.1191  0.0034  1.0000  -1.2864   0.0000   0.0000   0.0000   0.3678
  27.700   0.8008   0.34682   0.34541  -0.1196  0.0034  1.0000  -1.2962   0.0000   0.0000   0.0000   0.3681
  27.800   0.8015   0.34802   0.34660  -0.1201  0.0033  1.0000  -1.3080   0.0000   0.0000   0.0000   0.3683
  27.900   0.8022   0.34919   0.34778  -0.1206  0.0033  1.0000  -1.3222   0.0000   0.0000   0.0000   0.3685
  28.000   0.8028   0.35033   0.34892  -0.1211  0.0033  1.0000  -1.3393   0.0000   0.0000   0.0000   0.3688
  28.100   0.8034   0.35144   0.35004  -0.1216  0.0032  1.0000  -1.3599   0.0000   0.0000   0.0000   0.3690
  28.200   0.8041   0.35253   0.35114  -0.1220  0.0032  1.0000  -1.3846   0.0000   0.0000   0.0000   0.3691
  28.300   0.8048   0.35362   0.35223  -0.1224  0.0032  1.0000  -1.4150   0.0000   0.0000   0.0000   0.3692


