xflr5 v6.61

 Calculated polar for: AG35

 1 1 Reynolds number fixed          Mach number fixed         

 xtrf =   1.000 (top)        1.000 (bottom)
 Mach =   0.000     Re =     0.160 e 6     Ncrit =   9.000

  alpha     CL        CD       CDp       Cm    Top Xtr Bot Xtr   Cpmin    Chinge    XCp    
 ------- -------- --------- --------- -------- ------- ------- -------- --------- ---------
  -9.600  -0.4895   0.08800   0.08430  -0.0136  1.0000  0.0606  -2.0650   0.0000   0.0000   0.0000   0.2180
  -9.500  -0.4864   0.08686   0.08317  -0.0136  1.0000  0.0615  -2.0353   0.0000   0.0000   0.0000   0.2179
  -9.400  -0.4846   0.08554   0.08187  -0.0141  1.0000  0.0624  -2.0253   0.0000   0.0000   0.0000   0.2168
  -9.300  -0.4837   0.08411   0.08044  -0.0151  1.0000  0.0633  -2.0270   0.0000   0.0000   0.0000   0.2149
  -9.200  -0.4830   0.08252   0.07888  -0.0165  1.0000  0.0642  -2.0376   0.0000   0.0000   0.0000   0.2120
  -9.100  -0.4815   0.08067   0.07703  -0.0188  1.0000  0.0653  -2.0577   0.0000   0.0000   0.0000   0.2073
  -8.500  -0.4702   0.06605   0.06232  -0.0362  1.0000  0.0710  -2.3197   0.0000   0.0000   0.0000   0.1698
  -8.400  -0.4653   0.06519   0.06147  -0.0353  1.0000  0.0717  -2.2599   0.0000   0.0000   0.0000   0.1711
  -8.300  -0.4605   0.06420   0.06048  -0.0349  1.0000  0.0726  -2.2144   0.0000   0.0000   0.0000   0.1712
  -8.200  -0.4559   0.06299   0.05927  -0.0350  1.0000  0.0738  -2.1846   0.0000   0.0000   0.0000   0.1702
  -8.100  -0.4513   0.06154   0.05780  -0.0357  1.0000  0.0752  -2.1699   0.0000   0.0000   0.0000   0.1680
  -8.000  -0.4467   0.05977   0.05598  -0.0370  1.0000  0.0772  -2.1767   0.0000   0.0000   0.0000   0.1642
  -7.900  -0.4196   0.04612   0.04242  -0.0400  1.0000  0.0826  -2.1783   0.0000   0.0000   0.0000   0.1529
  -7.800  -0.4153   0.04507   0.04143  -0.0390  1.0000  0.0832  -2.1201   0.0000   0.0000   0.0000   0.1544
  -7.700  -0.4113   0.04413   0.04052  -0.0381  1.0000  0.0841  -2.0697   0.0000   0.0000   0.0000   0.1557
  -7.600  -0.4079   0.04313   0.03954  -0.0374  1.0000  0.0851  -2.0310   0.0000   0.0000   0.0000   0.1566
  -7.500  -0.4051   0.04203   0.03843  -0.0369  1.0000  0.0864  -2.0037   0.0000   0.0000   0.0000   0.1572
  -7.400  -0.4029   0.04076   0.03714  -0.0367  1.0000  0.0882  -1.9914   0.0000   0.0000   0.0000   0.1573
  -6.500  -0.3670   0.03034   0.02420  -0.0397  1.0000  0.0568  -2.6885   0.0000   0.0000   0.0000   0.1390
  -6.400  -0.3605   0.02870   0.02251  -0.0393  1.0000  0.0553  -2.6768   0.0000   0.0000   0.0000   0.1381
  -6.300  -0.3532   0.02724   0.02091  -0.0388  1.0000  0.0535  -2.6793   0.0000   0.0000   0.0000   0.1371
  -6.200  -0.3450   0.02560   0.01901  -0.0383  1.0000  0.0514  -2.7094   0.0000   0.0000   0.0000   0.1361
  -6.100  -0.3357   0.02385   0.01679  -0.0376  1.0000  0.0493  -2.7740   0.0000   0.0000   0.0000   0.1349
  -6.000  -0.3268   0.02294   0.01566  -0.0371  1.0000  0.0488  -2.7628   0.0000   0.0000   0.0000   0.1335
  -5.900  -0.3180   0.02216   0.01475  -0.0366  1.0000  0.0487  -2.7324   0.0000   0.0000   0.0000   0.1318
  -5.800  -0.3092   0.02146   0.01394  -0.0362  1.0000  0.0491  -2.6902   0.0000   0.0000   0.0000   0.1298
  -5.700  -0.3007   0.02096   0.01340  -0.0358  1.0000  0.0501  -2.6288   0.0000   0.0000   0.0000   0.1276
  -5.600  -0.2921   0.02057   0.01300  -0.0355  1.0000  0.0514  -2.5630   0.0000   0.0000   0.0000   0.1253
  -5.500  -0.2832   0.02015   0.01251  -0.0351  1.0000  0.0526  -2.5060   0.0000   0.0000   0.0000   0.1227
  -5.400  -0.2739   0.01967   0.01194  -0.0347  1.0000  0.0536  -2.4561   0.0000   0.0000   0.0000   0.1198
  -5.300  -0.2643   0.01916   0.01132  -0.0344  1.0000  0.0543  -2.4237   0.0000   0.0000   0.0000   0.1165
  -5.200  -0.2545   0.01866   0.01073  -0.0340  1.0000  0.0550  -2.3905   0.0000   0.0000   0.0000   0.1127
  -5.100  -0.2447   0.01822   0.01020  -0.0337  1.0000  0.0559  -2.3542   0.0000   0.0000   0.0000   0.1086
  -5.000  -0.2349   0.01784   0.00974  -0.0334  1.0000  0.0568  -2.3148   0.0000   0.0000   0.0000   0.1041
  -4.900  -0.2252   0.01759   0.00940  -0.0330  1.0000  0.0577  -2.2713   0.0000   0.0000   0.0000   0.0993
  -4.800  -0.2147   0.01679   0.00866  -0.0331  1.0000  0.0601  -2.2230   0.0000   0.0000   0.0000   0.0919
  -4.700  -0.2052   0.01651   0.00842  -0.0329  1.0000  0.0627  -2.1616   0.0000   0.0000   0.0000   0.0853
  -4.600  -0.1953   0.01627   0.00816  -0.0327  1.0000  0.0654  -2.1066   0.0000   0.0000   0.0000   0.0779
  -4.500  -0.1827   0.01598   0.00782  -0.0330  0.9993  0.0680  -2.0512   0.0000   0.0000   0.0000   0.0649
  -4.400  -0.1660   0.01540   0.00727  -0.0341  0.9976  0.0716  -1.9859   0.0000   0.0000   0.0000   0.0395
  -4.300  -0.1487   0.01507   0.00699  -0.0354  0.9956  0.0774  -1.9084   0.0000   0.0000   0.0000   0.0061
  -4.200  -0.1317   0.01467   0.00662  -0.0366  0.9936  0.0848  -1.8488   0.0000   0.0000   0.0000  -0.0346
  -4.100  -0.1147   0.01434   0.00631  -0.0378  0.9909  0.0942  -1.7900   0.0000   0.0000   0.0000  -0.0869
  -4.000  -0.0975   0.01390   0.00598  -0.0391  0.9886  0.1097  -1.7262   0.0000   0.0000   0.0000  -0.1598
  -3.900  -0.0799   0.01340   0.00567  -0.0405  0.9866  0.1426  -1.6647   0.0000   0.0000   0.0000  -0.2680
  -3.800  -0.0629   0.01262   0.00546  -0.0421  0.9852  0.2422  -1.5996   0.0000   0.0000   0.0000  -0.4333
  -3.700  -0.0480   0.01210   0.00538  -0.0432  0.9821  0.3474  -1.5264   0.0000   0.0000   0.0000  -0.6674
  -3.600  -0.0327   0.01163   0.00531  -0.0442  0.9791  0.4441  -1.4484   0.0000   0.0000   0.0000  -1.1287
  -3.500  -0.0179   0.01111   0.00529  -0.0450  0.9767  0.5617  -1.3706   0.0000   0.0000   0.0000  -2.3168
  -3.400  -0.0054   0.01056   0.00532  -0.0448  0.9747  0.7081  -1.2988   0.0000   0.0000   0.0000  -8.1207
  -3.300   0.0062   0.01023   0.00541  -0.0436  0.9731  0.8629  -1.2282   0.0000   0.0000   0.0000   7.3901
  -3.200   0.0409   0.01009   0.00528  -0.0479  0.9736  1.0000  -1.1030   0.0000   0.0000   0.0000   1.4402
  -3.100   0.0577   0.01007   0.00517  -0.0490  0.9688  1.0000  -1.0326   0.0000   0.0000   0.0000   1.1137
  -3.000   0.0771   0.01005   0.00506  -0.0507  0.9654  1.0000  -0.9563   0.0000   0.0000   0.0000   0.9181
  -2.900   0.0975   0.01001   0.00493  -0.0525  0.9626  1.0000  -0.8784   0.0000   0.0000   0.0000   0.7971
  -2.800   0.1154   0.00998   0.00483  -0.0539  0.9585  1.0000  -0.8077   0.0000   0.0000   0.0000   0.7236
  -2.700   0.1319   0.00995   0.00474  -0.0549  0.9534  1.0000  -0.7415   0.0000   0.0000   0.0000   0.6720
  -2.600   0.1505   0.00990   0.00463  -0.0563  0.9497  1.0000  -0.6713   0.0000   0.0000   0.0000   0.6292
  -2.500   0.1662   0.00987   0.00454  -0.0572  0.9444  1.0000  -0.6158   0.0000   0.0000   0.0000   0.5982
  -2.400   0.1815   0.00983   0.00445  -0.0579  0.9388  1.0000  -0.5619   0.0000   0.0000   0.0000   0.5726
  -2.300   0.1987   0.00978   0.00434  -0.0589  0.9346  1.0000  -0.5050   0.0000   0.0000   0.0000   0.5499
  -2.200   0.2102   0.00976   0.00428  -0.0589  0.9268  1.0000  -0.4603   0.0000   0.0000   0.0000   0.5330
  -2.100   0.2252   0.00971   0.00418  -0.0594  0.9216  1.0000  -0.4725   0.0000   0.0000   0.0000   0.5165
  -2.000   0.2358   0.00969   0.00412  -0.0591  0.9133  1.0000  -0.4828   0.0000   0.0000   0.0000   0.5031
  -1.900   0.2486   0.00965   0.00403  -0.0592  0.9072  1.0000  -0.4948   0.0000   0.0000   0.0000   0.4902
  -1.800   0.2587   0.00963   0.00398  -0.0587  0.8985  1.0000  -0.5054   0.0000   0.0000   0.0000   0.4790
  -1.700   0.2692   0.00961   0.00392  -0.0583  0.8906  1.0000  -0.5164   0.0000   0.0000   0.0000   0.4685
  -1.600   0.2796   0.00959   0.00384  -0.0579  0.8828  1.0000  -0.5277   0.0000   0.0000   0.0000   0.4586
  -1.500   0.2891   0.00958   0.00379  -0.0573  0.8735  1.0000  -0.5386   0.0000   0.0000   0.0000   0.4496
  -1.400   0.2988   0.00957   0.00374  -0.0568  0.8648  1.0000  -0.5497   0.0000   0.0000   0.0000   0.4411
  -1.300   0.3086   0.00956   0.00367  -0.0562  0.8566  1.0000  -0.5610   0.0000   0.0000   0.0000   0.4330
  -1.200   0.3180   0.00956   0.00363  -0.0556  0.8466  1.0000  -0.5724   0.0000   0.0000   0.0000   0.4257
  -1.100   0.3275   0.00957   0.00359  -0.0550  0.8365  1.0000  -0.5840   0.0000   0.0000   0.0000   0.4187
  -1.000   0.3370   0.00958   0.00355  -0.0545  0.8266  1.0000  -0.5958   0.0000   0.0000   0.0000   0.4122
  -0.900   0.3467   0.00959   0.00350  -0.0539  0.8173  1.0000  -0.6081   0.0000   0.0000   0.0000   0.4059
  -0.800   0.3564   0.00960   0.00346  -0.0534  0.8078  1.0000  -0.6207   0.0000   0.0000   0.0000   0.4000
  -0.700   0.3662   0.00964   0.00344  -0.0529  0.7975  1.0000  -0.6334   0.0000   0.0000   0.0000   0.3946
  -0.600   0.3760   0.00967   0.00341  -0.0525  0.7879  1.0000  -0.6462   0.0000   0.0000   0.0000   0.3895
  -0.500   0.3859   0.00972   0.00339  -0.0520  0.7790  1.0000  -0.6591   0.0000   0.0000   0.0000   0.3846
  -0.400   0.3959   0.00976   0.00338  -0.0516  0.7689  1.0000  -0.6723   0.0000   0.0000   0.0000   0.3801
  -0.300   0.4060   0.00982   0.00339  -0.0513  0.7591  1.0000  -0.6861   0.0000   0.0000   0.0000   0.3759
  -0.200   0.4161   0.00987   0.00339  -0.0509  0.7501  1.0000  -0.7001   0.0000   0.0000   0.0000   0.3719
  -0.100   0.4262   0.00993   0.00338  -0.0506  0.7411  1.0000  -0.7141   0.0000   0.0000   0.0000   0.3680
   0.000   0.4364   0.00999   0.00340  -0.0503  0.7313  1.0000  -0.7281   0.0000   0.0000   0.0000   0.3645
   0.100   0.4467   0.01005   0.00341  -0.0500  0.7224  1.0000  -0.7428   0.0000   0.0000   0.0000   0.3611
   0.200   0.4569   0.01011   0.00341  -0.0497  0.7143  1.0000  -0.7580   0.0000   0.0000   0.0000   0.3578
   0.300   0.4673   0.01016   0.00344  -0.0495  0.7048  1.0000  -0.7732   0.0000   0.0000   0.0000   0.3548
   0.400   0.4777   0.01022   0.00345  -0.0493  0.6964  1.0000  -0.7886   0.0000   0.0000   0.0000   0.3519
   0.500   0.4881   0.01028   0.00346  -0.0491  0.6886  1.0000  -0.8047   0.0000   0.0000   0.0000   0.3491
   0.600   0.4986   0.01034   0.00350  -0.0489  0.6797  1.0000  -0.8213   0.0000   0.0000   0.0000   0.3465
   0.700   0.5091   0.01040   0.00353  -0.0487  0.6715  1.0000  -0.8380   0.0000   0.0000   0.0000   0.3440
   0.800   0.5196   0.01045   0.00354  -0.0485  0.6637  1.0000  -0.8556   0.0000   0.0000   0.0000   0.3415
   0.900   0.5301   0.01051   0.00357  -0.0483  0.6552  1.0000  -0.8738   0.0000   0.0000   0.0000   0.3393
   1.000   0.5406   0.01057   0.00360  -0.0482  0.6474  1.0000  -0.8926   0.0000   0.0000   0.0000   0.3370
   1.100   0.5510   0.01064   0.00361  -0.0479  0.6405  1.0000  -0.9125   0.0000   0.0000   0.0000   0.3348
   1.200   0.5615   0.01071   0.00365  -0.0478  0.6327  1.0000  -0.9325   0.0000   0.0000   0.0000   0.3328
   1.300   0.5719   0.01080   0.00369  -0.0476  0.6260  1.0000  -0.9525   0.0000   0.0000   0.0000   0.3307
   1.400   0.5824   0.01090   0.00375  -0.0474  0.6187  1.0000  -0.9737   0.0000   0.0000   0.0000   0.3288
   1.500   0.5928   0.01101   0.00382  -0.0472  0.6118  1.0000  -0.9958   0.0000   0.0000   0.0000   0.3270
   1.600   0.6033   0.01113   0.00389  -0.0470  0.6047  1.0000  -1.0179   0.0000   0.0000   0.0000   0.3252
   1.700   0.6138   0.01125   0.00398  -0.0469  0.5977  1.0000  -1.0402   0.0000   0.0000   0.0000   0.3235
   1.800   0.6242   0.01138   0.00406  -0.0467  0.5909  1.0000  -1.0643   0.0000   0.0000   0.0000   0.3218
   1.900   0.6348   0.01151   0.00417  -0.0466  0.5838  1.0000  -1.0890   0.0000   0.0000   0.0000   0.3203
   2.000   0.6452   0.01164   0.00426  -0.0465  0.5771  1.0000  -1.1139   0.0000   0.0000   0.0000   0.3187
   2.100   0.6557   0.01176   0.00437  -0.0463  0.5700  1.0000  -1.1388   0.0000   0.0000   0.0000   0.3173
   2.200   0.6662   0.01189   0.00449  -0.0462  0.5634  1.0000  -1.1653   0.0000   0.0000   0.0000   0.3158
   2.300   0.6766   0.01201   0.00460  -0.0461  0.5562  1.0000  -1.1931   0.0000   0.0000   0.0000   0.3145
   2.400   0.6871   0.01214   0.00470  -0.0459  0.5496  1.0000  -1.2212   0.0000   0.0000   0.0000   0.3131
   2.500   0.6975   0.01224   0.00482  -0.0458  0.5421  1.0000  -1.2493   0.0000   0.0000   0.0000   0.3118
   2.600   0.7079   0.01237   0.00491  -0.0457  0.5356  1.0000  -1.2788   0.0000   0.0000   0.0000   0.3105
   2.700   0.7183   0.01246   0.00503  -0.0455  0.5277  1.0000  -1.3101   0.0000   0.0000   0.0000   0.3092
   2.800   0.7287   0.01259   0.00511  -0.0454  0.5211  1.0000  -1.3419   0.0000   0.0000   0.0000   0.3080
   2.900   0.7391   0.01267   0.00523  -0.0452  0.5127  1.0000  -1.3746   0.0000   0.0000   0.0000   0.3068
   3.000   0.7494   0.01278   0.00534  -0.0451  0.5053  1.0000  -1.4100   0.0000   0.0000   0.0000   0.3056
   3.100   0.7597   0.01287   0.00543  -0.0449  0.4972  1.0000  -1.4456   0.0000   0.0000   0.0000   0.3044
   3.200   0.7700   0.01295   0.00553  -0.0448  0.4886  1.0000  -1.4841   0.0000   0.0000   0.0000   0.3033
   3.300   0.7802   0.01305   0.00560  -0.0446  0.4808  1.0000  -1.5239   0.0000   0.0000   0.0000   0.3022
   3.400   0.7904   0.01312   0.00570  -0.0444  0.4715  1.0000  -1.5666   0.0000   0.0000   0.0000   0.3011
   3.500   0.8006   0.01319   0.00579  -0.0443  0.4619  1.0000  -1.6184   0.0000   0.0000   0.0000   0.3001
   3.600   0.8108   0.01326   0.00587  -0.0441  0.4524  1.0000  -1.6772   0.0000   0.0000   0.0000   0.2990
   3.700   0.8209   0.01335   0.00593  -0.0439  0.4429  1.0000  -1.7399   0.0000   0.0000   0.0000   0.2980
   3.800   0.8310   0.01343   0.00601  -0.0437  0.4325  1.0000  -1.8053   0.0000   0.0000   0.0000   0.2970
   3.900   0.8410   0.01352   0.00613  -0.0436  0.4214  1.0000  -1.8766   0.0000   0.0000   0.0000   0.2960
   4.000   0.8510   0.01362   0.00622  -0.0434  0.4100  1.0000  -1.9494   0.0000   0.0000   0.0000   0.2950
   4.100   0.8608   0.01374   0.00633  -0.0432  0.3981  1.0000  -2.0227   0.0000   0.0000   0.0000   0.2941
   4.200   0.8706   0.01387   0.00644  -0.0430  0.3861  1.0000  -2.0965   0.0000   0.0000   0.0000   0.2931
   4.300   0.8803   0.01402   0.00656  -0.0428  0.3739  1.0000  -2.1708   0.0000   0.0000   0.0000   0.2922
   4.400   0.8900   0.01418   0.00670  -0.0426  0.3614  1.0000  -2.2455   0.0000   0.0000   0.0000   0.2913
   4.500   0.8995   0.01436   0.00684  -0.0423  0.3488  1.0000  -2.3271   0.0000   0.0000   0.0000   0.2904
   4.600   0.9090   0.01455   0.00700  -0.0421  0.3364  1.0000  -2.4099   0.0000   0.0000   0.0000   0.2895
   4.700   0.9184   0.01476   0.00719  -0.0419  0.3242  1.0000  -2.4932   0.0000   0.0000   0.0000   0.2887
   4.800   0.9277   0.01498   0.00737  -0.0417  0.3121  1.0000  -2.5770   0.0000   0.0000   0.0000   0.2878
   4.900   0.9370   0.01521   0.00756  -0.0415  0.3002  1.0000  -2.6613   0.0000   0.0000   0.0000   0.2870
   5.000   0.9462   0.01546   0.00776  -0.0413  0.2887  1.0000  -2.7460   0.0000   0.0000   0.0000   0.2862
   5.100   0.9553   0.01571   0.00798  -0.0411  0.2774  1.0000  -2.8314   0.0000   0.0000   0.0000   0.2854
   5.200   0.9645   0.01596   0.00820  -0.0409  0.2659  1.0000  -2.9176   0.0000   0.0000   0.0000   0.2846
   5.300   0.9737   0.01621   0.00844  -0.0406  0.2546  1.0000  -3.0043   0.0000   0.0000   0.0000   0.2838
   5.400   0.9828   0.01648   0.00869  -0.0404  0.2437  1.0000  -3.0913   0.0000   0.0000   0.0000   0.2831
   5.500   0.9918   0.01676   0.00894  -0.0402  0.2332  1.0000  -3.1785   0.0000   0.0000   0.0000   0.2823
   5.600   1.0006   0.01706   0.00920  -0.0400  0.2230  1.0000  -3.2657   0.0000   0.0000   0.0000   0.2816
   5.800   1.0182   0.01764   0.00975  -0.0395  0.2023  1.0000  -3.4564   0.0000   0.0000   0.0000   0.2801
   5.900   1.0270   0.01793   0.01004  -0.0393  0.1919  1.0000  -3.5534   0.0000   0.0000   0.0000   0.2794
   6.000   1.0356   0.01824   0.01034  -0.0390  0.1817  1.0000  -3.6503   0.0000   0.0000   0.0000   0.2787
   6.100   1.0440   0.01857   0.01063  -0.0388  0.1720  1.0000  -3.7467   0.0000   0.0000   0.0000   0.2780
   6.200   1.0522   0.01893   0.01093  -0.0385  0.1625  1.0000  -3.8428   0.0000   0.0000   0.0000   0.2773
   6.300   1.0607   0.01923   0.01125  -0.0383  0.1523  1.0000  -3.9408   0.0000   0.0000   0.0000   0.2766
   6.400   1.0692   0.01956   0.01157  -0.0380  0.1423  1.0000  -4.0380   0.0000   0.0000   0.0000   0.2759
   6.500   1.0774   0.01992   0.01192  -0.0377  0.1326  1.0000  -4.1336   0.0000   0.0000   0.0000   0.2752
   6.600   1.0852   0.02032   0.01229  -0.0374  0.1234  1.0000  -4.2272   0.0000   0.0000   0.0000   0.2745
   6.700   1.0925   0.02077   0.01269  -0.0371  0.1147  1.0000  -4.3189   0.0000   0.0000   0.0000   0.2738
   6.800   1.1003   0.02116   0.01309  -0.0367  0.1054  1.0000  -4.4115   0.0000   0.0000   0.0000   0.2731
   6.900   1.1078   0.02161   0.01354  -0.0364  0.0965  1.0000  -4.4992   0.0000   0.0000   0.0000   0.2724
   7.000   1.1146   0.02215   0.01405  -0.0359  0.0884  1.0000  -4.5810   0.0000   0.0000   0.0000   0.2716
   7.100   1.1202   0.02280   0.01460  -0.0354  0.0815  1.0000  -4.6586   0.0000   0.0000   0.0000   0.2708
   7.200   1.1278   0.02325   0.01512  -0.0349  0.0741  1.0000  -4.7384   0.0000   0.0000   0.0000   0.2701
   7.300   1.1333   0.02395   0.01578  -0.0343  0.0684  1.0000  -4.8056   0.0000   0.0000   0.0000   0.2692
   7.400   1.1400   0.02446   0.01630  -0.0338  0.0629  1.0000  -4.8827   0.0000   0.0000   0.0000   0.2684
   7.500   1.1448   0.02525   0.01705  -0.0331  0.0589  1.0000  -4.9433   0.0000   0.0000   0.0000   0.2676
   7.600   1.1517   0.02578   0.01765  -0.0326  0.0549  1.0000  -5.0116   0.0000   0.0000   0.0000   0.2668
   7.700   1.1572   0.02642   0.01826  -0.0320  0.0519  1.0000  -5.0823   0.0000   0.0000   0.0000   0.2660
   7.800   1.1619   0.02730   0.01912  -0.0313  0.0493  1.0000  -5.1351   0.0000   0.0000   0.0000   0.2651
   7.900   1.1689   0.02781   0.01974  -0.0308  0.0466  1.0000  -5.2018   0.0000   0.0000   0.0000   0.2643
   8.000   1.1751   0.02835   0.02031  -0.0303  0.0443  1.0000  -5.2751   0.0000   0.0000   0.0000   0.2636
   8.100   1.1803   0.02905   0.02097  -0.0298  0.0425  1.0000  -5.3537   0.0000   0.0000   0.0000   0.2628
   8.200   1.1847   0.03024   0.02212  -0.0291  0.0410  1.0000  -5.4096   0.0000   0.0000   0.0000   0.2620
   8.300   1.1916   0.03085   0.02285  -0.0285  0.0398  1.0000  -5.4808   0.0000   0.0000   0.0000   0.2612
   8.400   1.1981   0.03156   0.02365  -0.0279  0.0386  1.0000  -5.5505   0.0000   0.0000   0.0000   0.2604
   8.500   1.2044   0.03226   0.02442  -0.0274  0.0374  1.0000  -5.6231   0.0000   0.0000   0.0000   0.2597
   8.600   1.2104   0.03293   0.02513  -0.0269  0.0362  1.0000  -5.7016   0.0000   0.0000   0.0000   0.2590
   8.700   1.2162   0.03359   0.02580  -0.0264  0.0352  1.0000  -5.7860   0.0000   0.0000   0.0000   0.2583
   8.800   1.2218   0.03440   0.02659  -0.0260  0.0341  1.0000  -5.8710   0.0000   0.0000   0.0000   0.2577
   8.900   1.2278   0.03617   0.02832  -0.0257  0.0330  1.0000  -5.9261   0.0000   0.0000   0.0000   0.2572
   9.000   1.2328   0.03673   0.02903  -0.0250  0.0324  1.0000  -5.9916   0.0000   0.0000   0.0000   0.2564
   9.100   1.2378   0.03750   0.02994  -0.0243  0.0318  1.0000  -6.0511   0.0000   0.0000   0.0000   0.2556
   9.200   1.2428   0.03843   0.03100  -0.0237  0.0313  1.0000  -6.1048   0.0000   0.0000   0.0000   0.2549
   9.300   1.2475   0.03942   0.03211  -0.0231  0.0308  1.0000  -6.1553   0.0000   0.0000   0.0000   0.2542
   9.400   1.2516   0.04045   0.03326  -0.0224  0.0304  1.0000  -6.2028   0.0000   0.0000   0.0000   0.2534
   9.500   1.2552   0.04151   0.03444  -0.0217  0.0300  1.0000  -6.2471   0.0000   0.0000   0.0000   0.2527
   9.600   1.2583   0.04260   0.03567  -0.0210  0.0297  1.0000  -6.2882   0.0000   0.0000   0.0000   0.2519
   9.700   1.2608   0.04372   0.03691  -0.0203  0.0294  1.0000  -6.3257   0.0000   0.0000   0.0000   0.2511
   9.800   1.2626   0.04487   0.03817  -0.0195  0.0292  1.0000  -6.3594   0.0000   0.0000   0.0000   0.2503
   9.900   1.2634   0.04601   0.03943  -0.0187  0.0290  1.0000  -6.3884   0.0000   0.0000   0.0000   0.2495
  10.000   1.2633   0.04711   0.04064  -0.0177  0.0288  1.0000  -6.4150   0.0000   0.0000   0.0000   0.2486
  10.100   1.2628   0.04821   0.04184  -0.0168  0.0285  1.0000  -6.4417   0.0000   0.0000   0.0000   0.2477
  10.200   1.2620   0.04930   0.04302  -0.0159  0.0283  1.0000  -6.4692   0.0000   0.0000   0.0000   0.2468
  10.300   1.2610   0.05039   0.04420  -0.0151  0.0281  1.0000  -6.4978   0.0000   0.0000   0.0000   0.2460
  10.400   1.2589   0.05152   0.04541  -0.0142  0.0279  1.0000  -6.5206   0.0000   0.0000   0.0000   0.2452
  10.500   1.2566   0.05266   0.04664  -0.0135  0.0277  1.0000  -6.5432   0.0000   0.0000   0.0000   0.2445
  10.600   1.2541   0.05384   0.04790  -0.0129  0.0275  1.0000  -6.5655   0.0000   0.0000   0.0000   0.2439
  10.700   1.2514   0.05507   0.04921  -0.0123  0.0273  1.0000  -6.5866   0.0000   0.0000   0.0000   0.2433
  10.800   1.2484   0.05636   0.05057  -0.0119  0.0271  1.0000  -6.6060   0.0000   0.0000   0.0000   0.2428
  10.900   1.2453   0.05773   0.05201  -0.0115  0.0270  1.0000  -6.6231   0.0000   0.0000   0.0000   0.2423
  11.000   1.2418   0.05921   0.05356  -0.0112  0.0268  1.0000  -6.6345   0.0000   0.0000   0.0000   0.2419
  11.100   1.2375   0.06079   0.05522  -0.0110  0.0267  1.0000  -6.6378   0.0000   0.0000   0.0000   0.2416
  11.200   1.2324   0.06247   0.05699  -0.0109  0.0266  1.0000  -6.6331   0.0000   0.0000   0.0000   0.2414
  11.300   1.2268   0.06425   0.05885  -0.0110  0.0265  1.0000  -6.6216   0.0000   0.0000   0.0000   0.2413
  11.400   1.2205   0.06609   0.06079  -0.0111  0.0265  1.0000  -6.6047   0.0000   0.0000   0.0000   0.2413
  11.500   1.2139   0.06801   0.06280  -0.0114  0.0264  1.0000  -6.5834   0.0000   0.0000   0.0000   0.2415
  11.600   1.2069   0.07000   0.06489  -0.0119  0.0264  1.0000  -6.5582   0.0000   0.0000   0.0000   0.2418
  11.700   1.1995   0.07208   0.06707  -0.0126  0.0265  1.0000  -6.5285   0.0000   0.0000   0.0000   0.2422
  11.800   1.1917   0.07427   0.06936  -0.0134  0.0265  1.0000  -6.4935   0.0000   0.0000   0.0000   0.2428
  11.900   1.1833   0.07663   0.07183  -0.0145  0.0266  1.0000  -6.4503   0.0000   0.0000   0.0000   0.2436
  12.000   1.1738   0.07926   0.07457  -0.0160  0.0267  1.0000  -6.3925   0.0000   0.0000   0.0000   0.2448
  12.100   1.1622   0.08238   0.07783  -0.0178  0.0269  1.0000  -6.3056   0.0000   0.0000   0.0000   0.2464
  12.800   0.9230   0.10749   0.10370  -0.0205  0.0318  1.0000  -4.8901   0.0000   0.0000   0.0000   0.2536
  12.900   0.9107   0.11088   0.10713  -0.0223  0.0320  1.0000  -4.7977   0.0000   0.0000   0.0000   0.2558
  13.000   0.8986   0.11426   0.11056  -0.0240  0.0322  1.0000  -4.7015   0.0000   0.0000   0.0000   0.2581
  13.100   0.8864   0.11757   0.11389  -0.0257  0.0324  1.0000  -4.6023   0.0000   0.0000   0.0000   0.2604
  13.200   0.8745   0.12078   0.11712  -0.0272  0.0327  1.0000  -4.5015   0.0000   0.0000   0.0000   0.2626
  13.300   0.8628   0.12368   0.12004  -0.0285  0.0329  1.0000  -4.4017   0.0000   0.0000   0.0000   0.2646
  13.400   0.8471   0.12738   0.12381  -0.0307  0.0333  1.0000  -4.2499   0.0000   0.0000   0.0000   0.2681
  13.500   0.7255   0.15660   0.15294  -0.0439  0.0491  1.0000  -2.3794   0.0000   0.0000   0.0000   0.2967
  13.600   0.7261   0.15775   0.15411  -0.0439  0.0496  1.0000  -2.3849   0.0000   0.0000   0.0000   0.2966
  13.700   0.7277   0.15880   0.15517  -0.0438  0.0499  1.0000  -2.4018   0.0000   0.0000   0.0000   0.2961
  13.800   0.7306   0.15972   0.15610  -0.0435  0.0502  1.0000  -2.4351   0.0000   0.0000   0.0000   0.2952
  21.800   1.1390   0.31039   0.30652  -0.1519  0.0257  1.0000  -2.3260   0.0000   0.0000   0.0000   0.3559
  21.900   1.1411   0.31099   0.30712  -0.1541  0.0255  1.0000  -2.2629   0.0000   0.0000   0.0000   0.3574
  22.000   1.1439   0.31203   0.30814  -0.1560  0.0252  1.0000  -2.2077   0.0000   0.0000   0.0000   0.3587
  22.100   1.1471   0.31333   0.30945  -0.1575  0.0248  1.0000  -2.1769   0.0000   0.0000   0.0000   0.3594
  22.200   1.1503   0.31466   0.31080  -0.1587  0.0244  1.0000  -2.1624   0.0000   0.0000   0.0000   0.3599
  22.300   1.1535   0.31595   0.31209  -0.1598  0.0240  1.0000  -2.1552   0.0000   0.0000   0.0000   0.3603
  22.400   1.1567   0.31725   0.31339  -0.1609  0.0236  1.0000  -2.1520   0.0000   0.0000   0.0000   0.3606
  22.500   1.1598   0.31853   0.31468  -0.1619  0.0232  1.0000  -2.1515   0.0000   0.0000   0.0000   0.3609
  22.600   1.1630   0.31979   0.31593  -0.1629  0.0229  1.0000  -2.1532   0.0000   0.0000   0.0000   0.3612
  22.700   1.1661   0.32102   0.31717  -0.1639  0.0226  1.0000  -2.1568   0.0000   0.0000   0.0000   0.3614
  22.800   1.1692   0.32223   0.31838  -0.1649  0.0223  1.0000  -2.1623   0.0000   0.0000   0.0000   0.3617
  22.900   1.1723   0.32341   0.31958  -0.1658  0.0220  1.0000  -2.1699   0.0000   0.0000   0.0000   0.3619
  23.000   1.1754   0.32458   0.32075  -0.1667  0.0217  1.0000  -2.1799   0.0000   0.0000   0.0000   0.3620
  23.100   1.1785   0.32573   0.32191  -0.1676  0.0214  1.0000  -2.1925   0.0000   0.0000   0.0000   0.3622
  23.200   1.1816   0.32687   0.32305  -0.1685  0.0212  1.0000  -2.2084   0.0000   0.0000   0.0000   0.3623
  23.300   1.1846   0.32805   0.32423  -0.1693  0.0210  1.0000  -2.2283   0.0000   0.0000   0.0000   0.3623
  23.400   1.1877   0.32922   0.32541  -0.1700  0.0208  1.0000  -2.2532   0.0000   0.0000   0.0000   0.3623
  23.500   1.1907   0.33048   0.32668  -0.1706  0.0206  1.0000  -2.2851   0.0000   0.0000   0.0000   0.3621
  23.600   1.1939   0.33198   0.32819  -0.1709  0.0205  1.0000  -2.3273   0.0000   0.0000   0.0000   0.3618
  23.700   1.1976   0.33419   0.33042  -0.1708  0.0203  1.0000  -2.3883   0.0000   0.0000   0.0000   0.3609
  24.500   1.2205   0.34340   0.33961  -0.1817  0.0196  1.0000  -2.1812   0.0000   0.0000   0.0000   0.3655
  24.600   1.2237   0.34461   0.34083  -0.1831  0.0194  1.0000  -2.1610   0.0000   0.0000   0.0000   0.3661
  24.700   1.2269   0.34586   0.34208  -0.1843  0.0191  1.0000  -2.1507   0.0000   0.0000   0.0000   0.3665
  24.800   1.2300   0.34710   0.34333  -0.1855  0.0188  1.0000  -2.1467   0.0000   0.0000   0.0000   0.3668
  24.900   1.2331   0.34829   0.34451  -0.1866  0.0185  1.0000  -2.1468   0.0000   0.0000   0.0000   0.3671
  25.000   1.2361   0.34949   0.34574  -0.1876  0.0182  1.0000  -2.1497   0.0000   0.0000   0.0000   0.3674
  25.100   1.2391   0.35068   0.34693  -0.1887  0.0179  1.0000  -2.1548   0.0000   0.0000   0.0000   0.3676
  25.200   1.2421   0.35184   0.34810  -0.1897  0.0176  1.0000  -2.1618   0.0000   0.0000   0.0000   0.3678
  25.300   1.2450   0.35297   0.34924  -0.1908  0.0173  1.0000  -2.1709   0.0000   0.0000   0.0000   0.3680
  25.400   1.2479   0.35408   0.35035  -0.1918  0.0171  1.0000  -2.1820   0.0000   0.0000   0.0000   0.3682
  25.500   1.2507   0.35516   0.35144  -0.1928  0.0168  1.0000  -2.1954   0.0000   0.0000   0.0000   0.3684
  25.600   1.2535   0.35622   0.35251  -0.1937  0.0166  1.0000  -2.2114   0.0000   0.0000   0.0000   0.3685
  25.700   1.2563   0.35732   0.35361  -0.1947  0.0164  1.0000  -2.2302   0.0000   0.0000   0.0000   0.3687
  25.800   1.2590   0.35837   0.35467  -0.1956  0.0162  1.0000  -2.2524   0.0000   0.0000   0.0000   0.3688
  25.900   1.2617   0.35943   0.35573  -0.1964  0.0160  1.0000  -2.2786   0.0000   0.0000   0.0000   0.3688
  26.000   1.2643   0.36054   0.35685  -0.1972  0.0159  1.0000  -2.3096   0.0000   0.0000   0.0000   0.3688
  26.100   1.2670   0.36178   0.35811  -0.1978  0.0157  1.0000  -2.3472   0.0000   0.0000   0.0000   0.3686
  26.200   1.2696   0.36335   0.35969  -0.1982  0.0156  1.0000  -2.3941   0.0000   0.0000   0.0000   0.3683
  26.300   1.2727   0.36585   0.36220  -0.1982  0.0155  1.0000  -2.4585   0.0000   0.0000   0.0000   0.3676


