xflr5 v6.61

 Calculated polar for: AG35

 1 1 Reynolds number fixed          Mach number fixed         

 xtrf =   1.000 (top)        1.000 (bottom)
 Mach =   0.000     Re =     0.130 e 6     Ncrit =   9.000

  alpha     CL        CD       CDp       Cm    Top Xtr Bot Xtr   Cpmin    Chinge    XCp    
 ------- -------- --------- --------- -------- ------- ------- -------- --------- ---------
 -10.000  -0.4073   0.08922   0.08525  -0.0183  1.0000  0.0804  -1.7310   0.0000   0.0000   0.0000   0.2015
  -9.900  -0.4153   0.08758   0.08364  -0.0210  1.0000  0.0808  -1.8083   0.0000   0.0000   0.0000   0.1960
  -9.800  -0.4229   0.08586   0.08197  -0.0238  1.0000  0.0810  -1.8802   0.0000   0.0000   0.0000   0.1907
  -9.700  -0.4305   0.08404   0.08018  -0.0265  1.0000  0.0812  -1.9471   0.0000   0.0000   0.0000   0.1855
  -9.600  -0.4375   0.08191   0.07807  -0.0300  1.0000  0.0813  -2.0187   0.0000   0.0000   0.0000   0.1788
  -9.500  -0.4438   0.07951   0.07564  -0.0336  1.0000  0.0814  -2.1013   0.0000   0.0000   0.0000   0.1720
  -9.400  -0.4045   0.07875   0.07487  -0.0202  1.0000  0.0840  -1.7357   0.0000   0.0000   0.0000   0.1968
  -8.800  -0.4776   0.07615   0.07214  -0.0260  1.0000  0.0839  -2.0784   0.0000   0.0000   0.0000   0.1922
  -8.700  -0.4732   0.07505   0.07104  -0.0254  1.0000  0.0850  -2.0402   0.0000   0.0000   0.0000   0.1929
  -8.600  -0.4692   0.07372   0.06971  -0.0258  1.0000  0.0863  -2.0195   0.0000   0.0000   0.0000   0.1916
  -8.500  -0.4656   0.07214   0.06813  -0.0270  1.0000  0.0880  -2.0153   0.0000   0.0000   0.0000   0.1887
  -8.400  -0.4694   0.06817   0.06379  -0.0398  1.0000  0.0935  -2.3037   0.0000   0.0000   0.0000   0.1622
  -8.300  -0.4661   0.06561   0.06128  -0.0397  1.0000  0.0942  -2.2837   0.0000   0.0000   0.0000   0.1619
  -8.200  -0.4603   0.06422   0.06000  -0.0380  1.0000  0.0948  -2.2063   0.0000   0.0000   0.0000   0.1645
  -8.100  -0.4548   0.06325   0.05909  -0.0366  1.0000  0.0957  -2.1394   0.0000   0.0000   0.0000   0.1666
  -8.000  -0.4495   0.06233   0.05820  -0.0356  1.0000  0.0968  -2.0854   0.0000   0.0000   0.0000   0.1679
  -7.900  -0.4444   0.06127   0.05715  -0.0352  1.0000  0.0984  -2.0475   0.0000   0.0000   0.0000   0.1678
  -7.800  -0.4396   0.05994   0.05580  -0.0357  1.0000  0.1006  -2.0297   0.0000   0.0000   0.0000   0.1660
  -7.700  -0.4388   0.05668   0.05221  -0.0410  1.0000  0.1071  -2.1712   0.0000   0.0000   0.0000   0.1539
  -7.600  -0.4333   0.05546   0.05108  -0.0399  1.0000  0.1079  -2.1091   0.0000   0.0000   0.0000   0.1552
  -7.500  -0.4278   0.05464   0.05033  -0.0387  1.0000  0.1092  -2.0448   0.0000   0.0000   0.0000   0.1568
  -7.400  -0.4224   0.05389   0.04961  -0.0379  1.0000  0.1116  -1.9968   0.0000   0.0000   0.0000   0.1575
  -7.200  -0.4143   0.05065   0.04618  -0.0396  1.0000  0.1211  -2.0208   0.0000   0.0000   0.0000   0.1518
  -7.100  -0.4089   0.04990   0.04548  -0.0385  1.0000  0.1230  -1.9749   0.0000   0.0000   0.0000   0.1531
  -7.000  -0.4034   0.04898   0.04455  -0.0382  1.0000  0.1265  -1.9512   0.0000   0.0000   0.0000   0.1526
  -6.500  -0.3687   0.03447   0.02843  -0.0408  1.0000  0.0828  -2.4049   0.0000   0.0000   0.0000   0.1364
  -6.400  -0.3626   0.03395   0.02810  -0.0403  1.0000  0.0851  -2.3188   0.0000   0.0000   0.0000   0.1359
  -6.300  -0.3498   0.02819   0.02105  -0.0394  1.0000  0.0587  -2.7025   0.0000   0.0000   0.0000   0.1343
  -6.200  -0.3409   0.02797   0.02063  -0.0386  1.0000  0.0579  -2.6791   0.0000   0.0000   0.0000   0.1336
  -6.100  -0.3328   0.02682   0.01937  -0.0382  1.0000  0.0575  -2.6566   0.0000   0.0000   0.0000   0.1322
  -6.000  -0.3245   0.02603   0.01841  -0.0377  1.0000  0.0577  -2.6306   0.0000   0.0000   0.0000   0.1308
  -5.900  -0.3163   0.02474   0.01698  -0.0374  1.0000  0.0583  -2.6089   0.0000   0.0000   0.0000   0.1287
  -5.800  -0.3080   0.02363   0.01579  -0.0371  1.0000  0.0593  -2.5664   0.0000   0.0000   0.0000   0.1262
  -5.700  -0.2995   0.02294   0.01506  -0.0368  1.0000  0.0604  -2.5137   0.0000   0.0000   0.0000   0.1239
  -5.600  -0.2906   0.02231   0.01436  -0.0364  1.0000  0.0611  -2.4665   0.0000   0.0000   0.0000   0.1214
  -5.500  -0.2813   0.02164   0.01358  -0.0360  1.0000  0.0614  -2.4272   0.0000   0.0000   0.0000   0.1186
  -5.400  -0.2719   0.02102   0.01287  -0.0356  1.0000  0.0619  -2.3883   0.0000   0.0000   0.0000   0.1155
  -5.300  -0.2624   0.02046   0.01222  -0.0353  1.0000  0.0626  -2.3562   0.0000   0.0000   0.0000   0.1121
  -5.200  -0.2528   0.01993   0.01162  -0.0349  1.0000  0.0635  -2.3219   0.0000   0.0000   0.0000   0.1083
  -5.100  -0.2432   0.01945   0.01106  -0.0346  1.0000  0.0647  -2.2853   0.0000   0.0000   0.0000   0.1041
  -5.000  -0.2336   0.01909   0.01062  -0.0342  1.0000  0.0668  -2.2440   0.0000   0.0000   0.0000   0.0996
  -4.900  -0.2240   0.01886   0.01025  -0.0338  1.0000  0.0688  -2.2029   0.0000   0.0000   0.0000   0.0950
  -4.800  -0.2138   0.01816   0.00957  -0.0337  1.0000  0.0710  -2.1600   0.0000   0.0000   0.0000   0.0882
  -4.700  -0.2041   0.01772   0.00917  -0.0335  1.0000  0.0733  -2.1080   0.0000   0.0000   0.0000   0.0813
  -4.600  -0.1942   0.01737   0.00881  -0.0333  1.0000  0.0757  -2.0598   0.0000   0.0000   0.0000   0.0740
  -4.500  -0.1842   0.01705   0.00846  -0.0331  1.0000  0.0785  -2.0139   0.0000   0.0000   0.0000   0.0659
  -4.400  -0.1741   0.01673   0.00810  -0.0329  1.0000  0.0822  -1.9665   0.0000   0.0000   0.0000   0.0563
  -4.300  -0.1640   0.01635   0.00783  -0.0329  1.0000  0.0872  -1.9066   0.0000   0.0000   0.0000   0.0445
  -4.200  -0.1538   0.01613   0.00757  -0.0327  1.0000  0.0928  -1.8657   0.0000   0.0000   0.0000   0.0320
  -4.100  -0.1433   0.01571   0.00725  -0.0327  1.0000  0.0988  -1.8235   0.0000   0.0000   0.0000   0.0157
  -4.000  -0.1328   0.01543   0.00700  -0.0327  1.0000  0.1079  -1.7821   0.0000   0.0000   0.0000  -0.0024
  -3.900  -0.1223   0.01513   0.00677  -0.0327  1.0000  0.1207  -1.7374   0.0000   0.0000   0.0000  -0.0244
  -3.800  -0.1114   0.01475   0.00653  -0.0329  1.0000  0.1407  -1.6942   0.0000   0.0000   0.0000  -0.0525
  -3.700  -0.0996   0.01417   0.00630  -0.0333  1.0000  0.1909  -1.6512   0.0000   0.0000   0.0000  -0.0924
  -3.600  -0.0836   0.01331   0.00616  -0.0347  0.9986  0.3341  -1.5876   0.0000   0.0000   0.0000  -0.1746
  -3.500  -0.0672   0.01266   0.00612  -0.0360  0.9965  0.4722  -1.5088   0.0000   0.0000   0.0000  -0.2978
  -3.400  -0.0534   0.01201   0.00617  -0.0363  0.9948  0.6345  -1.4340   0.0000   0.0000   0.0000  -0.4449
  -3.300  -0.0449   0.01150   0.00628  -0.0345  0.9921  0.8204  -1.3727   0.0000   0.0000   0.0000  -0.5361
  -3.200  -0.0160   0.01132   0.00615  -0.0375  0.9886  1.0000  -1.2540   0.0000   0.0000   0.0000  -2.1438
  -3.100   0.0052   0.01137   0.00607  -0.0396  0.9855  1.0000  -1.1648   0.0000   0.0000   0.0000   8.0141
  -3.000   0.0241   0.01139   0.00598  -0.0413  0.9808  1.0000  -1.0889   0.0000   0.0000   0.0000   1.9935
  -2.900   0.0444   0.01142   0.00590  -0.0432  0.9768  1.0000  -1.0099   0.0000   0.0000   0.0000   1.2388
  -2.800   0.0663   0.01143   0.00582  -0.0454  0.9738  1.0000  -0.9279   0.0000   0.0000   0.0000   0.9453
  -2.700   0.0842   0.01144   0.00573  -0.0468  0.9683  1.0000  -0.8571   0.0000   0.0000   0.0000   0.8142
  -2.600   0.1050   0.01143   0.00565  -0.0487  0.9642  1.0000  -0.7802   0.0000   0.0000   0.0000   0.7210
  -2.500   0.1278   0.01141   0.00555  -0.0511  0.9613  1.0000  -0.6997   0.0000   0.0000   0.0000   0.6552
  -2.400   0.1453   0.01139   0.00547  -0.0523  0.9553  1.0000  -0.6386   0.0000   0.0000   0.0000   0.6149
  -2.300   0.1655   0.01135   0.00538  -0.0541  0.9509  1.0000  -0.5745   0.0000   0.0000   0.0000   0.5809
  -2.200   0.1858   0.01131   0.00528  -0.0558  0.9469  1.0000  -0.5112   0.0000   0.0000   0.0000   0.5540
  -2.100   0.2015   0.01128   0.00520  -0.0566  0.9399  1.0000  -0.4586   0.0000   0.0000   0.0000   0.5342
  -2.000   0.2209   0.01122   0.00510  -0.0582  0.9355  1.0000  -0.4717   0.0000   0.0000   0.0000   0.5159
  -1.900   0.2349   0.01120   0.00503  -0.0586  0.9278  1.0000  -0.4840   0.0000   0.0000   0.0000   0.5017
  -1.800   0.2521   0.01113   0.00493  -0.0596  0.9223  1.0000  -0.4989   0.0000   0.0000   0.0000   0.4883
  -1.700   0.2647   0.01111   0.00487  -0.0596  0.9139  1.0000  -0.5110   0.0000   0.0000   0.0000   0.4772
  -1.600   0.2800   0.01105   0.00476  -0.0602  0.9081  1.0000  -0.5252   0.0000   0.0000   0.0000   0.4665
  -1.500   0.2908   0.01103   0.00471  -0.0599  0.8985  1.0000  -0.5369   0.0000   0.0000   0.0000   0.4573
  -1.400   0.3025   0.01100   0.00465  -0.0597  0.8902  1.0000  -0.5493   0.0000   0.0000   0.0000   0.4485
  -1.300   0.3142   0.01096   0.00456  -0.0594  0.8825  1.0000  -0.5617   0.0000   0.0000   0.0000   0.4402
  -1.200   0.3241   0.01095   0.00452  -0.0589  0.8727  1.0000  -0.5735   0.0000   0.0000   0.0000   0.4327
  -1.100   0.3342   0.01094   0.00447  -0.0584  0.8634  1.0000  -0.5856   0.0000   0.0000   0.0000   0.4255
  -1.000   0.3443   0.01093   0.00441  -0.0579  0.8547  1.0000  -0.5978   0.0000   0.0000   0.0000   0.4186
  -0.900   0.3541   0.01092   0.00436  -0.0573  0.8456  1.0000  -0.6103   0.0000   0.0000   0.0000   0.4122
  -0.800   0.3636   0.01093   0.00433  -0.0567  0.8353  1.0000  -0.6227   0.0000   0.0000   0.0000   0.4062
  -0.700   0.3732   0.01095   0.00430  -0.0561  0.8256  1.0000  -0.6352   0.0000   0.0000   0.0000   0.4006
  -0.600   0.3830   0.01096   0.00425  -0.0556  0.8167  1.0000  -0.6480   0.0000   0.0000   0.0000   0.3952
  -0.500   0.3928   0.01097   0.00422  -0.0550  0.8079  1.0000  -0.6609   0.0000   0.0000   0.0000   0.3900
  -0.400   0.4025   0.01101   0.00421  -0.0546  0.7982  1.0000  -0.6741   0.0000   0.0000   0.0000   0.3853
  -0.300   0.4124   0.01105   0.00419  -0.0541  0.7894  1.0000  -0.6878   0.0000   0.0000   0.0000   0.3808
  -0.200   0.4223   0.01109   0.00418  -0.0536  0.7809  1.0000  -0.7016   0.0000   0.0000   0.0000   0.3764
  -0.100   0.4322   0.01114   0.00419  -0.0532  0.7713  1.0000  -0.7153   0.0000   0.0000   0.0000   0.3725
   0.000   0.4422   0.01120   0.00420  -0.0528  0.7627  1.0000  -0.7293   0.0000   0.0000   0.0000   0.3686
   0.100   0.4523   0.01125   0.00419  -0.0524  0.7545  1.0000  -0.7441   0.0000   0.0000   0.0000   0.3649
   0.200   0.4623   0.01131   0.00422  -0.0521  0.7451  1.0000  -0.7589   0.0000   0.0000   0.0000   0.3616
   0.300   0.4725   0.01137   0.00423  -0.0517  0.7370  1.0000  -0.7741   0.0000   0.0000   0.0000   0.3583
   0.400   0.4826   0.01143   0.00424  -0.0514  0.7287  1.0000  -0.7892   0.0000   0.0000   0.0000   0.3552
   0.500   0.4928   0.01150   0.00428  -0.0511  0.7200  1.0000  -0.8053   0.0000   0.0000   0.0000   0.3523
   0.600   0.5031   0.01156   0.00430  -0.0508  0.7127  1.0000  -0.8218   0.0000   0.0000   0.0000   0.3494
   0.700   0.5133   0.01162   0.00434  -0.0505  0.7040  1.0000  -0.8383   0.0000   0.0000   0.0000   0.3468
   0.800   0.5237   0.01168   0.00438  -0.0503  0.6961  1.0000  -0.8558   0.0000   0.0000   0.0000   0.3443
   0.900   0.5340   0.01175   0.00439  -0.0500  0.6889  1.0000  -0.8739   0.0000   0.0000   0.0000   0.3418
   1.000   0.5444   0.01181   0.00444  -0.0498  0.6803  1.0000  -0.8925   0.0000   0.0000   0.0000   0.3395
   1.100   0.5548   0.01187   0.00447  -0.0496  0.6726  1.0000  -0.9122   0.0000   0.0000   0.0000   0.3372
   1.200   0.5651   0.01193   0.00450  -0.0493  0.6652  1.0000  -0.9321   0.0000   0.0000   0.0000   0.3350
   1.300   0.5756   0.01199   0.00455  -0.0491  0.6567  1.0000  -0.9520   0.0000   0.0000   0.0000   0.3330
   1.400   0.5860   0.01205   0.00460  -0.0489  0.6493  1.0000  -0.9731   0.0000   0.0000   0.0000   0.3310
   1.500   0.5963   0.01212   0.00462  -0.0487  0.6419  1.0000  -0.9952   0.0000   0.0000   0.0000   0.3290
   1.600   0.6067   0.01220   0.00467  -0.0484  0.6344  1.0000  -1.0172   0.0000   0.0000   0.0000   0.3271
   1.700   0.6171   0.01229   0.00470  -0.0482  0.6278  1.0000  -1.0396   0.0000   0.0000   0.0000   0.3252
   1.800   0.6274   0.01239   0.00478  -0.0480  0.6197  1.0000  -1.0634   0.0000   0.0000   0.0000   0.3235
   1.900   0.6378   0.01251   0.00485  -0.0477  0.6127  1.0000  -1.0881   0.0000   0.0000   0.0000   0.3218
   2.000   0.6481   0.01263   0.00494  -0.0475  0.6051  1.0000  -1.1127   0.0000   0.0000   0.0000   0.3201
   2.100   0.6585   0.01277   0.00505  -0.0474  0.5975  1.0000  -1.1375   0.0000   0.0000   0.0000   0.3186
   2.200   0.6688   0.01291   0.00516  -0.0471  0.5903  1.0000  -1.1638   0.0000   0.0000   0.0000   0.3170
   2.300   0.6792   0.01305   0.00529  -0.0470  0.5823  1.0000  -1.1913   0.0000   0.0000   0.0000   0.3156
   2.400   0.6895   0.01321   0.00539  -0.0468  0.5755  1.0000  -1.2193   0.0000   0.0000   0.0000   0.3141
   2.500   0.6998   0.01334   0.00554  -0.0466  0.5670  1.0000  -1.2470   0.0000   0.0000   0.0000   0.3128
   2.600   0.7101   0.01350   0.00566  -0.0464  0.5599  1.0000  -1.2762   0.0000   0.0000   0.0000   0.3114
   2.700   0.7203   0.01363   0.00579  -0.0462  0.5517  1.0000  -1.3073   0.0000   0.0000   0.0000   0.3101
   2.800   0.7306   0.01377   0.00592  -0.0460  0.5438  1.0000  -1.3385   0.0000   0.0000   0.0000   0.3088
   2.900   0.7408   0.01391   0.00603  -0.0458  0.5362  1.0000  -1.3711   0.0000   0.0000   0.0000   0.3075
   3.000   0.7510   0.01403   0.00619  -0.0457  0.5275  1.0000  -1.4058   0.0000   0.0000   0.0000   0.3063
   3.100   0.7612   0.01416   0.00630  -0.0454  0.5197  1.0000  -1.4413   0.0000   0.0000   0.0000   0.3051
   3.200   0.7713   0.01427   0.00642  -0.0452  0.5109  1.0000  -1.4792   0.0000   0.0000   0.0000   0.3039
   3.300   0.7813   0.01438   0.00655  -0.0450  0.5019  1.0000  -1.5183   0.0000   0.0000   0.0000   0.3028
   3.400   0.7914   0.01450   0.00664  -0.0448  0.4937  1.0000  -1.5608   0.0000   0.0000   0.0000   0.3016
   3.500   0.8014   0.01459   0.00675  -0.0446  0.4840  1.0000  -1.6104   0.0000   0.0000   0.0000   0.3005
   3.600   0.8114   0.01468   0.00686  -0.0444  0.4741  1.0000  -1.6683   0.0000   0.0000   0.0000   0.2994
   3.700   0.8214   0.01477   0.00696  -0.0441  0.4643  1.0000  -1.7291   0.0000   0.0000   0.0000   0.2983
   3.800   0.8313   0.01485   0.00704  -0.0439  0.4544  1.0000  -1.7940   0.0000   0.0000   0.0000   0.2972
   3.900   0.8412   0.01494   0.00713  -0.0436  0.4444  1.0000  -1.8624   0.0000   0.0000   0.0000   0.2961
   4.000   0.8510   0.01502   0.00723  -0.0434  0.4331  1.0000  -1.9343   0.0000   0.0000   0.0000   0.2951
   4.100   0.8607   0.01512   0.00733  -0.0432  0.4216  1.0000  -2.0069   0.0000   0.0000   0.0000   0.2941
   4.200   0.8704   0.01523   0.00744  -0.0429  0.4098  1.0000  -2.0799   0.0000   0.0000   0.0000   0.2931
   4.300   0.8800   0.01536   0.00755  -0.0427  0.3978  1.0000  -2.1535   0.0000   0.0000   0.0000   0.2921
   4.400   0.8896   0.01550   0.00768  -0.0424  0.3854  1.0000  -2.2274   0.0000   0.0000   0.0000   0.2912
   4.500   0.8990   0.01566   0.00782  -0.0421  0.3730  1.0000  -2.3045   0.0000   0.0000   0.0000   0.2902
   4.600   0.9084   0.01584   0.00797  -0.0419  0.3606  1.0000  -2.3863   0.0000   0.0000   0.0000   0.2893
   4.700   0.9177   0.01604   0.00814  -0.0416  0.3481  1.0000  -2.4685   0.0000   0.0000   0.0000   0.2884
   4.800   0.9269   0.01625   0.00833  -0.0413  0.3356  1.0000  -2.5511   0.0000   0.0000   0.0000   0.2875
   4.900   0.9361   0.01648   0.00853  -0.0411  0.3234  1.0000  -2.6342   0.0000   0.0000   0.0000   0.2867
   5.000   0.9451   0.01673   0.00874  -0.0408  0.3115  1.0000  -2.7176   0.0000   0.0000   0.0000   0.2858
   5.100   0.9541   0.01699   0.00895  -0.0405  0.2997  1.0000  -2.8014   0.0000   0.0000   0.0000   0.2850
   5.200   0.9630   0.01726   0.00918  -0.0403  0.2882  1.0000  -2.8856   0.0000   0.0000   0.0000   0.2841
   5.300   0.9718   0.01755   0.00942  -0.0400  0.2771  1.0000  -2.9700   0.0000   0.0000   0.0000   0.2833
   5.400   0.9807   0.01783   0.00969  -0.0397  0.2655  1.0000  -3.0550   0.0000   0.0000   0.0000   0.2825
   5.500   0.9895   0.01812   0.00996  -0.0395  0.2540  1.0000  -3.1403   0.0000   0.0000   0.0000   0.2817
   5.600   0.9983   0.01842   0.01025  -0.0392  0.2428  1.0000  -3.2256   0.0000   0.0000   0.0000   0.2810
   5.700   1.0069   0.01874   0.01057  -0.0389  0.2319  1.0000  -3.3108   0.0000   0.0000   0.0000   0.2802
   5.800   1.0153   0.01908   0.01087  -0.0386  0.2214  1.0000  -3.4037   0.0000   0.0000   0.0000   0.2794
   5.900   1.0236   0.01943   0.01118  -0.0383  0.2111  1.0000  -3.4969   0.0000   0.0000   0.0000   0.2787
   6.000   1.0318   0.01979   0.01149  -0.0380  0.2008  1.0000  -3.5903   0.0000   0.0000   0.0000   0.2779
   6.100   1.0401   0.02012   0.01184  -0.0377  0.1900  1.0000  -3.6839   0.0000   0.0000   0.0000   0.2772
   6.200   1.0483   0.02047   0.01219  -0.0374  0.1794  1.0000  -3.7769   0.0000   0.0000   0.0000   0.2764
   6.300   1.0563   0.02085   0.01255  -0.0371  0.1692  1.0000  -3.8692   0.0000   0.0000   0.0000   0.2757
   6.400   1.0641   0.02125   0.01292  -0.0367  0.1595  1.0000  -3.9610   0.0000   0.0000   0.0000   0.2750
   6.500   1.0715   0.02167   0.01328  -0.0364  0.1501  1.0000  -4.0522   0.0000   0.0000   0.0000   0.2742
   6.600   1.0792   0.02205   0.01367  -0.0360  0.1401  1.0000  -4.1431   0.0000   0.0000   0.0000   0.2735
   6.700   1.0868   0.02246   0.01411  -0.0357  0.1301  1.0000  -4.2318   0.0000   0.0000   0.0000   0.2728
   6.800   1.0940   0.02293   0.01457  -0.0353  0.1207  1.0000  -4.3172   0.0000   0.0000   0.0000   0.2720
   6.900   1.1008   0.02346   0.01506  -0.0348  0.1120  1.0000  -4.3998   0.0000   0.0000   0.0000   0.2712
   7.000   1.1069   0.02404   0.01554  -0.0343  0.1041  1.0000  -4.4812   0.0000   0.0000   0.0000   0.2705
   7.100   1.1141   0.02451   0.01608  -0.0339  0.0953  1.0000  -4.5594   0.0000   0.0000   0.0000   0.2697
   7.200   1.1203   0.02516   0.01672  -0.0333  0.0879  1.0000  -4.6294   0.0000   0.0000   0.0000   0.2689
   7.300   1.1256   0.02587   0.01732  -0.0328  0.0819  1.0000  -4.7018   0.0000   0.0000   0.0000   0.2681
   7.400   1.1325   0.02644   0.01799  -0.0322  0.0755  1.0000  -4.7662   0.0000   0.0000   0.0000   0.2673
   7.500   1.1373   0.02728   0.01870  -0.0316  0.0710  1.0000  -4.8327   0.0000   0.0000   0.0000   0.2665
   7.600   1.1443   0.02786   0.01941  -0.0310  0.0661  1.0000  -4.8920   0.0000   0.0000   0.0000   0.2656
   7.700   1.1502   0.02848   0.01999  -0.0305  0.0622  1.0000  -4.9638   0.0000   0.0000   0.0000   0.2649
   7.800   1.1557   0.02943   0.02090  -0.0299  0.0591  1.0000  -5.0191   0.0000   0.0000   0.0000   0.2641
   7.900   1.1626   0.03009   0.02169  -0.0293  0.0562  1.0000  -5.0731   0.0000   0.0000   0.0000   0.2632
   8.000   1.1690   0.03074   0.02236  -0.0288  0.0536  1.0000  -5.1384   0.0000   0.0000   0.0000   0.2625
   8.100   1.1749   0.03157   0.02312  -0.0284  0.0513  1.0000  -5.2086   0.0000   0.0000   0.0000   0.2619
   8.200   1.1812   0.03260   0.02420  -0.0279  0.0493  1.0000  -5.2705   0.0000   0.0000   0.0000   0.2611
   8.300   1.1877   0.03326   0.02499  -0.0273  0.0474  1.0000  -5.3382   0.0000   0.0000   0.0000   0.2604
   8.400   1.1941   0.03398   0.02580  -0.0268  0.0456  1.0000  -5.4094   0.0000   0.0000   0.0000   0.2596
   8.500   1.2006   0.03476   0.02662  -0.0263  0.0443  1.0000  -5.4830   0.0000   0.0000   0.0000   0.2590
   8.600   1.2073   0.03561   0.02746  -0.0259  0.0431  1.0000  -5.5605   0.0000   0.0000   0.0000   0.2583
   8.700   1.2145   0.03679   0.02861  -0.0257  0.0420  1.0000  -5.6357   0.0000   0.0000   0.0000   0.2578
   8.800   1.2217   0.03848   0.03034  -0.0254  0.0410  1.0000  -5.6851   0.0000   0.0000   0.0000   0.2574
   8.900   1.2265   0.03930   0.03134  -0.0247  0.0403  1.0000  -5.7337   0.0000   0.0000   0.0000   0.2565
   9.000   1.2310   0.04021   0.03242  -0.0240  0.0395  1.0000  -5.7805   0.0000   0.0000   0.0000   0.2557
   9.100   1.2352   0.04116   0.03352  -0.0233  0.0386  1.0000  -5.8279   0.0000   0.0000   0.0000   0.2549
   9.200   1.2390   0.04211   0.03460  -0.0226  0.0378  1.0000  -5.8779   0.0000   0.0000   0.0000   0.2542
   9.300   1.2428   0.04304   0.03565  -0.0220  0.0370  1.0000  -5.9320   0.0000   0.0000   0.0000   0.2534
   9.400   1.2467   0.04398   0.03667  -0.0214  0.0363  1.0000  -5.9893   0.0000   0.0000   0.0000   0.2528
   9.500   1.2498   0.04501   0.03780  -0.0207  0.0357  1.0000  -6.0389   0.0000   0.0000   0.0000   0.2520
   9.600   1.2524   0.04614   0.03904  -0.0200  0.0353  1.0000  -6.0806   0.0000   0.0000   0.0000   0.2513
   9.700   1.2545   0.04732   0.04031  -0.0194  0.0350  1.0000  -6.1193   0.0000   0.0000   0.0000   0.2506
   9.800   1.2561   0.04854   0.04165  -0.0187  0.0347  1.0000  -6.1548   0.0000   0.0000   0.0000   0.2499
   9.900   1.2572   0.04981   0.04303  -0.0180  0.0344  1.0000  -6.1863   0.0000   0.0000   0.0000   0.2491
  10.000   1.2576   0.05115   0.04447  -0.0172  0.0342  1.0000  -6.2122   0.0000   0.0000   0.0000   0.2484
  10.100   1.2565   0.05249   0.04592  -0.0164  0.0340  1.0000  -6.2289   0.0000   0.0000   0.0000   0.2476
  10.200   1.2542   0.05385   0.04738  -0.0154  0.0339  1.0000  -6.2385   0.0000   0.0000   0.0000   0.2467
  10.300   1.2511   0.05524   0.04888  -0.0144  0.0338  1.0000  -6.2421   0.0000   0.0000   0.0000   0.2458
  10.400   1.2472   0.05665   0.05041  -0.0135  0.0338  1.0000  -6.2403   0.0000   0.0000   0.0000   0.2449
  10.500   1.2425   0.05809   0.05196  -0.0127  0.0337  1.0000  -6.2336   0.0000   0.0000   0.0000   0.2441
  10.600   1.2371   0.05956   0.05355  -0.0119  0.0337  1.0000  -6.2225   0.0000   0.0000   0.0000   0.2434
  10.700   1.2311   0.06107   0.05518  -0.0113  0.0337  1.0000  -6.2071   0.0000   0.0000   0.0000   0.2428
  10.800   1.2246   0.06265   0.05687  -0.0108  0.0338  1.0000  -6.1875   0.0000   0.0000   0.0000   0.2423
  10.900   1.2175   0.06430   0.05864  -0.0105  0.0338  1.0000  -6.1633   0.0000   0.0000   0.0000   0.2420
  11.000   1.2099   0.06605   0.06051  -0.0104  0.0339  1.0000  -6.1337   0.0000   0.0000   0.0000   0.2417
  11.100   1.2016   0.06793   0.06251  -0.0105  0.0340  1.0000  -6.0976   0.0000   0.0000   0.0000   0.2417
  11.200   1.1925   0.06997   0.06468  -0.0108  0.0341  1.0000  -6.0532   0.0000   0.0000   0.0000   0.2419
  11.300   1.1824   0.07223   0.06706  -0.0114  0.0343  1.0000  -5.9988   0.0000   0.0000   0.0000   0.2424
  11.400   1.1712   0.07473   0.06970  -0.0123  0.0345  1.0000  -5.9337   0.0000   0.0000   0.0000   0.2431
  11.500   1.1581   0.07763   0.07274  -0.0137  0.0347  1.0000  -5.8501   0.0000   0.0000   0.0000   0.2443
  11.600   1.1392   0.08153   0.07681  -0.0162  0.0351  1.0000  -5.7137   0.0000   0.0000   0.0000   0.2465
  11.700   1.1213   0.08571   0.08112  -0.0190  0.0356  1.0000  -5.5801   0.0000   0.0000   0.0000   0.2492
  11.800   1.1044   0.09009   0.08563  -0.0220  0.0360  1.0000  -5.4486   0.0000   0.0000   0.0000   0.2521
  11.900   1.0878   0.09471   0.09036  -0.0253  0.0364  1.0000  -5.3149   0.0000   0.0000   0.0000   0.2553
  12.000   1.0711   0.09961   0.09534  -0.0287  0.0369  1.0000  -5.1751   0.0000   0.0000   0.0000   0.2589
  12.100   1.0544   0.10484   0.10065  -0.0323  0.0374  1.0000  -5.0260   0.0000   0.0000   0.0000   0.2628
  12.200   1.0377   0.11041   0.10627  -0.0361  0.0380  1.0000  -4.8666   0.0000   0.0000   0.0000   0.2670
  12.300   1.0217   0.11613   0.11203  -0.0398  0.0386  1.0000  -4.7010   0.0000   0.0000   0.0000   0.2713
  12.400   1.0074   0.12169   0.11761  -0.0432  0.0393  1.0000  -4.5407   0.0000   0.0000   0.0000   0.2754
  12.500   0.9962   0.12665   0.12258  -0.0459  0.0398  1.0000  -4.4040   0.0000   0.0000   0.0000   0.2787
  12.600   0.9875   0.13101   0.12693  -0.0482  0.0403  1.0000  -4.2915   0.0000   0.0000   0.0000   0.2815
  12.700   0.9807   0.13488   0.13079  -0.0500  0.0406  1.0000  -4.1981   0.0000   0.0000   0.0000   0.2837
  12.800   0.9754   0.13838   0.13427  -0.0515  0.0409  1.0000  -4.1206   0.0000   0.0000   0.0000   0.2856
  12.900   0.9715   0.14150   0.13739  -0.0528  0.0411  1.0000  -4.0589   0.0000   0.0000   0.0000   0.2871
  13.700   0.7054   0.17175   0.16768  -0.0476  0.0922  1.0000  -1.8072   0.0000   0.0000   0.0000   0.3052
  13.800   0.6954   0.17260   0.16852  -0.0491  0.0918  1.0000  -1.7291   0.0000   0.0000   0.0000   0.3085
  13.900   0.6860   0.17351   0.16941  -0.0507  0.0907  1.0000  -1.6525   0.0000   0.0000   0.0000   0.3119
  14.000   0.6823   0.17465   0.17055  -0.0516  0.0891  1.0000  -1.6163   0.0000   0.0000   0.0000   0.3137
  14.100   0.6813   0.17581   0.17171  -0.0522  0.0878  1.0000  -1.6018   0.0000   0.0000   0.0000   0.3146
  14.200   0.6815   0.17694   0.17285  -0.0526  0.0865  1.0000  -1.5976   0.0000   0.0000   0.0000   0.3151
  14.300   0.6827   0.17804   0.17396  -0.0528  0.0854  1.0000  -1.6017   0.0000   0.0000   0.0000   0.3152
  14.400   0.6850   0.17913   0.17505  -0.0529  0.0844  1.0000  -1.6149   0.0000   0.0000   0.0000   0.3150
  14.500   0.6888   0.18029   0.17622  -0.0528  0.0835  1.0000  -1.6406   0.0000   0.0000   0.0000   0.3142
  14.600   0.7193   0.18407   0.18005  -0.0493  0.0816  1.0000  -1.8630   0.0000   0.0000   0.0000   0.3054
  14.700   0.7133   0.18511   0.18109  -0.0506  0.0815  1.0000  -1.8050   0.0000   0.0000   0.0000   0.3078
  14.800   0.7065   0.18596   0.18192  -0.0519  0.0813  1.0000  -1.7420   0.0000   0.0000   0.0000   0.3104
  14.900   0.6986   0.18652   0.18247  -0.0533  0.0811  1.0000  -1.6753   0.0000   0.0000   0.0000   0.3133
  15.000   0.6906   0.18712   0.18306  -0.0548  0.0806  1.0000  -1.6044   0.0000   0.0000   0.0000   0.3165
  15.100   0.6847   0.18799   0.18392  -0.0562  0.0793  1.0000  -1.5439   0.0000   0.0000   0.0000   0.3194
  15.200   0.6830   0.18909   0.18502  -0.0570  0.0776  1.0000  -1.5186   0.0000   0.0000   0.0000   0.3207
  15.300   0.6833   0.19017   0.18611  -0.0575  0.0760  1.0000  -1.5128   0.0000   0.0000   0.0000   0.3213
  15.400   0.6849   0.19121   0.18715  -0.0577  0.0745  1.0000  -1.5199   0.0000   0.0000   0.0000   0.3214
  15.500   0.6879   0.19221   0.18817  -0.0578  0.0732  1.0000  -1.5410   0.0000   0.0000   0.0000   0.3209
  15.600   0.6926   0.19336   0.18933  -0.0575  0.0722  1.0000  -1.5768   0.0000   0.0000   0.0000   0.3197
  15.700   0.7005   0.19504   0.19104  -0.0569  0.0715  1.0000  -1.6348   0.0000   0.0000   0.0000   0.3175
  15.800   0.7196   0.19954   0.19556  -0.0550  0.0707  1.0000  -1.7595   0.0000   0.0000   0.0000   0.3123
  15.900   0.7144   0.20023   0.19624  -0.0562  0.0706  1.0000  -1.7045   0.0000   0.0000   0.0000   0.3146
  16.000   0.7078   0.20062   0.19662  -0.0575  0.0704  1.0000  -1.6430   0.0000   0.0000   0.0000   0.3172
  16.100   0.7008   0.20093   0.19693  -0.0589  0.0702  1.0000  -1.5776   0.0000   0.0000   0.0000   0.3201
  16.200   0.6944   0.20140   0.19739  -0.0604  0.0697  1.0000  -1.5094   0.0000   0.0000   0.0000   0.3232
  16.300   0.6907   0.20231   0.19829  -0.0616  0.0686  1.0000  -1.4590   0.0000   0.0000   0.0000   0.3255
  16.400   0.6900   0.20344   0.19942  -0.0623  0.0673  1.0000  -1.4365   0.0000   0.0000   0.0000   0.3266
  16.500   0.6903   0.20459   0.20058  -0.0629  0.0662  1.0000  -1.4253   0.0000   0.0000   0.0000   0.3273
  16.600   0.6912   0.20574   0.20173  -0.0633  0.0652  1.0000  -1.4198   0.0000   0.0000   0.0000   0.3277
  16.700   0.6924   0.20687   0.20287  -0.0637  0.0643  1.0000  -1.4187   0.0000   0.0000   0.0000   0.3280
  16.800   0.6940   0.20799   0.20399  -0.0640  0.0635  1.0000  -1.4221   0.0000   0.0000   0.0000   0.3281
  16.900   0.6962   0.20910   0.20512  -0.0642  0.0627  1.0000  -1.4320   0.0000   0.0000   0.0000   0.3279
  17.000   0.6994   0.21026   0.20629  -0.0642  0.0619  1.0000  -1.4542   0.0000   0.0000   0.0000   0.3273
  17.100   0.7066   0.21194   0.20798  -0.0636  0.0610  1.0000  -1.5126   0.0000   0.0000   0.0000   0.3252
  17.200   0.7218   0.21657   0.21263  -0.0622  0.0602  1.0000  -1.6235   0.0000   0.0000   0.0000   0.3209
  17.300   0.7165   0.21681   0.21286  -0.0633  0.0601  1.0000  -1.5699   0.0000   0.0000   0.0000   0.3232
  17.400   0.7113   0.21707   0.21312  -0.0646  0.0599  1.0000  -1.5144   0.0000   0.0000   0.0000   0.3256
  17.500   0.7064   0.21745   0.21348  -0.0659  0.0596  1.0000  -1.4566   0.0000   0.0000   0.0000   0.3282
  17.600   0.7026   0.21810   0.21413  -0.0672  0.0590  1.0000  -1.4013   0.0000   0.0000   0.0000   0.3306
  17.700   0.7012   0.21914   0.21517  -0.0682  0.0579  1.0000  -1.3686   0.0000   0.0000   0.0000   0.3322
  17.800   0.7014   0.22029   0.21633  -0.0688  0.0567  1.0000  -1.3567   0.0000   0.0000   0.0000   0.3330
  17.900   0.7022   0.22145   0.21749  -0.0693  0.0556  1.0000  -1.3536   0.0000   0.0000   0.0000   0.3335
  18.000   0.7034   0.22261   0.21865  -0.0697  0.0547  1.0000  -1.3552   0.0000   0.0000   0.0000   0.3339
  18.100   0.7047   0.22376   0.21981  -0.0701  0.0539  1.0000  -1.3599   0.0000   0.0000   0.0000   0.3341
  18.200   0.7063   0.22489   0.22095  -0.0705  0.0532  1.0000  -1.3683   0.0000   0.0000   0.0000   0.3342
  18.300   0.7083   0.22604   0.22210  -0.0707  0.0525  1.0000  -1.3816   0.0000   0.0000   0.0000   0.3341
  18.400   0.7107   0.22721   0.22329  -0.0709  0.0519  1.0000  -1.4018   0.0000   0.0000   0.0000   0.3338
  18.500   0.7141   0.22855   0.22464  -0.0709  0.0514  1.0000  -1.4331   0.0000   0.0000   0.0000   0.3331
  18.600   0.7201   0.23056   0.22667  -0.0704  0.0508  1.0000  -1.4899   0.0000   0.0000   0.0000   0.3314
  18.700   0.7339   0.23571   0.23185  -0.0692  0.0503  1.0000  -1.5947   0.0000   0.0000   0.0000   0.3274
  18.800   0.7302   0.23599   0.23212  -0.0702  0.0503  1.0000  -1.5499   0.0000   0.0000   0.0000   0.3293
  18.900   0.7267   0.23631   0.23243  -0.0712  0.0502  1.0000  -1.5044   0.0000   0.0000   0.0000   0.3312
  19.000   0.7234   0.23669   0.23281  -0.0723  0.0500  1.0000  -1.4581   0.0000   0.0000   0.0000   0.3331
  19.100   0.7205   0.23718   0.23330  -0.0734  0.0498  1.0000  -1.4109   0.0000   0.0000   0.0000   0.3351
  19.200   0.7182   0.23787   0.23399  -0.0745  0.0494  1.0000  -1.3654   0.0000   0.0000   0.0000   0.3370
  19.300   0.7173   0.23889   0.23501  -0.0755  0.0488  1.0000  -1.3308   0.0000   0.0000   0.0000   0.3384
  19.400   0.7175   0.24007   0.23619  -0.0762  0.0480  1.0000  -1.3114   0.0000   0.0000   0.0000   0.3393
  19.500   0.7181   0.24129   0.23742  -0.0768  0.0472  1.0000  -1.3006   0.0000   0.0000   0.0000   0.3399
  19.600   0.7191   0.24251   0.23864  -0.0773  0.0465  1.0000  -1.2942   0.0000   0.0000   0.0000   0.3404
  19.700   0.7201   0.24372   0.23986  -0.0778  0.0458  1.0000  -1.2907   0.0000   0.0000   0.0000   0.3408
  19.800   0.7213   0.24492   0.24106  -0.0782  0.0451  1.0000  -1.2901   0.0000   0.0000   0.0000   0.3411
  19.900   0.7227   0.24609   0.24224  -0.0786  0.0444  1.0000  -1.2928   0.0000   0.0000   0.0000   0.3413
  20.000   0.7243   0.24726   0.24342  -0.0790  0.0437  1.0000  -1.2995   0.0000   0.0000   0.0000   0.3414
  20.100   0.7261   0.24841   0.24458  -0.0793  0.0431  1.0000  -1.3120   0.0000   0.0000   0.0000   0.3413
  20.200   0.7284   0.24962   0.24579  -0.0794  0.0425  1.0000  -1.3334   0.0000   0.0000   0.0000   0.3410
  20.300   0.7320   0.25111   0.24730  -0.0793  0.0419  1.0000  -1.3725   0.0000   0.0000   0.0000   0.3400
  20.400   0.7467   0.25687   0.25308  -0.0776  0.0412  1.0000  -1.5095   0.0000   0.0000   0.0000   0.3351
  20.500   0.7439   0.25719   0.25340  -0.0786  0.0411  1.0000  -1.4672   0.0000   0.0000   0.0000   0.3367
  20.600   0.7414   0.25756   0.25376  -0.0796  0.0410  1.0000  -1.4248   0.0000   0.0000   0.0000   0.3384
  20.700   0.7392   0.25802   0.25422  -0.0805  0.0409  1.0000  -1.3825   0.0000   0.0000   0.0000   0.3400
  20.800   0.7373   0.25859   0.25479  -0.0815  0.0408  1.0000  -1.3436   0.0000   0.0000   0.0000   0.3416
  20.900   0.7359   0.25934   0.25554  -0.0825  0.0406  1.0000  -1.3078   0.0000   0.0000   0.0000   0.3432
  21.000   0.7353   0.26033   0.25653  -0.0834  0.0402  1.0000  -1.2771   0.0000   0.0000   0.0000   0.3445
  21.100   0.7355   0.26150   0.25770  -0.0842  0.0396  1.0000  -1.2569   0.0000   0.0000   0.0000   0.3454
  21.200   0.7361   0.26275   0.25896  -0.0848  0.0390  1.0000  -1.2463   0.0000   0.0000   0.0000   0.3460
  21.300   0.7370   0.26401   0.26023  -0.0854  0.0384  1.0000  -1.2410   0.0000   0.0000   0.0000   0.3465
  21.400   0.7380   0.26527   0.26149  -0.0859  0.0378  1.0000  -1.2387   0.0000   0.0000   0.0000   0.3469
  21.500   0.7391   0.26653   0.26276  -0.0864  0.0372  1.0000  -1.2385   0.0000   0.0000   0.0000   0.3473
  21.600   0.7402   0.26778   0.26401  -0.0868  0.0367  1.0000  -1.2399   0.0000   0.0000   0.0000   0.3476
  21.700   0.7414   0.26902   0.26528  -0.0873  0.0362  1.0000  -1.2429   0.0000   0.0000   0.0000   0.3479
  21.800   0.7426   0.27024   0.26651  -0.0877  0.0357  1.0000  -1.2477   0.0000   0.0000   0.0000   0.3481
  21.900   0.7439   0.27146   0.26773  -0.0882  0.0353  1.0000  -1.2544   0.0000   0.0000   0.0000   0.3483
  22.000   0.7453   0.27269   0.26897  -0.0885  0.0348  1.0000  -1.2636   0.0000   0.0000   0.0000   0.3484
  22.100   0.7468   0.27392   0.27021  -0.0889  0.0344  1.0000  -1.2759   0.0000   0.0000   0.0000   0.3484
  22.200   0.7485   0.27519   0.27149  -0.0892  0.0341  1.0000  -1.2925   0.0000   0.0000   0.0000   0.3483
  22.300   0.7505   0.27657   0.27288  -0.0894  0.0337  1.0000  -1.3156   0.0000   0.0000   0.0000   0.3481
  22.400   0.7534   0.27829   0.27461  -0.0894  0.0334  1.0000  -1.3506   0.0000   0.0000   0.0000   0.3473
  22.500   0.7599   0.28177   0.27811  -0.0888  0.0331  1.0000  -1.4228   0.0000   0.0000   0.0000   0.3452
  22.600   0.7626   0.28429   0.28062  -0.0890  0.0330  1.0000  -1.4346   0.0000   0.0000   0.0000   0.3449
  22.700   0.7612   0.28488   0.28121  -0.0899  0.0329  1.0000  -1.4024   0.0000   0.0000   0.0000   0.3461
  22.800   0.7600   0.28548   0.28181  -0.0907  0.0329  1.0000  -1.3700   0.0000   0.0000   0.0000   0.3474
  22.900   0.7589   0.28614   0.28248  -0.0916  0.0328  1.0000  -1.3371   0.0000   0.0000   0.0000   0.3486
  23.000   0.7580   0.28689   0.28322  -0.0925  0.0327  1.0000  -1.3032   0.0000   0.0000   0.0000   0.3499
  23.100   0.7574   0.28777   0.28411  -0.0934  0.0325  1.0000  -1.2696   0.0000   0.0000   0.0000   0.3511
  23.200   0.7574   0.28884   0.28518  -0.0942  0.0321  1.0000  -1.2397   0.0000   0.0000   0.0000   0.3521
  23.300   0.7578   0.29007   0.28642  -0.0949  0.0317  1.0000  -1.2181   0.0000   0.0000   0.0000   0.3528
  23.400   0.7586   0.29136   0.28772  -0.0955  0.0312  1.0000  -1.2049   0.0000   0.0000   0.0000   0.3534
  23.500   0.7595   0.29267   0.28903  -0.0960  0.0306  1.0000  -1.1969   0.0000   0.0000   0.0000   0.3538
  23.600   0.7604   0.29397   0.29034  -0.0966  0.0301  1.0000  -1.1919   0.0000   0.0000   0.0000   0.3542
  23.700   0.7614   0.29525   0.29162  -0.0971  0.0295  1.0000  -1.1891   0.0000   0.0000   0.0000   0.3545
  23.800   0.7625   0.29653   0.29291  -0.0975  0.0290  1.0000  -1.1880   0.0000   0.0000   0.0000   0.3548
  23.900   0.7635   0.29780   0.29419  -0.0980  0.0286  1.0000  -1.1886   0.0000   0.0000   0.0000   0.3550
  24.000   0.7646   0.29906   0.29545  -0.0985  0.0282  1.0000  -1.1909   0.0000   0.0000   0.0000   0.3552
  24.100   0.7657   0.30030   0.29671  -0.0989  0.0278  1.0000  -1.1948   0.0000   0.0000   0.0000   0.3554
  24.200   0.7669   0.30157   0.29798  -0.0993  0.0274  1.0000  -1.2005   0.0000   0.0000   0.0000   0.3556
  24.300   0.7681   0.30283   0.29927  -0.0997  0.0271  1.0000  -1.2080   0.0000   0.0000   0.0000   0.3557
  24.400   0.7694   0.30412   0.30056  -0.1001  0.0269  1.0000  -1.2187   0.0000   0.0000   0.0000   0.3557
  24.500   0.7709   0.30547   0.30193  -0.1004  0.0266  1.0000  -1.2340   0.0000   0.0000   0.0000   0.3556
  24.600   0.7727   0.30701   0.30347  -0.1006  0.0264  1.0000  -1.2567   0.0000   0.0000   0.0000   0.3553
  24.700   0.7756   0.30914   0.30562  -0.1005  0.0261  1.0000  -1.2941   0.0000   0.0000   0.0000   0.3545
  29.700   1.3617   0.40084   0.39698  -0.2373  0.0151  1.0000  -2.2571   0.0000   0.0000   0.0000   0.3765
  29.800   1.3644   0.40186   0.39799  -0.2385  0.0149  1.0000  -2.2402   0.0000   0.0000   0.0000   0.3768
  29.900   1.3670   0.40289   0.39903  -0.2397  0.0148  1.0000  -2.2272   0.0000   0.0000   0.0000   0.3771
  30.000   1.3696   0.40392   0.40007  -0.2409  0.0146  1.0000  -2.2174   0.0000   0.0000   0.0000   0.3773


