xflr5 v6.61

 Calculated polar for: AG35

 1 1 Reynolds number fixed          Mach number fixed         

 xtrf =   1.000 (top)        1.000 (bottom)
 Mach =   0.000     Re =     1.000 e 6     Ncrit =   9.000

  alpha     CL        CD       CDp       Cm    Top Xtr Bot Xtr   Cpmin    Chinge    XCp    
 ------- -------- --------- --------- -------- ------- ------- -------- --------- ---------
  -9.600  -0.6276   0.02597   0.02304  -0.0487  1.0000  0.0093  -6.9950   0.0000   0.0000   0.0000   0.1693
  -9.500  -0.6230   0.02410   0.02094  -0.0484  1.0000  0.0095  -7.0214   0.0000   0.0000   0.0000   0.1692
  -9.400  -0.6168   0.02280   0.01947  -0.0480  1.0000  0.0097  -6.9928   0.0000   0.0000   0.0000   0.1690
  -9.300  -0.6098   0.02179   0.01830  -0.0476  1.0000  0.0099  -6.9373   0.0000   0.0000   0.0000   0.1688
  -9.200  -0.6024   0.02098   0.01737  -0.0472  1.0000  0.0101  -6.8623   0.0000   0.0000   0.0000   0.1686
  -9.100  -0.5945   0.02035   0.01663  -0.0467  1.0000  0.0102  -6.7714   0.0000   0.0000   0.0000   0.1683
  -9.000  -0.5864   0.01985   0.01604  -0.0463  1.0000  0.0103  -6.6686   0.0000   0.0000   0.0000   0.1681
  -8.900  -0.5782   0.01944   0.01554  -0.0458  1.0000  0.0104  -6.5577   0.0000   0.0000   0.0000   0.1678
  -8.800  -0.5699   0.01913   0.01516  -0.0453  1.0000  0.0105  -6.4402   0.0000   0.0000   0.0000   0.1676
  -8.700  -0.5644   0.01748   0.01326  -0.0447  0.9998  0.0106  -6.4450   0.0000   0.0000   0.0000   0.1678
  -8.600  -0.5534   0.01598   0.01157  -0.0452  0.9988  0.0109  -6.3892   0.0000   0.0000   0.0000   0.1654
  -8.500  -0.5408   0.01535   0.01087  -0.0457  0.9978  0.0111  -6.2533   0.0000   0.0000   0.0000   0.1625
  -8.400  -0.5276   0.01496   0.01044  -0.0463  0.9968  0.0112  -6.0966   0.0000   0.0000   0.0000   0.1594
  -8.300  -0.5141   0.01465   0.01010  -0.0468  0.9959  0.0114  -5.9345   0.0000   0.0000   0.0000   0.1559
  -8.200  -0.5005   0.01437   0.00978  -0.0474  0.9951  0.0116  -5.7730   0.0000   0.0000   0.0000   0.1523
  -8.100  -0.4872   0.01408   0.00947  -0.0479  0.9940  0.0118  -5.6175   0.0000   0.0000   0.0000   0.1487
  -8.000  -0.4743   0.01379   0.00913  -0.0483  0.9925  0.0120  -5.4683   0.0000   0.0000   0.0000   0.1451
  -7.900  -0.4613   0.01350   0.00880  -0.0487  0.9909  0.0122  -5.3267   0.0000   0.0000   0.0000   0.1413
  -7.800  -0.4482   0.01324   0.00850  -0.0492  0.9891  0.0125  -5.1960   0.0000   0.0000   0.0000   0.1373
  -7.700  -0.4349   0.01301   0.00823  -0.0496  0.9874  0.0127  -5.0639   0.0000   0.0000   0.0000   0.1329
  -7.600  -0.4214   0.01278   0.00797  -0.0501  0.9858  0.0130  -4.9322   0.0000   0.0000   0.0000   0.1280
  -7.500  -0.4087   0.01257   0.00772  -0.0504  0.9834  0.0133  -4.8066   0.0000   0.0000   0.0000   0.1235
  -7.400  -0.3964   0.01237   0.00748  -0.0506  0.9802  0.0135  -4.6849   0.0000   0.0000   0.0000   0.1191
  -7.300  -0.3837   0.01216   0.00723  -0.0509  0.9772  0.0136  -4.5631   0.0000   0.0000   0.0000   0.1141
  -7.200  -0.3708   0.01198   0.00702  -0.0512  0.9744  0.0137  -4.4389   0.0000   0.0000   0.0000   0.1086
  -7.100  -0.3598   0.01144   0.00641  -0.0512  0.9705  0.0139  -4.3543   0.0000   0.0000   0.0000   0.1044
  -7.000  -0.3493   0.01084   0.00576  -0.0511  0.9662  0.0143  -4.2736   0.0000   0.0000   0.0000   0.1003
  -6.900  -0.3381   0.01053   0.00542  -0.0511  0.9623  0.0146  -4.1666   0.0000   0.0000   0.0000   0.0954
  -6.800  -0.3273   0.01033   0.00519  -0.0509  0.9579  0.0149  -4.0544   0.0000   0.0000   0.0000   0.0908
  -6.700  -0.3167   0.01017   0.00501  -0.0507  0.9529  0.0151  -3.9418   0.0000   0.0000   0.0000   0.0862
  -6.600  -0.3062   0.01003   0.00485  -0.0505  0.9483  0.0154  -3.8301   0.0000   0.0000   0.0000   0.0813
  -6.500  -0.2958   0.00989   0.00469  -0.0503  0.9430  0.0157  -3.7210   0.0000   0.0000   0.0000   0.0762
  -6.400  -0.2855   0.00976   0.00453  -0.0500  0.9377  0.0160  -3.6143   0.0000   0.0000   0.0000   0.0710
  -6.300  -0.2751   0.00963   0.00437  -0.0497  0.9327  0.0164  -3.5091   0.0000   0.0000   0.0000   0.0654
  -6.200  -0.2647   0.00951   0.00423  -0.0495  0.9270  0.0167  -3.4038   0.0000   0.0000   0.0000   0.0591
  -6.100  -0.2544   0.00941   0.00410  -0.0492  0.9219  0.0171  -3.3098   0.0000   0.0000   0.0000   0.0526
  -6.000  -0.2437   0.00933   0.00400  -0.0490  0.9164  0.0175  -3.2160   0.0000   0.0000   0.0000   0.0448
  -5.900  -0.2331   0.00927   0.00391  -0.0487  0.9110  0.0177  -3.1221   0.0000   0.0000   0.0000   0.0365
  -5.800  -0.2229   0.00901   0.00359  -0.0485  0.9060  0.0183  -3.0493   0.0000   0.0000   0.0000   0.0279
  -5.700  -0.2124   0.00876   0.00331  -0.0483  0.9006  0.0190  -2.9720   0.0000   0.0000   0.0000   0.0180
  -5.600  -0.2018   0.00864   0.00316  -0.0481  0.8955  0.0196  -2.8839   0.0000   0.0000   0.0000   0.0070
  -5.500  -0.1910   0.00854   0.00305  -0.0479  0.8903  0.0202  -2.7927   0.0000   0.0000   0.0000  -0.0061
  -5.400  -0.1802   0.00846   0.00294  -0.0478  0.8849  0.0208  -2.7032   0.0000   0.0000   0.0000  -0.0205
  -5.300  -0.1693   0.00838   0.00284  -0.0476  0.8799  0.0215  -2.6150   0.0000   0.0000   0.0000  -0.0368
  -5.200  -0.1583   0.00831   0.00274  -0.0475  0.8743  0.0222  -2.5270   0.0000   0.0000   0.0000  -0.0559
  -5.000  -0.1365   0.00810   0.00246  -0.0472  0.8634  0.0238  -2.3599   0.0000   0.0000   0.0000  -0.1026
  -4.900  -0.1257   0.00798   0.00231  -0.0471  0.8579  0.0255  -2.2781   0.0000   0.0000   0.0000  -0.1317
  -4.800  -0.1146   0.00791   0.00223  -0.0470  0.8522  0.0269  -2.1927   0.0000   0.0000   0.0000  -0.1678
  -4.700  -0.1036   0.00786   0.00216  -0.0469  0.8463  0.0283  -2.1175   0.0000   0.0000   0.0000  -0.2110
  -4.600  -0.0924   0.00782   0.00210  -0.0468  0.8403  0.0293  -2.0416   0.0000   0.0000   0.0000  -0.2656
  -4.500  -0.0815   0.00769   0.00195  -0.0466  0.8339  0.0328  -1.9758   0.0000   0.0000   0.0000  -0.3331
  -4.400  -0.0704   0.00762   0.00187  -0.0466  0.8275  0.0355  -1.9024   0.0000   0.0000   0.0000  -0.4237
  -4.300  -0.0593   0.00758   0.00180  -0.0465  0.8210  0.0374  -1.8289   0.0000   0.0000   0.0000  -0.5478
  -4.200  -0.0483   0.00747   0.00170  -0.0464  0.8149  0.0435  -1.7597   0.0000   0.0000   0.0000  -0.7281
  -4.100  -0.0372   0.00742   0.00163  -0.0463  0.8089  0.0487  -1.6880   0.0000   0.0000   0.0000  -1.0157
  -4.000  -0.0262   0.00734   0.00157  -0.0462  0.8033  0.0573  -1.6165   0.0000   0.0000   0.0000  -1.5485
  -3.900  -0.0151   0.00726   0.00151  -0.0462  0.7974  0.0690  -1.5453   0.0000   0.0000   0.0000  -2.8638
  -3.800  -0.0041   0.00717   0.00145  -0.0461  0.7918  0.0837  -1.4749   0.0000   0.0000   0.0000  -11.2120
  -3.700   0.0070   0.00707   0.00140  -0.0461  0.7859  0.1011  -1.4047   0.0000   0.0000   0.0000   6.9478
  -3.500   0.0291   0.00689   0.00131  -0.0461  0.7747  0.1402  -1.2668   0.0000   0.0000   0.0000   1.8571
  -3.400   0.0402   0.00680   0.00127  -0.0461  0.7688  0.1637  -1.1991   0.0000   0.0000   0.0000   1.4153
  -3.300   0.0512   0.00669   0.00123  -0.0461  0.7630  0.1895  -1.1322   0.0000   0.0000   0.0000   1.1631
  -3.200   0.0623   0.00660   0.00120  -0.0461  0.7567  0.2156  -1.0689   0.0000   0.0000   0.0000   1.0006
  -3.100   0.0734   0.00651   0.00117  -0.0461  0.7505  0.2420  -1.0110   0.0000   0.0000   0.0000   0.8871
  -3.000   0.0845   0.00642   0.00115  -0.0461  0.7436  0.2694  -0.9538   0.0000   0.0000   0.0000   0.8033
  -2.900   0.0955   0.00634   0.00112  -0.0460  0.7367  0.2969  -0.8974   0.0000   0.0000   0.0000   0.7390
  -2.800   0.1066   0.00627   0.00110  -0.0460  0.7288  0.3231  -0.8416   0.0000   0.0000   0.0000   0.6879
  -2.700   0.1177   0.00619   0.00108  -0.0460  0.7205  0.3505  -0.7866   0.0000   0.0000   0.0000   0.6465
  -2.600   0.1287   0.00611   0.00106  -0.0460  0.7113  0.3810  -0.7326   0.0000   0.0000   0.0000   0.6124
  -2.500   0.1396   0.00602   0.00104  -0.0460  0.7005  0.4154  -0.6795   0.0000   0.0000   0.0000   0.5837
  -2.400   0.1505   0.00592   0.00102  -0.0460  0.6873  0.4554  -0.6274   0.0000   0.0000   0.0000   0.5593
  -2.300   0.1612   0.00581   0.00100  -0.0460  0.6673  0.5031  -0.5818   0.0000   0.0000   0.0000   0.5384
  -2.200   0.1714   0.00571   0.00097  -0.0458  0.6348  0.5619  -0.5383   0.0000   0.0000   0.0000   0.5204
  -1.900   0.2011   0.00533   0.00101  -0.0452  0.5929  0.7623  -0.4722   0.0000   0.0000   0.0000   0.4768
  -1.800   0.2102   0.00519   0.00104  -0.0446  0.5850  0.8240  -0.4818   0.0000   0.0000   0.0000   0.4643
  -1.700   0.2185   0.00508   0.00107  -0.0439  0.5779  0.8756  -0.4914   0.0000   0.0000   0.0000   0.4524
  -1.600   0.2265   0.00502   0.00109  -0.0429  0.5720  0.9177  -0.5009   0.0000   0.0000   0.0000   0.4410
  -1.500   0.2366   0.00500   0.00110  -0.0425  0.5663  0.9515  -0.5117   0.0000   0.0000   0.0000   0.4309
  -1.400   0.2517   0.00502   0.00110  -0.0433  0.5610  0.9748  -0.5261   0.0000   0.0000   0.0000   0.4230
  -1.300   0.2689   0.00504   0.00109  -0.0446  0.5558  0.9884  -0.5418   0.0000   0.0000   0.0000   0.4166
  -1.200   0.2861   0.00508   0.00109  -0.0459  0.5507  0.9971  -0.5575   0.0000   0.0000   0.0000   0.4112
  -1.100   0.3001   0.00512   0.00109  -0.0466  0.5465  1.0000  -0.5719   0.0000   0.0000   0.0000   0.4056
  -1.000   0.3110   0.00514   0.00109  -0.0465  0.5424  1.0000  -0.5845   0.0000   0.0000   0.0000   0.3998
  -0.900   0.3219   0.00518   0.00110  -0.0464  0.5384  1.0000  -0.5975   0.0000   0.0000   0.0000   0.3944
  -0.800   0.3327   0.00522   0.00110  -0.0464  0.5347  1.0000  -0.6109   0.0000   0.0000   0.0000   0.3893
  -0.700   0.3438   0.00524   0.00111  -0.0463  0.5311  1.0000  -0.6244   0.0000   0.0000   0.0000   0.3846
  -0.600   0.3548   0.00527   0.00112  -0.0463  0.5273  1.0000  -0.6380   0.0000   0.0000   0.0000   0.3801
  -0.500   0.3657   0.00531   0.00112  -0.0462  0.5237  1.0000  -0.6516   0.0000   0.0000   0.0000   0.3760
  -0.400   0.3767   0.00534   0.00114  -0.0462  0.5203  1.0000  -0.6655   0.0000   0.0000   0.0000   0.3720
  -0.300   0.3879   0.00536   0.00114  -0.0462  0.5167  1.0000  -0.6802   0.0000   0.0000   0.0000   0.3683
  -0.200   0.3989   0.00539   0.00115  -0.0461  0.5130  1.0000  -0.6949   0.0000   0.0000   0.0000   0.3648
  -0.100   0.4100   0.00544   0.00117  -0.0461  0.5095  1.0000  -0.7095   0.0000   0.0000   0.0000   0.3615
   0.000   0.4211   0.00546   0.00118  -0.0461  0.5062  1.0000  -0.7244   0.0000   0.0000   0.0000   0.3584
   0.100   0.4323   0.00549   0.00119  -0.0461  0.5026  1.0000  -0.7396   0.0000   0.0000   0.0000   0.3554
   0.200   0.4434   0.00552   0.00121  -0.0461  0.4990  1.0000  -0.7555   0.0000   0.0000   0.0000   0.3526
   0.300   0.4545   0.00556   0.00123  -0.0461  0.4955  1.0000  -0.7714   0.0000   0.0000   0.0000   0.3500
   0.400   0.4657   0.00559   0.00124  -0.0461  0.4920  1.0000  -0.7875   0.0000   0.0000   0.0000   0.3474
   0.500   0.4769   0.00561   0.00126  -0.0461  0.4881  1.0000  -0.8038   0.0000   0.0000   0.0000   0.3450
   0.600   0.4880   0.00565   0.00128  -0.0461  0.4842  1.0000  -0.8211   0.0000   0.0000   0.0000   0.3427
   0.700   0.4992   0.00569   0.00130  -0.0461  0.4806  1.0000  -0.8385   0.0000   0.0000   0.0000   0.3404
   0.800   0.5104   0.00571   0.00132  -0.0461  0.4764  1.0000  -0.8563   0.0000   0.0000   0.0000   0.3383
   0.900   0.5216   0.00575   0.00134  -0.0461  0.4720  1.0000  -0.8752   0.0000   0.0000   0.0000   0.3363
   1.000   0.5327   0.00579   0.00136  -0.0461  0.4677  1.0000  -0.8951   0.0000   0.0000   0.0000   0.3343
   1.100   0.5440   0.00582   0.00137  -0.0462  0.4626  1.0000  -0.9159   0.0000   0.0000   0.0000   0.3325
   1.200   0.5551   0.00586   0.00140  -0.0462  0.4573  1.0000  -0.9366   0.0000   0.0000   0.0000   0.3307
   1.300   0.5664   0.00589   0.00142  -0.0462  0.4518  1.0000  -0.9576   0.0000   0.0000   0.0000   0.3290
   1.400   0.5775   0.00594   0.00144  -0.0462  0.4457  1.0000  -0.9800   0.0000   0.0000   0.0000   0.3273
   1.500   0.5886   0.00599   0.00147  -0.0462  0.4395  1.0000  -1.0030   0.0000   0.0000   0.0000   0.3257
   1.600   0.5997   0.00604   0.00149  -0.0463  0.4326  1.0000  -1.0260   0.0000   0.0000   0.0000   0.3241
   1.700   0.6108   0.00609   0.00152  -0.0463  0.4254  1.0000  -1.0498   0.0000   0.0000   0.0000   0.3227
   1.800   0.6219   0.00616   0.00156  -0.0463  0.4180  1.0000  -1.0753   0.0000   0.0000   0.0000   0.3212
   1.900   0.6330   0.00621   0.00159  -0.0463  0.4102  1.0000  -1.1010   0.0000   0.0000   0.0000   0.3198
   2.000   0.6440   0.00628   0.00162  -0.0463  0.4026  1.0000  -1.1267   0.0000   0.0000   0.0000   0.3185
   2.200   0.6660   0.00642   0.00171  -0.0464  0.3856  1.0000  -1.1817   0.0000   0.0000   0.0000   0.3159
   2.300   0.6770   0.00650   0.00175  -0.0464  0.3768  1.0000  -1.2105   0.0000   0.0000   0.0000   0.3147
   2.400   0.6879   0.00658   0.00180  -0.0464  0.3674  1.0000  -1.2393   0.0000   0.0000   0.0000   0.3135
   2.500   0.6988   0.00667   0.00185  -0.0464  0.3577  1.0000  -1.2684   0.0000   0.0000   0.0000   0.3123
   2.600   0.7097   0.00675   0.00190  -0.0464  0.3476  1.0000  -1.3002   0.0000   0.0000   0.0000   0.3112
   2.700   0.7205   0.00685   0.00196  -0.0464  0.3375  1.0000  -1.3327   0.0000   0.0000   0.0000   0.3101
   2.800   0.7313   0.00696   0.00202  -0.0464  0.3275  1.0000  -1.3652   0.0000   0.0000   0.0000   0.3090
   2.900   0.7421   0.00706   0.00208  -0.0464  0.3170  1.0000  -1.4011   0.0000   0.0000   0.0000   0.3079
   3.000   0.7529   0.00716   0.00215  -0.0465  0.3063  1.0000  -1.4375   0.0000   0.0000   0.0000   0.3069
   3.100   0.7637   0.00727   0.00222  -0.0465  0.2956  1.0000  -1.4757   0.0000   0.0000   0.0000   0.3059
   3.200   0.7744   0.00739   0.00229  -0.0465  0.2855  1.0000  -1.5164   0.0000   0.0000   0.0000   0.3050
   3.300   0.7851   0.00750   0.00237  -0.0465  0.2757  1.0000  -1.5578   0.0000   0.0000   0.0000   0.3040
   3.400   0.7958   0.00762   0.00244  -0.0465  0.2654  1.0000  -1.6071   0.0000   0.0000   0.0000   0.3031
   3.500   0.8066   0.00774   0.00252  -0.0465  0.2554  1.0000  -1.6674   0.0000   0.0000   0.0000   0.3022
   3.600   0.8173   0.00786   0.00260  -0.0465  0.2459  1.0000  -1.7319   0.0000   0.0000   0.0000   0.3013
   3.700   0.8279   0.00798   0.00269  -0.0465  0.2368  1.0000  -1.8056   0.0000   0.0000   0.0000   0.3005
   3.800   0.8385   0.00811   0.00278  -0.0465  0.2274  1.0000  -1.8806   0.0000   0.0000   0.0000   0.2996
   3.900   0.8492   0.00822   0.00286  -0.0465  0.2189  1.0000  -1.9568   0.0000   0.0000   0.0000   0.2988
   4.000   0.8599   0.00835   0.00295  -0.0465  0.2105  1.0000  -2.0336   0.0000   0.0000   0.0000   0.2980
   4.100   0.8705   0.00847   0.00304  -0.0465  0.2021  1.0000  -2.1114   0.0000   0.0000   0.0000   0.2972
   4.200   0.8811   0.00859   0.00313  -0.0465  0.1945  1.0000  -2.1962   0.0000   0.0000   0.0000   0.2964
   4.300   0.8917   0.00873   0.00323  -0.0465  0.1867  1.0000  -2.2835   0.0000   0.0000   0.0000   0.2956
   4.400   0.9023   0.00885   0.00333  -0.0465  0.1787  1.0000  -2.3724   0.0000   0.0000   0.0000   0.2949
   4.500   0.9128   0.00898   0.00343  -0.0465  0.1706  1.0000  -2.4621   0.0000   0.0000   0.0000   0.2941
   4.600   0.9232   0.00913   0.00354  -0.0465  0.1619  1.0000  -2.5522   0.0000   0.0000   0.0000   0.2934
   4.700   0.9337   0.00927   0.00364  -0.0465  0.1533  1.0000  -2.6438   0.0000   0.0000   0.0000   0.2927
   4.800   0.9442   0.00941   0.00375  -0.0465  0.1457  1.0000  -2.7366   0.0000   0.0000   0.0000   0.2920
   4.900   0.9545   0.00956   0.00386  -0.0464  0.1378  1.0000  -2.8297   0.0000   0.0000   0.0000   0.2913
   5.000   0.9649   0.00970   0.00398  -0.0464  0.1303  1.0000  -2.9244   0.0000   0.0000   0.0000   0.2906
   5.100   0.9753   0.00985   0.00409  -0.0464  0.1230  1.0000  -3.0198   0.0000   0.0000   0.0000   0.2899
   5.200   0.9855   0.01003   0.00422  -0.0464  0.1149  1.0000  -3.1180   0.0000   0.0000   0.0000   0.2892
   5.300   0.9958   0.01018   0.00435  -0.0464  0.1075  1.0000  -3.2247   0.0000   0.0000   0.0000   0.2885
   5.400   1.0060   0.01034   0.00447  -0.0463  0.1005  1.0000  -3.3321   0.0000   0.0000   0.0000   0.2879
   5.600   1.0264   0.01067   0.00475  -0.0462  0.0872  1.0000  -3.5500   0.0000   0.0000   0.0000   0.2866
   5.700   1.0365   0.01086   0.00490  -0.0462  0.0810  1.0000  -3.6598   0.0000   0.0000   0.0000   0.2860
   5.800   1.0467   0.01101   0.00504  -0.0462  0.0757  1.0000  -3.7721   0.0000   0.0000   0.0000   0.2853
   5.900   1.0567   0.01120   0.00520  -0.0461  0.0699  1.0000  -3.8839   0.0000   0.0000   0.0000   0.2847
   6.000   1.0668   0.01136   0.00534  -0.0461  0.0647  1.0000  -3.9980   0.0000   0.0000   0.0000   0.2841
   6.100   1.0767   0.01156   0.00551  -0.0460  0.0592  1.0000  -4.1116   0.0000   0.0000   0.0000   0.2835
   6.200   1.0867   0.01174   0.00566  -0.0459  0.0543  1.0000  -4.2272   0.0000   0.0000   0.0000   0.2829
   6.300   1.0965   0.01194   0.00584  -0.0459  0.0492  1.0000  -4.3423   0.0000   0.0000   0.0000   0.2823
   6.400   1.1064   0.01213   0.00601  -0.0458  0.0446  1.0000  -4.4592   0.0000   0.0000   0.0000   0.2817
   6.500   1.1162   0.01234   0.00620  -0.0457  0.0401  1.0000  -4.5755   0.0000   0.0000   0.0000   0.2810
   6.600   1.1259   0.01255   0.00639  -0.0456  0.0358  1.0000  -4.6930   0.0000   0.0000   0.0000   0.2805
   6.700   1.1355   0.01277   0.00659  -0.0455  0.0317  1.0000  -4.8100   0.0000   0.0000   0.0000   0.2798
   6.800   1.1450   0.01301   0.00680  -0.0454  0.0278  1.0000  -4.9269   0.0000   0.0000   0.0000   0.2792
   6.900   1.1546   0.01323   0.00701  -0.0453  0.0246  1.0000  -5.0440   0.0000   0.0000   0.0000   0.2786
   7.000   1.1639   0.01349   0.00725  -0.0451  0.0216  1.0000  -5.1602   0.0000   0.0000   0.0000   0.2780
   7.100   1.1734   0.01372   0.00748  -0.0450  0.0193  1.0000  -5.2763   0.0000   0.0000   0.0000   0.2774
   7.200   1.1828   0.01394   0.00771  -0.0448  0.0177  1.0000  -5.3950   0.0000   0.0000   0.0000   0.2769
   7.300   1.1917   0.01427   0.00802  -0.0446  0.0156  1.0000  -5.5046   0.0000   0.0000   0.0000   0.2762
   7.400   1.2014   0.01444   0.00822  -0.0445  0.0148  1.0000  -5.6264   0.0000   0.0000   0.0000   0.2757
   7.500   1.2110   0.01464   0.00844  -0.0444  0.0140  1.0000  -5.7490   0.0000   0.0000   0.0000   0.2751
   7.600   1.2202   0.01488   0.00868  -0.0443  0.0131  1.0000  -5.8823   0.0000   0.0000   0.0000   0.2745
   7.700   1.2289   0.01521   0.00901  -0.0440  0.0122  1.0000  -6.0065   0.0000   0.0000   0.0000   0.2739
   7.800   1.2379   0.01549   0.00932  -0.0438  0.0116  1.0000  -6.1330   0.0000   0.0000   0.0000   0.2733
   7.900   1.2473   0.01568   0.00954  -0.0437  0.0112  1.0000  -6.2706   0.0000   0.0000   0.0000   0.2727
   8.000   1.2566   0.01589   0.00978  -0.0435  0.0109  1.0000  -6.4074   0.0000   0.0000   0.0000   0.2722
   8.100   1.2658   0.01612   0.01003  -0.0434  0.0105  1.0000  -6.5450   0.0000   0.0000   0.0000   0.2716
   8.200   1.2749   0.01636   0.01028  -0.0432  0.0101  1.0000  -6.6831   0.0000   0.0000   0.0000   0.2711
   8.300   1.2836   0.01663   0.01057  -0.0430  0.0098  1.0000  -6.8193   0.0000   0.0000   0.0000   0.2705
   8.400   1.2918   0.01697   0.01093  -0.0427  0.0094  1.0000  -6.9484   0.0000   0.0000   0.0000   0.2699
   8.500   1.2987   0.01748   0.01148  -0.0422  0.0089  1.0000  -7.0563   0.0000   0.0000   0.0000   0.2692
   8.600   1.3070   0.01779   0.01183  -0.0420  0.0087  1.0000  -7.1858   0.0000   0.0000   0.0000   0.2686
   8.700   1.3158   0.01802   0.01210  -0.0418  0.0086  1.0000  -7.3261   0.0000   0.0000   0.0000   0.2680
   8.800   1.3245   0.01827   0.01238  -0.0415  0.0084  1.0000  -7.4646   0.0000   0.0000   0.0000   0.2674
   8.900   1.3329   0.01854   0.01269  -0.0413  0.0083  1.0000  -7.6021   0.0000   0.0000   0.0000   0.2669
   9.000   1.3411   0.01883   0.01300  -0.0410  0.0081  1.0000  -7.7391   0.0000   0.0000   0.0000   0.2663
   9.100   1.3493   0.01912   0.01332  -0.0408  0.0079  1.0000  -7.8771   0.0000   0.0000   0.0000   0.2657
   9.200   1.3574   0.01941   0.01363  -0.0405  0.0077  1.0000  -8.0167   0.0000   0.0000   0.0000   0.2652
   9.300   1.3654   0.01970   0.01395  -0.0402  0.0076  1.0000  -8.1578   0.0000   0.0000   0.0000   0.2646
   9.400   1.3732   0.01999   0.01427  -0.0399  0.0074  1.0000  -8.3001   0.0000   0.0000   0.0000   0.2640
   9.500   1.3808   0.02031   0.01460  -0.0396  0.0072  1.0000  -8.4421   0.0000   0.0000   0.0000   0.2634
   9.600   1.3880   0.02066   0.01498  -0.0392  0.0071  1.0000  -8.5792   0.0000   0.0000   0.0000   0.2628
   9.700   1.3943   0.02110   0.01545  -0.0388  0.0069  1.0000  -8.7057   0.0000   0.0000   0.0000   0.2622
   9.800   1.3991   0.02167   0.01607  -0.0381  0.0067  1.0000  -8.8125   0.0000   0.0000   0.0000   0.2614
   9.900   1.4014   0.02246   0.01692  -0.0371  0.0066  1.0000  -8.8850   0.0000   0.0000   0.0000   0.2605
  10.000   1.4063   0.02297   0.01748  -0.0365  0.0065  1.0000  -8.9938   0.0000   0.0000   0.0000   0.2598
  10.100   1.4131   0.02329   0.01785  -0.0361  0.0064  1.0000  -9.1296   0.0000   0.0000   0.0000   0.2592
  10.200   1.4195   0.02364   0.01823  -0.0356  0.0064  1.0000  -9.2616   0.0000   0.0000   0.0000   0.2585
  10.300   1.4256   0.02401   0.01864  -0.0351  0.0063  1.0000  -9.3902   0.0000   0.0000   0.0000   0.2579
  10.400   1.4312   0.02440   0.01907  -0.0346  0.0062  1.0000  -9.5153   0.0000   0.0000   0.0000   0.2572
  10.500   1.4363   0.02481   0.01953  -0.0340  0.0061  1.0000  -9.6369   0.0000   0.0000   0.0000   0.2565
  10.600   1.4410   0.02524   0.02000  -0.0333  0.0061  1.0000  -9.7542   0.0000   0.0000   0.0000   0.2558
  10.700   1.4444   0.02567   0.02047  -0.0324  0.0060  1.0000  -9.8619   0.0000   0.0000   0.0000   0.2549
  10.800   1.4472   0.02612   0.02096  -0.0315  0.0059  1.0000  -9.9650   0.0000   0.0000   0.0000   0.2540
  10.900   1.4497   0.02660   0.02148  -0.0306  0.0059  1.0000  -10.0657   0.0000   0.0000   0.0000   0.2532
  11.000   1.4520   0.02710   0.02202  -0.0297  0.0058  1.0000  -10.1645   0.0000   0.0000   0.0000   0.2523
  11.100   1.4541   0.02764   0.02260  -0.0288  0.0058  1.0000  -10.2618   0.0000   0.0000   0.0000   0.2515
  11.200   1.4561   0.02820   0.02320  -0.0280  0.0057  1.0000  -10.3575   0.0000   0.0000   0.0000   0.2507
  11.300   1.4578   0.02880   0.02384  -0.0273  0.0057  1.0000  -10.4519   0.0000   0.0000   0.0000   0.2500
  11.400   1.4594   0.02943   0.02452  -0.0266  0.0056  1.0000  -10.5447   0.0000   0.0000   0.0000   0.2493
  11.500   1.4608   0.03009   0.02522  -0.0259  0.0056  1.0000  -10.6364   0.0000   0.0000   0.0000   0.2486
  11.600   1.4620   0.03079   0.02597  -0.0253  0.0055  1.0000  -10.7263   0.0000   0.0000   0.0000   0.2480
  11.700   1.4631   0.03154   0.02676  -0.0248  0.0055  1.0000  -10.8149   0.0000   0.0000   0.0000   0.2474
  11.800   1.4640   0.03232   0.02759  -0.0243  0.0054  1.0000  -10.9017   0.0000   0.0000   0.0000   0.2468
  11.900   1.4647   0.03316   0.02846  -0.0239  0.0054  1.0000  -10.9864   0.0000   0.0000   0.0000   0.2463
  12.000   1.4653   0.03404   0.02939  -0.0236  0.0053  1.0000  -11.0694   0.0000   0.0000   0.0000   0.2459
  12.100   1.4656   0.03498   0.03037  -0.0233  0.0053  1.0000  -11.1495   0.0000   0.0000   0.0000   0.2455
  12.200   1.4656   0.03597   0.03141  -0.0232  0.0053  1.0000  -11.2265   0.0000   0.0000   0.0000   0.2451
  12.300   1.4654   0.03703   0.03251  -0.0230  0.0052  1.0000  -11.3006   0.0000   0.0000   0.0000   0.2448
  12.400   1.4649   0.03815   0.03370  -0.0230  0.0052  1.0000  -11.3714   0.0000   0.0000   0.0000   0.2446
  12.500   1.4641   0.03935   0.03494  -0.0230  0.0052  1.0000  -11.4377   0.0000   0.0000   0.0000   0.2444
  12.600   1.4629   0.04062   0.03626  -0.0231  0.0051  1.0000  -11.4993   0.0000   0.0000   0.0000   0.2442
  12.700   1.4614   0.04197   0.03765  -0.0233  0.0051  1.0000  -11.5563   0.0000   0.0000   0.0000   0.2441
  12.800   1.4595   0.04340   0.03914  -0.0236  0.0051  1.0000  -11.6081   0.0000   0.0000   0.0000   0.2441
  12.900   1.4573   0.04493   0.04071  -0.0239  0.0050  1.0000  -11.6542   0.0000   0.0000   0.0000   0.2441
  13.000   1.4546   0.04654   0.04238  -0.0243  0.0050  1.0000  -11.6944   0.0000   0.0000   0.0000   0.2442
  13.100   1.4516   0.04827   0.04416  -0.0248  0.0050  1.0000  -11.7286   0.0000   0.0000   0.0000   0.2444
  13.200   1.4482   0.05010   0.04605  -0.0255  0.0050  1.0000  -11.7571   0.0000   0.0000   0.0000   0.2446
  13.300   1.4446   0.05204   0.04804  -0.0262  0.0050  1.0000  -11.7800   0.0000   0.0000   0.0000   0.2450
  13.400   1.4406   0.05407   0.05012  -0.0270  0.0049  1.0000  -11.7971   0.0000   0.0000   0.0000   0.2454
  13.500   1.4361   0.05616   0.05227  -0.0279  0.0049  1.0000  -11.8078   0.0000   0.0000   0.0000   0.2458
  13.600   1.4313   0.05833   0.05449  -0.0288  0.0049  1.0000  -11.8134   0.0000   0.0000   0.0000   0.2462
  13.700   1.4262   0.06055   0.05677  -0.0296  0.0049  1.0000  -11.8141   0.0000   0.0000   0.0000   0.2467
  13.800   1.4207   0.06284   0.05911  -0.0306  0.0049  1.0000  -11.8099   0.0000   0.0000   0.0000   0.2472
  13.900   1.4149   0.06517   0.06150  -0.0315  0.0049  1.0000  -11.8010   0.0000   0.0000   0.0000   0.2477
  14.000   1.4088   0.06754   0.06392  -0.0324  0.0049  1.0000  -11.7876   0.0000   0.0000   0.0000   0.2483
  14.100   1.4025   0.06997   0.06640  -0.0334  0.0049  1.0000  -11.7706   0.0000   0.0000   0.0000   0.2489
  14.200   1.3960   0.07244   0.06893  -0.0344  0.0049  1.0000  -11.7536   0.0000   0.0000   0.0000   0.2495
  14.300   1.3894   0.07496   0.07150  -0.0354  0.0048  1.0000  -11.7338   0.0000   0.0000   0.0000   0.2501
  14.400   1.3827   0.07752   0.07412  -0.0365  0.0048  1.0000  -11.7113   0.0000   0.0000   0.0000   0.2508
  14.500   1.3760   0.08013   0.07677  -0.0376  0.0048  1.0000  -11.6859   0.0000   0.0000   0.0000   0.2515
  14.600   1.3692   0.08278   0.07947  -0.0387  0.0048  1.0000  -11.6583   0.0000   0.0000   0.0000   0.2523
  14.700   1.3624   0.08548   0.08222  -0.0398  0.0048  1.0000  -11.6287   0.0000   0.0000   0.0000   0.2531
  14.800   1.3556   0.08821   0.08501  -0.0410  0.0048  1.0000  -11.5972   0.0000   0.0000   0.0000   0.2539
  14.900   1.3488   0.09098   0.08782  -0.0422  0.0048  1.0000  -11.5636   0.0000   0.0000   0.0000   0.2548
  15.000   1.3419   0.09376   0.09065  -0.0435  0.0048  1.0000  -11.5277   0.0000   0.0000   0.0000   0.2557
  15.100   1.3351   0.09658   0.09352  -0.0447  0.0048  1.0000  -11.4898   0.0000   0.0000   0.0000   0.2566
  15.200   1.3283   0.09943   0.09642  -0.0460  0.0048  1.0000  -11.4500   0.0000   0.0000   0.0000   0.2576
  15.300   1.3215   0.10231   0.09934  -0.0473  0.0048  1.0000  -11.4091   0.0000   0.0000   0.0000   0.2586
  15.400   1.3149   0.10520   0.10228  -0.0486  0.0048  1.0000  -11.3674   0.0000   0.0000   0.0000   0.2596
  15.500   1.3084   0.10810   0.10522  -0.0500  0.0048  1.0000  -11.3244   0.0000   0.0000   0.0000   0.2606
  15.600   1.3018   0.11102   0.10819  -0.0513  0.0048  1.0000  -11.2787   0.0000   0.0000   0.0000   0.2617
  15.700   1.2953   0.11395   0.11117  -0.0527  0.0048  1.0000  -11.2313   0.0000   0.0000   0.0000   0.2628
  15.800   1.2889   0.11687   0.11413  -0.0540  0.0048  1.0000  -11.1838   0.0000   0.0000   0.0000   0.2639
  15.900   1.2826   0.11981   0.11711  -0.0554  0.0048  1.0000  -11.1346   0.0000   0.0000   0.0000   0.2650
  16.000   1.2763   0.12278   0.12013  -0.0568  0.0048  1.0000  -11.0828   0.0000   0.0000   0.0000   0.2662
  16.100   1.2703   0.12572   0.12311  -0.0583  0.0048  1.0000  -11.0322   0.0000   0.0000   0.0000   0.2674
  16.200   1.2643   0.12869   0.12613  -0.0597  0.0048  1.0000  -10.9785   0.0000   0.0000   0.0000   0.2686
  16.300   1.2584   0.13166   0.12914  -0.0612  0.0048  1.0000  -10.9235   0.0000   0.0000   0.0000   0.2699
  16.400   1.2527   0.13459   0.13210  -0.0627  0.0048  1.0000  -10.8691   0.0000   0.0000   0.0000   0.2711
  16.500   1.2468   0.13759   0.13514  -0.0642  0.0048  1.0000  -10.8091   0.0000   0.0000   0.0000   0.2724
  16.600   1.2414   0.14052   0.13812  -0.0657  0.0048  1.0000  -10.7525   0.0000   0.0000   0.0000   0.2737
  16.700   1.2358   0.14354   0.14118  -0.0673  0.0048  1.0000  -10.6891   0.0000   0.0000   0.0000   0.2751
  16.800   1.2306   0.14649   0.14417  -0.0688  0.0048  1.0000  -10.6291   0.0000   0.0000   0.0000   0.2765
  16.900   1.2253   0.14953   0.14725  -0.0705  0.0048  1.0000  -10.5620   0.0000   0.0000   0.0000   0.2780
  17.000   1.2203   0.15251   0.15027  -0.0721  0.0048  1.0000  -10.4977   0.0000   0.0000   0.0000   0.2794
  17.100   1.2152   0.15558   0.15338  -0.0738  0.0048  1.0000  -10.4252   0.0000   0.0000   0.0000   0.2810
  17.200   1.2104   0.15858   0.15642  -0.0754  0.0048  1.0000  -10.3555   0.0000   0.0000   0.0000   0.2825
  17.300   1.2052   0.16170   0.15957  -0.0772  0.0048  1.0000  -10.2749   0.0000   0.0000   0.0000   0.2841
  17.400   1.2005   0.16473   0.16265  -0.0789  0.0049  1.0000  -10.1984   0.0000   0.0000   0.0000   0.2857
  17.500   1.1954   0.16795   0.16590  -0.0807  0.0049  1.0000  -10.1069   0.0000   0.0000   0.0000   0.2874
  17.600   1.1908   0.17106   0.16905  -0.0825  0.0049  1.0000  -10.0210   0.0000   0.0000   0.0000   0.2891
  17.700   1.1856   0.17443   0.17246  -0.0844  0.0049  1.0000  -9.9133   0.0000   0.0000   0.0000   0.2910
  17.800   1.1809   0.17769   0.17576  -0.0863  0.0049  1.0000  -9.8116   0.0000   0.0000   0.0000   0.2929
  17.900   1.1753   0.18131   0.17943  -0.0884  0.0049  1.0000  -9.6772   0.0000   0.0000   0.0000   0.2950
  18.000   1.1700   0.18489   0.18305  -0.0905  0.0049  1.0000  -9.5427   0.0000   0.0000   0.0000   0.2972
  18.100   1.1631   0.18908   0.18729  -0.0930  0.0049  1.0000  -9.3538   0.0000   0.0000   0.0000   0.2998
  18.200   1.1540   0.19412   0.19240  -0.0959  0.0050  1.0000  -9.0811   0.0000   0.0000   0.0000   0.3031


