xflr5 v6.61

 Calculated polar for: AG35

 1 1 Reynolds number fixed          Mach number fixed         

 xtrf =   1.000 (top)        1.000 (bottom)
 Mach =   0.000     Re =     0.688 e 6     Ncrit =   9.000

  alpha     CL        CD       CDp       Cm    Top Xtr Bot Xtr   Cpmin    Chinge    XCp    
 ------- -------- --------- --------- -------- ------- ------- -------- --------- ---------
  -8.900  -0.5478   0.03150   0.02848  -0.0475  1.0000  0.0142  -5.2691   0.0000   0.0000   0.0000   0.1602
  -8.800  -0.5414   0.03078   0.02772  -0.0473  1.0000  0.0144  -5.1686   0.0000   0.0000   0.0000   0.1596
  -8.600  -0.5321   0.02708   0.02360  -0.0461  1.0000  0.0136  -5.3082   0.0000   0.0000   0.0000   0.1604
  -8.500  -0.5283   0.02527   0.02158  -0.0455  1.0000  0.0136  -5.3401   0.0000   0.0000   0.0000   0.1609
  -8.400  -0.5231   0.02397   0.02011  -0.0449  1.0000  0.0137  -5.3315   0.0000   0.0000   0.0000   0.1613
  -8.300  -0.5168   0.02317   0.01916  -0.0442  1.0000  0.0137  -5.2831   0.0000   0.0000   0.0000   0.1616
  -8.200  -0.5116   0.02206   0.01787  -0.0434  1.0000  0.0138  -5.2599   0.0000   0.0000   0.0000   0.1623
  -8.100  -0.5049   0.02021   0.01578  -0.0431  0.9996  0.0139  -5.2736   0.0000   0.0000   0.0000   0.1617
  -8.000  -0.4935   0.01835   0.01367  -0.0438  0.9985  0.0141  -5.2521   0.0000   0.0000   0.0000   0.1585
  -7.900  -0.4810   0.01728   0.01248  -0.0444  0.9974  0.0143  -5.1600   0.0000   0.0000   0.0000   0.1549
  -7.800  -0.4675   0.01680   0.01197  -0.0450  0.9964  0.0146  -5.0149   0.0000   0.0000   0.0000   0.1507
  -7.700  -0.4536   0.01654   0.01168  -0.0457  0.9955  0.0149  -4.8553   0.0000   0.0000   0.0000   0.1462
  -7.600  -0.4396   0.01632   0.01143  -0.0464  0.9946  0.0153  -4.7077   0.0000   0.0000   0.0000   0.1414
  -7.500  -0.4263   0.01603   0.01112  -0.0469  0.9932  0.0156  -4.5814   0.0000   0.0000   0.0000   0.1369
  -7.400  -0.4129   0.01563   0.01065  -0.0474  0.9918  0.0160  -4.4726   0.0000   0.0000   0.0000   0.1320
  -7.300  -0.3993   0.01512   0.01006  -0.0480  0.9904  0.0162  -4.3775   0.0000   0.0000   0.0000   0.1267
  -7.200  -0.3855   0.01460   0.00946  -0.0485  0.9891  0.0165  -4.2847   0.0000   0.0000   0.0000   0.1209
  -7.100  -0.3716   0.01413   0.00892  -0.0491  0.9878  0.0168  -4.1870   0.0000   0.0000   0.0000   0.1146
  -7.000  -0.3576   0.01371   0.00843  -0.0497  0.9864  0.0170  -4.0856   0.0000   0.0000   0.0000   0.1077
  -6.900  -0.3436   0.01334   0.00800  -0.0502  0.9851  0.0173  -3.9802   0.0000   0.0000   0.0000   0.1003
  -6.800  -0.3311   0.01305   0.00765  -0.0505  0.9823  0.0175  -3.8779   0.0000   0.0000   0.0000   0.0940
  -6.700  -0.3182   0.01280   0.00736  -0.0508  0.9796  0.0177  -3.7704   0.0000   0.0000   0.0000   0.0868
  -6.600  -0.3051   0.01255   0.00706  -0.0511  0.9772  0.0179  -3.6629   0.0000   0.0000   0.0000   0.0787
  -6.500  -0.2930   0.01164   0.00609  -0.0514  0.9750  0.0184  -3.6005   0.0000   0.0000   0.0000   0.0706
  -6.400  -0.2806   0.01127   0.00571  -0.0517  0.9723  0.0189  -3.4950   0.0000   0.0000   0.0000   0.0617
  -6.300  -0.2690   0.01109   0.00553  -0.0518  0.9682  0.0195  -3.3828   0.0000   0.0000   0.0000   0.0534
  -6.200  -0.2568   0.01094   0.00536  -0.0520  0.9646  0.0200  -3.2686   0.0000   0.0000   0.0000   0.0434
  -6.100  -0.2444   0.01077   0.00518  -0.0521  0.9613  0.0206  -3.1588   0.0000   0.0000   0.0000   0.0323
  -6.000  -0.2335   0.01060   0.00498  -0.0520  0.9564  0.0211  -3.0750   0.0000   0.0000   0.0000   0.0227
  -5.900  -0.2225   0.01041   0.00477  -0.0519  0.9518  0.0216  -2.9940   0.0000   0.0000   0.0000   0.0121
  -5.700  -0.2009   0.01010   0.00441  -0.0515  0.9427  0.0225  -2.8322   0.0000   0.0000   0.0000  -0.0114
  -5.600  -0.1903   0.00999   0.00427  -0.0512  0.9378  0.0228  -2.7496   0.0000   0.0000   0.0000  -0.0246
  -5.500  -0.1803   0.00965   0.00387  -0.0509  0.9331  0.0236  -2.6869   0.0000   0.0000   0.0000  -0.0380
  -5.400  -0.1701   0.00939   0.00360  -0.0506  0.9277  0.0246  -2.6138   0.0000   0.0000   0.0000  -0.0535
  -5.300  -0.1598   0.00926   0.00345  -0.0503  0.9229  0.0255  -2.5310   0.0000   0.0000   0.0000  -0.0713
  -5.200  -0.1492   0.00915   0.00333  -0.0501  0.9179  0.0264  -2.4477   0.0000   0.0000   0.0000  -0.0924
  -5.100  -0.1387   0.00906   0.00321  -0.0499  0.9126  0.0276  -2.3647   0.0000   0.0000   0.0000  -0.1166
  -4.900  -0.1174   0.00893   0.00303  -0.0494  0.9026  0.0295  -2.1990   0.0000   0.0000   0.0000  -0.1791
  -4.800  -0.1071   0.00867   0.00275  -0.0492  0.8975  0.0321  -2.1332   0.0000   0.0000   0.0000  -0.2179
  -4.700  -0.0964   0.00857   0.00264  -0.0490  0.8924  0.0341  -2.0641   0.0000   0.0000   0.0000  -0.2673
  -4.600  -0.0857   0.00850   0.00254  -0.0488  0.8866  0.0361  -1.9954   0.0000   0.0000   0.0000  -0.3299
  -4.500  -0.0751   0.00843   0.00243  -0.0485  0.8814  0.0380  -1.9283   0.0000   0.0000   0.0000  -0.4086
  -4.400  -0.0643   0.00826   0.00228  -0.0484  0.8755  0.0427  -1.8640   0.0000   0.0000   0.0000  -0.5167
  -4.300  -0.0535   0.00820   0.00219  -0.0482  0.8702  0.0465  -1.7945   0.0000   0.0000   0.0000  -0.6667
  -4.200  -0.0427   0.00806   0.00208  -0.0481  0.8646  0.0540  -1.7274   0.0000   0.0000   0.0000  -0.8966
  -4.100  -0.0319   0.00796   0.00199  -0.0479  0.8590  0.0638  -1.6594   0.0000   0.0000   0.0000  -1.2778
  -4.000  -0.0211   0.00783   0.00191  -0.0478  0.8533  0.0782  -1.5907   0.0000   0.0000   0.0000  -2.0545
  -3.900  -0.0103   0.00771   0.00183  -0.0477  0.8475  0.0967  -1.5219   0.0000   0.0000   0.0000  -4.4438
  -3.800   0.0005   0.00758   0.00177  -0.0476  0.8418  0.1188  -1.4531   0.0000   0.0000   0.0000  106.2832
  -3.600   0.0220   0.00731   0.00165  -0.0475  0.8296  0.1728  -1.3172   0.0000   0.0000   0.0000   2.4447
  -3.500   0.0328   0.00718   0.00160  -0.0474  0.8231  0.2021  -1.2501   0.0000   0.0000   0.0000   1.7197
  -3.400   0.0435   0.00707   0.00156  -0.0473  0.8169  0.2317  -1.1837   0.0000   0.0000   0.0000   1.3541
  -3.300   0.0543   0.00696   0.00152  -0.0472  0.8106  0.2621  -1.1181   0.0000   0.0000   0.0000   1.1333
  -3.200   0.0651   0.00685   0.00149  -0.0472  0.8047  0.2929  -1.0592   0.0000   0.0000   0.0000   0.9859
  -3.100   0.0760   0.00675   0.00145  -0.0471  0.7981  0.3231  -1.0021   0.0000   0.0000   0.0000   0.8796
  -3.000   0.0867   0.00666   0.00142  -0.0470  0.7920  0.3540  -0.9459   0.0000   0.0000   0.0000   0.8003
  -2.900   0.0976   0.00654   0.00139  -0.0470  0.7853  0.3887  -0.8903   0.0000   0.0000   0.0000   0.7385
  -2.800   0.1083   0.00642   0.00137  -0.0469  0.7790  0.4283  -0.8358   0.0000   0.0000   0.0000   0.6894
  -2.700   0.1190   0.00627   0.00135  -0.0469  0.7720  0.4748  -0.7819   0.0000   0.0000   0.0000   0.6492
  -2.600   0.1294   0.00611   0.00133  -0.0468  0.7652  0.5301  -0.7295   0.0000   0.0000   0.0000   0.6160
  -2.500   0.1397   0.00591   0.00132  -0.0466  0.7577  0.5953  -0.6780   0.0000   0.0000   0.0000   0.5879
  -2.400   0.1495   0.00569   0.00132  -0.0463  0.7504  0.6688  -0.6286   0.0000   0.0000   0.0000   0.5637
  -2.300   0.1588   0.00547   0.00132  -0.0459  0.7423  0.7430  -0.5863   0.0000   0.0000   0.0000   0.5423
  -2.200   0.1672   0.00527   0.00133  -0.0451  0.7340  0.8126  -0.5459   0.0000   0.0000   0.0000   0.5228
  -2.100   0.1745   0.00513   0.00135  -0.0440  0.7254  0.8734  -0.5080   0.0000   0.0000   0.0000   0.5048
  -2.000   0.1825   0.00506   0.00135  -0.0429  0.7155  0.9223  -0.4692   0.0000   0.0000   0.0000   0.4878
  -1.900   0.1961   0.00504   0.00133  -0.0432  0.7038  0.9590  -0.4699   0.0000   0.0000   0.0000   0.4726
  -1.800   0.2141   0.00507   0.00130  -0.0446  0.6893  0.9805  -0.4846   0.0000   0.0000   0.0000   0.4603
  -1.700   0.2324   0.00512   0.00127  -0.0461  0.6685  0.9936  -0.5000   0.0000   0.0000   0.0000   0.4502
  -1.600   0.2491   0.00520   0.00123  -0.0474  0.6387  1.0000  -0.5146   0.0000   0.0000   0.0000   0.4416
  -1.500   0.2592   0.00530   0.00121  -0.0472  0.6210  1.0000  -0.5258   0.0000   0.0000   0.0000   0.4331
  -1.400   0.2695   0.00539   0.00121  -0.0470  0.6086  1.0000  -0.5372   0.0000   0.0000   0.0000   0.4253
  -1.300   0.2800   0.00547   0.00121  -0.0468  0.5990  1.0000  -0.5487   0.0000   0.0000   0.0000   0.4181
  -1.200   0.2905   0.00554   0.00122  -0.0467  0.5910  1.0000  -0.5603   0.0000   0.0000   0.0000   0.4114
  -1.100   0.3012   0.00559   0.00123  -0.0466  0.5844  1.0000  -0.5727   0.0000   0.0000   0.0000   0.4052
  -1.000   0.3119   0.00565   0.00124  -0.0465  0.5783  1.0000  -0.5851   0.0000   0.0000   0.0000   0.3994
  -0.900   0.3227   0.00570   0.00125  -0.0464  0.5730  1.0000  -0.5979   0.0000   0.0000   0.0000   0.3940
  -0.800   0.3336   0.00574   0.00126  -0.0464  0.5677  1.0000  -0.6113   0.0000   0.0000   0.0000   0.3890
  -0.700   0.3443   0.00580   0.00127  -0.0463  0.5629  1.0000  -0.6246   0.0000   0.0000   0.0000   0.3843
  -0.600   0.3553   0.00584   0.00128  -0.0462  0.5583  1.0000  -0.6381   0.0000   0.0000   0.0000   0.3799
  -0.500   0.3662   0.00588   0.00129  -0.0462  0.5537  1.0000  -0.6517   0.0000   0.0000   0.0000   0.3757
  -0.400   0.3771   0.00593   0.00131  -0.0461  0.5495  1.0000  -0.6655   0.0000   0.0000   0.0000   0.3718
  -0.300   0.3881   0.00597   0.00132  -0.0461  0.5454  1.0000  -0.6800   0.0000   0.0000   0.0000   0.3681
  -0.200   0.3991   0.00600   0.00134  -0.0460  0.5411  1.0000  -0.6946   0.0000   0.0000   0.0000   0.3646
  -0.100   0.4101   0.00605   0.00136  -0.0460  0.5371  1.0000  -0.7092   0.0000   0.0000   0.0000   0.3613
   0.000   0.4211   0.00609   0.00138  -0.0460  0.5333  1.0000  -0.7239   0.0000   0.0000   0.0000   0.3581
   0.100   0.4322   0.00612   0.00139  -0.0460  0.5291  1.0000  -0.7390   0.0000   0.0000   0.0000   0.3552
   0.200   0.4432   0.00617   0.00141  -0.0459  0.5250  1.0000  -0.7548   0.0000   0.0000   0.0000   0.3524
   0.300   0.4542   0.00622   0.00143  -0.0459  0.5214  1.0000  -0.7706   0.0000   0.0000   0.0000   0.3497
   0.400   0.4654   0.00625   0.00146  -0.0459  0.5175  1.0000  -0.7867   0.0000   0.0000   0.0000   0.3471
   0.500   0.4765   0.00628   0.00148  -0.0459  0.5135  1.0000  -0.8029   0.0000   0.0000   0.0000   0.3447
   0.600   0.4875   0.00633   0.00150  -0.0459  0.5097  1.0000  -0.8201   0.0000   0.0000   0.0000   0.3423
   0.700   0.4986   0.00637   0.00153  -0.0459  0.5059  1.0000  -0.8374   0.0000   0.0000   0.0000   0.3401
   0.800   0.5097   0.00640   0.00155  -0.0459  0.5018  1.0000  -0.8552   0.0000   0.0000   0.0000   0.3380
   0.900   0.5208   0.00645   0.00158  -0.0459  0.4976  1.0000  -0.8740   0.0000   0.0000   0.0000   0.3359
   1.000   0.5319   0.00649   0.00160  -0.0459  0.4938  1.0000  -0.8936   0.0000   0.0000   0.0000   0.3340
   1.100   0.5431   0.00652   0.00163  -0.0459  0.4894  1.0000  -0.9143   0.0000   0.0000   0.0000   0.3321
   1.200   0.5542   0.00657   0.00166  -0.0459  0.4850  1.0000  -0.9349   0.0000   0.0000   0.0000   0.3303
   1.300   0.5652   0.00661   0.00169  -0.0459  0.4807  1.0000  -0.9557   0.0000   0.0000   0.0000   0.3286
   1.400   0.5764   0.00664   0.00172  -0.0459  0.4757  1.0000  -0.9780   0.0000   0.0000   0.0000   0.3269
   1.500   0.5875   0.00669   0.00175  -0.0459  0.4708  1.0000  -1.0009   0.0000   0.0000   0.0000   0.3253
   1.600   0.5987   0.00673   0.00178  -0.0459  0.4657  1.0000  -1.0240   0.0000   0.0000   0.0000   0.3237
   1.700   0.6098   0.00677   0.00181  -0.0459  0.4596  1.0000  -1.0475   0.0000   0.0000   0.0000   0.3222
   1.800   0.6209   0.00681   0.00183  -0.0459  0.4536  1.0000  -1.0730   0.0000   0.0000   0.0000   0.3208
   1.900   0.6319   0.00686   0.00186  -0.0460  0.4470  1.0000  -1.0987   0.0000   0.0000   0.0000   0.3194
   2.000   0.6430   0.00691   0.00190  -0.0460  0.4402  1.0000  -1.1245   0.0000   0.0000   0.0000   0.3180
   2.100   0.6540   0.00697   0.00193  -0.0460  0.4328  1.0000  -1.1504   0.0000   0.0000   0.0000   0.3167
   2.200   0.6650   0.00703   0.00198  -0.0460  0.4254  1.0000  -1.1791   0.0000   0.0000   0.0000   0.3154
   2.300   0.6760   0.00710   0.00202  -0.0460  0.4177  1.0000  -1.2079   0.0000   0.0000   0.0000   0.3142
   2.400   0.6869   0.00716   0.00206  -0.0460  0.4094  1.0000  -1.2368   0.0000   0.0000   0.0000   0.3130
   2.500   0.6979   0.00724   0.00211  -0.0460  0.4009  1.0000  -1.2659   0.0000   0.0000   0.0000   0.3118
   2.600   0.7087   0.00732   0.00216  -0.0460  0.3920  1.0000  -1.2974   0.0000   0.0000   0.0000   0.3107
   2.700   0.7195   0.00741   0.00221  -0.0460  0.3824  1.0000  -1.3298   0.0000   0.0000   0.0000   0.3096
   2.800   0.7304   0.00749   0.00227  -0.0460  0.3726  1.0000  -1.3625   0.0000   0.0000   0.0000   0.3085
   2.900   0.7412   0.00759   0.00232  -0.0460  0.3625  1.0000  -1.3979   0.0000   0.0000   0.0000   0.3074
   3.000   0.7519   0.00769   0.00240  -0.0460  0.3521  1.0000  -1.4342   0.0000   0.0000   0.0000   0.3064
   3.100   0.7625   0.00781   0.00247  -0.0460  0.3415  1.0000  -1.4719   0.0000   0.0000   0.0000   0.3054
   3.200   0.7732   0.00792   0.00254  -0.0460  0.3306  1.0000  -1.5124   0.0000   0.0000   0.0000   0.3044
   3.300   0.7839   0.00803   0.00261  -0.0459  0.3193  1.0000  -1.5535   0.0000   0.0000   0.0000   0.3035
   3.400   0.7945   0.00815   0.00269  -0.0459  0.3081  1.0000  -1.6012   0.0000   0.0000   0.0000   0.3025
   3.500   0.8051   0.00828   0.00278  -0.0459  0.2974  1.0000  -1.6610   0.0000   0.0000   0.0000   0.3016
   3.600   0.8157   0.00841   0.00287  -0.0459  0.2868  1.0000  -1.7244   0.0000   0.0000   0.0000   0.3007
   3.700   0.8262   0.00855   0.00296  -0.0459  0.2760  1.0000  -1.7955   0.0000   0.0000   0.0000   0.2999
   3.800   0.8367   0.00869   0.00306  -0.0459  0.2652  1.0000  -1.8698   0.0000   0.0000   0.0000   0.2990
   3.900   0.8472   0.00882   0.00316  -0.0459  0.2548  1.0000  -1.9452   0.0000   0.0000   0.0000   0.2982
   4.000   0.8577   0.00895   0.00326  -0.0458  0.2451  1.0000  -2.0214   0.0000   0.0000   0.0000   0.2973
   4.100   0.8682   0.00910   0.00336  -0.0458  0.2356  1.0000  -2.0983   0.0000   0.0000   0.0000   0.2965
   4.300   0.8891   0.00938   0.00357  -0.0458  0.2169  1.0000  -2.2655   0.0000   0.0000   0.0000   0.2950
   4.400   0.8996   0.00952   0.00368  -0.0458  0.2085  1.0000  -2.3532   0.0000   0.0000   0.0000   0.2942
   4.500   0.9099   0.00968   0.00380  -0.0457  0.1998  1.0000  -2.4414   0.0000   0.0000   0.0000   0.2935
   4.600   0.9203   0.00982   0.00392  -0.0457  0.1913  1.0000  -2.5314   0.0000   0.0000   0.0000   0.2927
   4.700   0.9307   0.00996   0.00403  -0.0457  0.1831  1.0000  -2.6221   0.0000   0.0000   0.0000   0.2920
   4.800   0.9409   0.01013   0.00416  -0.0457  0.1743  1.0000  -2.7131   0.0000   0.0000   0.0000   0.2913
   4.900   0.9513   0.01028   0.00428  -0.0456  0.1654  1.0000  -2.8057   0.0000   0.0000   0.0000   0.2906
   5.000   0.9616   0.01044   0.00440  -0.0456  0.1570  1.0000  -2.8993   0.0000   0.0000   0.0000   0.2899
   5.100   0.9718   0.01061   0.00453  -0.0456  0.1488  1.0000  -2.9933   0.0000   0.0000   0.0000   0.2892
   5.200   0.9819   0.01078   0.00467  -0.0455  0.1404  1.0000  -3.0883   0.0000   0.0000   0.0000   0.2885
   5.300   0.9922   0.01093   0.00480  -0.0455  0.1327  1.0000  -3.1911   0.0000   0.0000   0.0000   0.2879
   5.400   1.0023   0.01111   0.00494  -0.0454  0.1250  1.0000  -3.2967   0.0000   0.0000   0.0000   0.2872
   5.500   1.0123   0.01130   0.00510  -0.0454  0.1169  1.0000  -3.4034   0.0000   0.0000   0.0000   0.2865
   5.600   1.0224   0.01147   0.00524  -0.0453  0.1093  1.0000  -3.5117   0.0000   0.0000   0.0000   0.2859
   5.700   1.0323   0.01166   0.00540  -0.0453  0.1018  1.0000  -3.6200   0.0000   0.0000   0.0000   0.2852
   5.800   1.0422   0.01186   0.00556  -0.0452  0.0944  1.0000  -3.7292   0.0000   0.0000   0.0000   0.2846
   5.900   1.0522   0.01204   0.00573  -0.0451  0.0879  1.0000  -3.8401   0.0000   0.0000   0.0000   0.2840
   6.000   1.0619   0.01227   0.00591  -0.0451  0.0811  1.0000  -3.9504   0.0000   0.0000   0.0000   0.2834
   6.100   1.0718   0.01244   0.00607  -0.0450  0.0753  1.0000  -4.0634   0.0000   0.0000   0.0000   0.2827
   6.200   1.0816   0.01266   0.00626  -0.0449  0.0695  1.0000  -4.1756   0.0000   0.0000   0.0000   0.2821
   6.300   1.0913   0.01286   0.00644  -0.0448  0.0640  1.0000  -4.2895   0.0000   0.0000   0.0000   0.2815
   6.400   1.1010   0.01308   0.00664  -0.0447  0.0584  1.0000  -4.4031   0.0000   0.0000   0.0000   0.2809
   6.500   1.1105   0.01331   0.00685  -0.0446  0.0528  1.0000  -4.5170   0.0000   0.0000   0.0000   0.2803
   6.600   1.1201   0.01353   0.00705  -0.0445  0.0476  1.0000  -4.6317   0.0000   0.0000   0.0000   0.2797
   6.700   1.1292   0.01382   0.00729  -0.0443  0.0417  1.0000  -4.7440   0.0000   0.0000   0.0000   0.2791
   6.800   1.1387   0.01404   0.00751  -0.0442  0.0371  1.0000  -4.8590   0.0000   0.0000   0.0000   0.2785
   6.900   1.1477   0.01434   0.00778  -0.0440  0.0323  1.0000  -4.9699   0.0000   0.0000   0.0000   0.2778
   7.000   1.1568   0.01461   0.00803  -0.0439  0.0286  1.0000  -5.0826   0.0000   0.0000   0.0000   0.2772
   7.100   1.1657   0.01493   0.00834  -0.0436  0.0251  1.0000  -5.1901   0.0000   0.0000   0.0000   0.2766
   7.200   1.1748   0.01519   0.00860  -0.0435  0.0228  1.0000  -5.3022   0.0000   0.0000   0.0000   0.2760
   7.300   1.1829   0.01562   0.00902  -0.0431  0.0201  1.0000  -5.3997   0.0000   0.0000   0.0000   0.2752
   7.400   1.1924   0.01582   0.00925  -0.0430  0.0191  1.0000  -5.5146   0.0000   0.0000   0.0000   0.2747
   7.500   1.2015   0.01607   0.00952  -0.0428  0.0179  1.0000  -5.6280   0.0000   0.0000   0.0000   0.2741
   7.600   1.2102   0.01638   0.00983  -0.0426  0.0168  1.0000  -5.7449   0.0000   0.0000   0.0000   0.2735
   7.700   1.2175   0.01688   0.01036  -0.0421  0.0154  1.0000  -5.8473   0.0000   0.0000   0.0000   0.2727
   7.800   1.2269   0.01708   0.01059  -0.0420  0.0149  1.0000  -5.9792   0.0000   0.0000   0.0000   0.2722
   7.900   1.2359   0.01731   0.01086  -0.0418  0.0143  1.0000  -6.1088   0.0000   0.0000   0.0000   0.2716
   8.000   1.2448   0.01757   0.01114  -0.0416  0.0137  1.0000  -6.2389   0.0000   0.0000   0.0000   0.2710
   8.100   1.2534   0.01785   0.01144  -0.0414  0.0132  1.0000  -6.3691   0.0000   0.0000   0.0000   0.2704
   8.200   1.2614   0.01820   0.01180  -0.0411  0.0127  1.0000  -6.4934   0.0000   0.0000   0.0000   0.2698
   8.300   1.2682   0.01870   0.01234  -0.0406  0.0121  1.0000  -6.6003   0.0000   0.0000   0.0000   0.2691
   8.400   1.2744   0.01925   0.01293  -0.0401  0.0117  1.0000  -6.6984   0.0000   0.0000   0.0000   0.2683
   8.500   1.2829   0.01951   0.01323  -0.0398  0.0115  1.0000  -6.8277   0.0000   0.0000   0.0000   0.2677
   8.600   1.2911   0.01981   0.01357  -0.0395  0.0112  1.0000  -6.9538   0.0000   0.0000   0.0000   0.2671
   8.700   1.2990   0.02014   0.01393  -0.0392  0.0110  1.0000  -7.0780   0.0000   0.0000   0.0000   0.2665
   8.800   1.3066   0.02048   0.01432  -0.0389  0.0107  1.0000  -7.2015   0.0000   0.0000   0.0000   0.2659
   8.900   1.3141   0.02083   0.01471  -0.0385  0.0105  1.0000  -7.3250   0.0000   0.0000   0.0000   0.2653
   9.000   1.3214   0.02119   0.01510  -0.0381  0.0102  1.0000  -7.4489   0.0000   0.0000   0.0000   0.2646
   9.100   1.3285   0.02156   0.01550  -0.0377  0.0100  1.0000  -7.5729   0.0000   0.0000   0.0000   0.2640
   9.200   1.3353   0.02194   0.01591  -0.0373  0.0098  1.0000  -7.6959   0.0000   0.0000   0.0000   0.2634
   9.300   1.3417   0.02236   0.01636  -0.0369  0.0096  1.0000  -7.8158   0.0000   0.0000   0.0000   0.2627
   9.400   1.3473   0.02284   0.01687  -0.0363  0.0094  1.0000  -7.9281   0.0000   0.0000   0.0000   0.2620
   9.500   1.3517   0.02342   0.01750  -0.0356  0.0092  1.0000  -8.0263   0.0000   0.0000   0.0000   0.2612
   9.600   1.3544   0.02415   0.01827  -0.0347  0.0091  1.0000  -8.1037   0.0000   0.0000   0.0000   0.2603
   9.700   1.3546   0.02508   0.01927  -0.0335  0.0089  1.0000  -8.1516   0.0000   0.0000   0.0000   0.2592
   9.800   1.3585   0.02565   0.01989  -0.0328  0.0088  1.0000  -8.2434   0.0000   0.0000   0.0000   0.2584
   9.900   1.3643   0.02602   0.02030  -0.0322  0.0087  1.0000  -8.3609   0.0000   0.0000   0.0000   0.2578
  10.000   1.3695   0.02642   0.02075  -0.0316  0.0086  1.0000  -8.4735   0.0000   0.0000   0.0000   0.2570
  10.100   1.3734   0.02683   0.02121  -0.0308  0.0085  1.0000  -8.5767   0.0000   0.0000   0.0000   0.2562
  10.200   1.3768   0.02728   0.02169  -0.0300  0.0084  1.0000  -8.6757   0.0000   0.0000   0.0000   0.2553
  10.300   1.3799   0.02775   0.02221  -0.0291  0.0083  1.0000  -8.7720   0.0000   0.0000   0.0000   0.2545
  10.400   1.3826   0.02825   0.02276  -0.0283  0.0082  1.0000  -8.8662   0.0000   0.0000   0.0000   0.2536
  10.500   1.3851   0.02879   0.02335  -0.0275  0.0081  1.0000  -8.9585   0.0000   0.0000   0.0000   0.2528
  10.600   1.3874   0.02935   0.02396  -0.0267  0.0080  1.0000  -9.0489   0.0000   0.0000   0.0000   0.2520
  10.700   1.3895   0.02995   0.02460  -0.0260  0.0079  1.0000  -9.1374   0.0000   0.0000   0.0000   0.2513
  10.800   1.3913   0.03058   0.02528  -0.0253  0.0078  1.0000  -9.2237   0.0000   0.0000   0.0000   0.2506
  10.900   1.3928   0.03126   0.02600  -0.0247  0.0077  1.0000  -9.3075   0.0000   0.0000   0.0000   0.2499
  11.000   1.3941   0.03198   0.02677  -0.0241  0.0076  1.0000  -9.3880   0.0000   0.0000   0.0000   0.2492
  11.100   1.3952   0.03274   0.02758  -0.0235  0.0075  1.0000  -9.4665   0.0000   0.0000   0.0000   0.2486
  11.200   1.3961   0.03355   0.02843  -0.0230  0.0075  1.0000  -9.5435   0.0000   0.0000   0.0000   0.2481
  11.300   1.3968   0.03439   0.02932  -0.0226  0.0074  1.0000  -9.6190   0.0000   0.0000   0.0000   0.2476
  11.400   1.3974   0.03528   0.03026  -0.0222  0.0073  1.0000  -9.6931   0.0000   0.0000   0.0000   0.2471
  11.500   1.3977   0.03621   0.03124  -0.0220  0.0073  1.0000  -9.7651   0.0000   0.0000   0.0000   0.2467
  11.600   1.3978   0.03720   0.03228  -0.0217  0.0072  1.0000  -9.8346   0.0000   0.0000   0.0000   0.2463
  11.700   1.3977   0.03825   0.03337  -0.0216  0.0072  1.0000  -9.9016   0.0000   0.0000   0.0000   0.2460
  11.800   1.3974   0.03935   0.03452  -0.0215  0.0071  1.0000  -9.9657   0.0000   0.0000   0.0000   0.2457
  11.900   1.3967   0.04052   0.03573  -0.0215  0.0071  1.0000  -10.0259   0.0000   0.0000   0.0000   0.2454
  12.000   1.3957   0.04176   0.03702  -0.0215  0.0070  1.0000  -10.0819   0.0000   0.0000   0.0000   0.2453
  12.100   1.3944   0.04306   0.03837  -0.0216  0.0070  1.0000  -10.1334   0.0000   0.0000   0.0000   0.2451
  12.200   1.3928   0.04445   0.03980  -0.0217  0.0069  1.0000  -10.1801   0.0000   0.0000   0.0000   0.2450
  12.300   1.3907   0.04591   0.04131  -0.0219  0.0069  1.0000  -10.2210   0.0000   0.0000   0.0000   0.2450
  12.400   1.3882   0.04744   0.04291  -0.0222  0.0069  1.0000  -10.2561   0.0000   0.0000   0.0000   0.2450
  12.500   1.3853   0.04907   0.04459  -0.0226  0.0068  1.0000  -10.2856   0.0000   0.0000   0.0000   0.2451
  12.600   1.3822   0.05079   0.04636  -0.0230  0.0068  1.0000  -10.3095   0.0000   0.0000   0.0000   0.2452
  12.700   1.3787   0.05260   0.04823  -0.0235  0.0068  1.0000  -10.3275   0.0000   0.0000   0.0000   0.2454
  12.800   1.3748   0.05449   0.05017  -0.0241  0.0067  1.0000  -10.3397   0.0000   0.0000   0.0000   0.2456
  12.900   1.3706   0.05645   0.05219  -0.0247  0.0067  1.0000  -10.3465   0.0000   0.0000   0.0000   0.2459
  13.000   1.3662   0.05847   0.05427  -0.0253  0.0067  1.0000  -10.3483   0.0000   0.0000   0.0000   0.2463
  13.100   1.3614   0.06056   0.05642  -0.0260  0.0067  1.0000  -10.3456   0.0000   0.0000   0.0000   0.2466
  13.200   1.3563   0.06269   0.05862  -0.0267  0.0066  1.0000  -10.3383   0.0000   0.0000   0.0000   0.2470
  13.300   1.3510   0.06487   0.06086  -0.0275  0.0066  1.0000  -10.3269   0.0000   0.0000   0.0000   0.2474
  13.400   1.3454   0.06710   0.06315  -0.0282  0.0066  1.0000  -10.3119   0.0000   0.0000   0.0000   0.2479
  13.500   1.3397   0.06938   0.06549  -0.0290  0.0066  1.0000  -10.2938   0.0000   0.0000   0.0000   0.2484
  13.600   1.3338   0.07170   0.06787  -0.0299  0.0066  1.0000  -10.2728   0.0000   0.0000   0.0000   0.2489
  13.700   1.3277   0.07406   0.07029  -0.0308  0.0066  1.0000  -10.2491   0.0000   0.0000   0.0000   0.2495
  13.800   1.3215   0.07647   0.07276  -0.0317  0.0065  1.0000  -10.2232   0.0000   0.0000   0.0000   0.2501
  13.900   1.3153   0.07893   0.07528  -0.0327  0.0065  1.0000  -10.1953   0.0000   0.0000   0.0000   0.2507
  14.000   1.3091   0.08144   0.07785  -0.0337  0.0065  1.0000  -10.1696   0.0000   0.0000   0.0000   0.2515
  14.100   1.3028   0.08401   0.08048  -0.0348  0.0065  1.0000  -10.1425   0.0000   0.0000   0.0000   0.2522
  14.200   1.2966   0.08662   0.08315  -0.0359  0.0065  1.0000  -10.1137   0.0000   0.0000   0.0000   0.2531
  14.300   1.2903   0.08925   0.08584  -0.0371  0.0065  1.0000  -10.0832   0.0000   0.0000   0.0000   0.2539
  14.400   1.2840   0.09193   0.08858  -0.0383  0.0065  1.0000  -10.0512   0.0000   0.0000   0.0000   0.2548
  14.500   1.2778   0.09465   0.09136  -0.0396  0.0065  1.0000  -10.0178   0.0000   0.0000   0.0000   0.2558
  14.600   1.2716   0.09741   0.09417  -0.0409  0.0065  1.0000  -9.9829   0.0000   0.0000   0.0000   0.2568
  14.700   1.2655   0.10021   0.09703  -0.0423  0.0065  1.0000  -9.9466   0.0000   0.0000   0.0000   0.2579
  14.800   1.2594   0.10304   0.09991  -0.0437  0.0065  1.0000  -9.9090   0.0000   0.0000   0.0000   0.2590
  14.900   1.2533   0.10589   0.10281  -0.0451  0.0065  1.0000  -9.8702   0.0000   0.0000   0.0000   0.2601
  15.000   1.2474   0.10876   0.10574  -0.0465  0.0065  1.0000  -9.8301   0.0000   0.0000   0.0000   0.2613
  15.100   1.2415   0.11166   0.10869  -0.0480  0.0065  1.0000  -9.7887   0.0000   0.0000   0.0000   0.2625
  15.200   1.2357   0.11460   0.11168  -0.0495  0.0065  1.0000  -9.7458   0.0000   0.0000   0.0000   0.2637
  15.300   1.2299   0.11756   0.11469  -0.0510  0.0065  1.0000  -9.7015   0.0000   0.0000   0.0000   0.2650
  15.400   1.2243   0.12053   0.11771  -0.0526  0.0065  1.0000  -9.6559   0.0000   0.0000   0.0000   0.2664
  15.500   1.2188   0.12352   0.12075  -0.0542  0.0065  1.0000  -9.6088   0.0000   0.0000   0.0000   0.2677
  15.600   1.2133   0.12654   0.12381  -0.0558  0.0065  1.0000  -9.5597   0.0000   0.0000   0.0000   0.2691
  15.700   1.2078   0.12955   0.12687  -0.0574  0.0065  1.0000  -9.5090   0.0000   0.0000   0.0000   0.2706
  15.800   1.2025   0.13258   0.12995  -0.0591  0.0065  1.0000  -9.4566   0.0000   0.0000   0.0000   0.2720
  15.900   1.1972   0.13564   0.13305  -0.0607  0.0065  1.0000  -9.4018   0.0000   0.0000   0.0000   0.2735
  16.000   1.1920   0.13873   0.13619  -0.0625  0.0066  1.0000  -9.3443   0.0000   0.0000   0.0000   0.2751
  16.100   1.1870   0.14182   0.13933  -0.0642  0.0066  1.0000  -9.2847   0.0000   0.0000   0.0000   0.2766
  16.200   1.1819   0.14497   0.14252  -0.0659  0.0066  1.0000  -9.2216   0.0000   0.0000   0.0000   0.2783
  16.300   1.1769   0.14815   0.14575  -0.0678  0.0066  1.0000  -9.1543   0.0000   0.0000   0.0000   0.2800
  16.400   1.1719   0.15136   0.14899  -0.0696  0.0066  1.0000  -9.0836   0.0000   0.0000   0.0000   0.2817
  16.500   1.1669   0.15463   0.15231  -0.0715  0.0066  1.0000  -9.0066   0.0000   0.0000   0.0000   0.2835
  16.600   1.1617   0.15797   0.15570  -0.0734  0.0066  1.0000  -8.9220   0.0000   0.0000   0.0000   0.2854
  16.700   1.1565   0.16138   0.15915  -0.0754  0.0066  1.0000  -8.8296   0.0000   0.0000   0.0000   0.2873
  16.800   1.1509   0.16499   0.16281  -0.0774  0.0067  1.0000  -8.7211   0.0000   0.0000   0.0000   0.2894
  16.900   1.1445   0.16889   0.16676  -0.0797  0.0067  1.0000  -8.5871   0.0000   0.0000   0.0000   0.2918
  17.000   1.1365   0.17345   0.17138  -0.0823  0.0068  1.0000  -8.3995   0.0000   0.0000   0.0000   0.2947
  24.400   1.2186   0.34057   0.33877  -0.1820  0.0046  1.0000  -2.7486   0.0000   0.0000   0.0000   0.3654
  24.500   1.2216   0.34210   0.34029  -0.1833  0.0046  1.0000  -2.7193   0.0000   0.0000   0.0000   0.3659
  24.600   1.2247   0.34365   0.34184  -0.1846  0.0046  1.0000  -2.6797   0.0000   0.0000   0.0000   0.3664
  24.700   1.2279   0.34523   0.34342  -0.1859  0.0046  1.0000  -2.6376   0.0000   0.0000   0.0000   0.3669
  24.800   1.2311   0.34683   0.34502  -0.1873  0.0046  1.0000  -2.5939   0.0000   0.0000   0.0000   0.3674
  24.900   1.2344   0.34848   0.34667  -0.1886  0.0046  1.0000  -2.5467   0.0000   0.0000   0.0000   0.3680
  25.000   1.2379   0.35020   0.34839  -0.1899  0.0045  1.0000  -2.4930   0.0000   0.0000   0.0000   0.3685
  25.100   1.2416   0.35201   0.35019  -0.1912  0.0045  1.0000  -2.4340   0.0000   0.0000   0.0000   0.3689
  25.200   1.2451   0.35364   0.35182  -0.1924  0.0044  1.0000  -2.3946   0.0000   0.0000   0.0000   0.3692
  25.300   1.2483   0.35504   0.35323  -0.1935  0.0043  1.0000  -2.3794   0.0000   0.0000   0.0000   0.3695
  25.400   1.2513   0.35635   0.35454  -0.1945  0.0042  1.0000  -2.3739   0.0000   0.0000   0.0000   0.3697
  25.500   1.2543   0.35757   0.35576  -0.1956  0.0041  1.0000  -2.3732   0.0000   0.0000   0.0000   0.3699
  25.600   1.2573   0.35881   0.35701  -0.1967  0.0040  1.0000  -2.3757   0.0000   0.0000   0.0000   0.3702
  25.700   1.2602   0.36002   0.35822  -0.1977  0.0039  1.0000  -2.3805   0.0000   0.0000   0.0000   0.3704
  25.800   1.2630   0.36120   0.35940  -0.1988  0.0038  1.0000  -2.3875   0.0000   0.0000   0.0000   0.3706
  25.900   1.2658   0.36236   0.36056  -0.1998  0.0038  1.0000  -2.3965   0.0000   0.0000   0.0000   0.3708
  26.000   1.2686   0.36349   0.36170  -0.2009  0.0037  1.0000  -2.4074   0.0000   0.0000   0.0000   0.3710
  26.100   1.2714   0.36461   0.36281  -0.2019  0.0036  1.0000  -2.4202   0.0000   0.0000   0.0000   0.3712
  26.200   1.2742   0.36570   0.36391  -0.2030  0.0036  1.0000  -2.4346   0.0000   0.0000   0.0000   0.3714
  26.300   1.2769   0.36678   0.36500  -0.2040  0.0035  1.0000  -2.4506   0.0000   0.0000   0.0000   0.3716
  26.400   1.2795   0.36785   0.36607  -0.2051  0.0035  1.0000  -2.4678   0.0000   0.0000   0.0000   0.3718
  26.500   1.2822   0.36891   0.36713  -0.2061  0.0034  1.0000  -2.4857   0.0000   0.0000   0.0000   0.3720
  26.600   1.2848   0.36991   0.36814  -0.2071  0.0034  1.0000  -2.5048   0.0000   0.0000   0.0000   0.3722
  26.700   1.2874   0.37092   0.36915  -0.2082  0.0034  1.0000  -2.5260   0.0000   0.0000   0.0000   0.3724
  26.800   1.2899   0.37190   0.37013  -0.2092  0.0033  1.0000  -2.5494   0.0000   0.0000   0.0000   0.3726
  26.900   1.2924   0.37292   0.37115  -0.2102  0.0033  1.0000  -2.5755   0.0000   0.0000   0.0000   0.3728
  27.000   1.2948   0.37385   0.37209  -0.2112  0.0033  1.0000  -2.6044   0.0000   0.0000   0.0000   0.3729
  27.100   1.2972   0.37476   0.37300  -0.2122  0.0033  1.0000  -2.6367   0.0000   0.0000   0.0000   0.3731
  27.200   1.2995   0.37564   0.37389  -0.2132  0.0032  1.0000  -2.6727   0.0000   0.0000   0.0000   0.3732
  27.300   1.3017   0.37650   0.37476  -0.2141  0.0032  1.0000  -2.7136   0.0000   0.0000   0.0000   0.3732
  27.400   1.3039   0.37735   0.37562  -0.2149  0.0032  1.0000  -2.7610   0.0000   0.0000   0.0000   0.3733
  27.500   1.3059   0.37827   0.37654  -0.2156  0.0032  1.0000  -2.8192   0.0000   0.0000   0.0000   0.3731


