xflr5 v6.61

 Calculated polar for: AG35

 1 1 Reynolds number fixed          Mach number fixed         

 xtrf =   1.000 (top)        1.000 (bottom)
 Mach =   0.000     Re =     0.200 e 6     Ncrit =   9.000

  alpha     CL        CD       CDp       Cm    Top Xtr Bot Xtr   Cpmin    Chinge    XCp    
 ------- -------- --------- --------- -------- ------- ------- -------- --------- ---------
 -10.000  -0.4033   0.08466   0.08142  -0.0164  1.0000  0.0504  -1.8106   0.0000   0.0000   0.0000   0.2057
  -9.900  -0.4018   0.08329   0.08006  -0.0166  1.0000  0.0512  -1.7964   0.0000   0.0000   0.0000   0.2051
  -9.800  -0.4011   0.08179   0.07857  -0.0170  1.0000  0.0520  -1.7938   0.0000   0.0000   0.0000   0.2039
  -9.700  -0.4012   0.08019   0.07699  -0.0177  1.0000  0.0529  -1.8003   0.0000   0.0000   0.0000   0.2024
  -9.400  -0.4980   0.08011   0.07684  -0.0232  1.0000  0.0484  -2.3763   0.0000   0.0000   0.0000   0.1997
  -9.300  -0.4942   0.07922   0.07596  -0.0223  1.0000  0.0489  -2.3190   0.0000   0.0000   0.0000   0.2012
  -9.200  -0.4903   0.07825   0.07499  -0.0219  1.0000  0.0495  -2.2704   0.0000   0.0000   0.0000   0.2016
  -9.100  -0.4866   0.07712   0.07387  -0.0221  1.0000  0.0502  -2.2341   0.0000   0.0000   0.0000   0.2009
  -9.000  -0.4831   0.07575   0.07250  -0.0230  1.0000  0.0511  -2.2143   0.0000   0.0000   0.0000   0.1987
  -8.900  -0.4799   0.07411   0.07086  -0.0245  1.0000  0.0521  -2.2104   0.0000   0.0000   0.0000   0.1954
  -8.800  -0.4766   0.07221   0.06895  -0.0266  1.0000  0.0532  -2.2216   0.0000   0.0000   0.0000   0.1908
  -8.700  -0.4733   0.06994   0.06667  -0.0294  1.0000  0.0545  -2.2545   0.0000   0.0000   0.0000   0.1846
  -8.600  -0.4692   0.06522   0.06178  -0.0379  1.0000  0.0570  -2.4698   0.0000   0.0000   0.0000   0.1660
  -8.500  -0.4698   0.06227   0.05846  -0.0429  1.0000  0.0577  -2.6786   0.0000   0.0000   0.0000   0.1558
  -8.200  -0.4586   0.05684   0.05329  -0.0413  1.0000  0.0596  -2.5009   0.0000   0.0000   0.0000   0.1571
  -8.100  -0.4535   0.05605   0.05252  -0.0407  1.0000  0.0603  -2.4370   0.0000   0.0000   0.0000   0.1573
  -8.000  -0.4484   0.05506   0.05152  -0.0405  1.0000  0.0610  -2.3912   0.0000   0.0000   0.0000   0.1568
  -7.900  -0.4434   0.05391   0.05035  -0.0405  1.0000  0.0620  -2.3581   0.0000   0.0000   0.0000   0.1557
  -7.800  -0.4384   0.05260   0.04901  -0.0407  1.0000  0.0631  -2.3368   0.0000   0.0000   0.0000   0.1542
  -7.700  -0.4336   0.05109   0.04743  -0.0412  1.0000  0.0647  -2.3316   0.0000   0.0000   0.0000   0.1522
  -7.600  -0.4204   0.03755   0.03374  -0.0409  1.0000  0.0701  -2.4130   0.0000   0.0000   0.0000   0.1510
  -7.500  -0.4168   0.03611   0.03238  -0.0403  1.0000  0.0706  -2.3602   0.0000   0.0000   0.0000   0.1516
  -7.400  -0.4131   0.03508   0.03141  -0.0395  1.0000  0.0711  -2.3076   0.0000   0.0000   0.0000   0.1526
  -7.300  -0.4096   0.03421   0.03057  -0.0387  1.0000  0.0717  -2.2592   0.0000   0.0000   0.0000   0.1538
  -7.200  -0.4064   0.03337   0.02973  -0.0380  1.0000  0.0725  -2.2177   0.0000   0.0000   0.0000   0.1549
  -7.100  -0.4033   0.03253   0.02889  -0.0372  1.0000  0.0734  -2.1815   0.0000   0.0000   0.0000   0.1560
  -7.000  -0.4003   0.03164   0.02796  -0.0366  1.0000  0.0746  -2.1533   0.0000   0.0000   0.0000   0.1570
  -6.700  -0.3832   0.02971   0.02410  -0.0398  1.0000  0.0459  -2.8755   0.0000   0.0000   0.0000   0.1433
  -6.600  -0.3770   0.02833   0.02261  -0.0393  1.0000  0.0455  -2.8698   0.0000   0.0000   0.0000   0.1430
  -6.500  -0.3702   0.02715   0.02128  -0.0387  1.0000  0.0452  -2.8623   0.0000   0.0000   0.0000   0.1426
  -6.400  -0.3631   0.02599   0.01997  -0.0382  1.0000  0.0448  -2.8534   0.0000   0.0000   0.0000   0.1420
  -6.300  -0.3557   0.02481   0.01865  -0.0376  1.0000  0.0443  -2.8457   0.0000   0.0000   0.0000   0.1413
  -6.200  -0.3477   0.02361   0.01727  -0.0371  1.0000  0.0434  -2.8422   0.0000   0.0000   0.0000   0.1403
  -6.100  -0.3393   0.02250   0.01597  -0.0366  1.0000  0.0427  -2.8372   0.0000   0.0000   0.0000   0.1391
  -6.000  -0.3305   0.02153   0.01482  -0.0361  1.0000  0.0423  -2.8236   0.0000   0.0000   0.0000   0.1377
  -5.900  -0.3216   0.02070   0.01384  -0.0357  1.0000  0.0421  -2.7989   0.0000   0.0000   0.0000   0.1360
  -5.800  -0.3125   0.02000   0.01299  -0.0352  1.0000  0.0422  -2.7648   0.0000   0.0000   0.0000   0.1341
  -5.700  -0.3033   0.01938   0.01225  -0.0348  1.0000  0.0425  -2.7236   0.0000   0.0000   0.0000   0.1319
  -5.600  -0.2940   0.01883   0.01160  -0.0345  1.0000  0.0429  -2.6773   0.0000   0.0000   0.0000   0.1295
  -5.500  -0.2847   0.01839   0.01107  -0.0341  1.0000  0.0436  -2.6231   0.0000   0.0000   0.0000   0.1269
  -5.400  -0.2746   0.01806   0.01065  -0.0339  0.9998  0.0449  -2.5606   0.0000   0.0000   0.0000   0.1231
  -5.300  -0.2579   0.01771   0.01017  -0.0349  0.9981  0.0463  -2.4969   0.0000   0.0000   0.0000   0.1111
  -5.200  -0.2415   0.01727   0.00963  -0.0358  0.9965  0.0472  -2.4376   0.0000   0.0000   0.0000   0.0979
  -5.100  -0.2266   0.01625   0.00859  -0.0366  0.9956  0.0485  -2.3930   0.0000   0.0000   0.0000   0.0845
  -5.000  -0.2108   0.01570   0.00807  -0.0375  0.9942  0.0501  -2.3221   0.0000   0.0000   0.0000   0.0677
  -4.900  -0.1952   0.01531   0.00767  -0.0384  0.9922  0.0519  -2.2487   0.0000   0.0000   0.0000   0.0486
  -4.800  -0.1792   0.01500   0.00734  -0.0393  0.9901  0.0547  -2.1725   0.0000   0.0000   0.0000   0.0252
  -4.700  -0.1625   0.01480   0.00708  -0.0404  0.9881  0.0576  -2.0937   0.0000   0.0000   0.0000  -0.0042
  -4.600  -0.1468   0.01417   0.00651  -0.0414  0.9867  0.0613  -2.0233   0.0000   0.0000   0.0000  -0.0383
  -4.500  -0.1298   0.01385   0.00622  -0.0426  0.9852  0.0655  -1.9447   0.0000   0.0000   0.0000  -0.0851
  -4.400  -0.1147   0.01354   0.00588  -0.0433  0.9824  0.0703  -1.8899   0.0000   0.0000   0.0000  -0.1355
  -4.300  -0.0992   0.01320   0.00561  -0.0443  0.9798  0.0780  -1.8231   0.0000   0.0000   0.0000  -0.2057
  -4.200  -0.0828   0.01284   0.00529  -0.0454  0.9775  0.0882  -1.7595   0.0000   0.0000   0.0000  -0.3085
  -4.100  -0.0659   0.01247   0.00500  -0.0465  0.9757  0.1065  -1.6954   0.0000   0.0000   0.0000  -0.4698
  -4.000  -0.0491   0.01190   0.00472  -0.0479  0.9742  0.1527  -1.6289   0.0000   0.0000   0.0000  -0.7441
  -3.900  -0.0342   0.01134   0.00458  -0.0490  0.9717  0.2418  -1.5589   0.0000   0.0000   0.0000  -1.2071
  -3.800  -0.0198   0.01095   0.00450  -0.0498  0.9685  0.3208  -1.4839   0.0000   0.0000   0.0000  -2.3063
  -3.700  -0.0043   0.01059   0.00442  -0.0509  0.9659  0.3933  -1.4042   0.0000   0.0000   0.0000  -11.6784
  -3.600   0.0109   0.01018   0.00434  -0.0518  0.9636  0.4767  -1.3250   0.0000   0.0000   0.0000   5.0681
  -3.500   0.0253   0.00972   0.00429  -0.0525  0.9615  0.5794  -1.2487   0.0000   0.0000   0.0000   2.3604
  -3.400   0.0349   0.00929   0.00430  -0.0518  0.9575  0.6888  -1.1863   0.0000   0.0000   0.0000   1.7592
  -3.300   0.0436   0.00896   0.00434  -0.0506  0.9537  0.8003  -1.1307   0.0000   0.0000   0.0000   1.4296
  -3.200   0.0610   0.00879   0.00437  -0.0508  0.9522  0.9146  -1.0549   0.0000   0.0000   0.0000   1.0968
  -3.100   0.0971   0.00868   0.00423  -0.0556  0.9533  0.9933  -0.9343   0.0000   0.0000   0.0000   0.8310
  -3.000   0.1170   0.00863   0.00409  -0.0573  0.9502  1.0000  -0.8577   0.0000   0.0000   0.0000   0.7470
  -2.900   0.1318   0.00859   0.00399  -0.0580  0.9456  1.0000  -0.7944   0.0000   0.0000   0.0000   0.6959
  -2.800   0.1448   0.00856   0.00391  -0.0583  0.9396  1.0000  -0.7366   0.0000   0.0000   0.0000   0.6576
  -2.700   0.1594   0.00852   0.00380  -0.0588  0.9351  1.0000  -0.6755   0.0000   0.0000   0.0000   0.6236
  -2.600   0.1704   0.00850   0.00374  -0.0586  0.9280  1.0000  -0.6283   0.0000   0.0000   0.0000   0.5985
  -2.500   0.1829   0.00847   0.00365  -0.0587  0.9225  1.0000  -0.5796   0.0000   0.0000   0.0000   0.5750
  -2.400   0.1933   0.00845   0.00358  -0.0584  0.9152  1.0000  -0.5362   0.0000   0.0000   0.0000   0.5558
  -2.300   0.2044   0.00843   0.00350  -0.0582  0.9091  1.0000  -0.4916   0.0000   0.0000   0.0000   0.5378
  -2.200   0.2142   0.00842   0.00345  -0.0577  0.9013  1.0000  -0.4639   0.0000   0.0000   0.0000   0.5225
  -2.100   0.2245   0.00839   0.00337  -0.0573  0.8949  1.0000  -0.4742   0.0000   0.0000   0.0000   0.5079
  -2.000   0.2339   0.00839   0.00332  -0.0568  0.8864  1.0000  -0.4838   0.0000   0.0000   0.0000   0.4952
  -1.900   0.2436   0.00838   0.00326  -0.0563  0.8790  1.0000  -0.4939   0.0000   0.0000   0.0000   0.4831
  -1.800   0.2531   0.00837   0.00320  -0.0557  0.8709  1.0000  -0.5042   0.0000   0.0000   0.0000   0.4720
  -1.700   0.2626   0.00838   0.00316  -0.0552  0.8622  1.0000  -0.5145   0.0000   0.0000   0.0000   0.4618
  -1.600   0.2721   0.00837   0.00310  -0.0546  0.8540  1.0000  -0.5251   0.0000   0.0000   0.0000   0.4523
  -1.500   0.2817   0.00838   0.00305  -0.0541  0.8454  1.0000  -0.5361   0.0000   0.0000   0.0000   0.4433
  -1.400   0.2912   0.00839   0.00301  -0.0536  0.8355  1.0000  -0.5471   0.0000   0.0000   0.0000   0.4351
  -1.300   0.3009   0.00840   0.00297  -0.0531  0.8257  1.0000  -0.5582   0.0000   0.0000   0.0000   0.4274
  -1.200   0.3106   0.00841   0.00292  -0.0526  0.8163  1.0000  -0.5696   0.0000   0.0000   0.0000   0.4202
  -1.100   0.3203   0.00843   0.00287  -0.0521  0.8072  1.0000  -0.5815   0.0000   0.0000   0.0000   0.4133
  -1.000   0.3302   0.00846   0.00284  -0.0517  0.7967  1.0000  -0.5934   0.0000   0.0000   0.0000   0.4070
  -0.900   0.3401   0.00849   0.00282  -0.0513  0.7865  1.0000  -0.6057   0.0000   0.0000   0.0000   0.4011
  -0.800   0.3500   0.00854   0.00279  -0.0509  0.7766  1.0000  -0.6185   0.0000   0.0000   0.0000   0.3955
  -0.700   0.3600   0.00859   0.00277  -0.0505  0.7669  1.0000  -0.6314   0.0000   0.0000   0.0000   0.3903
  -0.600   0.3702   0.00864   0.00277  -0.0502  0.7562  1.0000  -0.6443   0.0000   0.0000   0.0000   0.3854
  -0.500   0.3803   0.00869   0.00276  -0.0499  0.7459  1.0000  -0.6573   0.0000   0.0000   0.0000   0.3809
  -0.400   0.3905   0.00874   0.00276  -0.0496  0.7360  1.0000  -0.6707   0.0000   0.0000   0.0000   0.3766
  -0.300   0.4007   0.00880   0.00275  -0.0493  0.7267  1.0000  -0.6847   0.0000   0.0000   0.0000   0.3725
  -0.200   0.4111   0.00885   0.00275  -0.0490  0.7163  1.0000  -0.6987   0.0000   0.0000   0.0000   0.3687
  -0.100   0.4215   0.00891   0.00276  -0.0488  0.7064  1.0000  -0.7129   0.0000   0.0000   0.0000   0.3651
   0.000   0.4319   0.00896   0.00277  -0.0486  0.6970  1.0000  -0.7271   0.0000   0.0000   0.0000   0.3617
   0.200   0.4529   0.00907   0.00278  -0.0482  0.6784  1.0000  -0.7572   0.0000   0.0000   0.0000   0.3553
   0.300   0.4634   0.00912   0.00279  -0.0481  0.6690  1.0000  -0.7726   0.0000   0.0000   0.0000   0.3525
   0.400   0.4740   0.00917   0.00281  -0.0479  0.6601  1.0000  -0.7881   0.0000   0.0000   0.0000   0.3497
   0.500   0.4845   0.00923   0.00281  -0.0477  0.6517  1.0000  -0.8042   0.0000   0.0000   0.0000   0.3470
   0.600   0.4950   0.00929   0.00283  -0.0475  0.6433  1.0000  -0.8209   0.0000   0.0000   0.0000   0.3444
   0.700   0.5055   0.00936   0.00285  -0.0474  0.6357  1.0000  -0.8377   0.0000   0.0000   0.0000   0.3420
   0.800   0.5160   0.00945   0.00286  -0.0472  0.6287  1.0000  -0.8552   0.0000   0.0000   0.0000   0.3396
   0.900   0.5265   0.00953   0.00291  -0.0470  0.6212  1.0000  -0.8734   0.0000   0.0000   0.0000   0.3374
   1.000   0.5369   0.00964   0.00294  -0.0469  0.6149  1.0000  -0.8922   0.0000   0.0000   0.0000   0.3352
   1.100   0.5476   0.00973   0.00301  -0.0468  0.6076  1.0000  -0.9121   0.0000   0.0000   0.0000   0.3332
   1.200   0.5580   0.00986   0.00306  -0.0466  0.6014  1.0000  -0.9321   0.0000   0.0000   0.0000   0.3312
   1.300   0.5687   0.00995   0.00314  -0.0465  0.5944  1.0000  -0.9523   0.0000   0.0000   0.0000   0.3293
   1.400   0.5792   0.01009   0.00322  -0.0464  0.5885  1.0000  -0.9735   0.0000   0.0000   0.0000   0.3275
   1.500   0.5899   0.01017   0.00331  -0.0463  0.5815  1.0000  -0.9958   0.0000   0.0000   0.0000   0.3258
   1.600   0.6004   0.01031   0.00338  -0.0462  0.5758  1.0000  -1.0181   0.0000   0.0000   0.0000   0.3241
   1.700   0.6111   0.01039   0.00347  -0.0461  0.5691  1.0000  -1.0406   0.0000   0.0000   0.0000   0.3225
   1.800   0.6217   0.01051   0.00355  -0.0460  0.5632  1.0000  -1.0648   0.0000   0.0000   0.0000   0.3209
   1.900   0.6324   0.01060   0.00364  -0.0459  0.5567  1.0000  -1.0898   0.0000   0.0000   0.0000   0.3194
   2.000   0.6430   0.01071   0.00373  -0.0458  0.5507  1.0000  -1.1148   0.0000   0.0000   0.0000   0.3179
   2.100   0.6536   0.01081   0.00382  -0.0457  0.5444  1.0000  -1.1400   0.0000   0.0000   0.0000   0.3165
   2.200   0.6642   0.01090   0.00391  -0.0456  0.5380  1.0000  -1.1669   0.0000   0.0000   0.0000   0.3151
   2.300   0.6748   0.01100   0.00400  -0.0455  0.5318  1.0000  -1.1949   0.0000   0.0000   0.0000   0.3138
   2.400   0.6854   0.01109   0.00408  -0.0454  0.5251  1.0000  -1.2232   0.0000   0.0000   0.0000   0.3125
   2.500   0.6959   0.01119   0.00417  -0.0453  0.5188  1.0000  -1.2516   0.0000   0.0000   0.0000   0.3112
   2.600   0.7065   0.01126   0.00425  -0.0452  0.5117  1.0000  -1.2814   0.0000   0.0000   0.0000   0.3099
   2.700   0.7170   0.01135   0.00433  -0.0451  0.5050  1.0000  -1.3131   0.0000   0.0000   0.0000   0.3087
   2.800   0.7275   0.01143   0.00441  -0.0450  0.4977  1.0000  -1.3451   0.0000   0.0000   0.0000   0.3075
   2.900   0.7380   0.01151   0.00449  -0.0449  0.4903  1.0000  -1.3784   0.0000   0.0000   0.0000   0.3064
   3.000   0.7484   0.01159   0.00458  -0.0448  0.4830  1.0000  -1.4140   0.0000   0.0000   0.0000   0.3052
   3.100   0.7590   0.01165   0.00466  -0.0447  0.4745  1.0000  -1.4500   0.0000   0.0000   0.0000   0.3042
   3.200   0.7694   0.01173   0.00473  -0.0446  0.4666  1.0000  -1.4892   0.0000   0.0000   0.0000   0.3031
   3.300   0.7798   0.01179   0.00480  -0.0445  0.4578  1.0000  -1.5294   0.0000   0.0000   0.0000   0.3020
   3.400   0.7903   0.01185   0.00488  -0.0444  0.4483  1.0000  -1.5729   0.0000   0.0000   0.0000   0.3010
   3.500   0.8006   0.01193   0.00495  -0.0442  0.4389  1.0000  -1.6269   0.0000   0.0000   0.0000   0.3000
   3.600   0.8109   0.01201   0.00502  -0.0441  0.4293  1.0000  -1.6861   0.0000   0.0000   0.0000   0.2989
   3.700   0.8210   0.01211   0.00509  -0.0439  0.4193  1.0000  -1.7502   0.0000   0.0000   0.0000   0.2980
   3.800   0.8312   0.01221   0.00518  -0.0438  0.4081  1.0000  -1.8175   0.0000   0.0000   0.0000   0.2970
   3.900   0.8414   0.01231   0.00529  -0.0437  0.3966  1.0000  -1.8904   0.0000   0.0000   0.0000   0.2961
   4.000   0.8514   0.01244   0.00540  -0.0435  0.3849  1.0000  -1.9638   0.0000   0.0000   0.0000   0.2951
   4.100   0.8614   0.01257   0.00551  -0.0434  0.3729  1.0000  -2.0377   0.0000   0.0000   0.0000   0.2942
   4.200   0.8713   0.01272   0.00563  -0.0432  0.3605  1.0000  -2.1122   0.0000   0.0000   0.0000   0.2933
   4.300   0.8811   0.01288   0.00576  -0.0431  0.3480  1.0000  -2.1872   0.0000   0.0000   0.0000   0.2924
   4.400   0.8908   0.01306   0.00590  -0.0429  0.3356  1.0000  -2.2655   0.0000   0.0000   0.0000   0.2916
   4.500   0.9005   0.01325   0.00605  -0.0428  0.3233  1.0000  -2.3488   0.0000   0.0000   0.0000   0.2907
   4.600   0.9101   0.01345   0.00621  -0.0426  0.3110  1.0000  -2.4328   0.0000   0.0000   0.0000   0.2899
   4.700   0.9197   0.01365   0.00639  -0.0424  0.2990  1.0000  -2.5173   0.0000   0.0000   0.0000   0.2891
   4.800   0.9292   0.01388   0.00657  -0.0423  0.2875  1.0000  -2.6024   0.0000   0.0000   0.0000   0.2883
   4.900   0.9386   0.01411   0.00676  -0.0421  0.2763  1.0000  -2.6881   0.0000   0.0000   0.0000   0.2875
   5.000   0.9480   0.01434   0.00695  -0.0419  0.2650  1.0000  -2.7747   0.0000   0.0000   0.0000   0.2867
   5.100   0.9575   0.01456   0.00715  -0.0418  0.2539  1.0000  -2.8623   0.0000   0.0000   0.0000   0.2860
   5.200   0.9670   0.01479   0.00736  -0.0416  0.2432  1.0000  -2.9505   0.0000   0.0000   0.0000   0.2852
   5.300   0.9763   0.01503   0.00758  -0.0414  0.2328  1.0000  -3.0391   0.0000   0.0000   0.0000   0.2845
   5.400   0.9855   0.01529   0.00780  -0.0413  0.2228  1.0000  -3.1278   0.0000   0.0000   0.0000   0.2838
   5.600   1.0039   0.01580   0.00828  -0.0409  0.2027  1.0000  -3.3124   0.0000   0.0000   0.0000   0.2824
   5.700   1.0132   0.01605   0.00852  -0.0407  0.1926  1.0000  -3.4119   0.0000   0.0000   0.0000   0.2817
   5.800   1.0223   0.01632   0.00877  -0.0406  0.1828  1.0000  -3.5114   0.0000   0.0000   0.0000   0.2810
   5.900   1.0311   0.01661   0.00902  -0.0404  0.1734  1.0000  -3.6107   0.0000   0.0000   0.0000   0.2803
   6.000   1.0400   0.01689   0.00927  -0.0402  0.1636  1.0000  -3.7110   0.0000   0.0000   0.0000   0.2796
   6.100   1.0492   0.01715   0.00953  -0.0400  0.1536  1.0000  -3.8131   0.0000   0.0000   0.0000   0.2790
   6.200   1.0581   0.01743   0.00980  -0.0398  0.1440  1.0000  -3.9144   0.0000   0.0000   0.0000   0.2783
   6.300   1.0668   0.01774   0.01009  -0.0396  0.1346  1.0000  -4.0150   0.0000   0.0000   0.0000   0.2776
   6.400   1.0751   0.01809   0.01039  -0.0394  0.1257  1.0000  -4.1144   0.0000   0.0000   0.0000   0.2770
   6.500   1.0836   0.01842   0.01069  -0.0391  0.1164  1.0000  -4.2146   0.0000   0.0000   0.0000   0.2763
   6.600   1.0922   0.01875   0.01103  -0.0389  0.1073  1.0000  -4.3144   0.0000   0.0000   0.0000   0.2756
   6.700   1.1003   0.01913   0.01140  -0.0386  0.0986  1.0000  -4.4112   0.0000   0.0000   0.0000   0.2749
   6.800   1.1079   0.01957   0.01179  -0.0383  0.0903  1.0000  -4.5045   0.0000   0.0000   0.0000   0.2742
   6.900   1.1151   0.02005   0.01222  -0.0379  0.0823  1.0000  -4.5955   0.0000   0.0000   0.0000   0.2735
   7.000   1.1230   0.02046   0.01265  -0.0375  0.0744  1.0000  -4.6855   0.0000   0.0000   0.0000   0.2728
   7.100   1.1297   0.02102   0.01318  -0.0371  0.0675  1.0000  -4.7664   0.0000   0.0000   0.0000   0.2720
   7.200   1.1361   0.02158   0.01369  -0.0366  0.0614  1.0000  -4.8484   0.0000   0.0000   0.0000   0.2713
   7.300   1.1431   0.02210   0.01426  -0.0361  0.0559  1.0000  -4.9235   0.0000   0.0000   0.0000   0.2705
   7.400   1.1490   0.02270   0.01481  -0.0356  0.0517  1.0000  -5.0003   0.0000   0.0000   0.0000   0.2697
   7.500   1.1550   0.02333   0.01547  -0.0349  0.0480  1.0000  -5.0661   0.0000   0.0000   0.0000   0.2688
   7.600   1.1621   0.02378   0.01595  -0.0345  0.0447  1.0000  -5.1469   0.0000   0.0000   0.0000   0.2681
   7.700   1.1670   0.02446   0.01660  -0.0339  0.0421  1.0000  -5.2179   0.0000   0.0000   0.0000   0.2673
   7.800   1.1722   0.02518   0.01735  -0.0332  0.0400  1.0000  -5.2761   0.0000   0.0000   0.0000   0.2664
   7.900   1.1789   0.02570   0.01795  -0.0326  0.0382  1.0000  -5.3442   0.0000   0.0000   0.0000   0.2656
   8.000   1.1851   0.02625   0.01854  -0.0321  0.0365  1.0000  -5.4236   0.0000   0.0000   0.0000   0.2648
   8.100   1.1908   0.02682   0.01912  -0.0315  0.0351  1.0000  -5.5093   0.0000   0.0000   0.0000   0.2640
   8.200   1.1950   0.02762   0.01989  -0.0308  0.0339  1.0000  -5.5834   0.0000   0.0000   0.0000   0.2632
   8.300   1.1985   0.02867   0.02094  -0.0300  0.0327  1.0000  -5.6373   0.0000   0.0000   0.0000   0.2623
   8.400   1.2053   0.02913   0.02150  -0.0295  0.0318  1.0000  -5.7227   0.0000   0.0000   0.0000   0.2615
   8.500   1.2116   0.02967   0.02212  -0.0289  0.0307  1.0000  -5.8057   0.0000   0.0000   0.0000   0.2608
   8.600   1.2174   0.03023   0.02274  -0.0284  0.0296  1.0000  -5.8900   0.0000   0.0000   0.0000   0.2601
   8.700   1.2230   0.03081   0.02336  -0.0279  0.0287  1.0000  -5.9748   0.0000   0.0000   0.0000   0.2593
   8.800   1.2282   0.03146   0.02402  -0.0273  0.0280  1.0000  -6.0569   0.0000   0.0000   0.0000   0.2586
   8.900   1.2332   0.03218   0.02475  -0.0267  0.0274  1.0000  -6.1368   0.0000   0.0000   0.0000   0.2579
   9.000   1.2379   0.03306   0.02564  -0.0261  0.0269  1.0000  -6.2102   0.0000   0.0000   0.0000   0.2572
   9.100   1.2425   0.03433   0.02693  -0.0256  0.0263  1.0000  -6.2665   0.0000   0.0000   0.0000   0.2565
   9.200   1.2475   0.03570   0.02835  -0.0250  0.0258  1.0000  -6.3123   0.0000   0.0000   0.0000   0.2558
   9.300   1.2524   0.03643   0.02920  -0.0243  0.0256  1.0000  -6.3759   0.0000   0.0000   0.0000   0.2550
   9.400   1.2570   0.03724   0.03012  -0.0237  0.0253  1.0000  -6.4349   0.0000   0.0000   0.0000   0.2542
   9.500   1.2611   0.03809   0.03111  -0.0230  0.0250  1.0000  -6.4904   0.0000   0.0000   0.0000   0.2535
   9.600   1.2647   0.03897   0.03210  -0.0223  0.0247  1.0000  -6.5434   0.0000   0.0000   0.0000   0.2527
   9.700   1.2675   0.03985   0.03308  -0.0215  0.0243  1.0000  -6.5932   0.0000   0.0000   0.0000   0.2519
   9.800   1.2694   0.04071   0.03405  -0.0206  0.0240  1.0000  -6.6405   0.0000   0.0000   0.0000   0.2510
   9.900   1.2709   0.04157   0.03501  -0.0197  0.0236  1.0000  -6.6875   0.0000   0.0000   0.0000   0.2501
  10.000   1.2720   0.04243   0.03596  -0.0188  0.0233  1.0000  -6.7348   0.0000   0.0000   0.0000   0.2492
  10.100   1.2728   0.04330   0.03691  -0.0180  0.0230  1.0000  -6.7830   0.0000   0.0000   0.0000   0.2484
  10.200   1.2735   0.04416   0.03785  -0.0172  0.0227  1.0000  -6.8325   0.0000   0.0000   0.0000   0.2476
  10.300   1.2742   0.04504   0.03879  -0.0165  0.0224  1.0000  -6.8837   0.0000   0.0000   0.0000   0.2469
  10.400   1.2740   0.04597   0.03980  -0.0158  0.0221  1.0000  -6.9285   0.0000   0.0000   0.0000   0.2461
  10.500   1.2735   0.04696   0.04087  -0.0152  0.0219  1.0000  -6.9696   0.0000   0.0000   0.0000   0.2454
  10.600   1.2728   0.04801   0.04200  -0.0146  0.0217  1.0000  -7.0071   0.0000   0.0000   0.0000   0.2448
  10.700   1.2717   0.04916   0.04322  -0.0140  0.0216  1.0000  -7.0376   0.0000   0.0000   0.0000   0.2442
  10.800   1.2700   0.05039   0.04454  -0.0135  0.0214  1.0000  -7.0606   0.0000   0.0000   0.0000   0.2436
  10.900   1.2679   0.05169   0.04592  -0.0130  0.0214  1.0000  -7.0796   0.0000   0.0000   0.0000   0.2431
  11.000   1.2653   0.05304   0.04737  -0.0126  0.0213  1.0000  -7.0941   0.0000   0.0000   0.0000   0.2426
  11.100   1.2622   0.05447   0.04888  -0.0123  0.0212  1.0000  -7.1041   0.0000   0.0000   0.0000   0.2422
  11.200   1.2586   0.05596   0.05048  -0.0121  0.0212  1.0000  -7.1093   0.0000   0.0000   0.0000   0.2419
  11.300   1.2546   0.05754   0.05215  -0.0120  0.0211  1.0000  -7.1094   0.0000   0.0000   0.0000   0.2417
  11.400   1.2500   0.05920   0.05390  -0.0120  0.0211  1.0000  -7.1045   0.0000   0.0000   0.0000   0.2415
  11.500   1.2450   0.06094   0.05575  -0.0121  0.0211  1.0000  -7.0942   0.0000   0.0000   0.0000   0.2415
  11.600   1.2394   0.06279   0.05769  -0.0124  0.0211  1.0000  -7.0786   0.0000   0.0000   0.0000   0.2416
  11.700   1.2334   0.06474   0.05975  -0.0128  0.0211  1.0000  -7.0573   0.0000   0.0000   0.0000   0.2418
  11.800   1.2268   0.06681   0.06192  -0.0133  0.0211  1.0000  -7.0301   0.0000   0.0000   0.0000   0.2421
  11.900   1.2198   0.06899   0.06421  -0.0140  0.0211  1.0000  -6.9970   0.0000   0.0000   0.0000   0.2426
  12.000   1.2123   0.07133   0.06666  -0.0149  0.0212  1.0000  -6.9573   0.0000   0.0000   0.0000   0.2432
  12.100   1.2043   0.07384   0.06927  -0.0160  0.0212  1.0000  -6.9102   0.0000   0.0000   0.0000   0.2440
  12.200   1.1957   0.07653   0.07207  -0.0173  0.0213  1.0000  -6.8544   0.0000   0.0000   0.0000   0.2450
  12.300   1.1863   0.07942   0.07508  -0.0188  0.0214  1.0000  -6.7894   0.0000   0.0000   0.0000   0.2463
  12.400   1.1763   0.08253   0.07830  -0.0205  0.0215  1.0000  -6.7150   0.0000   0.0000   0.0000   0.2477
  12.500   1.1626   0.08639   0.08229  -0.0229  0.0217  1.0000  -6.5993   0.0000   0.0000   0.0000   0.2498
  12.600   1.1474   0.09067   0.08670  -0.0256  0.0219  1.0000  -6.4650   0.0000   0.0000   0.0000   0.2524
  12.700   1.1323   0.09513   0.09128  -0.0285  0.0222  1.0000  -6.3281   0.0000   0.0000   0.0000   0.2552
  12.800   1.1173   0.09977   0.09604  -0.0315  0.0224  1.0000  -6.1877   0.0000   0.0000   0.0000   0.2582
  12.900   1.1023   0.10465   0.10101  -0.0347  0.0227  1.0000  -6.0416   0.0000   0.0000   0.0000   0.2614
  13.000   1.0871   0.10979   0.10625  -0.0381  0.0229  1.0000  -5.8870   0.0000   0.0000   0.0000   0.2650
  13.100   1.0718   0.11527   0.11180  -0.0417  0.0233  1.0000  -5.7201   0.0000   0.0000   0.0000   0.2689
  13.200   1.0559   0.12121   0.11781  -0.0455  0.0236  1.0000  -5.5325   0.0000   0.0000   0.0000   0.2732
  13.300   1.0392   0.12762   0.12425  -0.0494  0.0242  1.0000  -5.3177   0.0000   0.0000   0.0000   0.2778
  13.400   1.0245   0.13363   0.13029  -0.0528  0.0247  1.0000  -5.1163   0.0000   0.0000   0.0000   0.2821
  13.500   1.0126   0.13898   0.13565  -0.0557  0.0252  1.0000  -4.9419   0.0000   0.0000   0.0000   0.2857
  13.600   1.0030   0.14369   0.14037  -0.0581  0.0255  1.0000  -4.7928   0.0000   0.0000   0.0000   0.2887
  13.700   0.9956   0.14783   0.14450  -0.0600  0.0258  1.0000  -4.6676   0.0000   0.0000   0.0000   0.2912
  18.000   0.7064   0.22126   0.21807  -0.0702  0.0385  1.0000  -1.4200   0.0000   0.0000   0.0000   0.3339
  18.100   0.7071   0.22248   0.21929  -0.0708  0.0378  1.0000  -1.4121   0.0000   0.0000   0.0000   0.3344
  18.200   0.7081   0.22370   0.22051  -0.0713  0.0372  1.0000  -1.4089   0.0000   0.0000   0.0000   0.3349
  18.300   0.7092   0.22488   0.22170  -0.0717  0.0366  1.0000  -1.4092   0.0000   0.0000   0.0000   0.3353
  18.400   0.7104   0.22602   0.22284  -0.0721  0.0360  1.0000  -1.4135   0.0000   0.0000   0.0000   0.3355
  18.500   0.7119   0.22712   0.22395  -0.0725  0.0354  1.0000  -1.4227   0.0000   0.0000   0.0000   0.3357
  18.600   0.7136   0.22817   0.22500  -0.0728  0.0349  1.0000  -1.4384   0.0000   0.0000   0.0000   0.3357
  18.700   0.7158   0.22916   0.22601  -0.0730  0.0344  1.0000  -1.4639   0.0000   0.0000   0.0000   0.3355
  18.800   0.7189   0.23014   0.22701  -0.0730  0.0339  1.0000  -1.5057   0.0000   0.0000   0.0000   0.3348
  18.900   0.7251   0.23153   0.22841  -0.0724  0.0334  1.0000  -1.5915   0.0000   0.0000   0.0000   0.3326
  21.300   0.7484   0.26390   0.26087  -0.0838  0.0259  1.0000  -1.5075   0.0000   0.0000   0.0000   0.3418
  21.400   0.7471   0.26481   0.26179  -0.0847  0.0258  1.0000  -1.4691   0.0000   0.0000   0.0000   0.3432
  21.500   0.7459   0.26580   0.26277  -0.0857  0.0257  1.0000  -1.4283   0.0000   0.0000   0.0000   0.3446
  21.600   0.7449   0.26685   0.26382  -0.0866  0.0256  1.0000  -1.3835   0.0000   0.0000   0.0000   0.3461
  21.700   0.7443   0.26805   0.26502  -0.0876  0.0253  1.0000  -1.3378   0.0000   0.0000   0.0000   0.3475
  21.800   0.7445   0.26943   0.26640  -0.0884  0.0249  1.0000  -1.3042   0.0000   0.0000   0.0000   0.3485
  21.900   0.7452   0.27079   0.26777  -0.0890  0.0244  1.0000  -1.2875   0.0000   0.0000   0.0000   0.3491
  22.000   0.7462   0.27211   0.26910  -0.0896  0.0238  1.0000  -1.2795   0.0000   0.0000   0.0000   0.3495
  22.100   0.7472   0.27341   0.27040  -0.0901  0.0233  1.0000  -1.2762   0.0000   0.0000   0.0000   0.3499
  22.200   0.7482   0.27466   0.27166  -0.0906  0.0229  1.0000  -1.2759   0.0000   0.0000   0.0000   0.3502
  22.300   0.7494   0.27590   0.27290  -0.0910  0.0225  1.0000  -1.2783   0.0000   0.0000   0.0000   0.3505
  22.400   0.7505   0.27712   0.27413  -0.0915  0.0221  1.0000  -1.2831   0.0000   0.0000   0.0000   0.3508
  22.500   0.7517   0.27832   0.27533  -0.0919  0.0217  1.0000  -1.2901   0.0000   0.0000   0.0000   0.3510
  22.600   0.7530   0.27950   0.27652  -0.0924  0.0214  1.0000  -1.2992   0.0000   0.0000   0.0000   0.3512
  22.700   0.7543   0.28069   0.27772  -0.0928  0.0212  1.0000  -1.3104   0.0000   0.0000   0.0000   0.3513
  22.800   0.7556   0.28186   0.27889  -0.0932  0.0210  1.0000  -1.3250   0.0000   0.0000   0.0000   0.3514
  22.900   0.7571   0.28304   0.28008  -0.0935  0.0207  1.0000  -1.3446   0.0000   0.0000   0.0000   0.3513
  23.000   0.7589   0.28428   0.28133  -0.0937  0.0205  1.0000  -1.3716   0.0000   0.0000   0.0000   0.3511
  23.100   0.7613   0.28575   0.28281  -0.0938  0.0204  1.0000  -1.4117   0.0000   0.0000   0.0000   0.3505
  23.200   0.7668   0.28852   0.28560  -0.0932  0.0202  1.0000  -1.4930   0.0000   0.0000   0.0000   0.3485
  23.300   0.7672   0.29000   0.28707  -0.0938  0.0201  1.0000  -1.4746   0.0000   0.0000   0.0000   0.3490
  23.400   0.7664   0.29105   0.28811  -0.0946  0.0201  1.0000  -1.4385   0.0000   0.0000   0.0000   0.3501
  23.500   0.7658   0.29209   0.28916  -0.0954  0.0200  1.0000  -1.4017   0.0000   0.0000   0.0000   0.3512
  23.600   0.7653   0.29320   0.29027  -0.0962  0.0200  1.0000  -1.3639   0.0000   0.0000   0.0000   0.3523
  23.700   0.7651   0.29437   0.29144  -0.0970  0.0199  1.0000  -1.3255   0.0000   0.0000   0.0000   0.3534
  23.800   0.7651   0.29563   0.29271  -0.0978  0.0198  1.0000  -1.2874   0.0000   0.0000   0.0000   0.3543
  23.900   0.7654   0.29700   0.29408  -0.0986  0.0196  1.0000  -1.2534   0.0000   0.0000   0.0000   0.3552
  24.000   0.7661   0.29841   0.29549  -0.0992  0.0193  1.0000  -1.2280   0.0000   0.0000   0.0000   0.3558
  24.100   0.7670   0.29981   0.29690  -0.0998  0.0190  1.0000  -1.2113   0.0000   0.0000   0.0000   0.3562
  24.200   0.7679   0.30119   0.29828  -0.1003  0.0187  1.0000  -1.1998   0.0000   0.0000   0.0000   0.3566
  24.300   0.7688   0.30253   0.29964  -0.1008  0.0184  1.0000  -1.1912   0.0000   0.0000   0.0000   0.3570
  24.400   0.7697   0.30387   0.30099  -0.1013  0.0182  1.0000  -1.1845   0.0000   0.0000   0.0000   0.3573
  24.500   0.7707   0.30521   0.30233  -0.1018  0.0179  1.0000  -1.1792   0.0000   0.0000   0.0000   0.3576
  24.600   0.7716   0.30653   0.30365  -0.1023  0.0176  1.0000  -1.1750   0.0000   0.0000   0.0000   0.3579
  24.700   0.7726   0.30784   0.30497  -0.1028  0.0174  1.0000  -1.1719   0.0000   0.0000   0.0000   0.3582
  24.800   0.7735   0.30913   0.30627  -0.1033  0.0172  1.0000  -1.1699   0.0000   0.0000   0.0000   0.3585
  24.900   0.7745   0.31041   0.30756  -0.1038  0.0169  1.0000  -1.1692   0.0000   0.0000   0.0000   0.3587
  25.000   0.7755   0.31168   0.30883  -0.1042  0.0167  1.0000  -1.1716   0.0000   0.0000   0.0000   0.3590
  25.100   0.7765   0.31295   0.31011  -0.1047  0.0165  1.0000  -1.1801   0.0000   0.0000   0.0000   0.3592
  25.200   0.7775   0.31418   0.31135  -0.1052  0.0163  1.0000  -1.1910   0.0000   0.0000   0.0000   0.3594
  25.300   0.7785   0.31540   0.31257  -0.1056  0.0161  1.0000  -1.2051   0.0000   0.0000   0.0000   0.3595
  25.400   0.7796   0.31660   0.31378  -0.1060  0.0160  1.0000  -1.2235   0.0000   0.0000   0.0000   0.3596
  25.500   0.7808   0.31783   0.31502  -0.1063  0.0158  1.0000  -1.2482   0.0000   0.0000   0.0000   0.3595
  25.600   0.7824   0.31919   0.31639  -0.1065  0.0157  1.0000  -1.2831   0.0000   0.0000   0.0000   0.3592
  25.700   0.7851   0.32116   0.31837  -0.1064  0.0155  1.0000  -1.3405   0.0000   0.0000   0.0000   0.3583


