xflr5 v6.61

 Calculated polar for: AG35

 1 1 Reynolds number fixed          Mach number fixed         

 xtrf =   1.000 (top)        1.000 (bottom)
 Mach =   0.000     Re =     0.563 e 6     Ncrit =   9.000

  alpha     CL        CD       CDp       Cm    Top Xtr Bot Xtr   Cpmin    Chinge    XCp    
 ------- -------- --------- --------- -------- ------- ------- -------- --------- ---------
 -10.000  -0.5157   0.08453   0.08252  -0.0110  1.0000  0.0189  -2.6521   0.0000   0.0000   0.0000   0.2243
  -9.900  -0.5140   0.08325   0.08124  -0.0117  1.0000  0.0190  -2.6311   0.0000   0.0000   0.0000   0.2228
  -9.800  -0.5127   0.08184   0.07985  -0.0127  1.0000  0.0192  -2.6202   0.0000   0.0000   0.0000   0.2210
  -9.700  -0.5118   0.08034   0.07836  -0.0138  1.0000  0.0194  -2.6181   0.0000   0.0000   0.0000   0.2189
  -9.600  -0.5114   0.07871   0.07674  -0.0152  1.0000  0.0196  -2.6253   0.0000   0.0000   0.0000   0.2163
  -9.500  -0.5108   0.07691   0.07495  -0.0170  1.0000  0.0197  -2.6403   0.0000   0.0000   0.0000   0.2128
  -9.400  -0.5086   0.07482   0.07286  -0.0196  1.0000  0.0200  -2.6602   0.0000   0.0000   0.0000   0.2077
  -9.300  -0.5061   0.07254   0.07058  -0.0224  1.0000  0.0202  -2.6876   0.0000   0.0000   0.0000   0.2021
  -9.200  -0.5033   0.07010   0.06814  -0.0253  1.0000  0.0205  -2.7231   0.0000   0.0000   0.0000   0.1961
  -9.100  -0.5002   0.06745   0.06548  -0.0284  1.0000  0.0208  -2.7692   0.0000   0.0000   0.0000   0.1898
  -9.000  -0.4968   0.06453   0.06253  -0.0316  1.0000  0.0211  -2.8311   0.0000   0.0000   0.0000   0.1830
  -8.900  -0.4932   0.06112   0.05908  -0.0351  1.0000  0.0216  -2.9244   0.0000   0.0000   0.0000   0.1756
  -8.100  -0.4898   0.02821   0.02459  -0.0445  1.0000  0.0173  -4.4660   0.0000   0.0000   0.0000   0.1564
  -8.000  -0.4867   0.02637   0.02257  -0.0437  1.0000  0.0170  -4.4970   0.0000   0.0000   0.0000   0.1573
  -7.900  -0.4831   0.02468   0.02069  -0.0429  1.0000  0.0169  -4.5257   0.0000   0.0000   0.0000   0.1584
  -7.800  -0.4784   0.02314   0.01895  -0.0421  0.9999  0.0168  -4.5438   0.0000   0.0000   0.0000   0.1593
  -7.700  -0.4660   0.02139   0.01694  -0.0428  0.9988  0.0168  -4.5336   0.0000   0.0000   0.0000   0.1554
  -7.600  -0.4527   0.02032   0.01567  -0.0434  0.9977  0.0171  -4.4725   0.0000   0.0000   0.0000   0.1513
  -7.500  -0.4387   0.01964   0.01483  -0.0440  0.9966  0.0175  -4.3824   0.0000   0.0000   0.0000   0.1468
  -7.400  -0.4242   0.01929   0.01434  -0.0447  0.9955  0.0177  -4.2851   0.0000   0.0000   0.0000   0.1417
  -7.300  -0.4107   0.01824   0.01310  -0.0453  0.9946  0.0179  -4.2396   0.0000   0.0000   0.0000   0.1366
  -7.200  -0.3984   0.01683   0.01151  -0.0458  0.9932  0.0181  -4.2170   0.0000   0.0000   0.0000   0.1320
  -7.100  -0.3856   0.01574   0.01030  -0.0463  0.9917  0.0183  -4.1630   0.0000   0.0000   0.0000   0.1268
  -7.000  -0.3721   0.01501   0.00951  -0.0469  0.9903  0.0186  -4.0753   0.0000   0.0000   0.0000   0.1208
  -6.900  -0.3582   0.01452   0.00898  -0.0475  0.9890  0.0189  -3.9688   0.0000   0.0000   0.0000   0.1140
  -6.800  -0.3439   0.01412   0.00855  -0.0482  0.9878  0.0192  -3.8562   0.0000   0.0000   0.0000   0.1064
  -6.700  -0.3295   0.01376   0.00815  -0.0489  0.9867  0.0196  -3.7438   0.0000   0.0000   0.0000   0.0981
  -6.600  -0.3152   0.01342   0.00777  -0.0496  0.9856  0.0200  -3.6334   0.0000   0.0000   0.0000   0.0891
  -6.500  -0.3016   0.01309   0.00741  -0.0500  0.9838  0.0204  -3.5280   0.0000   0.0000   0.0000   0.0804
  -6.400  -0.2887   0.01284   0.00713  -0.0504  0.9812  0.0209  -3.4203   0.0000   0.0000   0.0000   0.0716
  -6.300  -0.2752   0.01260   0.00687  -0.0508  0.9788  0.0215  -3.3118   0.0000   0.0000   0.0000   0.0614
  -6.200  -0.2616   0.01237   0.00660  -0.0513  0.9766  0.0221  -3.2052   0.0000   0.0000   0.0000   0.0498
  -6.100  -0.2476   0.01215   0.00634  -0.0518  0.9746  0.0225  -3.0993   0.0000   0.0000   0.0000   0.0365
  -6.000  -0.2345   0.01195   0.00609  -0.0521  0.9718  0.0228  -3.0025   0.0000   0.0000   0.0000   0.0232
  -5.900  -0.2232   0.01138   0.00548  -0.0521  0.9679  0.0234  -2.9492   0.0000   0.0000   0.0000   0.0117
  -5.800  -0.2112   0.01090   0.00499  -0.0523  0.9646  0.0241  -2.8815   0.0000   0.0000   0.0000  -0.0026
  -5.700  -0.1986   0.01065   0.00473  -0.0526  0.9617  0.0249  -2.7948   0.0000   0.0000   0.0000  -0.0200
  -5.600  -0.1873   0.01047   0.00454  -0.0525  0.9573  0.0256  -2.7108   0.0000   0.0000   0.0000  -0.0360
  -5.500  -0.1759   0.01031   0.00437  -0.0525  0.9529  0.0264  -2.6278   0.0000   0.0000   0.0000  -0.0541
  -5.400  -0.1644   0.01015   0.00419  -0.0524  0.9491  0.0273  -2.5459   0.0000   0.0000   0.0000  -0.0752
  -5.300  -0.1535   0.01001   0.00403  -0.0523  0.9444  0.0282  -2.4666   0.0000   0.0000   0.0000  -0.0969
  -5.200  -0.1427   0.00993   0.00391  -0.0521  0.9394  0.0291  -2.3844   0.0000   0.0000   0.0000  -0.1216
  -5.100  -0.1323   0.00965   0.00361  -0.0518  0.9352  0.0305  -2.3162   0.0000   0.0000   0.0000  -0.1490
  -5.000  -0.1220   0.00944   0.00340  -0.0516  0.9300  0.0323  -2.2411   0.0000   0.0000   0.0000  -0.1806
  -4.900  -0.1115   0.00933   0.00327  -0.0513  0.9250  0.0339  -2.1617   0.0000   0.0000   0.0000  -0.2185
  -4.800  -0.1011   0.00923   0.00315  -0.0510  0.9204  0.0356  -2.0883   0.0000   0.0000   0.0000  -0.2640
  -4.700  -0.0905   0.00914   0.00303  -0.0507  0.9147  0.0371  -2.0233   0.0000   0.0000   0.0000  -0.3209
  -4.600  -0.0803   0.00893   0.00280  -0.0504  0.9096  0.0403  -1.9672   0.0000   0.0000   0.0000  -0.3894
  -4.500  -0.0698   0.00882   0.00269  -0.0502  0.9043  0.0437  -1.9004   0.0000   0.0000   0.0000  -0.4822
  -4.400  -0.0592   0.00875   0.00259  -0.0499  0.8988  0.0469  -1.8330   0.0000   0.0000   0.0000  -0.6088
  -4.300  -0.0489   0.00858   0.00244  -0.0497  0.8940  0.0537  -1.7706   0.0000   0.0000   0.0000  -0.7853
  -4.200  -0.0382   0.00845   0.00233  -0.0495  0.8882  0.0620  -1.7054   0.0000   0.0000   0.0000  -1.0697
  -4.100  -0.0277   0.00831   0.00222  -0.0493  0.8830  0.0750  -1.6398   0.0000   0.0000   0.0000  -1.5573
  -4.000  -0.0171   0.00816   0.00214  -0.0491  0.8776  0.0941  -1.5729   0.0000   0.0000   0.0000  -2.6684
  -3.900  -0.0066   0.00800   0.00206  -0.0490  0.8721  0.1194  -1.5056   0.0000   0.0000   0.0000  -7.2456
  -3.800   0.0038   0.00784   0.00199  -0.0488  0.8669  0.1486  -1.4383   0.0000   0.0000   0.0000  13.1600
  -3.700   0.0144   0.00768   0.00193  -0.0487  0.8611  0.1800  -1.3711   0.0000   0.0000   0.0000   3.6810
  -3.600   0.0250   0.00755   0.00187  -0.0486  0.8559  0.2112  -1.3045   0.0000   0.0000   0.0000   2.2291
  -3.500   0.0356   0.00740   0.00183  -0.0485  0.8498  0.2442  -1.2381   0.0000   0.0000   0.0000   1.6331
  -3.400   0.0462   0.00728   0.00179  -0.0484  0.8442  0.2768  -1.1728   0.0000   0.0000   0.0000   1.3141
  -3.300   0.0569   0.00715   0.00175  -0.0483  0.8377  0.3096  -1.1082   0.0000   0.0000   0.0000   1.1115
  -3.200   0.0675   0.00704   0.00171  -0.0482  0.8317  0.3417  -1.0514   0.0000   0.0000   0.0000   0.9743
  -3.100   0.0782   0.00690   0.00167  -0.0481  0.8248  0.3772  -0.9950   0.0000   0.0000   0.0000   0.8739
  -3.000   0.0887   0.00676   0.00163  -0.0479  0.8185  0.4172  -0.9398   0.0000   0.0000   0.0000   0.7984
  -2.900   0.0991   0.00660   0.00160  -0.0478  0.8118  0.4637  -0.8853   0.0000   0.0000   0.0000   0.7391
  -2.800   0.1093   0.00642   0.00157  -0.0476  0.8056  0.5200  -0.8322   0.0000   0.0000   0.0000   0.6917
  -2.700   0.1194   0.00620   0.00155  -0.0474  0.7986  0.5850  -0.7800   0.0000   0.0000   0.0000   0.6526
  -2.600   0.1288   0.00597   0.00154  -0.0470  0.7921  0.6595  -0.7298   0.0000   0.0000   0.0000   0.6199
  -2.500   0.1378   0.00573   0.00155  -0.0465  0.7849  0.7368  -0.6813   0.0000   0.0000   0.0000   0.5916
  -2.400   0.1456   0.00552   0.00156  -0.0455  0.7782  0.8091  -0.6357   0.0000   0.0000   0.0000   0.5665
  -2.300   0.1527   0.00537   0.00157  -0.0443  0.7707  0.8724  -0.5972   0.0000   0.0000   0.0000   0.5435
  -2.200   0.1613   0.00530   0.00158  -0.0433  0.7634  0.9250  -0.5559   0.0000   0.0000   0.0000   0.5217
  -2.100   0.1776   0.00529   0.00155  -0.0442  0.7549  0.9633  -0.5001   0.0000   0.0000   0.0000   0.5014
  -2.000   0.1967   0.00531   0.00152  -0.0458  0.7456  0.9847  -0.4659   0.0000   0.0000   0.0000   0.4852
  -1.900   0.2166   0.00534   0.00149  -0.0477  0.7356  0.9968  -0.4816   0.0000   0.0000   0.0000   0.4721
  -1.800   0.2304   0.00538   0.00146  -0.0482  0.7254  1.0000  -0.4941   0.0000   0.0000   0.0000   0.4610
  -1.700   0.2408   0.00542   0.00144  -0.0480  0.7143  1.0000  -0.5049   0.0000   0.0000   0.0000   0.4510
  -1.600   0.2513   0.00545   0.00142  -0.0478  0.7020  1.0000  -0.5158   0.0000   0.0000   0.0000   0.4417
  -1.500   0.2617   0.00550   0.00139  -0.0476  0.6878  1.0000  -0.5272   0.0000   0.0000   0.0000   0.4332
  -1.400   0.2722   0.00554   0.00137  -0.0475  0.6693  1.0000  -0.5387   0.0000   0.0000   0.0000   0.4254
  -1.300   0.2824   0.00561   0.00134  -0.0472  0.6455  1.0000  -0.5501   0.0000   0.0000   0.0000   0.4181
  -1.200   0.2925   0.00570   0.00131  -0.0470  0.6280  1.0000  -0.5615   0.0000   0.0000   0.0000   0.4114
  -1.000   0.3133   0.00588   0.00131  -0.0467  0.6059  1.0000  -0.5859   0.0000   0.0000   0.0000   0.3993
  -0.900   0.3239   0.00595   0.00132  -0.0466  0.5980  1.0000  -0.5986   0.0000   0.0000   0.0000   0.3940
  -0.800   0.3345   0.00602   0.00134  -0.0465  0.5910  1.0000  -0.6118   0.0000   0.0000   0.0000   0.3889
  -0.700   0.3453   0.00608   0.00135  -0.0464  0.5849  1.0000  -0.6251   0.0000   0.0000   0.0000   0.3842
  -0.600   0.3561   0.00614   0.00137  -0.0463  0.5790  1.0000  -0.6385   0.0000   0.0000   0.0000   0.3798
  -0.500   0.3668   0.00620   0.00139  -0.0462  0.5738  1.0000  -0.6519   0.0000   0.0000   0.0000   0.3756
  -0.400   0.3778   0.00625   0.00141  -0.0462  0.5685  1.0000  -0.6657   0.0000   0.0000   0.0000   0.3717
  -0.300   0.3886   0.00631   0.00143  -0.0461  0.5637  1.0000  -0.6801   0.0000   0.0000   0.0000   0.3680
  -0.200   0.3995   0.00636   0.00145  -0.0461  0.5592  1.0000  -0.6946   0.0000   0.0000   0.0000   0.3645
  -0.100   0.4105   0.00640   0.00147  -0.0460  0.5544  1.0000  -0.7092   0.0000   0.0000   0.0000   0.3612
   0.000   0.4214   0.00646   0.00149  -0.0460  0.5500  1.0000  -0.7238   0.0000   0.0000   0.0000   0.3581
   0.100   0.4324   0.00651   0.00151  -0.0459  0.5459  1.0000  -0.7388   0.0000   0.0000   0.0000   0.3551
   0.200   0.4434   0.00655   0.00154  -0.0459  0.5414  1.0000  -0.7546   0.0000   0.0000   0.0000   0.3523
   0.300   0.4544   0.00660   0.00156  -0.0459  0.5371  1.0000  -0.7704   0.0000   0.0000   0.0000   0.3496
   0.400   0.4654   0.00665   0.00159  -0.0458  0.5331  1.0000  -0.7863   0.0000   0.0000   0.0000   0.3470
   0.500   0.4765   0.00668   0.00161  -0.0458  0.5288  1.0000  -0.8025   0.0000   0.0000   0.0000   0.3446
   0.600   0.4874   0.00674   0.00164  -0.0458  0.5246  1.0000  -0.8196   0.0000   0.0000   0.0000   0.3422
   0.700   0.4984   0.00679   0.00167  -0.0458  0.5208  1.0000  -0.8368   0.0000   0.0000   0.0000   0.3400
   0.800   0.5096   0.00682   0.00170  -0.0458  0.5165  1.0000  -0.8546   0.0000   0.0000   0.0000   0.3379
   0.900   0.5206   0.00687   0.00173  -0.0458  0.5122  1.0000  -0.8734   0.0000   0.0000   0.0000   0.3358
   1.000   0.5315   0.00693   0.00176  -0.0457  0.5083  1.0000  -0.8927   0.0000   0.0000   0.0000   0.3338
   1.100   0.5427   0.00696   0.00179  -0.0458  0.5038  1.0000  -0.9134   0.0000   0.0000   0.0000   0.3319
   1.200   0.5538   0.00700   0.00182  -0.0457  0.4993  1.0000  -0.9340   0.0000   0.0000   0.0000   0.3301
   1.400   0.5759   0.00709   0.00190  -0.0457  0.4905  1.0000  -0.9768   0.0000   0.0000   0.0000   0.3267
   1.500   0.5870   0.00714   0.00193  -0.0457  0.4856  1.0000  -0.9997   0.0000   0.0000   0.0000   0.3251
   1.600   0.5980   0.00719   0.00196  -0.0457  0.4810  1.0000  -1.0226   0.0000   0.0000   0.0000   0.3235
   1.700   0.6091   0.00722   0.00200  -0.0457  0.4757  1.0000  -1.0459   0.0000   0.0000   0.0000   0.3220
   1.800   0.6201   0.00728   0.00203  -0.0457  0.4704  1.0000  -1.0713   0.0000   0.0000   0.0000   0.3206
   1.900   0.6313   0.00731   0.00207  -0.0458  0.4645  1.0000  -1.0971   0.0000   0.0000   0.0000   0.3192
   2.000   0.6423   0.00736   0.00210  -0.0458  0.4583  1.0000  -1.1228   0.0000   0.0000   0.0000   0.3178
   2.100   0.6533   0.00741   0.00213  -0.0458  0.4516  1.0000  -1.1487   0.0000   0.0000   0.0000   0.3165
   2.200   0.6643   0.00747   0.00218  -0.0458  0.4448  1.0000  -1.1771   0.0000   0.0000   0.0000   0.3152
   2.300   0.6753   0.00751   0.00221  -0.0458  0.4374  1.0000  -1.2060   0.0000   0.0000   0.0000   0.3139
   2.400   0.6862   0.00758   0.00226  -0.0458  0.4301  1.0000  -1.2349   0.0000   0.0000   0.0000   0.3127
   2.500   0.6972   0.00764   0.00230  -0.0458  0.4219  1.0000  -1.2640   0.0000   0.0000   0.0000   0.3115
   2.600   0.7081   0.00771   0.00235  -0.0458  0.4137  1.0000  -1.2954   0.0000   0.0000   0.0000   0.3104
   2.700   0.7189   0.00780   0.00240  -0.0457  0.4051  1.0000  -1.3278   0.0000   0.0000   0.0000   0.3093
   2.800   0.7297   0.00788   0.00245  -0.0457  0.3956  1.0000  -1.3604   0.0000   0.0000   0.0000   0.3082
   2.900   0.7405   0.00796   0.00251  -0.0457  0.3860  1.0000  -1.3957   0.0000   0.0000   0.0000   0.3071
   3.000   0.7512   0.00806   0.00258  -0.0457  0.3761  1.0000  -1.4320   0.0000   0.0000   0.0000   0.3061
   3.100   0.7619   0.00816   0.00265  -0.0457  0.3658  1.0000  -1.4694   0.0000   0.0000   0.0000   0.3051
   3.200   0.7725   0.00828   0.00272  -0.0457  0.3550  1.0000  -1.5097   0.0000   0.0000   0.0000   0.3041
   3.300   0.7832   0.00839   0.00279  -0.0456  0.3439  1.0000  -1.5506   0.0000   0.0000   0.0000   0.3031
   3.400   0.7938   0.00850   0.00287  -0.0456  0.3328  1.0000  -1.5973   0.0000   0.0000   0.0000   0.3022
   3.500   0.8043   0.00863   0.00296  -0.0456  0.3213  1.0000  -1.6570   0.0000   0.0000   0.0000   0.3013
   3.600   0.8148   0.00876   0.00305  -0.0456  0.3100  1.0000  -1.7198   0.0000   0.0000   0.0000   0.3004
   3.700   0.8253   0.00890   0.00314  -0.0455  0.2989  1.0000  -1.7895   0.0000   0.0000   0.0000   0.2995
   3.800   0.8357   0.00904   0.00325  -0.0455  0.2879  1.0000  -1.8634   0.0000   0.0000   0.0000   0.2986
   3.900   0.8461   0.00919   0.00335  -0.0455  0.2768  1.0000  -1.9380   0.0000   0.0000   0.0000   0.2978
   4.000   0.8565   0.00934   0.00346  -0.0455  0.2657  1.0000  -2.0138   0.0000   0.0000   0.0000   0.2970
   4.100   0.8669   0.00948   0.00356  -0.0454  0.2552  1.0000  -2.0904   0.0000   0.0000   0.0000   0.2962
   4.200   0.8773   0.00963   0.00368  -0.0454  0.2453  1.0000  -2.1687   0.0000   0.0000   0.0000   0.2954
   4.300   0.8876   0.00978   0.00379  -0.0454  0.2355  1.0000  -2.2545   0.0000   0.0000   0.0000   0.2946
   4.500   0.9083   0.01009   0.00403  -0.0453  0.2167  1.0000  -2.4294   0.0000   0.0000   0.0000   0.2931
   4.600   0.9186   0.01024   0.00416  -0.0453  0.2079  1.0000  -2.5185   0.0000   0.0000   0.0000   0.2923
   4.700   0.9288   0.01041   0.00429  -0.0452  0.1991  1.0000  -2.6080   0.0000   0.0000   0.0000   0.2916
   4.800   0.9391   0.01057   0.00442  -0.0452  0.1903  1.0000  -2.6990   0.0000   0.0000   0.0000   0.2909
   4.900   0.9494   0.01072   0.00455  -0.0451  0.1817  1.0000  -2.7910   0.0000   0.0000   0.0000   0.2902
   5.000   0.9595   0.01090   0.00468  -0.0451  0.1729  1.0000  -2.8834   0.0000   0.0000   0.0000   0.2895
   5.100   0.9696   0.01108   0.00482  -0.0451  0.1638  1.0000  -2.9766   0.0000   0.0000   0.0000   0.2888
   5.200   0.9799   0.01124   0.00496  -0.0450  0.1553  1.0000  -3.0716   0.0000   0.0000   0.0000   0.2881
   5.300   0.9899   0.01141   0.00510  -0.0450  0.1471  1.0000  -3.1697   0.0000   0.0000   0.0000   0.2874
   5.400   0.9999   0.01161   0.00525  -0.0449  0.1386  1.0000  -3.2741   0.0000   0.0000   0.0000   0.2868
   5.500   1.0100   0.01178   0.00541  -0.0449  0.1305  1.0000  -3.3808   0.0000   0.0000   0.0000   0.2861
   5.600   1.0200   0.01196   0.00556  -0.0448  0.1227  1.0000  -3.4879   0.0000   0.0000   0.0000   0.2855
   5.700   1.0298   0.01217   0.00573  -0.0447  0.1147  1.0000  -3.5948   0.0000   0.0000   0.0000   0.2848
   5.800   1.0397   0.01236   0.00590  -0.0446  0.1068  1.0000  -3.7038   0.0000   0.0000   0.0000   0.2842
   5.900   1.0495   0.01256   0.00607  -0.0446  0.0994  1.0000  -3.8132   0.0000   0.0000   0.0000   0.2835
   6.000   1.0591   0.01279   0.00626  -0.0445  0.0921  1.0000  -3.9222   0.0000   0.0000   0.0000   0.2829
   6.100   1.0690   0.01299   0.00644  -0.0444  0.0852  1.0000  -4.0336   0.0000   0.0000   0.0000   0.2823
   6.200   1.0786   0.01321   0.00663  -0.0443  0.0788  1.0000  -4.1448   0.0000   0.0000   0.0000   0.2817
   6.300   1.0881   0.01345   0.00684  -0.0442  0.0722  1.0000  -4.2559   0.0000   0.0000   0.0000   0.2810
   6.400   1.0978   0.01366   0.00703  -0.0441  0.0666  1.0000  -4.3691   0.0000   0.0000   0.0000   0.2804
   6.500   1.1070   0.01393   0.00728  -0.0439  0.0602  1.0000  -4.4798   0.0000   0.0000   0.0000   0.2798
   6.600   1.1166   0.01414   0.00748  -0.0438  0.0548  1.0000  -4.5940   0.0000   0.0000   0.0000   0.2792
   6.700   1.1257   0.01442   0.00773  -0.0437  0.0490  1.0000  -4.7051   0.0000   0.0000   0.0000   0.2786
   6.800   1.1348   0.01470   0.00798  -0.0435  0.0432  1.0000  -4.8162   0.0000   0.0000   0.0000   0.2780
   6.900   1.1439   0.01498   0.00824  -0.0433  0.0381  1.0000  -4.9265   0.0000   0.0000   0.0000   0.2773
   7.000   1.1523   0.01536   0.00857  -0.0431  0.0328  1.0000  -5.0310   0.0000   0.0000   0.0000   0.2767
   7.100   1.1614   0.01562   0.00884  -0.0429  0.0295  1.0000  -5.1415   0.0000   0.0000   0.0000   0.2761
   7.200   1.1694   0.01605   0.00924  -0.0425  0.0258  1.0000  -5.2394   0.0000   0.0000   0.0000   0.2753
   7.300   1.1787   0.01628   0.00951  -0.0424  0.0239  1.0000  -5.3493   0.0000   0.0000   0.0000   0.2747
   7.400   1.1873   0.01661   0.00984  -0.0421  0.0220  1.0000  -5.4556   0.0000   0.0000   0.0000   0.2741
   7.500   1.1945   0.01712   0.01036  -0.0417  0.0201  1.0000  -5.5421   0.0000   0.0000   0.0000   0.2734
   7.600   1.2037   0.01736   0.01064  -0.0415  0.0192  1.0000  -5.6531   0.0000   0.0000   0.0000   0.2728
   7.700   1.2125   0.01764   0.01095  -0.0413  0.0182  1.0000  -5.7742   0.0000   0.0000   0.0000   0.2721
   7.800   1.2210   0.01793   0.01127  -0.0410  0.0174  1.0000  -5.8969   0.0000   0.0000   0.0000   0.2715
   7.900   1.2289   0.01832   0.01166  -0.0407  0.0165  1.0000  -6.0138   0.0000   0.0000   0.0000   0.2709
   8.000   1.2343   0.01900   0.01238  -0.0400  0.0155  1.0000  -6.0993   0.0000   0.0000   0.0000   0.2700
   8.100   1.2432   0.01924   0.01266  -0.0398  0.0151  1.0000  -6.2255   0.0000   0.0000   0.0000   0.2695
   8.200   1.2517   0.01951   0.01297  -0.0396  0.0146  1.0000  -6.3498   0.0000   0.0000   0.0000   0.2689
   8.300   1.2599   0.01981   0.01331  -0.0393  0.0141  1.0000  -6.4730   0.0000   0.0000   0.0000   0.2683
   8.400   1.2679   0.02013   0.01365  -0.0390  0.0136  1.0000  -6.5962   0.0000   0.0000   0.0000   0.2676
   8.500   1.2756   0.02048   0.01403  -0.0387  0.0132  1.0000  -6.7183   0.0000   0.0000   0.0000   0.2670
   8.600   1.2829   0.02086   0.01444  -0.0383  0.0129  1.0000  -6.8379   0.0000   0.0000   0.0000   0.2664
   8.700   1.2893   0.02133   0.01493  -0.0378  0.0125  1.0000  -6.9490   0.0000   0.0000   0.0000   0.2657
   8.800   1.2941   0.02195   0.01560  -0.0371  0.0121  1.0000  -7.0413   0.0000   0.0000   0.0000   0.2649
   8.900   1.2964   0.02283   0.01654  -0.0361  0.0118  1.0000  -7.1007   0.0000   0.0000   0.0000   0.2639
   9.000   1.3030   0.02323   0.01698  -0.0357  0.0116  1.0000  -7.2111   0.0000   0.0000   0.0000   0.2632
   9.100   1.3097   0.02361   0.01741  -0.0352  0.0115  1.0000  -7.3250   0.0000   0.0000   0.0000   0.2625
   9.200   1.3160   0.02402   0.01786  -0.0347  0.0113  1.0000  -7.4349   0.0000   0.0000   0.0000   0.2619
   9.300   1.3219   0.02446   0.01835  -0.0342  0.0111  1.0000  -7.5416   0.0000   0.0000   0.0000   0.2611
   9.400   1.3275   0.02492   0.01886  -0.0336  0.0109  1.0000  -7.6456   0.0000   0.0000   0.0000   0.2604
   9.500   1.3327   0.02540   0.01939  -0.0330  0.0108  1.0000  -7.7477   0.0000   0.0000   0.0000   0.2597
   9.600   1.3376   0.02589   0.01992  -0.0324  0.0106  1.0000  -7.8481   0.0000   0.0000   0.0000   0.2589
   9.700   1.3421   0.02639   0.02047  -0.0317  0.0104  1.0000  -7.9471   0.0000   0.0000   0.0000   0.2582
   9.800   1.3463   0.02690   0.02102  -0.0310  0.0103  1.0000  -8.0441   0.0000   0.0000   0.0000   0.2574
   9.900   1.3494   0.02740   0.02157  -0.0301  0.0101  1.0000  -8.1346   0.0000   0.0000   0.0000   0.2565
  10.000   1.3520   0.02792   0.02212  -0.0292  0.0100  1.0000  -8.2231   0.0000   0.0000   0.0000   0.2556
  10.100   1.3545   0.02845   0.02268  -0.0283  0.0099  1.0000  -8.3116   0.0000   0.0000   0.0000   0.2547
  10.200   1.3567   0.02900   0.02327  -0.0274  0.0098  1.0000  -8.3996   0.0000   0.0000   0.0000   0.2538
  10.300   1.3587   0.02959   0.02390  -0.0266  0.0096  1.0000  -8.4861   0.0000   0.0000   0.0000   0.2530
  10.400   1.3603   0.03022   0.02457  -0.0258  0.0095  1.0000  -8.5693   0.0000   0.0000   0.0000   0.2522
  10.500   1.3613   0.03092   0.02530  -0.0250  0.0094  1.0000  -8.6468   0.0000   0.0000   0.0000   0.2514
  10.600   1.3616   0.03171   0.02613  -0.0242  0.0093  1.0000  -8.7157   0.0000   0.0000   0.0000   0.2506
  10.700   1.3610   0.03261   0.02709  -0.0234  0.0092  1.0000  -8.7727   0.0000   0.0000   0.0000   0.2499
  10.800   1.3592   0.03366   0.02819  -0.0226  0.0091  1.0000  -8.8148   0.0000   0.0000   0.0000   0.2491
  10.900   1.3563   0.03488   0.02946  -0.0219  0.0090  1.0000  -8.8395   0.0000   0.0000   0.0000   0.2484
  11.000   1.3521   0.03628   0.03093  -0.0211  0.0089  1.0000  -8.8452   0.0000   0.0000   0.0000   0.2477
  11.100   1.3506   0.03744   0.03216  -0.0205  0.0088  1.0000  -8.8806   0.0000   0.0000   0.0000   0.2471
  11.200   1.3525   0.03823   0.03301  -0.0203  0.0088  1.0000  -8.9610   0.0000   0.0000   0.0000   0.2467
  11.300   1.3539   0.03909   0.03394  -0.0201  0.0087  1.0000  -9.0355   0.0000   0.0000   0.0000   0.2463
  11.400   1.3549   0.04004   0.03494  -0.0200  0.0086  1.0000  -9.1044   0.0000   0.0000   0.0000   0.2460
  11.500   1.3554   0.04105   0.03602  -0.0199  0.0086  1.0000  -9.1674   0.0000   0.0000   0.0000   0.2457
  11.600   1.3554   0.04214   0.03718  -0.0198  0.0085  1.0000  -9.2247   0.0000   0.0000   0.0000   0.2454
  11.700   1.3551   0.04331   0.03840  -0.0198  0.0085  1.0000  -9.2767   0.0000   0.0000   0.0000   0.2452
  11.800   1.3544   0.04455   0.03971  -0.0198  0.0084  1.0000  -9.3236   0.0000   0.0000   0.0000   0.2450
  11.900   1.3534   0.04584   0.04107  -0.0199  0.0084  1.0000  -9.3668   0.0000   0.0000   0.0000   0.2449
  12.000   1.3520   0.04720   0.04249  -0.0200  0.0083  1.0000  -9.4064   0.0000   0.0000   0.0000   0.2448
  12.100   1.3505   0.04861   0.04397  -0.0202  0.0083  1.0000  -9.4430   0.0000   0.0000   0.0000   0.2447
  12.200   1.3487   0.05009   0.04551  -0.0204  0.0082  1.0000  -9.4764   0.0000   0.0000   0.0000   0.2447
  12.300   1.3467   0.05163   0.04712  -0.0208  0.0082  1.0000  -9.5067   0.0000   0.0000   0.0000   0.2448
  12.400   1.3444   0.05324   0.04879  -0.0212  0.0082  1.0000  -9.5334   0.0000   0.0000   0.0000   0.2449
  12.500   1.3418   0.05492   0.05054  -0.0216  0.0081  1.0000  -9.5566   0.0000   0.0000   0.0000   0.2451
  12.600   1.3391   0.05666   0.05235  -0.0222  0.0081  1.0000  -9.5767   0.0000   0.0000   0.0000   0.2453
  12.700   1.3361   0.05848   0.05423  -0.0228  0.0081  1.0000  -9.5934   0.0000   0.0000   0.0000   0.2456
  12.800   1.3329   0.06036   0.05618  -0.0235  0.0080  1.0000  -9.6066   0.0000   0.0000   0.0000   0.2459
  12.900   1.3293   0.06230   0.05818  -0.0242  0.0080  1.0000  -9.6159   0.0000   0.0000   0.0000   0.2463
  13.000   1.3255   0.06429   0.06024  -0.0250  0.0080  1.0000  -9.6214   0.0000   0.0000   0.0000   0.2467
  13.100   1.3214   0.06635   0.06236  -0.0258  0.0080  1.0000  -9.6233   0.0000   0.0000   0.0000   0.2472
  13.200   1.3170   0.06846   0.06455  -0.0266  0.0079  1.0000  -9.6214   0.0000   0.0000   0.0000   0.2477
  13.300   1.3124   0.07064   0.06679  -0.0275  0.0079  1.0000  -9.6157   0.0000   0.0000   0.0000   0.2482
  13.400   1.3075   0.07288   0.06909  -0.0284  0.0079  1.0000  -9.6059   0.0000   0.0000   0.0000   0.2488
  13.500   1.3022   0.07517   0.07144  -0.0294  0.0079  1.0000  -9.5919   0.0000   0.0000   0.0000   0.2495
  13.600   1.2967   0.07753   0.07386  -0.0304  0.0079  1.0000  -9.5770   0.0000   0.0000   0.0000   0.2501
  13.700   1.2911   0.07996   0.07636  -0.0315  0.0079  1.0000  -9.5601   0.0000   0.0000   0.0000   0.2509
  13.800   1.2853   0.08247   0.07893  -0.0326  0.0079  1.0000  -9.5393   0.0000   0.0000   0.0000   0.2517
  13.900   1.2793   0.08506   0.08158  -0.0338  0.0079  1.0000  -9.5144   0.0000   0.0000   0.0000   0.2526
  14.000   1.2732   0.08771   0.08430  -0.0351  0.0079  1.0000  -9.4851   0.0000   0.0000   0.0000   0.2535
  14.100   1.2668   0.09043   0.08709  -0.0364  0.0079  1.0000  -9.4512   0.0000   0.0000   0.0000   0.2545
  14.200   1.2603   0.09324   0.08995  -0.0377  0.0079  1.0000  -9.4131   0.0000   0.0000   0.0000   0.2555
  14.300   1.2536   0.09612   0.09290  -0.0391  0.0079  1.0000  -9.3705   0.0000   0.0000   0.0000   0.2567
  14.400   1.2468   0.09908   0.09592  -0.0406  0.0079  1.0000  -9.3234   0.0000   0.0000   0.0000   0.2579
  14.500   1.2398   0.10212   0.09902  -0.0422  0.0079  1.0000  -9.2715   0.0000   0.0000   0.0000   0.2591
  14.600   1.2327   0.10522   0.10219  -0.0437  0.0079  1.0000  -9.2147   0.0000   0.0000   0.0000   0.2605
  14.700   1.2254   0.10840   0.10543  -0.0454  0.0079  1.0000  -9.1527   0.0000   0.0000   0.0000   0.2619
  14.800   1.2181   0.11167   0.10875  -0.0471  0.0079  1.0000  -9.0857   0.0000   0.0000   0.0000   0.2634
  14.900   1.2106   0.11502   0.11216  -0.0488  0.0079  1.0000  -9.0134   0.0000   0.0000   0.0000   0.2650
  15.000   1.2030   0.11845   0.11565  -0.0507  0.0080  1.0000  -8.9355   0.0000   0.0000   0.0000   0.2666
  15.100   1.1953   0.12196   0.11922  -0.0525  0.0080  1.0000  -8.8516   0.0000   0.0000   0.0000   0.2684
  15.200   1.1875   0.12556   0.12288  -0.0545  0.0080  1.0000  -8.7612   0.0000   0.0000   0.0000   0.2702
  15.300   1.1796   0.12923   0.12661  -0.0565  0.0080  1.0000  -8.6639   0.0000   0.0000   0.0000   0.2722
  15.400   1.1715   0.13299   0.13043  -0.0585  0.0081  1.0000  -8.5594   0.0000   0.0000   0.0000   0.2742
  15.500   1.1632   0.13685   0.13434  -0.0607  0.0081  1.0000  -8.4468   0.0000   0.0000   0.0000   0.2763
  15.600   1.1549   0.14082   0.13837  -0.0629  0.0081  1.0000  -8.3253   0.0000   0.0000   0.0000   0.2786
  15.700   1.1464   0.14492   0.14252  -0.0651  0.0082  1.0000  -8.1934   0.0000   0.0000   0.0000   0.2810
  15.800   1.1377   0.14916   0.14682  -0.0675  0.0082  1.0000  -8.0494   0.0000   0.0000   0.0000   0.2835
  15.900   1.1286   0.15359   0.15130  -0.0700  0.0083  1.0000  -7.8903   0.0000   0.0000   0.0000   0.2863
  16.000   1.1192   0.15824   0.15601  -0.0726  0.0083  1.0000  -7.7120   0.0000   0.0000   0.0000   0.2892
  16.100   1.1090   0.16318   0.16100  -0.0754  0.0084  1.0000  -7.5080   0.0000   0.0000   0.0000   0.2924
  16.200   1.0979   0.16859   0.16646  -0.0784  0.0085  1.0000  -7.2653   0.0000   0.0000   0.0000   0.2961
  16.300   1.0849   0.17477   0.17269  -0.0818  0.0086  1.0000  -6.9580   0.0000   0.0000   0.0000   0.3004
  16.400   1.0680   0.18253   0.18048  -0.0860  0.0087  1.0000  -6.5129   0.0000   0.0000   0.0000   0.3060
  16.700   0.8567   0.16051   0.15854  -0.0531  0.0093  1.0000  -5.8330   0.0000   0.0000   0.0000   0.2882
  23.700   0.7673   0.29285   0.29109  -0.0996  0.0071  1.0000  -1.3530   0.0000   0.0000   0.0000   0.3562
  23.800   0.7683   0.29403   0.29228  -0.1000  0.0070  1.0000  -1.3593   0.0000   0.0000   0.0000   0.3564
  23.900   0.7694   0.29523   0.29348  -0.1005  0.0069  1.0000  -1.3682   0.0000   0.0000   0.0000   0.3567
  24.000   0.7704   0.29637   0.29464  -0.1010  0.0068  1.0000  -1.3800   0.0000   0.0000   0.0000   0.3569
  24.100   0.7715   0.29749   0.29576  -0.1015  0.0068  1.0000  -1.3953   0.0000   0.0000   0.0000   0.3571
  24.200   0.7725   0.29857   0.29685  -0.1019  0.0067  1.0000  -1.4147   0.0000   0.0000   0.0000   0.3572
  24.300   0.7737   0.29962   0.29790  -0.1023  0.0066  1.0000  -1.4391   0.0000   0.0000   0.0000   0.3573
  24.400   0.7749   0.30064   0.29893  -0.1027  0.0066  1.0000  -1.4703   0.0000   0.0000   0.0000   0.3573
  24.500   0.7763   0.30166   0.29995  -0.1030  0.0065  1.0000  -1.5120   0.0000   0.0000   0.0000   0.3571


