xflr5 v6.61

 Calculated polar for: Bergey BW-3  (smoothed)

 1 1 Reynolds number fixed          Mach number fixed         

 xtrf =   1.000 (top)        1.000 (bottom)
 Mach =   0.000     Re =     0.719 e 6     Ncrit =   9.000

  alpha     CL        CD       CDp       Cm    Top Xtr Bot Xtr   Cpmin    Chinge    XCp    
 ------- -------- --------- --------- -------- ------- ------- -------- --------- ---------
 -10.000  -0.4243   0.12392   0.12181  -0.0078  1.0000  0.0151  -1.6802   0.0000   0.0000   0.0000   0.2283
  -9.900  -0.4208   0.12316   0.12105  -0.0079  1.0000  0.0154  -1.6343   0.0000   0.0000   0.0000   0.2280
  -9.800  -0.4173   0.12241   0.12030  -0.0080  1.0000  0.0158  -1.5904   0.0000   0.0000   0.0000   0.2276
  -9.700  -0.4138   0.12165   0.11955  -0.0082  1.0000  0.0162  -1.5490   0.0000   0.0000   0.0000   0.2272
  -9.600  -0.4104   0.12088   0.11879  -0.0084  1.0000  0.0168  -1.5102   0.0000   0.0000   0.0000   0.2267
  -9.500  -0.4070   0.12010   0.11801  -0.0086  1.0000  0.0176  -1.4747   0.0000   0.0000   0.0000   0.2261
  -9.400  -0.4036   0.11930   0.11722  -0.0088  1.0000  0.0189  -1.4439   0.0000   0.0000   0.0000   0.2254
  -9.300  -0.3996   0.11856   0.11649  -0.0091  1.0000  0.0215  -1.4221   0.0000   0.0000   0.0000   0.2243
  -9.200  -0.3932   0.11904   0.11696  -0.0103  1.0000  0.0235  -1.4582   0.0000   0.0000   0.0000   0.2209
  -9.100  -0.3908   0.11825   0.11618  -0.0108  1.0000  0.0237  -1.4646   0.0000   0.0000   0.0000   0.2195
  -9.000  -0.3886   0.11734   0.11527  -0.0112  1.0000  0.0238  -1.4636   0.0000   0.0000   0.0000   0.2184
  -8.900  -0.3865   0.11639   0.11432  -0.0116  1.0000  0.0238  -1.4591   0.0000   0.0000   0.0000   0.2174
  -8.800  -0.3843   0.11540   0.11335  -0.0118  1.0000  0.0238  -1.4516   0.0000   0.0000   0.0000   0.2165
  -8.700  -0.3822   0.11442   0.11237  -0.0121  1.0000  0.0239  -1.4434   0.0000   0.0000   0.0000   0.2157
  -8.600  -0.3802   0.11343   0.11139  -0.0123  1.0000  0.0239  -1.4347   0.0000   0.0000   0.0000   0.2150
  -8.500  -0.3782   0.11244   0.11040  -0.0126  1.0000  0.0239  -1.4256   0.0000   0.0000   0.0000   0.2142
  -8.400  -0.3764   0.11145   0.10942  -0.0128  1.0000  0.0239  -1.4163   0.0000   0.0000   0.0000   0.2136
  -8.300  -0.3746   0.11047   0.10845  -0.0129  1.0000  0.0240  -1.4071   0.0000   0.0000   0.0000   0.2130
  -8.200  -0.3730   0.10951   0.10749  -0.0131  1.0000  0.0240  -1.3981   0.0000   0.0000   0.0000   0.2125
  -8.100  -0.3717   0.10856   0.10655  -0.0132  1.0000  0.0240  -1.3893   0.0000   0.0000   0.0000   0.2122
  -8.000  -0.3705   0.10764   0.10563  -0.0132  1.0000  0.0240  -1.3808   0.0000   0.0000   0.0000   0.2121
  -7.900  -0.3697   0.10673   0.10474  -0.0131  1.0000  0.0240  -1.3726   0.0000   0.0000   0.0000   0.2122
  -7.800  -0.3693   0.10586   0.10388  -0.0130  1.0000  0.0240  -1.3652   0.0000   0.0000   0.0000   0.2126
  -7.400  -0.3677   0.10238   0.10039  -0.0123  1.0000  0.0241  -1.3423   0.0000   0.0000   0.0000   0.2145
  -7.300  -0.3650   0.10129   0.09931  -0.0127  1.0000  0.0241  -1.3296   0.0000   0.0000   0.0000   0.2132
  -7.200  -0.3621   0.10020   0.09823  -0.0131  1.0000  0.0241  -1.3166   0.0000   0.0000   0.0000   0.2119
  -7.100  -0.3591   0.09912   0.09716  -0.0136  1.0000  0.0241  -1.3034   0.0000   0.0000   0.0000   0.2104
  -7.000  -0.3560   0.09804   0.09609  -0.0140  1.0000  0.0241  -1.2901   0.0000   0.0000   0.0000   0.2087
  -6.900  -0.3529   0.09696   0.09502  -0.0145  1.0000  0.0242  -1.2833   0.0000   0.0000   0.0000   0.2070
  -6.800  -0.3496   0.09589   0.09395  -0.0151  1.0000  0.0242  -1.2853   0.0000   0.0000   0.0000   0.2051
  -6.700  -0.3385   0.09423   0.09229  -0.0178  0.9993  0.0242  -1.2831   0.0000   0.0000   0.0000   0.1956
  -6.600  -0.3274   0.09256   0.09061  -0.0205  0.9986  0.0242  -1.2811   0.0000   0.0000   0.0000   0.1855
  -6.500  -0.3161   0.09087   0.08891  -0.0232  0.9979  0.0242  -1.2791   0.0000   0.0000   0.0000   0.1746
  -6.400  -0.3048   0.08917   0.08721  -0.0258  0.9972  0.0242  -1.2772   0.0000   0.0000   0.0000   0.1631
  -6.300  -0.2936   0.08748   0.08551  -0.0284  0.9963  0.0242  -1.2751   0.0000   0.0000   0.0000   0.1510
  -6.200  -0.2821   0.08578   0.08381  -0.0310  0.9953  0.0242  -1.2730   0.0000   0.0000   0.0000   0.1377
  -6.100  -0.2703   0.08408   0.08210  -0.0337  0.9943  0.0242  -1.2707   0.0000   0.0000   0.0000   0.1229
  -6.000  -0.2581   0.08237   0.08038  -0.0364  0.9933  0.0242  -1.2683   0.0000   0.0000   0.0000   0.1062
  -5.900  -0.2455   0.08065   0.07866  -0.0392  0.9924  0.0242  -1.2657   0.0000   0.0000   0.0000   0.0873
  -5.800  -0.2324   0.07892   0.07691  -0.0421  0.9916  0.0243  -1.2630   0.0000   0.0000   0.0000   0.0656
  -5.700  -0.2189   0.07717   0.07515  -0.0451  0.9909  0.0243  -1.2602   0.0000   0.0000   0.0000   0.0404
  -5.600  -0.2073   0.07551   0.07349  -0.0475  0.9893  0.0243  -1.2583   0.0000   0.0000   0.0000   0.0174
  -5.500  -0.1957   0.07385   0.07182  -0.0498  0.9872  0.0243  -1.2565   0.0000   0.0000   0.0000  -0.0084
  -5.400  -0.1834   0.07218   0.07014  -0.0523  0.9848  0.0243  -1.2545   0.0000   0.0000   0.0000  -0.0396
  -5.300  -0.1860   0.07136   0.06934  -0.0507  0.9648  0.0243  -1.2595   0.0000   0.0000   0.0000  -0.0263
  -5.200  -0.1787   0.07000   0.06797  -0.0517  0.9500  0.0243  -1.2599   0.0000   0.0000   0.0000  -0.0432
  -5.100  -0.1652   0.06828   0.06624  -0.0543  0.9463  0.0243  -1.2576   0.0000   0.0000   0.0000  -0.0832
  -5.000  -0.1509   0.06653   0.06447  -0.0572  0.9430  0.0243  -1.2550   0.0000   0.0000   0.0000  -0.1336
  -4.900  -0.1360   0.06475   0.06267  -0.0601  0.9401  0.0243  -1.2523   0.0000   0.0000   0.0000  -0.1974
  -4.000   0.0450   0.01217   0.00765  -0.1138  0.9210  0.0219  -3.6224   0.0000   0.0000   0.0000   2.8061
  -3.900   0.0613   0.01148   0.00683  -0.1150  0.9189  0.0229  -3.5581   0.0000   0.0000   0.0000   2.1470
  -3.800   0.0797   0.01140   0.00675  -0.1167  0.9167  0.0236  -3.4377   0.0000   0.0000   0.0000   1.7290
  -3.700   0.0995   0.01156   0.00696  -0.1186  0.9147  0.0240  -3.2935   0.0000   0.0000   0.0000   1.4538
  -3.600   0.1202   0.01192   0.00742  -0.1207  0.9125  0.0243  -3.1352   0.0000   0.0000   0.0000   1.2635
  -3.500   0.1348   0.00988   0.00487  -0.1219  0.9100  0.0283  -3.1751   0.0000   0.0000   0.0000   1.1623
  -3.400   0.1543   0.00961   0.00453  -0.1238  0.9072  0.0295  -3.0682   0.0000   0.0000   0.0000   1.0593
  -3.300   0.1723   0.00942   0.00430  -0.1254  0.9037  0.0304  -2.9626   0.0000   0.0000   0.0000   0.9839
  -3.200   0.1909   0.00925   0.00408  -0.1271  0.9003  0.0311  -2.8547   0.0000   0.0000   0.0000   0.9213
  -3.100   0.2104   0.00909   0.00387  -0.1290  0.8971  0.0319  -2.7451   0.0000   0.0000   0.0000   0.8682
  -3.000   0.2302   0.00895   0.00367  -0.1311  0.8939  0.0326  -2.6360   0.0000   0.0000   0.0000   0.8237
  -2.900   0.2489   0.00881   0.00347  -0.1328  0.8904  0.0332  -2.5324   0.0000   0.0000   0.0000   0.7874
  -2.800   0.2666   0.00868   0.00329  -0.1343  0.8867  0.0339  -2.4342   0.0000   0.0000   0.0000   0.7573
  -2.600   0.2957   0.00847   0.00298  -0.1358  0.8789  0.0353  -2.2627   0.0000   0.0000   0.0000   0.7121
  -2.500   0.3076   0.00838   0.00286  -0.1359  0.8749  0.0360  -2.1874   0.0000   0.0000   0.0000   0.6944
  -2.400   0.3200   0.00833   0.00274  -0.1361  0.8707  0.0370  -2.1133   0.0000   0.0000   0.0000   0.6778
  -2.300   0.3328   0.00826   0.00264  -0.1364  0.8665  0.0377  -2.0348   0.0000   0.0000   0.0000   0.6621
  -2.200   0.3461   0.00808   0.00245  -0.1368  0.8624  0.0476  -1.9739   0.0000   0.0000   0.0000   0.6472
  -2.100   0.3591   0.00816   0.00256  -0.1371  0.8580  0.0542  -1.8911   0.0000   0.0000   0.0000   0.6337
  -2.000   0.3722   0.00832   0.00277  -0.1374  0.8535  0.0602  -1.8045   0.0000   0.0000   0.0000   0.6210
  -1.900   0.3820   0.00854   0.00305  -0.1370  0.8503  0.0630  -1.7289   0.0000   0.0000   0.0000   0.6102
  -1.800   0.3923   0.00875   0.00331  -0.1366  0.8466  0.0650  -1.6704   0.0000   0.0000   0.0000   0.5997
  -1.700   0.4030   0.00896   0.00354  -0.1364  0.8422  0.0668  -1.6121   0.0000   0.0000   0.0000   0.5897
  -1.600   0.4139   0.00915   0.00373  -0.1362  0.8372  0.0683  -1.5548   0.0000   0.0000   0.0000   0.5802
  -1.500   0.4251   0.00931   0.00388  -0.1361  0.8319  0.0695  -1.4990   0.0000   0.0000   0.0000   0.5711
  -1.400   0.4366   0.00947   0.00401  -0.1361  0.8260  0.0706  -1.4441   0.0000   0.0000   0.0000   0.5625
  -1.300   0.4475   0.00958   0.00412  -0.1359  0.8213  0.0714  -1.3913   0.0000   0.0000   0.0000   0.5544
  -1.200   0.4573   0.00967   0.00422  -0.1355  0.8175  0.0721  -1.3412   0.0000   0.0000   0.0000   0.5468
  -1.100   0.4677   0.00977   0.00433  -0.1352  0.8133  0.0726  -1.2905   0.0000   0.0000   0.0000   0.5395
  -1.000   0.4783   0.00987   0.00443  -0.1350  0.8091  0.0730  -1.2398   0.0000   0.0000   0.0000   0.5325
  -0.900   0.4891   0.00998   0.00454  -0.1348  0.8051  0.0733  -1.1893   0.0000   0.0000   0.0000   0.5258
  -0.800   0.4999   0.01010   0.00465  -0.1346  0.8009  0.0736  -1.1393   0.0000   0.0000   0.0000   0.5194
  -0.700   0.5108   0.01022   0.00476  -0.1344  0.7967  0.0738  -1.0897   0.0000   0.0000   0.0000   0.5132
  -0.600   0.5210   0.00947   0.00386  -0.1343  0.7926  0.0777  -1.0678   0.0000   0.0000   0.0000   0.5077
  -0.500   0.5320   0.00949   0.00389  -0.1342  0.7894  0.0787  -1.0204   0.0000   0.0000   0.0000   0.5021
  -0.400   0.5423   0.00951   0.00394  -0.1339  0.7870  0.0796  -0.9741   0.0000   0.0000   0.0000   0.4967
  -0.300   0.5527   0.00955   0.00400  -0.1337  0.7840  0.0804  -0.9282   0.0000   0.0000   0.0000   0.4915
  -0.200   0.5631   0.00959   0.00405  -0.1334  0.7804  0.0813  -0.8829   0.0000   0.0000   0.0000   0.4865
  -0.100   0.5736   0.00971   0.00418  -0.1332  0.7765  0.0823  -0.8363   0.0000   0.0000   0.0000   0.4816
   0.000   0.5840   0.00980   0.00428  -0.1329  0.7723  0.0835  -0.7901   0.0000   0.0000   0.0000   0.4770
   0.100   0.5945   0.00988   0.00436  -0.1327  0.7681  0.0848  -0.7451   0.0000   0.0000   0.0000   0.4725
   0.200   0.6049   0.00994   0.00440  -0.1324  0.7638  0.0862  -0.7022   0.0000   0.0000   0.0000   0.4681
   0.300   0.6154   0.00997   0.00440  -0.1322  0.7588  0.0875  -0.6615   0.0000   0.0000   0.0000   0.4639
   0.400   0.6258   0.00998   0.00441  -0.1320  0.7542  0.0889  -0.6514   0.0000   0.0000   0.0000   0.4599
   0.500   0.6358   0.00999   0.00443  -0.1316  0.7496  0.0903  -0.6607   0.0000   0.0000   0.0000   0.4559
   0.600   0.6459   0.01002   0.00445  -0.1313  0.7438  0.0915  -0.6703   0.0000   0.0000   0.0000   0.4520
   0.700   0.6560   0.01005   0.00447  -0.1309  0.7379  0.0925  -0.6807   0.0000   0.0000   0.0000   0.4483
   0.800   0.6662   0.01008   0.00447  -0.1306  0.7326  0.0932  -0.6912   0.0000   0.0000   0.0000   0.4447
   0.900   0.6764   0.01012   0.00448  -0.1303  0.7275  0.0938  -0.7016   0.0000   0.0000   0.0000   0.4412
   1.000   0.6867   0.01018   0.00451  -0.1300  0.7215  0.0943  -0.7121   0.0000   0.0000   0.0000   0.4378
   1.100   0.6971   0.01020   0.00454  -0.1298  0.7176  0.0947  -0.7403   0.0000   0.0000   0.0000   0.4345
   1.200   0.7073   0.01024   0.00458  -0.1295  0.7123  0.0950  -0.7768   0.0000   0.0000   0.0000   0.4313
   1.300   0.7173   0.01033   0.00466  -0.1291  0.7047  0.0954  -0.8134   0.0000   0.0000   0.0000   0.4282
   1.500   0.7358   0.01014   0.00431  -0.1281  0.6840  0.0966  -0.8824   0.0000   0.0000   0.0000   0.4221
   1.600   0.7461   0.00993   0.00407  -0.1278  0.6766  0.0970  -0.9189   0.0000   0.0000   0.0000   0.4192
   1.700   0.7564   0.00980   0.00390  -0.1276  0.6679  0.0973  -0.9559   0.0000   0.0000   0.0000   0.4165
   1.800   0.7665   0.00972   0.00378  -0.1273  0.6592  0.0975  -0.9931   0.0000   0.0000   0.0000   0.4137
   1.900   0.7762   0.00968   0.00368  -0.1269  0.6499  0.0976  -1.0301   0.0000   0.0000   0.0000   0.4111
   2.000   0.7867   0.00961   0.00359  -0.1266  0.6425  0.0978  -1.0686   0.0000   0.0000   0.0000   0.4085
   2.100   0.7974   0.00955   0.00351  -0.1265  0.6346  0.0978  -1.1081   0.0000   0.0000   0.0000   0.4061
   2.200   0.8076   0.00952   0.00344  -0.1262  0.6240  0.0979  -1.1470   0.0000   0.0000   0.0000   0.4036
   2.300   0.8172   0.00952   0.00343  -0.1258  0.6127  0.0980  -1.1868   0.0000   0.0000   0.0000   0.4012
   2.400   0.8275   0.00950   0.00338  -0.1255  0.6025  0.0981  -1.2269   0.0000   0.0000   0.0000   0.3989
   2.500   0.8378   0.00949   0.00333  -0.1253  0.5896  0.0982  -1.2672   0.0000   0.0000   0.0000   0.3966
   2.600   0.8468   0.00955   0.00330  -0.1248  0.5719  0.0982  -1.3053   0.0000   0.0000   0.0000   0.3943
   2.700   0.8570   0.00956   0.00326  -0.1245  0.5559  0.0983  -1.3456   0.0000   0.0000   0.0000   0.3921
   2.800   0.8657   0.00966   0.00323  -0.1239  0.5311  0.0988  -1.3833   0.0000   0.0000   0.0000   0.3899
   2.900   0.8750   0.00974   0.00321  -0.1235  0.5033  0.0995  -1.4224   0.0000   0.0000   0.0000   0.3878
   3.000   0.8828   0.00996   0.00324  -0.1228  0.4639  0.1002  -1.4700   0.0000   0.0000   0.0000   0.3857
   3.100   0.8897   0.01029   0.00332  -0.1220  0.4153  0.1005  -1.5173   0.0000   0.0000   0.0000   0.3835
   3.200   0.8972   0.01060   0.00341  -0.1212  0.3695  0.1007  -1.5663   0.0000   0.0000   0.0000   0.3815
   3.300   0.9048   0.01090   0.00351  -0.1206  0.3270  0.1008  -1.6159   0.0000   0.0000   0.0000   0.3795
   3.400   0.9119   0.01126   0.00363  -0.1198  0.2807  0.1011  -1.6642   0.0000   0.0000   0.0000   0.3775
   3.500   0.9181   0.01172   0.00380  -0.1189  0.2228  0.1015  -1.7098   0.0000   0.0000   0.0000   0.3756
   3.600   0.9173   0.01281   0.00424  -0.1167  0.0972  0.1017  -1.7349   0.0000   0.0000   0.0000   0.3732
   3.700   0.9251   0.01313   0.00441  -0.1160  0.0666  0.1023  -1.7847   0.0000   0.0000   0.0000   0.3713
   3.800   0.9348   0.01330   0.00452  -0.1157  0.0546  0.1031  -1.8379   0.0000   0.0000   0.0000   0.3696
   3.900   0.9456   0.01335   0.00459  -0.1156  0.0528  0.1042  -1.8986   0.0000   0.0000   0.0000   0.3679
   4.000   0.9560   0.01344   0.00469  -0.1154  0.0502  0.1054  -1.9581   0.0000   0.0000   0.0000   0.3663
   4.100   0.9660   0.01356   0.00480  -0.1152  0.0470  0.1068  -2.0162   0.0000   0.0000   0.0000   0.3647
   4.200   0.9752   0.01378   0.00500  -0.1147  0.0414  0.1085  -2.0646   0.0000   0.0000   0.0000   0.3630
   4.300   0.9839   0.01405   0.00534  -0.1141  0.0380  0.1102  -2.1054   0.0000   0.0000   0.0000   0.3612
   4.400   0.9943   0.01413   0.00543  -0.1139  0.0378  0.1121  -2.1678   0.0000   0.0000   0.0000   0.3597
   4.500   1.0047   0.01421   0.00552  -0.1137  0.0375  0.1138  -2.2302   0.0000   0.0000   0.0000   0.3582
   4.600   1.0149   0.01430   0.00563  -0.1135  0.0372  0.1152  -2.2927   0.0000   0.0000   0.0000   0.3568
   4.700   1.0250   0.01440   0.00574  -0.1133  0.0369  0.1163  -2.3552   0.0000   0.0000   0.0000   0.3554
   4.800   1.0351   0.01450   0.00586  -0.1130  0.0365  0.1172  -2.4179   0.0000   0.0000   0.0000   0.3539
   4.900   1.0451   0.01461   0.00598  -0.1128  0.0361  0.1179  -2.4807   0.0000   0.0000   0.0000   0.3525
   5.000   1.0551   0.01472   0.00611  -0.1125  0.0358  0.1185  -2.5437   0.0000   0.0000   0.0000   0.3511
   5.100   1.0650   0.01484   0.00625  -0.1122  0.0353  0.1189  -2.6070   0.0000   0.0000   0.0000   0.3498
   5.200   1.0749   0.01496   0.00638  -0.1120  0.0349  0.1193  -2.6708   0.0000   0.0000   0.0000   0.3485
   5.300   1.0847   0.01508   0.00653  -0.1117  0.0344  0.1196  -2.7349   0.0000   0.0000   0.0000   0.3471
   5.400   1.0946   0.01521   0.00667  -0.1114  0.0340  0.1198  -2.7995   0.0000   0.0000   0.0000   0.3458
   5.500   1.1049   0.01533   0.00681  -0.1113  0.0334  0.1204  -2.8661   0.0000   0.0000   0.0000   0.3446
   5.600   1.1160   0.01544   0.00693  -0.1113  0.0329  0.1214  -2.9353   0.0000   0.0000   0.0000   0.3436
   5.700   1.1270   0.01556   0.00705  -0.1113  0.0322  0.1225  -3.0049   0.0000   0.0000   0.0000   0.3425
   5.800   1.1379   0.01567   0.00717  -0.1113  0.0315  0.1238  -3.0754   0.0000   0.0000   0.0000   0.3414
   5.900   1.1483   0.01584   0.00745  -0.1112  0.0313  0.1252  -3.1512   0.0000   0.0000   0.0000   0.3403
   6.000   1.1591   0.01596   0.00757  -0.1112  0.0305  0.1264  -3.2236   0.0000   0.0000   0.0000   0.3392
   6.100   1.1696   0.01609   0.00770  -0.1111  0.0295  0.1278  -3.2944   0.0000   0.0000   0.0000   0.3382
   6.200   1.1788   0.01635   0.00795  -0.1108  0.0275  0.1293  -3.3504   0.0000   0.0000   0.0000   0.3370
   6.600   1.2110   0.01783   0.00961  -0.1083  0.0233  0.1365  -3.5048   0.0000   0.0000   0.0000   0.3320
   6.700   1.2205   0.01809   0.00990  -0.1080  0.0230  0.1393  -3.5600   0.0000   0.0000   0.0000   0.3309
   6.800   1.2298   0.01835   0.01019  -0.1077  0.0228  0.1427  -3.6160   0.0000   0.0000   0.0000   0.3299
   6.900   1.2391   0.01862   0.01048  -0.1073  0.0225  0.1462  -3.6735   0.0000   0.0000   0.0000   0.3288
   7.100   1.3640   0.01978   0.01296  -0.1328  0.0208  1.0000  -4.1094   0.0000   0.0000   0.0000   0.3390
   7.200   1.3714   0.02017   0.01338  -0.1320  0.0207  1.0000  -4.1597   0.0000   0.0000   0.0000   0.3377
   7.300   1.3785   0.02061   0.01385  -0.1312  0.0206  1.0000  -4.2058   0.0000   0.0000   0.0000   0.3365
   7.400   1.3857   0.02107   0.01434  -0.1304  0.0205  1.0000  -4.2514   0.0000   0.0000   0.0000   0.3353
   7.500   1.3928   0.02154   0.01484  -0.1296  0.0205  1.0000  -4.2970   0.0000   0.0000   0.0000   0.3341
   7.600   1.4001   0.02203   0.01536  -0.1288  0.0204  1.0000  -4.3427   0.0000   0.0000   0.0000   0.3329
   7.700   1.4074   0.02254   0.01590  -0.1281  0.0203  1.0000  -4.3928   0.0000   0.0000   0.0000   0.3318
   7.800   1.4147   0.02306   0.01645  -0.1273  0.0203  1.0000  -4.4700   0.0000   0.0000   0.0000   0.3306
   7.900   1.4222   0.02359   0.01703  -0.1266  0.0202  1.0000  -4.5476   0.0000   0.0000   0.0000   0.3295
   8.000   1.4298   0.02414   0.01761  -0.1259  0.0202  1.0000  -4.6257   0.0000   0.0000   0.0000   0.3284
   8.100   1.4374   0.02471   0.01821  -0.1252  0.0202  1.0000  -4.7044   0.0000   0.0000   0.0000   0.3274
   8.200   1.4450   0.02529   0.01883  -0.1246  0.0201  1.0000  -4.7835   0.0000   0.0000   0.0000   0.3263
   8.300   1.4527   0.02588   0.01946  -0.1239  0.0201  1.0000  -4.8631   0.0000   0.0000   0.0000   0.3253
   8.400   1.4605   0.02649   0.02011  -0.1233  0.0200  1.0000  -4.9431   0.0000   0.0000   0.0000   0.3243
   8.500   1.4682   0.02711   0.02077  -0.1227  0.0200  1.0000  -5.0233   0.0000   0.0000   0.0000   0.3232
   8.600   1.4759   0.02773   0.02144  -0.1220  0.0199  1.0000  -5.1037   0.0000   0.0000   0.0000   0.3222
   8.700   1.4835   0.02837   0.02212  -0.1214  0.0199  1.0000  -5.1842   0.0000   0.0000   0.0000   0.3213
   8.800   1.4907   0.02950   0.02343  -0.1207  0.0201  1.0000  -5.2528   0.0000   0.0000   0.0000   0.3202
   8.900   1.4979   0.03036   0.02436  -0.1200  0.0202  1.0000  -5.3274   0.0000   0.0000   0.0000   0.3192
   9.000   1.5050   0.03114   0.02521  -0.1193  0.0202  1.0000  -5.4039   0.0000   0.0000   0.0000   0.3183
   9.100   1.5120   0.03189   0.02602  -0.1186  0.0202  1.0000  -5.4809   0.0000   0.0000   0.0000   0.3173
   9.200   1.5188   0.03263   0.02682  -0.1179  0.0201  1.0000  -5.5583   0.0000   0.0000   0.0000   0.3163
   9.300   1.5254   0.03335   0.02761  -0.1171  0.0201  1.0000  -5.6358   0.0000   0.0000   0.0000   0.3153
   9.400   1.5319   0.03407   0.02838  -0.1163  0.0200  1.0000  -5.7135   0.0000   0.0000   0.0000   0.3144
   9.500   1.5382   0.03477   0.02915  -0.1156  0.0199  1.0000  -5.7915   0.0000   0.0000   0.0000   0.3134
   9.600   1.5443   0.03546   0.02990  -0.1148  0.0197  1.0000  -5.8698   0.0000   0.0000   0.0000   0.3124
   9.700   1.5503   0.03613   0.03063  -0.1139  0.0196  1.0000  -5.9485   0.0000   0.0000   0.0000   0.3115
   9.800   1.5561   0.03679   0.03134  -0.1131  0.0195  1.0000  -6.0280   0.0000   0.0000   0.0000   0.3105
   9.900   1.5617   0.03742   0.03203  -0.1123  0.0193  1.0000  -6.1083   0.0000   0.0000   0.0000   0.3096
  10.000   1.5672   0.03803   0.03270  -0.1114  0.0191  1.0000  -6.1898   0.0000   0.0000   0.0000   0.3086
  10.100   1.5726   0.03861   0.03332  -0.1105  0.0189  1.0000  -6.2728   0.0000   0.0000   0.0000   0.3077
  10.200   1.5779   0.03915   0.03392  -0.1097  0.0188  1.0000  -6.3575   0.0000   0.0000   0.0000   0.3067
  10.300   1.5831   0.03966   0.03446  -0.1088  0.0186  1.0000  -6.4443   0.0000   0.0000   0.0000   0.3058
  10.400   1.5883   0.04012   0.03496  -0.1079  0.0183  1.0000  -6.5335   0.0000   0.0000   0.0000   0.3049
  10.500   1.5934   0.04053   0.03541  -0.1070  0.0181  1.0000  -6.6252   0.0000   0.0000   0.0000   0.3039
  10.600   1.5984   0.04090   0.03581  -0.1062  0.0179  1.0000  -6.7196   0.0000   0.0000   0.0000   0.3030
  10.700   1.6033   0.04122   0.03616  -0.1053  0.0177  1.0000  -6.8155   0.0000   0.0000   0.0000   0.3021
  10.800   1.6078   0.04154   0.03651  -0.1043  0.0175  1.0000  -6.9104   0.0000   0.0000   0.0000   0.3011
  10.900   1.6122   0.04181   0.03680  -0.1033  0.0173  1.0000  -7.0072   0.0000   0.0000   0.0000   0.3002
  11.000   1.6165   0.04205   0.03707  -0.1023  0.0170  1.0000  -7.1064   0.0000   0.0000   0.0000   0.2992
  11.100   1.6211   0.04227   0.03730  -0.1014  0.0168  1.0000  -7.2091   0.0000   0.0000   0.0000   0.2983
  11.200   1.6255   0.04247   0.03752  -0.1005  0.0166  1.0000  -7.3136   0.0000   0.0000   0.0000   0.2974
  11.300   1.6297   0.04266   0.03773  -0.0995  0.0164  1.0000  -7.4178   0.0000   0.0000   0.0000   0.2965
  11.400   1.6335   0.04285   0.03794  -0.0985  0.0163  1.0000  -7.5208   0.0000   0.0000   0.0000   0.2955
  11.500   1.6364   0.04305   0.03815  -0.0973  0.0161  1.0000  -7.6178   0.0000   0.0000   0.0000   0.2945
  11.600   1.6372   0.04326   0.03838  -0.0957  0.0159  1.0000  -7.7010   0.0000   0.0000   0.0000   0.2933
  11.700   1.6371   0.04351   0.03865  -0.0940  0.0158  1.0000  -7.7774   0.0000   0.0000   0.0000   0.2921
  11.800   1.6368   0.04379   0.03895  -0.0922  0.0157  1.0000  -7.8515   0.0000   0.0000   0.0000   0.2909
  11.900   1.6361   0.04413   0.03930  -0.0905  0.0155  1.0000  -7.9218   0.0000   0.0000   0.0000   0.2897
  12.000   1.6353   0.04454   0.03974  -0.0888  0.0153  1.0000  -7.9903   0.0000   0.0000   0.0000   0.2885
  12.100   1.6343   0.04507   0.04030  -0.0872  0.0151  1.0000  -8.0536   0.0000   0.0000   0.0000   0.2874
  12.200   1.6319   0.04582   0.04110  -0.0855  0.0149  1.0000  -8.1011   0.0000   0.0000   0.0000   0.2862
  12.300   1.6265   0.04704   0.04239  -0.0835  0.0146  1.0000  -8.1141   0.0000   0.0000   0.0000   0.2851
  12.400   1.6040   0.05050   0.04609  -0.0800  0.0141  1.0000  -7.9459   0.0000   0.0000   0.0000   0.2835
  12.500   1.5127   0.06234   0.05865  -0.0726  0.0133  1.0000  -7.1083   0.0000   0.0000   0.0000   0.2817
  12.600   1.5160   0.06252   0.05883  -0.0722  0.0133  1.0000  -7.2100   0.0000   0.0000   0.0000   0.2811
  12.700   1.5194   0.06273   0.05906  -0.0717  0.0133  1.0000  -7.3113   0.0000   0.0000   0.0000   0.2805
  12.800   1.5228   0.06298   0.05932  -0.0713  0.0132  1.0000  -7.4121   0.0000   0.0000   0.0000   0.2799
  12.900   1.5258   0.06332   0.05966  -0.0709  0.0132  1.0000  -7.5085   0.0000   0.0000   0.0000   0.2793
  13.000   1.5288   0.06368   0.06003  -0.0705  0.0131  1.0000  -7.6046   0.0000   0.0000   0.0000   0.2788
  13.100   1.5320   0.06404   0.06041  -0.0701  0.0131  1.0000  -7.7018   0.0000   0.0000   0.0000   0.2783
  13.200   1.5346   0.06450   0.06089  -0.0698  0.0130  1.0000  -7.7939   0.0000   0.0000   0.0000   0.2778
  13.300   1.5369   0.06503   0.06142  -0.0695  0.0130  1.0000  -7.8826   0.0000   0.0000   0.0000   0.2773
  13.400   1.5392   0.06556   0.06198  -0.0692  0.0129  1.0000  -7.9719   0.0000   0.0000   0.0000   0.2768
  13.500   1.5416   0.06612   0.06255  -0.0689  0.0129  1.0000  -8.0605   0.0000   0.0000   0.0000   0.2764
  13.600   1.5430   0.06682   0.06328  -0.0687  0.0128  1.0000  -8.1402   0.0000   0.0000   0.0000   0.2759
  13.700   1.5559   0.06590   0.06236  -0.0686  0.0127  1.0000  -8.3326   0.0000   0.0000   0.0000   0.2753
  13.800   1.5577   0.06659   0.06306  -0.0684  0.0126  1.0000  -8.4147   0.0000   0.0000   0.0000   0.2749
  13.900   1.5590   0.06735   0.06384  -0.0682  0.0125  1.0000  -8.4924   0.0000   0.0000   0.0000   0.2745
  14.000   1.5597   0.06822   0.06474  -0.0680  0.0124  1.0000  -8.5628   0.0000   0.0000   0.0000   0.2742
  14.100   1.5585   0.06933   0.06589  -0.0679  0.0123  1.0000  -8.6155   0.0000   0.0000   0.0000   0.2739
  14.200   1.5569   0.07051   0.06710  -0.0677  0.0122  1.0000  -8.6629   0.0000   0.0000   0.0000   0.2736
  14.300   1.5551   0.07174   0.06838  -0.0676  0.0122  1.0000  -8.7074   0.0000   0.0000   0.0000   0.2734
  14.400   1.5516   0.07326   0.06994  -0.0677  0.0121  1.0000  -8.7344   0.0000   0.0000   0.0000   0.2733
  14.500   1.5479   0.07486   0.07159  -0.0677  0.0120  1.0000  -8.7575   0.0000   0.0000   0.0000   0.2732
  14.600   1.5442   0.07653   0.07331  -0.0679  0.0119  1.0000  -8.7774   0.0000   0.0000   0.0000   0.2732
  14.700   1.5385   0.07855   0.07539  -0.0682  0.0119  1.0000  -8.7773   0.0000   0.0000   0.0000   0.2734
  14.800   1.5329   0.08063   0.07753  -0.0686  0.0118  1.0000  -8.7754   0.0000   0.0000   0.0000   0.2736
  14.900   1.5263   0.08293   0.07990  -0.0692  0.0117  1.0000  -8.7614   0.0000   0.0000   0.0000   0.2739
  15.000   1.5185   0.08551   0.08254  -0.0699  0.0117  1.0000  -8.7336   0.0000   0.0000   0.0000   0.2744
  15.100   1.5106   0.08818   0.08529  -0.0708  0.0116  1.0000  -8.7013   0.0000   0.0000   0.0000   0.2750
  15.200   1.5009   0.09127   0.08845  -0.0720  0.0116  1.0000  -8.6490   0.0000   0.0000   0.0000   0.2759
  15.300   1.4913   0.09443   0.09169  -0.0733  0.0115  1.0000  -8.5934   0.0000   0.0000   0.0000   0.2769
  15.400   1.4799   0.09804   0.09538  -0.0750  0.0115  1.0000  -8.5171   0.0000   0.0000   0.0000   0.2782
  15.500   1.4681   0.10189   0.09931  -0.0769  0.0115  1.0000  -8.4310   0.0000   0.0000   0.0000   0.2797
  15.600   1.4553   0.10608   0.10359  -0.0791  0.0115  1.0000  -8.3296   0.0000   0.0000   0.0000   0.2815
  15.700   1.4403   0.11096   0.10856  -0.0820  0.0115  1.0000  -8.1982   0.0000   0.0000   0.0000   0.2839
  15.800   1.4233   0.11654   0.11424  -0.0854  0.0116  1.0000  -8.0340   0.0000   0.0000   0.0000   0.2868
  15.900   1.4007   0.12377   0.12159  -0.0900  0.0117  1.0000  -7.7907   0.0000   0.0000   0.0000   0.2909
  16.000   1.1858   0.19849   0.19666  -0.1330  0.0118  1.0000  -3.6690   0.0000   0.0000   0.0000   0.3420
  16.100   1.1796   0.20359   0.20176  -0.1353  0.0118  1.0000  -3.4556   0.0000   0.0000   0.0000   0.3445
  16.200   1.1752   0.20798   0.20615  -0.1372  0.0119  1.0000  -3.2904   0.0000   0.0000   0.0000   0.3465
  16.300   1.1717   0.21200   0.21016  -0.1389  0.0121  1.0000  -3.1507   0.0000   0.0000   0.0000   0.3483
  16.400   1.1684   0.21591   0.21407  -0.1405  0.0122  1.0000  -3.0189   0.0000   0.0000   0.0000   0.3499
  16.500   1.1594   0.22223   0.22031  -0.1428  0.0128  1.0000  -2.7329   0.0000   0.0000   0.0000   0.3529
  19.500   1.1769   0.29308   0.29128  -0.1649  0.0132  1.0000  -2.0735   0.0000   0.0000   0.0000   0.3650
  19.600   1.1776   0.29525   0.29345  -0.1655  0.0132  1.0000  -2.0771   0.0000   0.0000   0.0000   0.3653
  19.700   1.1784   0.29742   0.29562  -0.1661  0.0132  1.0000  -2.0808   0.0000   0.0000   0.0000   0.3655
  19.800   1.1791   0.29958   0.29779  -0.1667  0.0132  1.0000  -2.0846   0.0000   0.0000   0.0000   0.3658
  19.900   1.1797   0.30174   0.29995  -0.1673  0.0132  1.0000  -2.0883   0.0000   0.0000   0.0000   0.3660
  20.000   1.1804   0.30389   0.30210  -0.1679  0.0132  1.0000  -2.0922   0.0000   0.0000   0.0000   0.3663
  20.100   1.1809   0.30604   0.30426  -0.1685  0.0132  1.0000  -2.0960   0.0000   0.0000   0.0000   0.3665
  20.200   1.1815   0.30820   0.30641  -0.1690  0.0132  1.0000  -2.0998   0.0000   0.0000   0.0000   0.3667
  20.300   1.1820   0.31035   0.30857  -0.1696  0.0132  1.0000  -2.1035   0.0000   0.0000   0.0000   0.3669
  20.400   1.1824   0.31251   0.31074  -0.1701  0.0132  1.0000  -2.1071   0.0000   0.0000   0.0000   0.3671
  20.500   1.1828   0.31467   0.31290  -0.1707  0.0132  1.0000  -2.1106   0.0000   0.0000   0.0000   0.3673
  20.600   1.1831   0.31682   0.31505  -0.1712  0.0132  1.0000  -2.1140   0.0000   0.0000   0.0000   0.3675
  20.700   1.1833   0.31897   0.31720  -0.1717  0.0132  1.0000  -2.1173   0.0000   0.0000   0.0000   0.3677
  20.800   1.1835   0.32111   0.31935  -0.1722  0.0132  1.0000  -2.1204   0.0000   0.0000   0.0000   0.3679
  20.900   1.1836   0.32325   0.32149  -0.1726  0.0132  1.0000  -2.1234   0.0000   0.0000   0.0000   0.3681
  21.000   1.1837   0.32539   0.32363  -0.1731  0.0132  1.0000  -2.1260   0.0000   0.0000   0.0000   0.3683
  21.100   1.1837   0.32751   0.32576  -0.1736  0.0132  1.0000  -2.1284   0.0000   0.0000   0.0000   0.3685
  21.200   1.1835   0.32963   0.32788  -0.1740  0.0131  1.0000  -2.1305   0.0000   0.0000   0.0000   0.3687
  21.300   1.1833   0.33174   0.33000  -0.1744  0.0131  1.0000  -2.1322   0.0000   0.0000   0.0000   0.3689
  21.400   1.1831   0.33384   0.33210  -0.1748  0.0131  1.0000  -2.1336   0.0000   0.0000   0.0000   0.3691
  21.500   1.1827   0.33593   0.33420  -0.1752  0.0131  1.0000  -2.1345   0.0000   0.0000   0.0000   0.3693
  21.600   1.1822   0.33801   0.33628  -0.1756  0.0131  1.0000  -2.1349   0.0000   0.0000   0.0000   0.3694
  21.700   1.1815   0.34008   0.33835  -0.1760  0.0131  1.0000  -2.1344   0.0000   0.0000   0.0000   0.3696
  21.800   1.1807   0.34213   0.34041  -0.1763  0.0131  1.0000  -2.1330   0.0000   0.0000   0.0000   0.3698
  21.900   1.1798   0.34417   0.34245  -0.1766  0.0131  1.0000  -2.1306   0.0000   0.0000   0.0000   0.3700
  22.000   1.1787   0.34619   0.34447  -0.1769  0.0131  1.0000  -2.1270   0.0000   0.0000   0.0000   0.3702
  22.100   1.1774   0.34818   0.34647  -0.1771  0.0131  1.0000  -2.1218   0.0000   0.0000   0.0000   0.3704
  22.200   1.1759   0.35016   0.34845  -0.1774  0.0130  1.0000  -2.1144   0.0000   0.0000   0.0000   0.3705
  22.300   1.1742   0.35210   0.35040  -0.1775  0.0130  1.0000  -2.1038   0.0000   0.0000   0.0000   0.3707
  22.400   1.1720   0.35403   0.35234  -0.1777  0.0130  1.0000  -2.0873   0.0000   0.0000   0.0000   0.3710
  22.500   1.1695   0.35595   0.35426  -0.1778  0.0130  1.0000  -2.0608   0.0000   0.0000   0.0000   0.3712
  22.600   1.1663   0.35789   0.35621  -0.1778  0.0129  1.0000  -2.0164   0.0000   0.0000   0.0000   0.3715
  22.700   1.1620   0.35985   0.35817  -0.1778  0.0128  1.0000  -1.9541   0.0000   0.0000   0.0000   0.3719
  22.800   1.1566   0.36157   0.35990  -0.1775  0.0128  1.0000  -1.8982   0.0000   0.0000   0.0000   0.3722
  23.000   1.0223   0.33370   0.33210  -0.1547  0.0128  1.0000  -1.6249   0.0000   0.0000   0.0000   0.3710
  23.100   1.0162   0.33361   0.33203  -0.1541  0.0128  1.0000  -1.5743   0.0000   0.0000   0.0000   0.3713
  23.200   1.0107   0.33360   0.33202  -0.1537  0.0127  1.0000  -1.5322   0.0000   0.0000   0.0000   0.3715
  23.300   1.0059   0.33366   0.33208  -0.1533  0.0127  1.0000  -1.4961   0.0000   0.0000   0.0000   0.3717
  23.400   1.0015   0.33376   0.33219  -0.1529  0.0126  1.0000  -1.4644   0.0000   0.0000   0.0000   0.3719
  23.500   0.9975   0.33392   0.33236  -0.1527  0.0126  1.0000  -1.4360   0.0000   0.0000   0.0000   0.3721
  23.600   0.9939   0.33412   0.33256  -0.1525  0.0125  1.0000  -1.4102   0.0000   0.0000   0.0000   0.3723
  23.700   0.9906   0.33437   0.33281  -0.1523  0.0124  1.0000  -1.3865   0.0000   0.0000   0.0000   0.3725
  23.800   0.9877   0.33467   0.33312  -0.1522  0.0124  1.0000  -1.3644   0.0000   0.0000   0.0000   0.3727
  23.900   0.9853   0.33504   0.33350  -0.1521  0.0122  1.0000  -1.3436   0.0000   0.0000   0.0000   0.3729
  24.000   0.9834   0.33552   0.33398  -0.1522  0.0120  1.0000  -1.3236   0.0000   0.0000   0.0000   0.3731
  24.100   0.9821   0.33612   0.33458  -0.1523  0.0115  1.0000  -1.3052   0.0000   0.0000   0.0000   0.3732
  24.200   0.9804   0.33656   0.33503  -0.1523  0.0107  1.0000  -1.2938   0.0000   0.0000   0.0000   0.3733
  24.300   0.9782   0.33684   0.33531  -0.1522  0.0101  1.0000  -1.2870   0.0000   0.0000   0.0000   0.3734
  24.400   0.9758   0.33707   0.33555  -0.1521  0.0097  1.0000  -1.2821   0.0000   0.0000   0.0000   0.3735
  24.500   0.9735   0.33729   0.33578  -0.1520  0.0093  1.0000  -1.2785   0.0000   0.0000   0.0000   0.3736
  24.600   0.9713   0.33752   0.33601  -0.1519  0.0090  1.0000  -1.2759   0.0000   0.0000   0.0000   0.3736
  24.700   0.9692   0.33775   0.33624  -0.1519  0.0087  1.0000  -1.2743   0.0000   0.0000   0.0000   0.3737
  24.800   0.9671   0.33797   0.33647  -0.1518  0.0084  1.0000  -1.2736   0.0000   0.0000   0.0000   0.3738
  24.900   0.9651   0.33821   0.33671  -0.1518  0.0082  1.0000  -1.2737   0.0000   0.0000   0.0000   0.3739
  25.000   0.9632   0.33844   0.33694  -0.1517  0.0080  1.0000  -1.2746   0.0000   0.0000   0.0000   0.3739
  25.100   0.9614   0.33868   0.33719  -0.1517  0.0078  1.0000  -1.2763   0.0000   0.0000   0.0000   0.3740
  25.200   0.9597   0.33891   0.33743  -0.1517  0.0076  1.0000  -1.2788   0.0000   0.0000   0.0000   0.3740
  25.300   0.9580   0.33915   0.33767  -0.1517  0.0074  1.0000  -1.2820   0.0000   0.0000   0.0000   0.3741
  25.400   0.9563   0.33939   0.33792  -0.1517  0.0073  1.0000  -1.2859   0.0000   0.0000   0.0000   0.3742
  25.500   0.9548   0.33963   0.33816  -0.1517  0.0072  1.0000  -1.2906   0.0000   0.0000   0.0000   0.3742
  25.600   0.9532   0.33987   0.33840  -0.1517  0.0070  1.0000  -1.2960   0.0000   0.0000   0.0000   0.3742
  25.700   0.9518   0.34011   0.33865  -0.1518  0.0069  1.0000  -1.3020   0.0000   0.0000   0.0000   0.3743
  25.800   0.9503   0.34036   0.33894  -0.1518  0.0068  1.0000  -1.3089   0.0000   0.0000   0.0000   0.3743
  25.900   0.9489   0.34060   0.33918  -0.1518  0.0067  1.0000  -1.3160   0.0000   0.0000   0.0000   0.3744
  26.000   0.9475   0.34083   0.33942  -0.1518  0.0066  1.0000  -1.3238   0.0000   0.0000   0.0000   0.3744
  26.100   0.9462   0.34106   0.33965  -0.1519  0.0066  1.0000  -1.3323   0.0000   0.0000   0.0000   0.3744
  26.200   0.9449   0.34128   0.33987  -0.1519  0.0065  1.0000  -1.3413   0.0000   0.0000   0.0000   0.3744
  26.300   0.9436   0.34149   0.34009  -0.1520  0.0064  1.0000  -1.3511   0.0000   0.0000   0.0000   0.3744
  26.400   0.9424   0.34170   0.34031  -0.1520  0.0063  1.0000  -1.3614   0.0000   0.0000   0.0000   0.3744
  26.500   0.9412   0.34190   0.34051  -0.1520  0.0063  1.0000  -1.3723   0.0000   0.0000   0.0000   0.3744
  26.600   0.9400   0.34209   0.34071  -0.1521  0.0062  1.0000  -1.3838   0.0000   0.0000   0.0000   0.3744
  26.700   0.9388   0.34227   0.34089  -0.1521  0.0061  1.0000  -1.3957   0.0000   0.0000   0.0000   0.3744
  26.800   0.9376   0.34244   0.34106  -0.1521  0.0061  1.0000  -1.4081   0.0000   0.0000   0.0000   0.3743
  26.900   0.9364   0.34260   0.34123  -0.1521  0.0060  1.0000  -1.4209   0.0000   0.0000   0.0000   0.3743
  27.000   0.9351   0.34273   0.34137  -0.1521  0.0060  1.0000  -1.4338   0.0000   0.0000   0.0000   0.3742
  27.100   0.9338   0.34285   0.34149  -0.1521  0.0059  1.0000  -1.4465   0.0000   0.0000   0.0000   0.3741
  27.200   0.9320   0.34298   0.34163  -0.1520  0.0058  1.0000  -1.4519   0.0000   0.0000   0.0000   0.3741
  27.300   0.9201   0.34391   0.34254  -0.1506  0.0054  1.0000  -1.2387   0.0000   0.0000   0.0000   0.3750
  27.400   0.9189   0.34437   0.34301  -0.1507  0.0054  1.0000  -1.2312   0.0000   0.0000   0.0000   0.3751
  27.500   0.9177   0.34484   0.34349  -0.1509  0.0054  1.0000  -1.2346   0.0000   0.0000   0.0000   0.3753
  27.600   0.9165   0.34532   0.34397  -0.1510  0.0054  1.0000  -1.2380   0.0000   0.0000   0.0000   0.3754
  27.700   0.9154   0.34580   0.34445  -0.1512  0.0054  1.0000  -1.2415   0.0000   0.0000   0.0000   0.3756
  27.800   0.9143   0.34628   0.34494  -0.1514  0.0054  1.0000  -1.2450   0.0000   0.0000   0.0000   0.3757
  27.900   0.9132   0.34677   0.34543  -0.1515  0.0054  1.0000  -1.2485   0.0000   0.0000   0.0000   0.3759
  28.000   0.9122   0.34726   0.34593  -0.1517  0.0054  1.0000  -1.2521   0.0000   0.0000   0.0000   0.3760
  28.100   0.9111   0.34776   0.34643  -0.1519  0.0054  1.0000  -1.2556   0.0000   0.0000   0.0000   0.3762
  28.200   0.9101   0.34826   0.34693  -0.1521  0.0054  1.0000  -1.2590   0.0000   0.0000   0.0000   0.3764
  28.300   0.9091   0.34875   0.34743  -0.1523  0.0054  1.0000  -1.2625   0.0000   0.0000   0.0000   0.3765
  28.400   0.9081   0.34925   0.34793  -0.1525  0.0054  1.0000  -1.2661   0.0000   0.0000   0.0000   0.3766
  28.500   0.9072   0.34975   0.34844  -0.1527  0.0054  1.0000  -1.2696   0.0000   0.0000   0.0000   0.3768
  28.600   0.9062   0.35025   0.34894  -0.1529  0.0054  1.0000  -1.2730   0.0000   0.0000   0.0000   0.3769
  28.700   0.9053   0.35076   0.34946  -0.1531  0.0054  1.0000  -1.2762   0.0000   0.0000   0.0000   0.3771
  28.800   0.9043   0.35127   0.34997  -0.1533  0.0054  1.0000  -1.2793   0.0000   0.0000   0.0000   0.3772
  28.900   0.9034   0.35178   0.35049  -0.1535  0.0054  1.0000  -1.2821   0.0000   0.0000   0.0000   0.3774
  29.000   0.9025   0.35230   0.35101  -0.1537  0.0054  1.0000  -1.2844   0.0000   0.0000   0.0000   0.3775
  29.100   0.9017   0.35282   0.35154  -0.1539  0.0053  1.0000  -1.2863   0.0000   0.0000   0.0000   0.3777
  29.200   0.9008   0.35336   0.35208  -0.1541  0.0053  1.0000  -1.2874   0.0000   0.0000   0.0000   0.3778
  29.300   0.9000   0.35390   0.35262  -0.1543  0.0053  1.0000  -1.2875   0.0000   0.0000   0.0000   0.3780
  29.400   0.8992   0.35445   0.35318  -0.1546  0.0053  1.0000  -1.2860   0.0000   0.0000   0.0000   0.3781
  29.500   0.8983   0.35503   0.35376  -0.1548  0.0053  1.0000  -1.2818   0.0000   0.0000   0.0000   0.3783
  29.600   0.8976   0.35564   0.35438  -0.1551  0.0053  1.0000  -1.2725   0.0000   0.0000   0.0000   0.3785
  29.700   0.8968   0.35637   0.35512  -0.1554  0.0052  1.0000  -1.2482   0.0000   0.0000   0.0000   0.3787
  29.800   0.8960   0.35743   0.35618  -0.1557  0.0052  1.0000  -1.1810   0.0000   0.0000   0.0000   0.3791
  29.900   0.8950   0.35831   0.35706  -0.1559  0.0051  1.0000  -1.1300   0.0000   0.0000   0.0000   0.3793
  30.000   0.8941   0.35906   0.35781  -0.1561  0.0051  1.0000  -1.0963   0.0000   0.0000   0.0000   0.3795


