xflr5 v6.61

 Calculated polar for: Bergey BW-3  (smoothed)

 1 1 Reynolds number fixed          Mach number fixed         

 xtrf =   1.000 (top)        1.000 (bottom)
 Mach =   0.000     Re =     0.300 e 6     Ncrit =   9.000

  alpha     CL        CD       CDp       Cm    Top Xtr Bot Xtr   Cpmin    Chinge    XCp    
 ------- -------- --------- --------- -------- ------- ------- -------- --------- ---------
 -10.000  -0.4142   0.12806   0.12480  -0.0138  1.0000  0.0250  -1.6948   0.0000   0.0000   0.0000   0.2135
  -9.900  -0.4092   0.12564   0.12237  -0.0130  1.0000  0.0255  -1.6317   0.0000   0.0000   0.0000   0.2150
  -9.800  -0.4053   0.12420   0.12094  -0.0127  1.0000  0.0258  -1.5841   0.0000   0.0000   0.0000   0.2155
  -9.700  -0.4018   0.12301   0.11975  -0.0125  1.0000  0.0261  -1.5438   0.0000   0.0000   0.0000   0.2157
  -9.600  -0.3986   0.12193   0.11868  -0.0125  1.0000  0.0265  -1.5089   0.0000   0.0000   0.0000   0.2156
  -9.500  -0.3956   0.12090   0.11766  -0.0125  1.0000  0.0268  -1.4782   0.0000   0.0000   0.0000   0.2154
  -9.400  -0.3927   0.11990   0.11666  -0.0126  1.0000  0.0271  -1.4508   0.0000   0.0000   0.0000   0.2151
  -9.300  -0.3900   0.11891   0.11568  -0.0127  1.0000  0.0275  -1.4263   0.0000   0.0000   0.0000   0.2146
  -9.200  -0.3873   0.11793   0.11470  -0.0128  1.0000  0.0278  -1.4042   0.0000   0.0000   0.0000   0.2141
  -9.100  -0.3847   0.11694   0.11372  -0.0129  1.0000  0.0282  -1.3840   0.0000   0.0000   0.0000   0.2136
  -9.000  -0.3822   0.11595   0.11274  -0.0131  1.0000  0.0286  -1.3653   0.0000   0.0000   0.0000   0.2130
  -8.900  -0.3797   0.11497   0.11177  -0.0133  1.0000  0.0289  -1.3479   0.0000   0.0000   0.0000   0.2124
  -8.800  -0.3774   0.11398   0.11079  -0.0134  1.0000  0.0293  -1.3316   0.0000   0.0000   0.0000   0.2118
  -8.700  -0.3751   0.11300   0.10981  -0.0136  1.0000  0.0297  -1.3162   0.0000   0.0000   0.0000   0.2111
  -8.600  -0.3728   0.11202   0.10884  -0.0137  1.0000  0.0300  -1.3013   0.0000   0.0000   0.0000   0.2105
  -8.500  -0.3706   0.11108   0.10791  -0.0139  1.0000  0.0306  -1.2848   0.0000   0.0000   0.0000   0.2100
  -8.400  -0.3683   0.11016   0.10700  -0.0140  1.0000  0.0313  -1.2685   0.0000   0.0000   0.0000   0.2094
  -8.300  -0.3662   0.10925   0.10610  -0.0142  1.0000  0.0322  -1.2538   0.0000   0.0000   0.0000   0.2088
  -8.200  -0.3641   0.10834   0.10520  -0.0143  1.0000  0.0330  -1.2414   0.0000   0.0000   0.0000   0.2082
  -8.100  -0.3621   0.10746   0.10433  -0.0145  1.0000  0.0339  -1.2323   0.0000   0.0000   0.0000   0.2075
  -8.000  -0.3602   0.10665   0.10354  -0.0148  1.0000  0.0348  -1.2281   0.0000   0.0000   0.0000   0.2067
  -7.900  -0.3587   0.10601   0.10284  -0.0150  1.0000  0.0357  -1.2361   0.0000   0.0000   0.0000   0.2058
  -7.800  -0.3576   0.10532   0.10216  -0.0152  1.0000  0.0360  -1.2325   0.0000   0.0000   0.0000   0.2054
  -7.700  -0.3570   0.10471   0.10156  -0.0152  1.0000  0.0363  -1.2300   0.0000   0.0000   0.0000   0.2052
  -7.600  -0.3569   0.10417   0.10104  -0.0152  1.0000  0.0365  -1.2287   0.0000   0.0000   0.0000   0.2053
  -7.500  -0.3572   0.10368   0.10056  -0.0151  1.0000  0.0367  -1.2279   0.0000   0.0000   0.0000   0.2058
  -7.400  -0.3575   0.10317   0.10008  -0.0150  1.0000  0.0368  -1.2268   0.0000   0.0000   0.0000   0.2062
  -7.300  -0.3560   0.10254   0.09946  -0.0153  1.0000  0.0370  -1.2230   0.0000   0.0000   0.0000   0.2050
  -7.200  -0.3531   0.10178   0.09872  -0.0161  1.0000  0.0371  -1.2169   0.0000   0.0000   0.0000   0.2026
  -7.100  -0.3501   0.10098   0.09794  -0.0168  1.0000  0.0372  -1.2099   0.0000   0.0000   0.0000   0.2001
  -7.000  -0.3469   0.10016   0.09713  -0.0176  1.0000  0.0373  -1.2025   0.0000   0.0000   0.0000   0.1974
  -6.900  -0.3437   0.09933   0.09631  -0.0184  1.0000  0.0374  -1.2004   0.0000   0.0000   0.0000   0.1947
  -6.800  -0.3404   0.09848   0.09547  -0.0192  1.0000  0.0374  -1.2065   0.0000   0.0000   0.0000   0.1919
  -6.700  -0.3370   0.09760   0.09461  -0.0200  1.0000  0.0375  -1.2124   0.0000   0.0000   0.0000   0.1890
  -6.600  -0.3336   0.09671   0.09373  -0.0207  1.0000  0.0375  -1.2181   0.0000   0.0000   0.0000   0.1861
  -6.500  -0.3301   0.09579   0.09283  -0.0214  1.0000  0.0376  -1.2224   0.0000   0.0000   0.0000   0.1834
  -6.400  -0.3270   0.09489   0.09194  -0.0219  1.0000  0.0376  -1.2256   0.0000   0.0000   0.0000   0.1811
  -6.300  -0.3244   0.09403   0.09110  -0.0223  1.0000  0.0377  -1.2289   0.0000   0.0000   0.0000   0.1795
  -6.200  -0.3233   0.09328   0.09038  -0.0223  1.0000  0.0377  -1.2326   0.0000   0.0000   0.0000   0.1793
  -6.100  -0.3246   0.09274   0.08986  -0.0217  1.0000  0.0377  -1.2371   0.0000   0.0000   0.0000   0.1814
  -6.000  -0.3218   0.09192   0.08905  -0.0222  0.9997  0.0377  -1.2396   0.0000   0.0000   0.0000   0.1793
  -5.900  -0.3080   0.09026   0.08737  -0.0254  0.9986  0.0378  -1.2367   0.0000   0.0000   0.0000   0.1657
  -5.800  -0.2941   0.08859   0.08569  -0.0285  0.9976  0.0378  -1.2337   0.0000   0.0000   0.0000   0.1510
  -5.700  -0.2805   0.08691   0.08400  -0.0315  0.9964  0.0379  -1.2304   0.0000   0.0000   0.0000   0.1356
  -5.600  -0.2668   0.08523   0.08230  -0.0344  0.9951  0.0379  -1.2270   0.0000   0.0000   0.0000   0.1187
  -5.500  -0.2531   0.08354   0.08060  -0.0373  0.9937  0.0379  -1.2234   0.0000   0.0000   0.0000   0.1002
  -5.400  -0.2391   0.08185   0.07889  -0.0402  0.9925  0.0380  -1.2197   0.0000   0.0000   0.0000   0.0793
  -5.300  -0.2248   0.08014   0.07717  -0.0431  0.9914  0.0380  -1.2159   0.0000   0.0000   0.0000   0.0553
  -5.200  -0.2109   0.07845   0.07546  -0.0459  0.9901  0.0380  -1.2124   0.0000   0.0000   0.0000   0.0292
  -5.100  -0.1979   0.07678   0.07378  -0.0484  0.9880  0.0380  -1.2093   0.0000   0.0000   0.0000   0.0021
  -5.000  -0.1842   0.07510   0.07209  -0.0510  0.9860  0.0380  -1.2061   0.0000   0.0000   0.0000  -0.0304
  -4.900  -0.1702   0.07341   0.07038  -0.0537  0.9841  0.0381  -1.2027   0.0000   0.0000   0.0000  -0.0694
  -4.800  -0.1557   0.07170   0.06865  -0.0564  0.9824  0.0381  -1.1993   0.0000   0.0000   0.0000  -0.1168
  -4.600  -0.1284   0.06837   0.06528  -0.0612  0.9778  0.0381  -1.1937   0.0000   0.0000   0.0000  -0.2326
  -4.500  -0.1226   0.06247   0.05937  -0.0652  0.9740  0.0392  -1.3083   0.0000   0.0000   0.0000  -0.2879
  -4.400  -0.1127   0.06064   0.05754  -0.0665  0.9714  0.0396  -1.2873   0.0000   0.0000   0.0000  -0.3464
  -4.300  -0.1021   0.05923   0.05612  -0.0675  0.9692  0.0399  -1.2532   0.0000   0.0000   0.0000  -0.4179
  -4.100  -0.0814   0.05676   0.05365  -0.0694  0.9630  0.0406  -1.1912   0.0000   0.0000   0.0000  -0.6111
  -4.000  -0.0701   0.05558   0.05247  -0.0705  0.9596  0.0409  -1.1617   0.0000   0.0000   0.0000  -0.7660
  -3.900  -0.0574   0.05439   0.05126  -0.0720  0.9571  0.0413  -1.1322   0.0000   0.0000   0.0000  -1.0169
  -3.800  -0.0438   0.05318   0.05005  -0.0738  0.9550  0.0418  -1.1040   0.0000   0.0000   0.0000  -1.4521
  -3.700  -0.0293   0.05197   0.04882  -0.0757  0.9532  0.0424  -1.0775   0.0000   0.0000   0.0000  -2.3543
  -3.600  -0.0142   0.05074   0.04758  -0.0778  0.9517  0.0430  -1.0532   0.0000   0.0000   0.0000  -5.2801
  -3.500   0.0015   0.04949   0.04631  -0.0800  0.9503  0.0437  -1.0314   0.0000   0.0000   0.0000  54.0945
  -3.400   0.0145   0.04837   0.04517  -0.0816  0.9469  0.0444  -1.0151   0.0000   0.0000   0.0000   5.9045
  -3.300   0.0293   0.04716   0.04394  -0.0835  0.9443  0.0452  -1.0003   0.0000   0.0000   0.0000   3.1250
  -3.200   0.0451   0.04590   0.04265  -0.0856  0.9421  0.0462  -0.9883   0.0000   0.0000   0.0000   2.1652
  -3.100   0.0618   0.04457   0.04129  -0.0880  0.9402  0.0472  -0.9804   0.0000   0.0000   0.0000   1.6830
  -3.000   0.0797   0.04317   0.03985  -0.0905  0.9386  0.0483  -0.9783   0.0000   0.0000   0.0000   1.3943
  -2.900   0.0988   0.04165   0.03827  -0.0933  0.9372  0.0493  -0.9880   0.0000   0.0000   0.0000   1.2012
  -2.800   0.1269   0.04027   0.03674  -0.0978  0.9359  0.0527  -1.0407   0.0000   0.0000   0.0000   1.0261
  -2.700   0.1616   0.02882   0.02475  -0.1068  0.9352  0.0395  -1.6795   0.0000   0.0000   0.0000   0.9156
  -2.600   0.1749   0.02929   0.02528  -0.1075  0.9338  0.0414  -1.5477   0.0000   0.0000   0.0000   0.8686
  -2.500   0.1861   0.03089   0.02698  -0.1073  0.9324  0.0446  -1.3649   0.0000   0.0000   0.0000   0.8299
  -2.400   0.2035   0.03023   0.02627  -0.1089  0.9312  0.0474  -1.3205   0.0000   0.0000   0.0000   0.7884
  -2.300   0.2214   0.02886   0.02481  -0.1108  0.9292  0.0488  -1.3183   0.0000   0.0000   0.0000   0.7533
  -2.200   0.2380   0.02742   0.02325  -0.1124  0.9265  0.0494  -1.3191   0.0000   0.0000   0.0000   0.7246
  -2.100   0.2551   0.02594   0.02165  -0.1140  0.9243  0.0497  -1.3162   0.0000   0.0000   0.0000   0.6991
  -2.000   0.2726   0.02443   0.02001  -0.1156  0.9224  0.0505  -1.3145   0.0000   0.0000   0.0000   0.6761
  -1.900   0.2906   0.02307   0.01851  -0.1172  0.9207  0.0525  -1.3103   0.0000   0.0000   0.0000   0.6549
  -1.800   0.3085   0.02201   0.01732  -0.1186  0.9191  0.0537  -1.2902   0.0000   0.0000   0.0000   0.6359
  -1.700   0.3259   0.02038   0.01551  -0.1201  0.9174  0.0542  -1.2934   0.0000   0.0000   0.0000   0.6198
  -1.600   0.3378   0.01519   0.00957  -0.1206  0.9159  0.0572  -1.4921   0.0000   0.0000   0.0000   0.6082
  -1.500   0.3578   0.01556   0.01001  -0.1225  0.9142  0.0585  -1.3739   0.0000   0.0000   0.0000   0.5936
  -1.400   0.3788   0.01598   0.01050  -0.1248  0.9126  0.0602  -1.2532   0.0000   0.0000   0.0000   0.5803
  -1.300   0.4004   0.01626   0.01083  -0.1271  0.9109  0.0633  -1.1791   0.0000   0.0000   0.0000   0.5683
  -1.200   0.4216   0.01578   0.01017  -0.1291  0.9090  0.0713  -1.1829   0.0000   0.0000   0.0000   0.5569
  -1.100   0.4383   0.01510   0.00930  -0.1303  0.9059  0.0759  -1.1728   0.0000   0.0000   0.0000   0.5479
  -1.000   0.4519   0.01514   0.00940  -0.1310  0.9013  0.0776  -1.1105   0.0000   0.0000   0.0000   0.5403
  -0.900   0.4679   0.01533   0.00963  -0.1322  0.8972  0.0793  -1.0415   0.0000   0.0000   0.0000   0.5328
  -0.800   0.4849   0.01551   0.00986  -0.1336  0.8930  0.0814  -0.9723   0.0000   0.0000   0.0000   0.5257
  -0.700   0.5031   0.01557   0.00990  -0.1352  0.8886  0.0846  -0.9129   0.0000   0.0000   0.0000   0.5188
  -0.600   0.5222   0.01551   0.00976  -0.1369  0.8839  0.0892  -0.8668   0.0000   0.0000   0.0000   0.5121
  -0.500   0.5353   0.01582   0.01003  -0.1370  0.8782  0.0934  -0.8255   0.0000   0.0000   0.0000   0.5059
  -0.400   0.5442   0.01545   0.00955  -0.1365  0.8723  0.0985  -0.8004   0.0000   0.0000   0.0000   0.5007
  -0.300   0.5550   0.01558   0.00982  -0.1368  0.8665  0.1023  -0.7328   0.0000   0.0000   0.0000   0.4962
  -0.200   0.5677   0.01584   0.01015  -0.1373  0.8613  0.1067  -0.6680   0.0000   0.0000   0.0000   0.4915
  -0.100   0.5816   0.01583   0.01010  -0.1379  0.8569  0.1107  -0.6262   0.0000   0.0000   0.0000   0.4867
   0.000   0.5944   0.01562   0.00980  -0.1381  0.8527  0.1121  -0.6214   0.0000   0.0000   0.0000   0.4819
   0.100   0.6029   0.01539   0.00952  -0.1374  0.8484  0.1126  -0.6294   0.0000   0.0000   0.0000   0.4773
   0.200   0.6122   0.01514   0.00922  -0.1369  0.8438  0.1129  -0.6378   0.0000   0.0000   0.0000   0.4728
   0.300   0.6223   0.01490   0.00892  -0.1365  0.8394  0.1131  -0.6467   0.0000   0.0000   0.0000   0.4685
   0.400   0.6331   0.01466   0.00861  -0.1362  0.8352  0.1134  -0.6560   0.0000   0.0000   0.0000   0.4643
   0.500   0.6448   0.01457   0.00847  -0.1362  0.8313  0.1150  -0.6659   0.0000   0.0000   0.0000   0.4603
   0.600   0.6572   0.01469   0.00853  -0.1363  0.8275  0.1173  -0.6768   0.0000   0.0000   0.0000   0.4563
   0.800   0.6787   0.01422   0.00790  -0.1359  0.8198  0.1224  -0.6974   0.0000   0.0000   0.0000   0.4490
   0.900   0.6877   0.01389   0.00755  -0.1354  0.8157  0.1229  -0.7068   0.0000   0.0000   0.0000   0.4454
   1.000   0.6970   0.01358   0.00721  -0.1349  0.8108  0.1239  -0.7245   0.0000   0.0000   0.0000   0.4420
   1.100   0.7067   0.01337   0.00697  -0.1344  0.8053  0.1251  -0.7583   0.0000   0.0000   0.0000   0.4387
   1.200   0.7173   0.01322   0.00679  -0.1342  0.7992  0.1264  -0.7944   0.0000   0.0000   0.0000   0.4354
   1.300   0.7288   0.01313   0.00664  -0.1341  0.7930  0.1276  -0.8327   0.0000   0.0000   0.0000   0.4323
   1.400   0.7386   0.01303   0.00653  -0.1337  0.7873  0.1285  -0.8683   0.0000   0.0000   0.0000   0.4292
   1.500   0.7474   0.01291   0.00642  -0.1330  0.7815  0.1292  -0.9023   0.0000   0.0000   0.0000   0.4261
   1.600   0.7570   0.01280   0.00630  -0.1325  0.7757  0.1296  -0.9378   0.0000   0.0000   0.0000   0.4231
   1.700   0.7674   0.01270   0.00618  -0.1322  0.7704  0.1299  -0.9750   0.0000   0.0000   0.0000   0.4202
   1.800   0.7782   0.01261   0.00605  -0.1320  0.7653  0.1301  -1.0133   0.0000   0.0000   0.0000   0.4174
   1.900   0.7894   0.01254   0.00592  -0.1319  0.7592  0.1301  -1.0527   0.0000   0.0000   0.0000   0.4147
   2.000   0.7993   0.01245   0.00581  -0.1314  0.7526  0.1301  -1.0901   0.0000   0.0000   0.0000   0.4120
   2.100   0.8082   0.01233   0.00570  -0.1307  0.7446  0.1300  -1.1260   0.0000   0.0000   0.0000   0.4093
   2.200   0.8178   0.01224   0.00566  -0.1302  0.7360  0.1299  -1.1655   0.0000   0.0000   0.0000   0.4066
   2.300   0.8280   0.01218   0.00552  -0.1298  0.7271  0.1298  -1.2052   0.0000   0.0000   0.0000   0.4041
   2.400   0.8382   0.01213   0.00542  -0.1294  0.7182  0.1299  -1.2447   0.0000   0.0000   0.0000   0.4016
   2.500   0.8472   0.01206   0.00537  -0.1288  0.7090  0.1306  -1.2824   0.0000   0.0000   0.0000   0.3992
   2.600   0.8565   0.01202   0.00530  -0.1283  0.6987  0.1316  -1.3212   0.0000   0.0000   0.0000   0.3968
   2.700   0.8664   0.01201   0.00524  -0.1278  0.6891  0.1326  -1.3611   0.0000   0.0000   0.0000   0.3945
   2.800   0.8765   0.01199   0.00519  -0.1275  0.6807  0.1332  -1.4013   0.0000   0.0000   0.0000   0.3922
   2.900   0.8864   0.01193   0.00513  -0.1271  0.6714  0.1334  -1.4410   0.0000   0.0000   0.0000   0.3901
   3.000   0.8963   0.01188   0.00505  -0.1266  0.6601  0.1330  -1.4932   0.0000   0.0000   0.0000   0.3879
   3.100   0.9059   0.01189   0.00497  -0.1261  0.6473  0.1327  -1.5470   0.0000   0.0000   0.0000   0.3857
   3.200   0.9154   0.01186   0.00492  -0.1256  0.6327  0.1326  -1.6011   0.0000   0.0000   0.0000   0.3837
   3.300   0.9240   0.01190   0.00486  -0.1249  0.6132  0.1326  -1.6532   0.0000   0.0000   0.0000   0.3815
   3.400   0.9332   0.01192   0.00482  -0.1244  0.5947  0.1328  -1.7072   0.0000   0.0000   0.0000   0.3794
   3.500   0.9409   0.01203   0.00479  -0.1235  0.5706  0.1332  -1.7579   0.0000   0.0000   0.0000   0.3773
   3.600   0.9489   0.01214   0.00479  -0.1226  0.5407  0.1337  -1.8091   0.0000   0.0000   0.0000   0.3752
   3.700   0.9551   0.01236   0.00481  -0.1215  0.5014  0.1343  -1.8558   0.0000   0.0000   0.0000   0.3731
   3.800   0.9594   0.01272   0.00490  -0.1200  0.4512  0.1351  -1.8972   0.0000   0.0000   0.0000   0.3708
   3.900   0.9629   0.01322   0.00506  -0.1184  0.3876  0.1359  -1.9352   0.0000   0.0000   0.0000   0.3686
   4.000   0.9643   0.01397   0.00533  -0.1165  0.3071  0.1368  -1.9659   0.0000   0.0000   0.0000   0.3664
   4.100   0.9629   0.01508   0.00576  -0.1143  0.1823  0.1375  -1.9861   0.0000   0.0000   0.0000   0.3642
   4.200   0.9628   0.01619   0.00629  -0.1123  0.0854  0.1383  -2.0091   0.0000   0.0000   0.0000   0.3621
   4.300   0.9714   0.01649   0.00654  -0.1117  0.0716  0.1399  -2.0514   0.0000   0.0000   0.0000   0.3603
   4.400   0.9808   0.01669   0.00675  -0.1114  0.0666  0.1416  -2.1026   0.0000   0.0000   0.0000   0.3587
   4.500   0.9897   0.01695   0.00699  -0.1109  0.0618  0.1432  -2.1519   0.0000   0.0000   0.0000   0.3571
   4.600   0.9977   0.01729   0.00735  -0.1102  0.0567  0.1444  -2.1925   0.0000   0.0000   0.0000   0.3554
   4.700   1.0059   0.01759   0.00769  -0.1095  0.0543  0.1454  -2.2363   0.0000   0.0000   0.0000   0.3537
   4.800   1.0156   0.01774   0.00787  -0.1092  0.0536  0.1462  -2.2919   0.0000   0.0000   0.0000   0.3522
   4.900   1.0264   0.01787   0.00803  -0.1091  0.0528  0.1480  -2.3494   0.0000   0.0000   0.0000   0.3509
   5.000   1.0371   0.01803   0.00822  -0.1091  0.0520  0.1501  -2.4067   0.0000   0.0000   0.0000   0.3497
   5.100   1.0473   0.01821   0.00843  -0.1089  0.0512  0.1521  -2.4628   0.0000   0.0000   0.0000   0.3484
   5.200   1.0571   0.01841   0.00867  -0.1086  0.0504  0.1539  -2.5185   0.0000   0.0000   0.0000   0.3470
   5.300   1.0668   0.01862   0.00892  -0.1083  0.0495  0.1556  -2.5740   0.0000   0.0000   0.0000   0.3457
   5.400   1.0767   0.01885   0.00917  -0.1081  0.0487  0.1574  -2.6303   0.0000   0.0000   0.0000   0.3445
   5.500   1.0870   0.01909   0.00945  -0.1080  0.0478  0.1592  -2.6880   0.0000   0.0000   0.0000   0.3433
   5.600   1.0973   0.01936   0.00973  -0.1079  0.0469  0.1610  -2.7463   0.0000   0.0000   0.0000   0.3422
   5.700   1.1075   0.01963   0.01002  -0.1078  0.0459  0.1630  -2.8043   0.0000   0.0000   0.0000   0.3410
   5.800   1.1175   0.01991   0.01032  -0.1076  0.0448  0.1651  -2.8620   0.0000   0.0000   0.0000   0.3399
   5.900   1.1272   0.02022   0.01063  -0.1074  0.0437  0.1674  -2.9185   0.0000   0.0000   0.0000   0.3388
   6.000   1.1366   0.02057   0.01114  -0.1071  0.0428  0.1703  -2.9825   0.0000   0.0000   0.0000   0.3376
   6.100   1.1443   0.02110   0.01167  -0.1065  0.0412  0.1731  -3.0247   0.0000   0.0000   0.0000   0.3363
   6.200   1.1444   0.02293   0.01356  -0.1045  0.0380  0.1744  -2.9771   0.0000   0.0000   0.0000   0.3344
   6.300   1.1577   0.02297   0.01364  -0.1050  0.0374  0.1852  -3.0404   0.0000   0.0000   0.0000   0.3337
   6.400   1.1711   0.02321   0.01395  -0.1055  0.0367  0.2025  -3.0935   0.0000   0.0000   0.0000   0.3330
   6.600   1.2760   0.02544   0.01733  -0.1251  0.0341  1.0000  -3.3097   0.0000   0.0000   0.0000   0.3405
   6.700   1.2849   0.02610   0.01801  -0.1246  0.0340  1.0000  -3.3392   0.0000   0.0000   0.0000   0.3393
   6.800   1.2940   0.02679   0.01874  -0.1241  0.0340  1.0000  -3.3684   0.0000   0.0000   0.0000   0.3381
   6.900   1.3032   0.02752   0.01951  -0.1236  0.0340  1.0000  -3.3970   0.0000   0.0000   0.0000   0.3369
   7.000   1.3125   0.02830   0.02033  -0.1232  0.0340  1.0000  -3.4248   0.0000   0.0000   0.0000   0.3358
   7.100   1.3219   0.02912   0.02120  -0.1228  0.0341  1.0000  -3.4515   0.0000   0.0000   0.0000   0.3346
   7.200   1.3313   0.03000   0.02213  -0.1223  0.0343  1.0000  -3.4769   0.0000   0.0000   0.0000   0.3335
   7.300   1.3404   0.03085   0.02305  -0.1219  0.0344  1.0000  -3.5092   0.0000   0.0000   0.0000   0.3324
   7.400   1.3494   0.03165   0.02390  -0.1214  0.0344  1.0000  -3.5740   0.0000   0.0000   0.0000   0.3313
   7.500   1.3580   0.03239   0.02470  -0.1209  0.0343  1.0000  -3.6410   0.0000   0.0000   0.0000   0.3303
   7.600   1.3665   0.03308   0.02545  -0.1203  0.0341  1.0000  -3.7099   0.0000   0.0000   0.0000   0.3292
   7.700   1.3748   0.03372   0.02615  -0.1198  0.0338  1.0000  -3.7805   0.0000   0.0000   0.0000   0.3281
   7.800   1.3830   0.03433   0.02683  -0.1192  0.0335  1.0000  -3.8526   0.0000   0.0000   0.0000   0.3271
   7.900   1.3910   0.03493   0.02748  -0.1186  0.0331  1.0000  -3.9255   0.0000   0.0000   0.0000   0.3260
   8.000   1.3988   0.03554   0.02814  -0.1180  0.0327  1.0000  -3.9987   0.0000   0.0000   0.0000   0.3250
   8.100   1.4064   0.03617   0.02884  -0.1174  0.0324  1.0000  -4.0710   0.0000   0.0000   0.0000   0.3240
   8.200   1.4138   0.03688   0.02961  -0.1168  0.0321  1.0000  -4.1403   0.0000   0.0000   0.0000   0.3229
   8.300   1.4210   0.03773   0.03055  -0.1160  0.0320  1.0000  -4.2022   0.0000   0.0000   0.0000   0.3219
   8.400   1.4278   0.03876   0.03168  -0.1152  0.0321  1.0000  -4.2557   0.0000   0.0000   0.0000   0.3208
   8.500   1.4342   0.03982   0.03284  -0.1144  0.0322  1.0000  -4.3074   0.0000   0.0000   0.0000   0.3197
   8.600   1.4402   0.04090   0.03403  -0.1135  0.0323  1.0000  -4.3572   0.0000   0.0000   0.0000   0.3187
   8.700   1.4459   0.04201   0.03524  -0.1126  0.0324  1.0000  -4.4051   0.0000   0.0000   0.0000   0.3176
   8.800   1.4512   0.04313   0.03648  -0.1116  0.0325  1.0000  -4.4513   0.0000   0.0000   0.0000   0.3165
   8.900   1.4561   0.04429   0.03774  -0.1106  0.0326  1.0000  -4.4957   0.0000   0.0000   0.0000   0.3154
   9.000   1.4608   0.04546   0.03902  -0.1096  0.0326  1.0000  -4.5386   0.0000   0.0000   0.0000   0.3143
   9.100   1.4651   0.04665   0.04032  -0.1085  0.0327  1.0000  -4.5798   0.0000   0.0000   0.0000   0.3133
   9.200   1.4689   0.04785   0.04163  -0.1074  0.0327  1.0000  -4.6193   0.0000   0.0000   0.0000   0.3122
   9.300   1.4724   0.04906   0.04294  -0.1062  0.0327  1.0000  -4.6569   0.0000   0.0000   0.0000   0.3111
   9.500   1.4762   0.05208   0.04637  -0.1036  0.0335  1.0000  -4.7203   0.0000   0.0000   0.0000   0.3089
   9.600   1.4779   0.05342   0.04783  -0.1023  0.0335  1.0000  -4.7512   0.0000   0.0000   0.0000   0.3078
   9.700   1.4793   0.05471   0.04923  -0.1010  0.0335  1.0000  -4.7806   0.0000   0.0000   0.0000   0.3068
   9.800   1.4803   0.05597   0.05060  -0.0997  0.0335  1.0000  -4.8086   0.0000   0.0000   0.0000   0.3057
   9.900   1.4810   0.05720   0.05194  -0.0983  0.0333  1.0000  -4.8353   0.0000   0.0000   0.0000   0.3046
  10.000   1.4813   0.05841   0.05325  -0.0969  0.0331  1.0000  -4.8607   0.0000   0.0000   0.0000   0.3035
  10.100   1.4812   0.05958   0.05453  -0.0955  0.0329  1.0000  -4.8850   0.0000   0.0000   0.0000   0.3024
  10.200   1.4807   0.06073   0.05577  -0.0940  0.0326  1.0000  -4.9085   0.0000   0.0000   0.0000   0.3013
  10.300   1.4798   0.06184   0.05698  -0.0925  0.0322  1.0000  -4.9317   0.0000   0.0000   0.0000   0.3003
  10.400   1.4787   0.06289   0.05812  -0.0911  0.0318  1.0000  -4.9558   0.0000   0.0000   0.0000   0.2992
  10.500   1.4773   0.06387   0.05917  -0.0896  0.0313  1.0000  -4.9830   0.0000   0.0000   0.0000   0.2981
  10.600   1.4765   0.06475   0.06012  -0.0883  0.0307  1.0000  -5.0185   0.0000   0.0000   0.0000   0.2971
  10.700   1.4767   0.06549   0.06090  -0.0871  0.0301  1.0000  -5.0680   0.0000   0.0000   0.0000   0.2962
  10.800   1.4782   0.06599   0.06142  -0.0861  0.0294  1.0000  -5.1360   0.0000   0.0000   0.0000   0.2953
  10.900   1.4807   0.06622   0.06163  -0.0852  0.0287  1.0000  -5.2236   0.0000   0.0000   0.0000   0.2944
  11.000   1.4862   0.06612   0.06147  -0.0847  0.0280  1.0000  -5.3458   0.0000   0.0000   0.0000   0.2937
  11.100   1.4931   0.06592   0.06119  -0.0844  0.0274  1.0000  -5.4863   0.0000   0.0000   0.0000   0.2930
  11.200   1.4906   0.06649   0.06177  -0.0829  0.0270  1.0000  -5.5391   0.0000   0.0000   0.0000   0.2919
  11.300   1.4877   0.06715   0.06245  -0.0814  0.0267  1.0000  -5.5885   0.0000   0.0000   0.0000   0.2908
  11.400   1.4841   0.06801   0.06332  -0.0798  0.0264  1.0000  -5.6283   0.0000   0.0000   0.0000   0.2898
  11.500   1.4790   0.06910   0.06445  -0.0783  0.0262  1.0000  -5.6530   0.0000   0.0000   0.0000   0.2888
  11.600   1.4722   0.07045   0.06585  -0.0767  0.0259  1.0000  -5.6602   0.0000   0.0000   0.0000   0.2878
  11.700   1.4639   0.07201   0.06747  -0.0751  0.0257  1.0000  -5.6512   0.0000   0.0000   0.0000   0.2869
  11.800   1.4543   0.07369   0.06923  -0.0735  0.0256  1.0000  -5.6304   0.0000   0.0000   0.0000   0.2860
  11.900   1.4440   0.07550   0.07112  -0.0721  0.0255  1.0000  -5.6021   0.0000   0.0000   0.0000   0.2852
  12.000   1.4333   0.07744   0.07314  -0.0710  0.0254  1.0000  -5.5687   0.0000   0.0000   0.0000   0.2847
  12.100   1.4225   0.07947   0.07526  -0.0701  0.0253  1.0000  -5.5322   0.0000   0.0000   0.0000   0.2842
  12.200   1.4117   0.08159   0.07746  -0.0694  0.0253  1.0000  -5.4938   0.0000   0.0000   0.0000   0.2840
  12.300   1.4009   0.08377   0.07972  -0.0689  0.0252  1.0000  -5.4548   0.0000   0.0000   0.0000   0.2839
  12.400   1.3902   0.08600   0.08203  -0.0687  0.0252  1.0000  -5.4155   0.0000   0.0000   0.0000   0.2839
  12.500   1.3796   0.08826   0.08437  -0.0686  0.0252  1.0000  -5.3764   0.0000   0.0000   0.0000   0.2841
  12.600   1.3693   0.09049   0.08668  -0.0687  0.0252  1.0000  -5.3391   0.0000   0.0000   0.0000   0.2843
  12.700   1.3591   0.09280   0.08907  -0.0690  0.0251  1.0000  -5.3012   0.0000   0.0000   0.0000   0.2847
  12.800   1.3491   0.09522   0.09155  -0.0694  0.0252  1.0000  -5.2624   0.0000   0.0000   0.0000   0.2853
  12.900   1.3393   0.09771   0.09412  -0.0702  0.0252  1.0000  -5.2236   0.0000   0.0000   0.0000   0.2860
  13.000   1.3298   0.10030   0.09678  -0.0711  0.0252  1.0000  -5.1833   0.0000   0.0000   0.0000   0.2869
  13.100   1.3204   0.10299   0.09953  -0.0722  0.0252  1.0000  -5.1421   0.0000   0.0000   0.0000   0.2880
  13.200   1.3112   0.10576   0.10237  -0.0735  0.0253  1.0000  -5.0997   0.0000   0.0000   0.0000   0.2892
  13.300   1.3021   0.10866   0.10534  -0.0751  0.0253  1.0000  -5.0540   0.0000   0.0000   0.0000   0.2906
  13.400   1.2930   0.11172   0.10847  -0.0769  0.0254  1.0000  -5.0040   0.0000   0.0000   0.0000   0.2922
  13.500   1.2835   0.11505   0.11188  -0.0790  0.0255  1.0000  -4.9439   0.0000   0.0000   0.0000   0.2942
  13.800   1.1328   0.17249   0.16961  -0.1133  0.0377  1.0000  -2.7622   0.0000   0.0000   0.0000   0.3340
  13.900   1.1311   0.17569   0.17281  -0.1151  0.0376  1.0000  -2.6959   0.0000   0.0000   0.0000   0.3356
  14.000   1.1302   0.17860   0.17572  -0.1169  0.0375  1.0000  -2.6380   0.0000   0.0000   0.0000   0.3372
  14.100   1.1303   0.18121   0.17833  -0.1186  0.0373  1.0000  -2.5888   0.0000   0.0000   0.0000   0.3387
  14.200   1.1357   0.18398   0.18110  -0.1228  0.0327  1.0000  -2.5238   0.0000   0.0000   0.0000   0.3418
  14.300   1.1354   0.18625   0.18337  -0.1241  0.0318  1.0000  -2.4944   0.0000   0.0000   0.0000   0.3428
  14.400   1.1354   0.18838   0.18549  -0.1252  0.0311  1.0000  -2.4724   0.0000   0.0000   0.0000   0.3437
  14.500   1.1356   0.19039   0.18751  -0.1262  0.0305  1.0000  -2.4556   0.0000   0.0000   0.0000   0.3444
  14.600   1.1360   0.19234   0.18945  -0.1271  0.0300  1.0000  -2.4428   0.0000   0.0000   0.0000   0.3451
  14.700   1.1366   0.19423   0.19134  -0.1280  0.0296  1.0000  -2.4331   0.0000   0.0000   0.0000   0.3456
  14.800   1.1373   0.19608   0.19319  -0.1288  0.0291  1.0000  -2.4261   0.0000   0.0000   0.0000   0.3461
  14.900   1.1382   0.19789   0.19499  -0.1296  0.0288  1.0000  -2.4216   0.0000   0.0000   0.0000   0.3466
  15.000   1.1391   0.19965   0.19676  -0.1304  0.0284  1.0000  -2.4194   0.0000   0.0000   0.0000   0.3470
  15.100   1.1402   0.20139   0.19849  -0.1310  0.0281  1.0000  -2.4194   0.0000   0.0000   0.0000   0.3473
  15.200   1.1414   0.20308   0.20019  -0.1317  0.0278  1.0000  -2.4218   0.0000   0.0000   0.0000   0.3476
  15.300   1.1426   0.20476   0.20186  -0.1323  0.0276  1.0000  -2.4256   0.0000   0.0000   0.0000   0.3479
  15.400   1.1439   0.20641   0.20351  -0.1329  0.0273  1.0000  -2.4311   0.0000   0.0000   0.0000   0.3481
  15.500   1.1453   0.20804   0.20514  -0.1335  0.0271  1.0000  -2.4384   0.0000   0.0000   0.0000   0.3483
  15.600   1.1467   0.20965   0.20675  -0.1340  0.0269  1.0000  -2.4474   0.0000   0.0000   0.0000   0.3484
  15.700   1.1483   0.21123   0.20833  -0.1345  0.0267  1.0000  -2.4582   0.0000   0.0000   0.0000   0.3485
  15.800   1.1498   0.21281   0.20991  -0.1350  0.0265  1.0000  -2.4698   0.0000   0.0000   0.0000   0.3486
  15.900   1.1513   0.21442   0.21152  -0.1355  0.0263  1.0000  -2.4805   0.0000   0.0000   0.0000   0.3487
  16.000   1.1528   0.21602   0.21312  -0.1359  0.0262  1.0000  -2.4923   0.0000   0.0000   0.0000   0.3488
  16.100   1.1543   0.21763   0.21473  -0.1364  0.0260  1.0000  -2.5050   0.0000   0.0000   0.0000   0.3488
  16.200   1.1558   0.21924   0.21634  -0.1367  0.0258  1.0000  -2.5184   0.0000   0.0000   0.0000   0.3488
  16.300   1.1573   0.22087   0.21797  -0.1371  0.0257  1.0000  -2.5323   0.0000   0.0000   0.0000   0.3488
  16.400   1.1581   0.22278   0.21988  -0.1376  0.0255  1.0000  -2.5348   0.0000   0.0000   0.0000   0.3490
  16.500   1.1583   0.22495   0.22205  -0.1383  0.0253  1.0000  -2.5274   0.0000   0.0000   0.0000   0.3493
  16.600   1.1574   0.22758   0.22468  -0.1389  0.0250  1.0000  -2.5053   0.0000   0.0000   0.0000   0.3499
  16.900   1.1474   0.24053   0.23759  -0.1426  0.0243  1.0000  -2.2394   0.0000   0.0000   0.0000   0.3539
  17.000   1.1484   0.24280   0.23986  -0.1434  0.0242  1.0000  -2.2228   0.0000   0.0000   0.0000   0.3543
  17.100   1.1495   0.24506   0.24212  -0.1442  0.0242  1.0000  -2.2068   0.0000   0.0000   0.0000   0.3548
  17.200   1.1506   0.24731   0.24438  -0.1450  0.0242  1.0000  -2.1914   0.0000   0.0000   0.0000   0.3552
  17.300   1.1517   0.24956   0.24663  -0.1458  0.0242  1.0000  -2.1765   0.0000   0.0000   0.0000   0.3556
  17.700   1.1561   0.25854   0.25573  -0.1488  0.0242  1.0000  -2.1292   0.0000   0.0000   0.0000   0.3571
  17.800   1.1572   0.26077   0.25796  -0.1496  0.0242  1.0000  -2.1164   0.0000   0.0000   0.0000   0.3574
  17.900   1.1582   0.26299   0.26019  -0.1503  0.0242  1.0000  -2.1040   0.0000   0.0000   0.0000   0.3578
  18.000   1.1593   0.26521   0.26241  -0.1510  0.0242  1.0000  -2.0918   0.0000   0.0000   0.0000   0.3581
  18.100   1.1604   0.26742   0.26463  -0.1518  0.0242  1.0000  -2.0798   0.0000   0.0000   0.0000   0.3584
  18.200   1.1615   0.26964   0.26684  -0.1525  0.0242  1.0000  -2.0682   0.0000   0.0000   0.0000   0.3588
  18.300   1.1625   0.27184   0.26905  -0.1532  0.0242  1.0000  -2.0567   0.0000   0.0000   0.0000   0.3591
  18.400   1.1636   0.27405   0.27126  -0.1539  0.0242  1.0000  -2.0455   0.0000   0.0000   0.0000   0.3594
  18.500   1.1646   0.27625   0.27346  -0.1546  0.0242  1.0000  -2.0346   0.0000   0.0000   0.0000   0.3597
  18.600   1.1656   0.27844   0.27566  -0.1552  0.0242  1.0000  -2.0238   0.0000   0.0000   0.0000   0.3600
  18.700   1.1666   0.28064   0.27785  -0.1559  0.0241  1.0000  -2.0133   0.0000   0.0000   0.0000   0.3603
  18.800   1.1675   0.28283   0.28005  -0.1566  0.0241  1.0000  -2.0029   0.0000   0.0000   0.0000   0.3606
  18.900   1.1685   0.28502   0.28224  -0.1573  0.0241  1.0000  -1.9927   0.0000   0.0000   0.0000   0.3609
  19.000   1.1694   0.28720   0.28442  -0.1579  0.0241  1.0000  -1.9827   0.0000   0.0000   0.0000   0.3612
  19.100   1.1703   0.28938   0.28661  -0.1586  0.0241  1.0000  -1.9729   0.0000   0.0000   0.0000   0.3614
  19.200   1.1712   0.29156   0.28879  -0.1592  0.0241  1.0000  -1.9632   0.0000   0.0000   0.0000   0.3617
  19.300   1.1720   0.29373   0.29097  -0.1598  0.0241  1.0000  -1.9536   0.0000   0.0000   0.0000   0.3620
  19.400   1.1728   0.29590   0.29314  -0.1605  0.0241  1.0000  -1.9565   0.0000   0.0000   0.0000   0.3622
  19.500   1.1736   0.29807   0.29531  -0.1611  0.0241  1.0000  -1.9599   0.0000   0.0000   0.0000   0.3625
  19.600   1.1743   0.30023   0.29748  -0.1617  0.0241  1.0000  -1.9633   0.0000   0.0000   0.0000   0.3627
  19.700   1.1750   0.30239   0.29964  -0.1623  0.0241  1.0000  -1.9668   0.0000   0.0000   0.0000   0.3630
  19.800   1.1757   0.30455   0.30180  -0.1629  0.0241  1.0000  -1.9702   0.0000   0.0000   0.0000   0.3632
  19.900   1.1763   0.30670   0.30395  -0.1635  0.0240  1.0000  -1.9736   0.0000   0.0000   0.0000   0.3635
  20.000   1.1768   0.30884   0.30610  -0.1641  0.0240  1.0000  -1.9769   0.0000   0.0000   0.0000   0.3637
  20.100   1.1774   0.31098   0.30825  -0.1646  0.0240  1.0000  -1.9802   0.0000   0.0000   0.0000   0.3639
  20.200   1.1778   0.31312   0.31039  -0.1652  0.0240  1.0000  -1.9834   0.0000   0.0000   0.0000   0.3642
  20.300   1.1783   0.31525   0.31253  -0.1657  0.0240  1.0000  -1.9865   0.0000   0.0000   0.0000   0.3644
  20.400   1.1786   0.31738   0.31465  -0.1663  0.0240  1.0000  -1.9894   0.0000   0.0000   0.0000   0.3646
  20.500   1.1789   0.31949   0.31678  -0.1668  0.0240  1.0000  -1.9922   0.0000   0.0000   0.0000   0.3649
  20.600   1.1792   0.32161   0.31889  -0.1673  0.0240  1.0000  -1.9949   0.0000   0.0000   0.0000   0.3651
  20.700   1.1793   0.32371   0.32100  -0.1678  0.0240  1.0000  -1.9974   0.0000   0.0000   0.0000   0.3653
  20.800   1.1794   0.32579   0.32309  -0.1684  0.0239  1.0000  -1.9994   0.0000   0.0000   0.0000   0.3655
  20.900   1.1795   0.32785   0.32515  -0.1689  0.0239  1.0000  -2.0012   0.0000   0.0000   0.0000   0.3658
  21.000   1.1794   0.32988   0.32719  -0.1694  0.0239  1.0000  -2.0025   0.0000   0.0000   0.0000   0.3660
  21.100   1.1793   0.33189   0.32920  -0.1699  0.0239  1.0000  -2.0034   0.0000   0.0000   0.0000   0.3662
  21.200   1.1790   0.33386   0.33118  -0.1704  0.0238  1.0000  -2.0027   0.0000   0.0000   0.0000   0.3665
  21.300   1.1784   0.33581   0.33314  -0.1710  0.0238  1.0000  -1.9983   0.0000   0.0000   0.0000   0.3669
  21.400   1.1775   0.33773   0.33505  -0.1716  0.0238  1.0000  -1.9907   0.0000   0.0000   0.0000   0.3674
  21.500   1.1765   0.33960   0.33694  -0.1723  0.0237  1.0000  -1.9816   0.0000   0.0000   0.0000   0.3678
  21.600   1.1755   0.34145   0.33879  -0.1729  0.0236  1.0000  -1.9717   0.0000   0.0000   0.0000   0.3683
  21.700   1.1744   0.34328   0.34062  -0.1736  0.0235  1.0000  -1.9610   0.0000   0.0000   0.0000   0.3688
  21.800   1.1732   0.34511   0.34246  -0.1742  0.0234  1.0000  -1.9501   0.0000   0.0000   0.0000   0.3693
  21.900   1.1720   0.34695   0.34430  -0.1747  0.0233  1.0000  -1.9396   0.0000   0.0000   0.0000   0.3697
  22.000   1.1707   0.34876   0.34612  -0.1753  0.0232  1.0000  -1.9272   0.0000   0.0000   0.0000   0.3702
  22.100   1.1695   0.35055   0.34791  -0.1759  0.0230  1.0000  -1.9122   0.0000   0.0000   0.0000   0.3707
  22.200   1.1684   0.35233   0.34970  -0.1765  0.0227  1.0000  -1.8939   0.0000   0.0000   0.0000   0.3712
  22.300   1.1675   0.35415   0.35153  -0.1772  0.0222  1.0000  -1.8740   0.0000   0.0000   0.0000   0.3717
  22.400   1.1660   0.35597   0.35336  -0.1775  0.0215  1.0000  -1.8579   0.0000   0.0000   0.0000   0.3720
  22.500   1.1637   0.35771   0.35511  -0.1776  0.0209  1.0000  -1.8457   0.0000   0.0000   0.0000   0.3722
  22.600   1.1605   0.35931   0.35672  -0.1775  0.0202  1.0000  -1.8350   0.0000   0.0000   0.0000   0.3724
  22.700   1.1563   0.36074   0.35815  -0.1772  0.0196  1.0000  -1.8241   0.0000   0.0000   0.0000   0.3725
  22.800   1.1507   0.36188   0.35931  -0.1767  0.0191  1.0000  -1.8112   0.0000   0.0000   0.0000   0.3726
  22.900   1.0335   0.33729   0.33482  -0.1565  0.0208  1.0000  -1.5525   0.0000   0.0000   0.0000   0.3715
  23.000   1.0276   0.33701   0.33455  -0.1559  0.0202  1.0000  -1.5353   0.0000   0.0000   0.0000   0.3717
  23.100   1.0222   0.33679   0.33434  -0.1553  0.0195  1.0000  -1.5207   0.0000   0.0000   0.0000   0.3718
  23.200   1.0173   0.33660   0.33416  -0.1548  0.0189  1.0000  -1.5086   0.0000   0.0000   0.0000   0.3718
  23.300   1.0127   0.33646   0.33403  -0.1543  0.0183  1.0000  -1.4987   0.0000   0.0000   0.0000   0.3719
  23.400   1.0086   0.33634   0.33391  -0.1539  0.0177  1.0000  -1.4911   0.0000   0.0000   0.0000   0.3719
  23.500   1.0047   0.33623   0.33382  -0.1535  0.0171  1.0000  -1.4860   0.0000   0.0000   0.0000   0.3719
  23.600   1.0011   0.33613   0.33373  -0.1531  0.0167  1.0000  -1.4835   0.0000   0.0000   0.0000   0.3719
  23.700   0.9978   0.33603   0.33363  -0.1528  0.0162  1.0000  -1.4834   0.0000   0.0000   0.0000   0.3719
  23.800   0.9946   0.33591   0.33353  -0.1525  0.0159  1.0000  -1.4857   0.0000   0.0000   0.0000   0.3719
  23.900   0.9916   0.33579   0.33341  -0.1521  0.0155  1.0000  -1.4904   0.0000   0.0000   0.0000   0.3718
  24.000   0.9887   0.33566   0.33328  -0.1518  0.0152  1.0000  -1.4975   0.0000   0.0000   0.0000   0.3717
  24.100   0.9860   0.33551   0.33314  -0.1514  0.0150  1.0000  -1.5069   0.0000   0.0000   0.0000   0.3715
  24.200   0.9834   0.33534   0.33299  -0.1510  0.0148  1.0000  -1.5183   0.0000   0.0000   0.0000   0.3713
  24.300   0.9808   0.33516   0.33281  -0.1506  0.0146  1.0000  -1.5319   0.0000   0.0000   0.0000   0.3711
  24.400   0.9784   0.33496   0.33262  -0.1502  0.0144  1.0000  -1.5475   0.0000   0.0000   0.0000   0.3708
  24.500   0.9759   0.33475   0.33242  -0.1497  0.0142  1.0000  -1.5652   0.0000   0.0000   0.0000   0.3704
  24.600   0.9735   0.33456   0.33224  -0.1490  0.0140  1.0000  -1.5852   0.0000   0.0000   0.0000   0.3699
  24.700   0.9710   0.33446   0.33215  -0.1481  0.0138  1.0000  -1.6080   0.0000   0.0000   0.0000   0.3691
  24.800   0.9592   0.33580   0.33348  -0.1462  0.0133  1.0000  -1.4717   0.0000   0.0000   0.0000   0.3692
  24.900   0.9567   0.33614   0.33382  -0.1462  0.0133  1.0000  -1.4497   0.0000   0.0000   0.0000   0.3694
  25.000   0.9543   0.33648   0.33417  -0.1462  0.0133  1.0000  -1.4289   0.0000   0.0000   0.0000   0.3696
  25.100   0.9520   0.33682   0.33452  -0.1462  0.0133  1.0000  -1.4092   0.0000   0.0000   0.0000   0.3698
  25.200   0.9498   0.33718   0.33488  -0.1462  0.0133  1.0000  -1.3904   0.0000   0.0000   0.0000   0.3700
  25.300   0.9476   0.33753   0.33524  -0.1462  0.0133  1.0000  -1.3723   0.0000   0.0000   0.0000   0.3702
  25.400   0.9456   0.33790   0.33561  -0.1463  0.0133  1.0000  -1.3550   0.0000   0.0000   0.0000   0.3704
  25.500   0.9436   0.33827   0.33599  -0.1463  0.0133  1.0000  -1.3384   0.0000   0.0000   0.0000   0.3706
  25.600   0.9417   0.33864   0.33637  -0.1464  0.0133  1.0000  -1.3225   0.0000   0.0000   0.0000   0.3707
  25.700   0.9398   0.33903   0.33676  -0.1464  0.0132  1.0000  -1.3073   0.0000   0.0000   0.0000   0.3709
  25.800   0.9380   0.33943   0.33723  -0.1465  0.0132  1.0000  -1.2945   0.0000   0.0000   0.0000   0.3711
  25.900   0.9363   0.33983   0.33763  -0.1466  0.0132  1.0000  -1.2805   0.0000   0.0000   0.0000   0.3713
  26.000   0.9346   0.34023   0.33804  -0.1466  0.0132  1.0000  -1.2670   0.0000   0.0000   0.0000   0.3714
  26.100   0.9330   0.34064   0.33846  -0.1467  0.0132  1.0000  -1.2539   0.0000   0.0000   0.0000   0.3716
  26.200   0.9314   0.34105   0.33887  -0.1468  0.0132  1.0000  -1.2408   0.0000   0.0000   0.0000   0.3718
  26.300   0.9298   0.34146   0.33929  -0.1469  0.0132  1.0000  -1.2281   0.0000   0.0000   0.0000   0.3720
  26.400   0.9283   0.34187   0.33971  -0.1470  0.0132  1.0000  -1.2157   0.0000   0.0000   0.0000   0.3721
  26.500   0.9268   0.34229   0.34014  -0.1472  0.0132  1.0000  -1.2037   0.0000   0.0000   0.0000   0.3723
  26.600   0.9254   0.34272   0.34057  -0.1473  0.0132  1.0000  -1.1920   0.0000   0.0000   0.0000   0.3725
  26.700   0.9240   0.34315   0.34100  -0.1474  0.0132  1.0000  -1.1807   0.0000   0.0000   0.0000   0.3726
  26.800   0.9226   0.34358   0.34144  -0.1475  0.0132  1.0000  -1.1697   0.0000   0.0000   0.0000   0.3728
  26.900   0.9213   0.34401   0.34189  -0.1477  0.0132  1.0000  -1.1590   0.0000   0.0000   0.0000   0.3730
  27.000   0.9200   0.34445   0.34233  -0.1478  0.0132  1.0000  -1.1486   0.0000   0.0000   0.0000   0.3731
  27.100   0.9187   0.34490   0.34278  -0.1480  0.0132  1.0000  -1.1384   0.0000   0.0000   0.0000   0.3733
  27.200   0.9175   0.34534   0.34323  -0.1481  0.0132  1.0000  -1.1285   0.0000   0.0000   0.0000   0.3735
  27.300   0.9162   0.34578   0.34368  -0.1483  0.0131  1.0000  -1.1178   0.0000   0.0000   0.0000   0.3736
  27.400   0.9150   0.34623   0.34413  -0.1485  0.0131  1.0000  -1.1175   0.0000   0.0000   0.0000   0.3738
  27.500   0.9138   0.34668   0.34459  -0.1487  0.0131  1.0000  -1.1195   0.0000   0.0000   0.0000   0.3740
  27.600   0.9126   0.34713   0.34505  -0.1488  0.0131  1.0000  -1.1215   0.0000   0.0000   0.0000   0.3742
  27.700   0.9115   0.34759   0.34551  -0.1490  0.0131  1.0000  -1.1236   0.0000   0.0000   0.0000   0.3744
  27.800   0.9103   0.34805   0.34598  -0.1492  0.0131  1.0000  -1.1258   0.0000   0.0000   0.0000   0.3746
  27.900   0.9092   0.34851   0.34645  -0.1494  0.0131  1.0000  -1.1280   0.0000   0.0000   0.0000   0.3748
  28.000   0.9082   0.34898   0.34693  -0.1496  0.0131  1.0000  -1.1302   0.0000   0.0000   0.0000   0.3749
  28.100   0.9071   0.34945   0.34740  -0.1498  0.0131  1.0000  -1.1324   0.0000   0.0000   0.0000   0.3751
  28.200   0.9061   0.34993   0.34788  -0.1500  0.0131  1.0000  -1.1345   0.0000   0.0000   0.0000   0.3753
  28.300   0.9051   0.35040   0.34837  -0.1502  0.0131  1.0000  -1.1367   0.0000   0.0000   0.0000   0.3755
  28.400   0.9041   0.35088   0.34886  -0.1505  0.0131  1.0000  -1.1387   0.0000   0.0000   0.0000   0.3757
  28.500   0.9031   0.35137   0.34935  -0.1507  0.0131  1.0000  -1.1407   0.0000   0.0000   0.0000   0.3758
  28.600   0.9022   0.35186   0.34984  -0.1509  0.0130  1.0000  -1.1423   0.0000   0.0000   0.0000   0.3760
  28.700   0.9012   0.35235   0.35034  -0.1512  0.0130  1.0000  -1.1433   0.0000   0.0000   0.0000   0.3762
  28.800   0.9003   0.35284   0.35084  -0.1514  0.0130  1.0000  -1.1438   0.0000   0.0000   0.0000   0.3764
  28.900   0.8995   0.35335   0.35135  -0.1517  0.0130  1.0000  -1.1435   0.0000   0.0000   0.0000   0.3767
  29.000   0.8987   0.35387   0.35188  -0.1520  0.0130  1.0000  -1.1426   0.0000   0.0000   0.0000   0.3769
  29.100   0.8979   0.35441   0.35242  -0.1524  0.0129  1.0000  -1.1411   0.0000   0.0000   0.0000   0.3772
  29.200   0.8972   0.35496   0.35299  -0.1527  0.0129  1.0000  -1.1391   0.0000   0.0000   0.0000   0.3774
  29.300   0.8966   0.35553   0.35356  -0.1530  0.0129  1.0000  -1.1370   0.0000   0.0000   0.0000   0.3776
  29.400   0.8959   0.35610   0.35414  -0.1533  0.0128  1.0000  -1.1347   0.0000   0.0000   0.0000   0.3778
  29.500   0.8952   0.35669   0.35474  -0.1536  0.0128  1.0000  -1.1310   0.0000   0.0000   0.0000   0.3780
  29.600   0.8946   0.35731   0.35536  -0.1539  0.0127  1.0000  -1.1256   0.0000   0.0000   0.0000   0.3783
  29.700   0.8941   0.35797   0.35603  -0.1543  0.0127  1.0000  -1.1177   0.0000   0.0000   0.0000   0.3785
  29.800   0.8937   0.35869   0.35675  -0.1547  0.0126  1.0000  -1.1062   0.0000   0.0000   0.0000   0.3787
  29.900   0.8936   0.35952   0.35759  -0.1551  0.0125  1.0000  -1.0891   0.0000   0.0000   0.0000   0.3790
  30.000   0.8939   0.36055   0.35862  -0.1556  0.0122  1.0000  -1.0640   0.0000   0.0000   0.0000   0.3792


