xflr5 v6.61

 Calculated polar for: Bergey BW-3  (smoothed)

 1 1 Reynolds number fixed          Mach number fixed         

 xtrf =   1.000 (top)        1.000 (bottom)
 Mach =   0.000     Re =     0.160 e 6     Ncrit =   9.000

  alpha     CL        CD       CDp       Cm    Top Xtr Bot Xtr   Cpmin    Chinge    XCp    
 ------- -------- --------- --------- -------- ------- ------- -------- --------- ---------
 -10.000  -0.4129   0.14099   0.13654  -0.0174  1.0000  0.0381  -1.5320   0.0000   0.0000   0.0000   0.2052
  -9.900  -0.4115   0.14006   0.13562  -0.0177  1.0000  0.0381  -1.5370   0.0000   0.0000   0.0000   0.2043
  -9.800  -0.4073   0.13329   0.12887  -0.0176  1.0000  0.0387  -1.5546   0.0000   0.0000   0.0000   0.2041
  -9.700  -0.3963   0.12791   0.12348  -0.0161  1.0000  0.0394  -1.4645   0.0000   0.0000   0.0000   0.2065
  -9.600  -0.3904   0.12550   0.12105  -0.0153  1.0000  0.0401  -1.4002   0.0000   0.0000   0.0000   0.2078
  -9.500  -0.3860   0.12391   0.11947  -0.0149  1.0000  0.0408  -1.3521   0.0000   0.0000   0.0000   0.2085
  -9.400  -0.3825   0.12266   0.11823  -0.0147  1.0000  0.0415  -1.3149   0.0000   0.0000   0.0000   0.2087
  -9.300  -0.3793   0.12156   0.11713  -0.0146  1.0000  0.0422  -1.2859   0.0000   0.0000   0.0000   0.2086
  -9.200  -0.3765   0.12051   0.11610  -0.0147  1.0000  0.0429  -1.2629   0.0000   0.0000   0.0000   0.2082
  -9.100  -0.3739   0.11948   0.11508  -0.0148  1.0000  0.0435  -1.2444   0.0000   0.0000   0.0000   0.2077
  -9.000  -0.3714   0.11845   0.11406  -0.0149  1.0000  0.0441  -1.2291   0.0000   0.0000   0.0000   0.2071
  -8.900  -0.3690   0.11743   0.11304  -0.0151  1.0000  0.0445  -1.2161   0.0000   0.0000   0.0000   0.2064
  -8.800  -0.3668   0.11639   0.11202  -0.0153  1.0000  0.0448  -1.2048   0.0000   0.0000   0.0000   0.2057
  -8.700  -0.3646   0.11537   0.11101  -0.0155  1.0000  0.0451  -1.1941   0.0000   0.0000   0.0000   0.2050
  -8.600  -0.3625   0.11435   0.11000  -0.0156  1.0000  0.0454  -1.1838   0.0000   0.0000   0.0000   0.2044
  -8.500  -0.3605   0.11334   0.10901  -0.0158  1.0000  0.0458  -1.1738   0.0000   0.0000   0.0000   0.2037
  -8.400  -0.3585   0.11234   0.10802  -0.0159  1.0000  0.0461  -1.1643   0.0000   0.0000   0.0000   0.2031
  -8.300  -0.3566   0.11135   0.10704  -0.0160  1.0000  0.0464  -1.1558   0.0000   0.0000   0.0000   0.2026
  -8.200  -0.3549   0.11031   0.10592  -0.0162  1.0000  0.0467  -1.1590   0.0000   0.0000   0.0000   0.2021
  -8.100  -0.3531   0.10935   0.10497  -0.0163  1.0000  0.0470  -1.1482   0.0000   0.0000   0.0000   0.2016
  -8.000  -0.3514   0.10840   0.10403  -0.0163  1.0000  0.0473  -1.1376   0.0000   0.0000   0.0000   0.2012
  -7.900  -0.3499   0.10746   0.10311  -0.0164  1.0000  0.0476  -1.1274   0.0000   0.0000   0.0000   0.2008
  -7.800  -0.3485   0.10654   0.10221  -0.0164  1.0000  0.0479  -1.1176   0.0000   0.0000   0.0000   0.2006
  -7.700  -0.3473   0.10565   0.10134  -0.0164  1.0000  0.0483  -1.1082   0.0000   0.0000   0.0000   0.2005
  -7.600  -0.3462   0.10478   0.10048  -0.0164  1.0000  0.0486  -1.0993   0.0000   0.0000   0.0000   0.2006
  -7.500  -0.3454   0.10393   0.09966  -0.0163  1.0000  0.0490  -1.0910   0.0000   0.0000   0.0000   0.2008
  -7.400  -0.3449   0.10312   0.09886  -0.0161  1.0000  0.0493  -1.0833   0.0000   0.0000   0.0000   0.2012
  -7.300  -0.3446   0.10233   0.09809  -0.0160  1.0000  0.0497  -1.0763   0.0000   0.0000   0.0000   0.2017
  -7.200  -0.3444   0.10156   0.09735  -0.0158  1.0000  0.0500  -1.0698   0.0000   0.0000   0.0000   0.2023
  -7.100  -0.3439   0.10079   0.09660  -0.0157  1.0000  0.0504  -1.0634   0.0000   0.0000   0.0000   0.2026
  -7.000  -0.3422   0.09996   0.09579  -0.0159  1.0000  0.0508  -1.0650   0.0000   0.0000   0.0000   0.2019
  -6.900  -0.3398   0.09913   0.09498  -0.0163  1.0000  0.0513  -1.0704   0.0000   0.0000   0.0000   0.2002
  -6.800  -0.3370   0.09839   0.09426  -0.0170  1.0000  0.0518  -1.0778   0.0000   0.0000   0.0000   0.1979
  -6.700  -0.3339   0.09780   0.09369  -0.0179  1.0000  0.0523  -1.0882   0.0000   0.0000   0.0000   0.1948
  -6.600  -0.3304   0.09741   0.09332  -0.0191  1.0000  0.0528  -1.1017   0.0000   0.0000   0.0000   0.1905
  -6.500  -0.3264   0.09714   0.09307  -0.0206  1.0000  0.0532  -1.1168   0.0000   0.0000   0.0000   0.1851
  -6.400  -0.3220   0.09686   0.09281  -0.0223  1.0000  0.0535  -1.1316   0.0000   0.0000   0.0000   0.1792
  -6.300  -0.3174   0.09650   0.09247  -0.0238  1.0000  0.0537  -1.1450   0.0000   0.0000   0.0000   0.1732
  -6.200  -0.3129   0.09605   0.09203  -0.0253  1.0000  0.0538  -1.1568   0.0000   0.0000   0.0000   0.1674
  -6.100  -0.3085   0.09553   0.09153  -0.0266  1.0000  0.0540  -1.1673   0.0000   0.0000   0.0000   0.1621
  -6.000  -0.3047   0.09497   0.09098  -0.0276  1.0000  0.0541  -1.1767   0.0000   0.0000   0.0000   0.1576
  -5.900  -0.3016   0.09439   0.09042  -0.0284  1.0000  0.0541  -1.1853   0.0000   0.0000   0.0000   0.1542
  -5.800  -0.2993   0.09382   0.08987  -0.0289  1.0000  0.0542  -1.1931   0.0000   0.0000   0.0000   0.1519
  -5.700  -0.2976   0.09325   0.08931  -0.0291  1.0000  0.0543  -1.2000   0.0000   0.0000   0.0000   0.1504
  -5.600  -0.2960   0.09266   0.08873  -0.0293  1.0000  0.0543  -1.2057   0.0000   0.0000   0.0000   0.1494
  -5.500  -0.2943   0.09202   0.08810  -0.0293  1.0000  0.0543  -1.2098   0.0000   0.0000   0.0000   0.1486
  -5.400  -0.2922   0.09133   0.08742  -0.0294  1.0000  0.0544  -1.2127   0.0000   0.0000   0.0000   0.1476
  -5.300  -0.2898   0.09060   0.08671  -0.0296  1.0000  0.0544  -1.2154   0.0000   0.0000   0.0000   0.1462
  -5.200  -0.2870   0.08984   0.08595  -0.0298  1.0000  0.0545  -1.2178   0.0000   0.0000   0.0000   0.1444
  -5.100  -0.2838   0.08904   0.08515  -0.0301  1.0000  0.0545  -1.2200   0.0000   0.0000   0.0000   0.1421
  -5.000  -0.2802   0.08821   0.08432  -0.0305  1.0000  0.0545  -1.2219   0.0000   0.0000   0.0000   0.1393
  -4.900  -0.2714   0.08703   0.08313  -0.0321  0.9995  0.0546  -1.2215   0.0000   0.0000   0.0000   0.1301
  -4.800  -0.2555   0.08538   0.08146  -0.0352  0.9982  0.0546  -1.2179   0.0000   0.0000   0.0000   0.1103
  -4.700  -0.2398   0.08372   0.07977  -0.0382  0.9970  0.0546  -1.2145   0.0000   0.0000   0.0000   0.0884
  -4.600  -0.2244   0.08206   0.07807  -0.0411  0.9955  0.0547  -1.2111   0.0000   0.0000   0.0000   0.0644
  -4.500  -0.2203   0.07674   0.07279  -0.0434  0.9942  0.0554  -1.2613   0.0000   0.0000   0.0000   0.0502
  -4.400  -0.2145   0.07417   0.07023  -0.0436  0.9930  0.0558  -1.2390   0.0000   0.0000   0.0000   0.0439
  -4.300  -0.2065   0.07217   0.06824  -0.0441  0.9917  0.0562  -1.2094   0.0000   0.0000   0.0000   0.0338
  -4.200  -0.1970   0.07040   0.06648  -0.0448  0.9906  0.0566  -1.1786   0.0000   0.0000   0.0000   0.0195
  -4.100  -0.1877   0.06882   0.06490  -0.0455  0.9886  0.0570  -1.1508   0.0000   0.0000   0.0000   0.0042
  -4.000  -0.1769   0.06732   0.06340  -0.0467  0.9865  0.0575  -1.1233   0.0000   0.0000   0.0000  -0.0171
  -3.900  -0.1648   0.06586   0.06194  -0.0482  0.9846  0.0580  -1.0968   0.0000   0.0000   0.0000  -0.0459
  -3.800  -0.1513   0.06443   0.06050  -0.0500  0.9828  0.0586  -1.0716   0.0000   0.0000   0.0000  -0.0843
  -3.700  -0.1367   0.06302   0.05907  -0.0521  0.9813  0.0592  -1.0478   0.0000   0.0000   0.0000  -0.1358
  -3.600  -0.1221   0.06166   0.05770  -0.0543  0.9796  0.0600  -1.0268   0.0000   0.0000   0.0000  -0.1993
  -3.500  -0.1095   0.06040   0.05643  -0.0560  0.9766  0.0607  -1.0102   0.0000   0.0000   0.0000  -0.2664
  -3.400  -0.0951   0.05911   0.05512  -0.0581  0.9742  0.0616  -0.9940   0.0000   0.0000   0.0000  -0.3669
  -3.300  -0.0795   0.05780   0.05379  -0.0605  0.9721  0.0626  -0.9790   0.0000   0.0000   0.0000  -0.5181
  -3.200  -0.0627   0.05647   0.05243  -0.0631  0.9704  0.0638  -0.9656   0.0000   0.0000   0.0000  -0.7659
  -3.100  -0.0447   0.05513   0.05105  -0.0660  0.9689  0.0654  -0.9545   0.0000   0.0000   0.0000  -1.2400
  -3.000  -0.0250   0.05381   0.04969  -0.0692  0.9677  0.0674  -0.9473   0.0000   0.0000   0.0000  -2.5453
  -2.900   0.0158   0.05424   0.04993  -0.0769  0.9650  0.0726  -0.9968   0.0000   0.0000   0.0000   5.1660
  -2.800   0.0377   0.05360   0.04918  -0.0801  0.9618  0.0732  -1.0190   0.0000   0.0000   0.0000   2.3928
  -2.700   0.0556   0.05239   0.04790  -0.0825  0.9594  0.0734  -1.0306   0.0000   0.0000   0.0000   1.7426
  -2.600   0.0736   0.05094   0.04639  -0.0848  0.9574  0.0736  -1.0471   0.0000   0.0000   0.0000   1.4092
  -2.500   0.0925   0.04923   0.04453  -0.0872  0.9558  0.0737  -1.0875   0.0000   0.0000   0.0000   1.1987
  -2.400   0.1116   0.04746   0.04268  -0.0897  0.9543  0.0738  -1.1230   0.0000   0.0000   0.0000   1.0584
  -2.300   0.1274   0.04287   0.03798  -0.0931  0.9534  0.0749  -1.2107   0.0000   0.0000   0.0000   0.9853
  -2.200   0.1339   0.04080   0.03601  -0.0934  0.9522  0.0767  -1.1529   0.0000   0.0000   0.0000   0.9515
  -2.100   0.1437   0.03991   0.03519  -0.0936  0.9511  0.0786  -1.0849   0.0000   0.0000   0.0000   0.9052
  -2.000   0.1533   0.03928   0.03458  -0.0937  0.9481  0.0809  -1.0386   0.0000   0.0000   0.0000   0.8648
  -1.900   0.1644   0.03866   0.03394  -0.0942  0.9446  0.0835  -1.0031   0.0000   0.0000   0.0000   0.8258
  -1.800   0.2003   0.04139   0.03635  -0.0977  0.9415  0.0952  -0.9956   0.0000   0.0000   0.0000   0.7401
  -1.700   0.2183   0.04095   0.03580  -0.0992  0.9395  0.0956  -0.9717   0.0000   0.0000   0.0000   0.7063
  -1.600   0.2347   0.03995   0.03472  -0.1006  0.9379  0.0957  -0.9462   0.0000   0.0000   0.0000   0.6803
  -1.500   0.2510   0.03882   0.03352  -0.1021  0.9366  0.0957  -0.9194   0.0000   0.0000   0.0000   0.6581
  -1.400   0.2675   0.03765   0.03228  -0.1035  0.9353  0.0958  -0.8917   0.0000   0.0000   0.0000   0.6382
  -1.300   0.2792   0.03339   0.02797  -0.1057  0.9345  0.0975  -0.9052   0.0000   0.0000   0.0000   0.6296
  -1.200   0.2938   0.03198   0.02654  -0.1069  0.9334  0.0981  -0.8656   0.0000   0.0000   0.0000   0.6148
  -1.100   0.3092   0.03078   0.02533  -0.1081  0.9325  0.0988  -0.8241   0.0000   0.0000   0.0000   0.6006
  -1.000   0.3253   0.02970   0.02422  -0.1094  0.9316  0.0996  -0.7825   0.0000   0.0000   0.0000   0.5871
  -0.900   0.3418   0.02868   0.02316  -0.1107  0.9307  0.1005  -0.7420   0.0000   0.0000   0.0000   0.5745
  -0.800   0.3501   0.02809   0.02253  -0.1103  0.9259  0.1012  -0.7174   0.0000   0.0000   0.0000   0.5655
  -0.700   0.3629   0.02731   0.02171  -0.1107  0.9231  0.1023  -0.7001   0.0000   0.0000   0.0000   0.5554
  -0.600   0.3769   0.02663   0.02100  -0.1114  0.9208  0.1049  -0.6896   0.0000   0.0000   0.0000   0.5458
  -0.500   0.4015   0.02894   0.02302  -0.1123  0.9184  0.1199  -0.6972   0.0000   0.0000   0.0000   0.5297
  -0.400   0.4112   0.02531   0.01939  -0.1135  0.9172  0.1243  -0.7120   0.0000   0.0000   0.0000   0.5260
  -0.300   0.4251   0.02458   0.01875  -0.1144  0.9157  0.1290  -0.6708   0.0000   0.0000   0.0000   0.5191
  -0.200   0.4425   0.02415   0.01829  -0.1157  0.9143  0.1372  -0.6418   0.0000   0.0000   0.0000   0.5112
   0.100   0.4979   0.02226   0.01631  -0.1206  0.9104  0.1832  -0.5728   0.0000   0.0000   0.0000   0.4918
   0.200   0.5184   0.02163   0.01568  -0.1226  0.9091  0.1935  -0.5876   0.0000   0.0000   0.0000   0.4860
   0.300   0.5394   0.02087   0.01487  -0.1248  0.9078  0.2151  -0.6026   0.0000   0.0000   0.0000   0.4809
   0.400   0.5464   0.02066   0.01468  -0.1240  0.9015  0.2221  -0.6098   0.0000   0.0000   0.0000   0.4762
   0.500   0.5603   0.02026   0.01426  -0.1246  0.8974  0.2459  -0.6210   0.0000   0.0000   0.0000   0.4717
   0.600   0.5762   0.01978   0.01381  -0.1257  0.8941  0.2566  -0.6335   0.0000   0.0000   0.0000   0.4673
   0.700   0.5924   0.01923   0.01326  -0.1269  0.8909  0.2823  -0.6464   0.0000   0.0000   0.0000   0.4633
   0.800   0.6109   0.01901   0.01305  -0.1283  0.8879  0.2975  -0.6612   0.0000   0.0000   0.0000   0.4590
   1.100   0.6777   0.01817   0.01126  -0.1326  0.8784  0.1762  -0.7177   0.0000   0.0000   0.0000   0.4442
   1.200   0.6871   0.01840   0.01150  -0.1319  0.8727  0.1751  -0.7512   0.0000   0.0000   0.0000   0.4405
   1.400   0.7141   0.01698   0.00996  -0.1329  0.8642  0.1692  -0.8250   0.0000   0.0000   0.0000   0.4344
   1.500   0.7296   0.01675   0.00969  -0.1337  0.8604  0.1688  -0.8682   0.0000   0.0000   0.0000   0.4314
   1.600   0.7463   0.01656   0.00944  -0.1347  0.8567  0.1686  -0.9141   0.0000   0.0000   0.0000   0.4286
   1.700   0.7622   0.01642   0.00926  -0.1356  0.8528  0.1684  -0.9594   0.0000   0.0000   0.0000   0.4259
   1.800   0.7684   0.01637   0.00922  -0.1344  0.8466  0.1682  -0.9886   0.0000   0.0000   0.0000   0.4228
   1.900   0.7783   0.01627   0.00910  -0.1339  0.8399  0.1680  -1.0248   0.0000   0.0000   0.0000   0.4198
   2.000   0.7913   0.01611   0.00891  -0.1340  0.8330  0.1678  -1.0669   0.0000   0.0000   0.0000   0.4170
   2.100   0.8068   0.01600   0.00874  -0.1346  0.8262  0.1693  -1.1147   0.0000   0.0000   0.0000   0.4144
   2.200   0.8175   0.01598   0.00881  -0.1342  0.8190  0.1708  -1.1566   0.0000   0.0000   0.0000   0.4116
   2.300   0.8249   0.01594   0.00877  -0.1331  0.8107  0.1718  -1.1909   0.0000   0.0000   0.0000   0.4087
   2.400   0.8355   0.01584   0.00864  -0.1326  0.8022  0.1725  -1.2311   0.0000   0.0000   0.0000   0.4060
   2.500   0.8492   0.01568   0.00842  -0.1328  0.7945  0.1726  -1.2771   0.0000   0.0000   0.0000   0.4036
   2.600   0.8614   0.01555   0.00826  -0.1328  0.7877  0.1719  -1.3197   0.0000   0.0000   0.0000   0.4012
   2.700   0.8694   0.01543   0.00816  -0.1319  0.7799  0.1714  -1.3548   0.0000   0.0000   0.0000   0.3987
   2.800   0.8793   0.01530   0.00803  -0.1313  0.7719  0.1710  -1.3939   0.0000   0.0000   0.0000   0.3962
   2.900   0.8913   0.01516   0.00786  -0.1312  0.7638  0.1707  -1.4373   0.0000   0.0000   0.0000   0.3940
   3.000   0.9049   0.01504   0.00767  -0.1313  0.7551  0.1706  -1.4910   0.0000   0.0000   0.0000   0.3918
   3.100   0.9121   0.01494   0.00761  -0.1302  0.7450  0.1706  -1.5380   0.0000   0.0000   0.0000   0.3894
   3.200   0.9217   0.01482   0.00747  -0.1296  0.7332  0.1708  -1.5921   0.0000   0.0000   0.0000   0.3871
   3.300   0.9349   0.01471   0.00725  -0.1296  0.7201  0.1713  -1.6564   0.0000   0.0000   0.0000   0.3850
   3.400   0.9431   0.01462   0.00720  -0.1287  0.7055  0.1718  -1.7073   0.0000   0.0000   0.0000   0.3827
   3.500   0.9544   0.01455   0.00706  -0.1284  0.6900  0.1726  -1.7672   0.0000   0.0000   0.0000   0.3807
   3.600   0.9654   0.01452   0.00700  -0.1281  0.6769  0.1736  -1.8264   0.0000   0.0000   0.0000   0.3787
   3.700   0.9752   0.01450   0.00697  -0.1276  0.6614  0.1745  -1.8823   0.0000   0.0000   0.0000   0.3767
   3.800   0.9876   0.01445   0.00682  -0.1276  0.6431  0.1765  -1.9450   0.0000   0.0000   0.0000   0.3750
   3.900   0.9990   0.01438   0.00673  -0.1275  0.6189  0.1792  -2.0045   0.0000   0.0000   0.0000   0.3733
   4.000   1.0086   0.01443   0.00665  -0.1269  0.5850  0.1819  -2.0594   0.0000   0.0000   0.0000   0.3714
   4.100   1.0152   0.01465   0.00659  -0.1256  0.5346  0.1841  -2.1057   0.0000   0.0000   0.0000   0.3692
   4.200   1.0190   0.01510   0.00664  -0.1238  0.4632  0.1861  -2.1420   0.0000   0.0000   0.0000   0.3668
   4.300   1.0185   0.01590   0.00687  -0.1214  0.3730  0.1875  -2.1643   0.0000   0.0000   0.0000   0.3644
   4.400   1.0159   0.01708   0.00731  -0.1189  0.2541  0.1886  -2.1772   0.0000   0.0000   0.0000   0.3621
   4.500   1.0120   0.01863   0.00796  -0.1164  0.1181  0.1895  -2.1874   0.0000   0.0000   0.0000   0.3600
   4.600   1.0189   0.01930   0.00842  -0.1155  0.0953  0.1915  -2.2163   0.0000   0.0000   0.0000   0.3583
   4.700   1.0290   0.01961   0.00877  -0.1153  0.0895  0.1940  -2.2602   0.0000   0.0000   0.0000   0.3568
   4.800   1.0385   0.01995   0.00912  -0.1149  0.0848  0.1964  -2.3052   0.0000   0.0000   0.0000   0.3553
   4.900   1.0474   0.02034   0.00950  -0.1145  0.0806  0.1988  -2.3498   0.0000   0.0000   0.0000   0.3538
   5.000   1.0551   0.02082   0.00999  -0.1138  0.0764  0.2010  -2.3885   0.0000   0.0000   0.0000   0.3523
   5.100   1.0627   0.02129   0.01048  -0.1130  0.0734  0.2031  -2.4278   0.0000   0.0000   0.0000   0.3507
   5.300   1.0840   0.02177   0.01101  -0.1129  0.0694  0.2124  -2.5392   0.0000   0.0000   0.0000   0.3483
   5.400   1.0943   0.02209   0.01139  -0.1128  0.0679  0.2210  -2.5905   0.0000   0.0000   0.0000   0.3471
   5.500   1.1041   0.02244   0.01178  -0.1126  0.0665  0.2309  -2.6396   0.0000   0.0000   0.0000   0.3458
   5.600   1.1146   0.02281   0.01221  -0.1125  0.0651  0.2493  -2.6901   0.0000   0.0000   0.0000   0.3447
   5.800   1.1852   0.02406   0.01455  -0.1244  0.0592  1.0000  -2.9139   0.0000   0.0000   0.0000   0.3484
   5.900   1.1918   0.02483   0.01528  -0.1235  0.0575  1.0000  -2.9427   0.0000   0.0000   0.0000   0.3469
   6.000   1.1980   0.02625   0.01667  -0.1225  0.0553  1.0000  -2.9430   0.0000   0.0000   0.0000   0.3454
   6.100   1.2069   0.02704   0.01746  -0.1220  0.0540  1.0000  -2.9614   0.0000   0.0000   0.0000   0.3441
   6.200   1.2163   0.02741   0.01785  -0.1214  0.0532  1.0000  -2.9939   0.0000   0.0000   0.0000   0.3428
   6.300   1.2257   0.02791   0.01838  -0.1210  0.0523  1.0000  -3.0217   0.0000   0.0000   0.0000   0.3415
   6.400   1.2353   0.02850   0.01900  -0.1205  0.0515  1.0000  -3.0473   0.0000   0.0000   0.0000   0.3402
   6.500   1.2450   0.02916   0.01969  -0.1201  0.0509  1.0000  -3.0722   0.0000   0.0000   0.0000   0.3390
   6.600   1.2548   0.02986   0.02043  -0.1197  0.0504  1.0000  -3.0967   0.0000   0.0000   0.0000   0.3378
   6.700   1.2648   0.03062   0.02123  -0.1193  0.0501  1.0000  -3.1210   0.0000   0.0000   0.0000   0.3366
   6.800   1.2749   0.03141   0.02208  -0.1189  0.0499  1.0000  -3.1450   0.0000   0.0000   0.0000   0.3355
   6.900   1.2849   0.03225   0.02297  -0.1185  0.0498  1.0000  -3.1684   0.0000   0.0000   0.0000   0.3343
   7.000   1.2949   0.03314   0.02393  -0.1182  0.0499  1.0000  -3.1910   0.0000   0.0000   0.0000   0.3332
   7.100   1.3048   0.03408   0.02494  -0.1178  0.0500  1.0000  -3.2124   0.0000   0.0000   0.0000   0.3321
   7.200   1.3144   0.03508   0.02602  -0.1173  0.0502  1.0000  -3.2326   0.0000   0.0000   0.0000   0.3310
   7.300   1.3238   0.03614   0.02717  -0.1169  0.0506  1.0000  -3.2513   0.0000   0.0000   0.0000   0.3299
   7.400   1.3328   0.03728   0.02841  -0.1164  0.0510  1.0000  -3.2897   0.0000   0.0000   0.0000   0.3288
   7.500   1.3415   0.03852   0.02975  -0.1158  0.0514  1.0000  -3.3376   0.0000   0.0000   0.0000   0.3277
   7.600   1.3496   0.03990   0.03124  -0.1152  0.0520  1.0000  -3.3817   0.0000   0.0000   0.0000   0.3266
   7.700   1.3572   0.04153   0.03299  -0.1146  0.0527  1.0000  -3.4199   0.0000   0.0000   0.0000   0.3255
   7.800   1.3670   0.04530   0.03685  -0.1146  0.0551  1.0000  -3.4288   0.0000   0.0000   0.0000   0.3249
   7.900   1.3767   0.04509   0.03667  -0.1141  0.0556  1.0000  -3.5102   0.0000   0.0000   0.0000   0.3237
   8.000   1.3862   0.04482   0.03645  -0.1134  0.0564  1.0000  -3.5871   0.0000   0.0000   0.0000   0.3225
   8.100   1.3915   0.04642   0.03885  -0.1101  0.0661  1.0000  -3.4857   0.0000   0.0000   0.0000   0.3198
   8.200   1.3948   0.04929   0.04193  -0.1089  0.0698  1.0000  -3.4766   0.0000   0.0000   0.0000   0.3187
   9.200   1.4325   0.06678   0.06123  -0.0961  0.1009  1.0000  -3.5214   0.0000   0.0000   0.0000   0.3067
   9.300   1.4417   0.06896   0.06328  -0.0965  0.0991  1.0000  -3.5937   0.0000   0.0000   0.0000   0.3064
   9.400   1.4376   0.07317   0.06751  -0.0960  0.0975  1.0000  -3.5916   0.0000   0.0000   0.0000   0.3061
   9.500   1.4054   0.08278   0.07735  -0.0943  0.0956  1.0000  -3.4249   0.0000   0.0000   0.0000   0.3064
   9.900   1.3977   0.07693   0.07211  -0.0854  0.0864  1.0000  -3.5639   0.0000   0.0000   0.0000   0.2999
  10.000   1.3929   0.07826   0.07351  -0.0839  0.0854  1.0000  -3.5687   0.0000   0.0000   0.0000   0.2990
  10.100   1.3882   0.07966   0.07498  -0.0827  0.0845  1.0000  -3.5745   0.0000   0.0000   0.0000   0.2981
  10.200   1.3824   0.08103   0.07642  -0.0812  0.0838  1.0000  -3.5771   0.0000   0.0000   0.0000   0.2972
  10.300   1.3746   0.08235   0.07779  -0.0795  0.0833  1.0000  -3.5728   0.0000   0.0000   0.0000   0.2962
  10.400   1.3659   0.08371   0.07920  -0.0779  0.0829  1.0000  -3.5642   0.0000   0.0000   0.0000   0.2952
  10.500   1.3565   0.08515   0.08071  -0.0763  0.0825  1.0000  -3.5522   0.0000   0.0000   0.0000   0.2944
  10.600   1.3468   0.08673   0.08234  -0.0750  0.0823  1.0000  -3.5370   0.0000   0.0000   0.0000   0.2937
  10.700   1.3363   0.08847   0.08415  -0.0740  0.0821  1.0000  -3.5164   0.0000   0.0000   0.0000   0.2932
  10.800   1.3239   0.09045   0.08620  -0.0732  0.0821  1.0000  -3.4845   0.0000   0.0000   0.0000   0.2931
  10.900   1.3094   0.09280   0.08863  -0.0729  0.0823  1.0000  -3.4391   0.0000   0.0000   0.0000   0.2933
  11.000   1.2931   0.09562   0.09153  -0.0733  0.0827  1.0000  -3.3795   0.0000   0.0000   0.0000   0.2941
  11.100   1.2749   0.09900   0.09500  -0.0743  0.0833  1.0000  -3.3047   0.0000   0.0000   0.0000   0.2956
  11.200   1.2562   0.10293   0.09900  -0.0761  0.0839  1.0000  -3.2200   0.0000   0.0000   0.0000   0.2978
  11.300   1.2366   0.10752   0.10367  -0.0787  0.0846  1.0000  -3.1215   0.0000   0.0000   0.0000   0.3008
  11.400   1.2137   0.11334   0.10956  -0.0827  0.0856  1.0000  -2.9905   0.0000   0.0000   0.0000   0.3052
  11.500   1.1923   0.12006   0.11632  -0.0877  0.0863  1.0000  -2.8485   0.0000   0.0000   0.0000   0.3106
  11.600   1.1739   0.12756   0.12382  -0.0933  0.0868  1.0000  -2.6991   0.0000   0.0000   0.0000   0.3166
  11.700   1.1641   0.13237   0.12863  -0.0965  0.0864  1.0000  -2.6219   0.0000   0.0000   0.0000   0.3199
  11.800   1.1578   0.13604   0.13229  -0.0987  0.0855  1.0000  -2.5761   0.0000   0.0000   0.0000   0.3222
  11.900   1.1539   0.13890   0.13514  -0.1002  0.0843  1.0000  -2.5542   0.0000   0.0000   0.0000   0.3237
  12.000   1.1523   0.14104   0.13728  -0.1011  0.0829  1.0000  -2.5548   0.0000   0.0000   0.0000   0.3245
  12.100   1.1521   0.14277   0.13900  -0.1015  0.0817  1.0000  -2.5692   0.0000   0.0000   0.0000   0.3247
  12.200   1.1526   0.14434   0.14057  -0.1018  0.0807  1.0000  -2.5888   0.0000   0.0000   0.0000   0.3248
  12.300   1.1537   0.14568   0.14191  -0.1018  0.0798  1.0000  -2.6160   0.0000   0.0000   0.0000   0.3245
  12.400   1.1563   0.14656   0.14279  -0.1013  0.0789  1.0000  -2.6592   0.0000   0.0000   0.0000   0.3238
  12.500   1.1617   0.14651   0.14274  -0.0999  0.0779  1.0000  -2.7344   0.0000   0.0000   0.0000   0.3219
  13.000   1.1483   0.15964   0.15580  -0.0995  0.0737  1.0000  -2.7350   0.0000   0.0000   0.0000   0.3219
  13.100   1.1426   0.16372   0.15988  -0.1026  0.0736  1.0000  -2.6630   0.0000   0.0000   0.0000   0.3250
  13.200   1.1381   0.16725   0.16341  -0.1054  0.0734  1.0000  -2.6013   0.0000   0.0000   0.0000   0.3277
  13.300   1.1342   0.17039   0.16654  -0.1085  0.0730  1.0000  -2.5385   0.0000   0.0000   0.0000   0.3307
  13.400   1.1285   0.17384   0.16998  -0.1134  0.0712  1.0000  -2.4346   0.0000   0.0000   0.0000   0.3355
  13.500   1.1243   0.17711   0.17324  -0.1167  0.0694  1.0000  -2.3617   0.0000   0.0000   0.0000   0.3387
  13.600   1.1223   0.17975   0.17587  -0.1186  0.0678  1.0000  -2.3232   0.0000   0.0000   0.0000   0.3405
  13.700   1.1213   0.18206   0.17817  -0.1200  0.0664  1.0000  -2.2991   0.0000   0.0000   0.0000   0.3418
  13.800   1.1210   0.18405   0.18017  -0.1211  0.0650  1.0000  -2.2859   0.0000   0.0000   0.0000   0.3427
  13.900   1.1215   0.18580   0.18191  -0.1219  0.0636  1.0000  -2.2818   0.0000   0.0000   0.0000   0.3432
  14.000   1.1228   0.18730   0.18341  -0.1225  0.0623  1.0000  -2.2873   0.0000   0.0000   0.0000   0.3434
  14.100   1.1248   0.18852   0.18462  -0.1227  0.0609  1.0000  -2.3044   0.0000   0.0000   0.0000   0.3432
  14.200   1.1278   0.18944   0.18555  -0.1225  0.0597  1.0000  -2.3348   0.0000   0.0000   0.0000   0.3426
  14.300   1.1319   0.18999   0.18610  -0.1218  0.0586  1.0000  -2.3835   0.0000   0.0000   0.0000   0.3414
  14.400   1.1372   0.19017   0.18629  -0.1204  0.0575  1.0000  -2.4523   0.0000   0.0000   0.0000   0.3395
  14.500   1.1435   0.19016   0.18629  -0.1182  0.0565  1.0000  -2.5426   0.0000   0.0000   0.0000   0.3367
  14.600   1.1328   0.19695   0.19303  -0.1177  0.0546  1.0000  -2.4695   0.0000   0.0000   0.0000   0.3371
  14.700   1.1322   0.19951   0.19558  -0.1192  0.0545  1.0000  -2.4288   0.0000   0.0000   0.0000   0.3384
  14.800   1.1318   0.20198   0.19805  -0.1207  0.0545  1.0000  -2.3900   0.0000   0.0000   0.0000   0.3396
  14.900   1.1316   0.20438   0.20045  -0.1221  0.0544  1.0000  -2.3530   0.0000   0.0000   0.0000   0.3408
  15.000   1.1316   0.20669   0.20276  -0.1236  0.0543  1.0000  -2.3175   0.0000   0.0000   0.0000   0.3420
  15.100   1.1317   0.20891   0.20498  -0.1251  0.0542  1.0000  -2.2831   0.0000   0.0000   0.0000   0.3432
  15.200   1.1320   0.21101   0.20708  -0.1266  0.0540  1.0000  -2.2490   0.0000   0.0000   0.0000   0.3444
  15.300   1.1325   0.21292   0.20899  -0.1284  0.0537  1.0000  -2.2127   0.0000   0.0000   0.0000   0.3458
  15.400   1.1313   0.21500   0.21106  -0.1314  0.0528  1.0000  -2.1445   0.0000   0.0000   0.0000   0.3485
  15.500   1.1300   0.21737   0.21342  -0.1344  0.0514  1.0000  -2.0719   0.0000   0.0000   0.0000   0.3512
  15.600   1.1297   0.21964   0.21568  -0.1363  0.0502  1.0000  -2.0301   0.0000   0.0000   0.0000   0.3527
  15.700   1.1300   0.22175   0.21779  -0.1376  0.0491  1.0000  -2.0031   0.0000   0.0000   0.0000   0.3537
  15.800   1.1305   0.22377   0.21981  -0.1387  0.0482  1.0000  -1.9836   0.0000   0.0000   0.0000   0.3545
  15.900   1.1313   0.22575   0.22179  -0.1396  0.0474  1.0000  -1.9690   0.0000   0.0000   0.0000   0.3551
  16.000   1.1323   0.22769   0.22373  -0.1405  0.0467  1.0000  -1.9579   0.0000   0.0000   0.0000   0.3556
  16.100   1.1335   0.22959   0.22563  -0.1413  0.0460  1.0000  -1.9494   0.0000   0.0000   0.0000   0.3560
  16.200   1.1347   0.23147   0.22751  -0.1420  0.0454  1.0000  -1.9432   0.0000   0.0000   0.0000   0.3564
  16.300   1.1360   0.23332   0.22936  -0.1427  0.0448  1.0000  -1.9390   0.0000   0.0000   0.0000   0.3566
  16.400   1.1374   0.23514   0.23119  -0.1433  0.0443  1.0000  -1.9367   0.0000   0.0000   0.0000   0.3569
  16.500   1.1389   0.23695   0.23299  -0.1439  0.0438  1.0000  -1.9363   0.0000   0.0000   0.0000   0.3571
  16.600   1.1404   0.23873   0.23478  -0.1445  0.0433  1.0000  -1.9377   0.0000   0.0000   0.0000   0.3572
  16.700   1.1420   0.24050   0.23654  -0.1450  0.0428  1.0000  -1.9410   0.0000   0.0000   0.0000   0.3573
  16.800   1.1438   0.24225   0.23829  -0.1455  0.0424  1.0000  -1.9462   0.0000   0.0000   0.0000   0.3574
  16.900   1.1456   0.24397   0.24002  -0.1459  0.0420  1.0000  -1.9534   0.0000   0.0000   0.0000   0.3574
  17.000   1.1475   0.24569   0.24174  -0.1463  0.0417  1.0000  -1.9627   0.0000   0.0000   0.0000   0.3573
  17.100   1.1495   0.24739   0.24345  -0.1466  0.0413  1.0000  -1.9745   0.0000   0.0000   0.0000   0.3572
  17.200   1.1516   0.24909   0.24515  -0.1468  0.0410  1.0000  -1.9888   0.0000   0.0000   0.0000   0.3569
  17.300   1.1539   0.25079   0.24685  -0.1469  0.0407  1.0000  -2.0062   0.0000   0.0000   0.0000   0.3566
  17.400   1.1565   0.25250   0.24856  -0.1469  0.0403  1.0000  -2.0272   0.0000   0.0000   0.0000   0.3561
  17.500   1.1590   0.25423   0.25029  -0.1469  0.0400  1.0000  -2.0499   0.0000   0.0000   0.0000   0.3556
  17.600   1.1610   0.25617   0.25239  -0.1471  0.0398  1.0000  -2.0677   0.0000   0.0000   0.0000   0.3554
  17.700   1.1634   0.25804   0.25427  -0.1469  0.0396  1.0000  -2.0932   0.0000   0.0000   0.0000   0.3548
  17.800   1.1656   0.26007   0.25630  -0.1467  0.0393  1.0000  -2.1171   0.0000   0.0000   0.0000   0.3542
  17.900   1.1675   0.26245   0.25870  -0.1463  0.0389  1.0000  -2.1413   0.0000   0.0000   0.0000   0.3535
  18.000   1.1613   0.27021   0.26642  -0.1463  0.0380  1.0000  -2.0599   0.0000   0.0000   0.0000   0.3540
  18.100   1.1622   0.27243   0.26864  -0.1471  0.0380  1.0000  -2.0467   0.0000   0.0000   0.0000   0.3545
  18.200   1.1632   0.27464   0.27085  -0.1479  0.0380  1.0000  -2.0336   0.0000   0.0000   0.0000   0.3549
  18.300   1.1642   0.27684   0.27305  -0.1487  0.0380  1.0000  -2.0209   0.0000   0.0000   0.0000   0.3553
  18.400   1.1651   0.27902   0.27524  -0.1494  0.0380  1.0000  -2.0083   0.0000   0.0000   0.0000   0.3557
  18.500   1.1660   0.28120   0.27742  -0.1502  0.0380  1.0000  -1.9960   0.0000   0.0000   0.0000   0.3561
  18.600   1.1670   0.28337   0.27959  -0.1510  0.0379  1.0000  -1.9840   0.0000   0.0000   0.0000   0.3564
  18.700   1.1678   0.28552   0.28175  -0.1517  0.0379  1.0000  -1.9721   0.0000   0.0000   0.0000   0.3568
  18.800   1.1687   0.28766   0.28389  -0.1525  0.0379  1.0000  -1.9604   0.0000   0.0000   0.0000   0.3572
  18.900   1.1696   0.28979   0.28603  -0.1532  0.0379  1.0000  -1.9489   0.0000   0.0000   0.0000   0.3576
  19.000   1.1704   0.29191   0.28815  -0.1540  0.0379  1.0000  -1.9375   0.0000   0.0000   0.0000   0.3579
  19.100   1.1712   0.29401   0.29025  -0.1547  0.0378  1.0000  -1.9262   0.0000   0.0000   0.0000   0.3583
  19.200   1.1720   0.29610   0.29235  -0.1555  0.0378  1.0000  -1.9151   0.0000   0.0000   0.0000   0.3587
  19.300   1.1727   0.29818   0.29443  -0.1562  0.0378  1.0000  -1.9041   0.0000   0.0000   0.0000   0.3590
  19.400   1.1735   0.30024   0.29649  -0.1569  0.0377  1.0000  -1.8932   0.0000   0.0000   0.0000   0.3594
  19.500   1.1742   0.30228   0.29853  -0.1577  0.0377  1.0000  -1.8937   0.0000   0.0000   0.0000   0.3598
  19.600   1.1748   0.30430   0.30056  -0.1584  0.0377  1.0000  -1.8947   0.0000   0.0000   0.0000   0.3601
  19.700   1.1752   0.30630   0.30257  -0.1592  0.0376  1.0000  -1.8929   0.0000   0.0000   0.0000   0.3606
  19.800   1.1755   0.30828   0.30455  -0.1600  0.0376  1.0000  -1.8891   0.0000   0.0000   0.0000   0.3611
  19.900   1.1756   0.31023   0.30650  -0.1608  0.0375  1.0000  -1.8849   0.0000   0.0000   0.0000   0.3616
  20.000   1.1757   0.31214   0.30842  -0.1617  0.0375  1.0000  -1.8803   0.0000   0.0000   0.0000   0.3621
  20.100   1.1757   0.31402   0.31030  -0.1625  0.0374  1.0000  -1.8746   0.0000   0.0000   0.0000   0.3626
  20.200   1.1754   0.31585   0.31213  -0.1635  0.0373  1.0000  -1.8659   0.0000   0.0000   0.0000   0.3633
  20.300   1.1747   0.31761   0.31390  -0.1645  0.0372  1.0000  -1.8543   0.0000   0.0000   0.0000   0.3640
  20.400   1.1741   0.31936   0.31565  -0.1655  0.0371  1.0000  -1.8420   0.0000   0.0000   0.0000   0.3648
  20.500   1.1735   0.32111   0.31740  -0.1665  0.0369  1.0000  -1.8290   0.0000   0.0000   0.0000   0.3656
  20.600   1.1730   0.32286   0.31915  -0.1676  0.0368  1.0000  -1.8152   0.0000   0.0000   0.0000   0.3663
  20.700   1.1727   0.32464   0.32094  -0.1687  0.0365  1.0000  -1.8013   0.0000   0.0000   0.0000   0.3671
  20.800   1.1725   0.32649   0.32279  -0.1697  0.0362  1.0000  -1.7883   0.0000   0.0000   0.0000   0.3678
  20.900   1.1724   0.32840   0.32471  -0.1706  0.0359  1.0000  -1.7778   0.0000   0.0000   0.0000   0.3684
  21.000   1.1724   0.33037   0.32669  -0.1714  0.0355  1.0000  -1.7702   0.0000   0.0000   0.0000   0.3689
  21.100   1.1723   0.33238   0.32870  -0.1721  0.0351  1.0000  -1.7651   0.0000   0.0000   0.0000   0.3693
  21.200   1.1720   0.33439   0.33072  -0.1726  0.0348  1.0000  -1.7619   0.0000   0.0000   0.0000   0.3696
  21.300   1.1717   0.33641   0.33274  -0.1731  0.0344  1.0000  -1.7600   0.0000   0.0000   0.0000   0.3699
  21.400   1.1712   0.33841   0.33476  -0.1736  0.0341  1.0000  -1.7588   0.0000   0.0000   0.0000   0.3701
  21.500   1.1705   0.34041   0.33676  -0.1739  0.0337  1.0000  -1.7580   0.0000   0.0000   0.0000   0.3703
  21.600   1.1697   0.34238   0.33874  -0.1743  0.0334  1.0000  -1.7574   0.0000   0.0000   0.0000   0.3705
  21.700   1.1687   0.34433   0.34070  -0.1746  0.0331  1.0000  -1.7568   0.0000   0.0000   0.0000   0.3707
  21.800   1.1675   0.34626   0.34264  -0.1748  0.0328  1.0000  -1.7560   0.0000   0.0000   0.0000   0.3709
  21.900   1.1661   0.34815   0.34454  -0.1750  0.0325  1.0000  -1.7548   0.0000   0.0000   0.0000   0.3710
  22.000   1.1644   0.35001   0.34640  -0.1751  0.0323  1.0000  -1.7532   0.0000   0.0000   0.0000   0.3712
  22.100   1.1624   0.35181   0.34822  -0.1752  0.0320  1.0000  -1.7509   0.0000   0.0000   0.0000   0.3713
  22.200   1.1601   0.35355   0.34997  -0.1752  0.0317  1.0000  -1.7481   0.0000   0.0000   0.0000   0.3714
  22.300   1.1572   0.35520   0.35163  -0.1751  0.0313  1.0000  -1.7449   0.0000   0.0000   0.0000   0.3716
  22.400   1.1538   0.35673   0.35317  -0.1749  0.0310  1.0000  -1.7410   0.0000   0.0000   0.0000   0.3717
  22.500   1.1496   0.35808   0.35453  -0.1746  0.0305  1.0000  -1.7362   0.0000   0.0000   0.0000   0.3717
  22.600   1.1441   0.35917   0.35564  -0.1740  0.0301  1.0000  -1.7297   0.0000   0.0000   0.0000   0.3718
  22.800   1.0307   0.33731   0.33392  -0.1551  0.0312  1.0000  -1.4781   0.0000   0.0000   0.0000   0.3710
  22.900   1.0244   0.33686   0.33348  -0.1543  0.0307  1.0000  -1.4681   0.0000   0.0000   0.0000   0.3710
  23.000   1.0189   0.33650   0.33314  -0.1537  0.0301  1.0000  -1.4610   0.0000   0.0000   0.0000   0.3710
  23.100   1.0139   0.33621   0.33287  -0.1531  0.0296  1.0000  -1.4567   0.0000   0.0000   0.0000   0.3711
  23.200   1.0094   0.33596   0.33263  -0.1526  0.0290  1.0000  -1.4552   0.0000   0.0000   0.0000   0.3710
  23.300   1.0053   0.33574   0.33242  -0.1521  0.0284  1.0000  -1.4559   0.0000   0.0000   0.0000   0.3710
  23.400   1.0014   0.33554   0.33223  -0.1516  0.0279  1.0000  -1.4578   0.0000   0.0000   0.0000   0.3709
  23.500   0.9977   0.33538   0.33209  -0.1511  0.0275  1.0000  -1.4588   0.0000   0.0000   0.0000   0.3708
  23.600   0.9941   0.33527   0.33199  -0.1507  0.0272  1.0000  -1.4578   0.0000   0.0000   0.0000   0.3708
  23.700   0.9907   0.33516   0.33190  -0.1503  0.0269  1.0000  -1.4579   0.0000   0.0000   0.0000   0.3707
  23.800   0.9874   0.33505   0.33180  -0.1498  0.0267  1.0000  -1.4597   0.0000   0.0000   0.0000   0.3705
  23.900   0.9844   0.33495   0.33170  -0.1494  0.0264  1.0000  -1.4634   0.0000   0.0000   0.0000   0.3704
  24.000   0.9815   0.33484   0.33161  -0.1489  0.0261  1.0000  -1.4695   0.0000   0.0000   0.0000   0.3701
  24.100   0.9788   0.33474   0.33152  -0.1483  0.0258  1.0000  -1.4782   0.0000   0.0000   0.0000   0.3698
  24.200   0.9763   0.33468   0.33147  -0.1477  0.0255  1.0000  -1.4907   0.0000   0.0000   0.0000   0.3693
  24.300   0.9742   0.33474   0.33155  -0.1469  0.0253  1.0000  -1.5082   0.0000   0.0000   0.0000   0.3687
  24.400   0.9728   0.33519   0.33201  -0.1459  0.0250  1.0000  -1.5337   0.0000   0.0000   0.0000   0.3677
  24.800   0.9644   0.34117   0.33801  -0.1436  0.0242  1.0000  -1.4717   0.0000   0.0000   0.0000   0.3660
  24.900   0.9616   0.34129   0.33814  -0.1436  0.0242  1.0000  -1.4494   0.0000   0.0000   0.0000   0.3663
  25.000   0.9589   0.34141   0.33827  -0.1437  0.0242  1.0000  -1.4276   0.0000   0.0000   0.0000   0.3666
  25.100   0.9562   0.34154   0.33840  -0.1437  0.0242  1.0000  -1.4066   0.0000   0.0000   0.0000   0.3669
  25.200   0.9536   0.34167   0.33854  -0.1437  0.0241  1.0000  -1.3862   0.0000   0.0000   0.0000   0.3671
  25.300   0.9507   0.34167   0.33856  -0.1438  0.0241  1.0000  -1.3629   0.0000   0.0000   0.0000   0.3675
  25.400   0.9478   0.34165   0.33855  -0.1439  0.0241  1.0000  -1.3394   0.0000   0.0000   0.0000   0.3679
  25.500   0.9450   0.34167   0.33857  -0.1441  0.0241  1.0000  -1.3168   0.0000   0.0000   0.0000   0.3683
  25.600   0.9423   0.34171   0.33862  -0.1442  0.0241  1.0000  -1.2950   0.0000   0.0000   0.0000   0.3687
  25.700   0.9398   0.34178   0.33870  -0.1444  0.0240  1.0000  -1.2741   0.0000   0.0000   0.0000   0.3691
  25.800   0.9374   0.34188   0.33881  -0.1445  0.0240  1.0000  -1.2539   0.0000   0.0000   0.0000   0.3695
  25.900   0.9350   0.34199   0.33900  -0.1447  0.0240  1.0000  -1.2349   0.0000   0.0000   0.0000   0.3699
  26.000   0.9328   0.34214   0.33916  -0.1449  0.0240  1.0000  -1.2160   0.0000   0.0000   0.0000   0.3703
  26.100   0.9308   0.34232   0.33934  -0.1451  0.0239  1.0000  -1.1977   0.0000   0.0000   0.0000   0.3706
  26.200   0.9288   0.34252   0.33955  -0.1454  0.0239  1.0000  -1.1799   0.0000   0.0000   0.0000   0.3710
  26.300   0.9270   0.34274   0.33978  -0.1456  0.0239  1.0000  -1.1625   0.0000   0.0000   0.0000   0.3714
  26.400   0.9252   0.34300   0.34005  -0.1459  0.0238  1.0000  -1.1456   0.0000   0.0000   0.0000   0.3717
  26.500   0.9236   0.34328   0.34033  -0.1461  0.0238  1.0000  -1.1291   0.0000   0.0000   0.0000   0.3721
  26.600   0.9220   0.34358   0.34065  -0.1464  0.0237  1.0000  -1.1129   0.0000   0.0000   0.0000   0.3725
  26.700   0.9206   0.34392   0.34099  -0.1467  0.0237  1.0000  -1.0970   0.0000   0.0000   0.0000   0.3728
  26.800   0.9192   0.34429   0.34137  -0.1470  0.0236  1.0000  -1.0814   0.0000   0.0000   0.0000   0.3732
  26.900   0.9180   0.34469   0.34178  -0.1474  0.0235  1.0000  -1.0660   0.0000   0.0000   0.0000   0.3735
  27.000   0.9169   0.34514   0.34224  -0.1477  0.0235  1.0000  -1.0508   0.0000   0.0000   0.0000   0.3739
  27.100   0.9159   0.34563   0.34273  -0.1481  0.0234  1.0000  -1.0358   0.0000   0.0000   0.0000   0.3742
  27.200   0.9150   0.34616   0.34327  -0.1484  0.0233  1.0000  -1.0211   0.0000   0.0000   0.0000   0.3746
  27.300   0.9142   0.34673   0.34386  -0.1488  0.0231  1.0000  -1.0067   0.0000   0.0000   0.0000   0.3749
  27.400   0.9135   0.34735   0.34448  -0.1492  0.0229  1.0000  -0.9927   0.0000   0.0000   0.0000   0.3752
  27.500   0.9129   0.34799   0.34513  -0.1496  0.0227  1.0000  -0.9899   0.0000   0.0000   0.0000   0.3755
  27.600   0.9124   0.34863   0.34578  -0.1499  0.0225  1.0000  -0.9895   0.0000   0.0000   0.0000   0.3758
  27.700   0.9117   0.34925   0.34641  -0.1502  0.0222  1.0000  -0.9901   0.0000   0.0000   0.0000   0.3760
  27.800   0.9111   0.34985   0.34702  -0.1505  0.0220  1.0000  -0.9915   0.0000   0.0000   0.0000   0.3762
  27.900   0.9103   0.35043   0.34761  -0.1507  0.0217  1.0000  -0.9936   0.0000   0.0000   0.0000   0.3763
  28.000   0.9096   0.35098   0.34817  -0.1510  0.0214  1.0000  -0.9963   0.0000   0.0000   0.0000   0.3765
  28.100   0.9088   0.35151   0.34871  -0.1512  0.0211  1.0000  -0.9995   0.0000   0.0000   0.0000   0.3766
  28.200   0.9080   0.35204   0.34924  -0.1514  0.0208  1.0000  -1.0029   0.0000   0.0000   0.0000   0.3767
  28.300   0.9071   0.35255   0.34977  -0.1516  0.0205  1.0000  -1.0066   0.0000   0.0000   0.0000   0.3769
  28.400   0.9063   0.35306   0.35028  -0.1517  0.0202  1.0000  -1.0105   0.0000   0.0000   0.0000   0.3770
  28.500   0.9055   0.35356   0.35079  -0.1519  0.0200  1.0000  -1.0145   0.0000   0.0000   0.0000   0.3771
  28.600   0.9046   0.35405   0.35130  -0.1521  0.0197  1.0000  -1.0186   0.0000   0.0000   0.0000   0.3772
  28.700   0.9038   0.35455   0.35180  -0.1523  0.0195  1.0000  -1.0227   0.0000   0.0000   0.0000   0.3773
  28.800   0.9030   0.35504   0.35231  -0.1525  0.0192  1.0000  -1.0268   0.0000   0.0000   0.0000   0.3774
  28.900   0.9022   0.35553   0.35281  -0.1527  0.0190  1.0000  -1.0308   0.0000   0.0000   0.0000   0.3775
  29.000   0.9014   0.35602   0.35331  -0.1529  0.0187  1.0000  -1.0349   0.0000   0.0000   0.0000   0.3776
  29.100   0.9006   0.35651   0.35381  -0.1531  0.0185  1.0000  -1.0388   0.0000   0.0000   0.0000   0.3777
  29.200   0.8998   0.35700   0.35430  -0.1533  0.0183  1.0000  -1.0426   0.0000   0.0000   0.0000   0.3778
  29.300   0.8990   0.35749   0.35480  -0.1534  0.0181  1.0000  -1.0464   0.0000   0.0000   0.0000   0.3779
  29.400   0.8982   0.35797   0.35530  -0.1536  0.0178  1.0000  -1.0499   0.0000   0.0000   0.0000   0.3780
  29.500   0.8975   0.35846   0.35579  -0.1538  0.0176  1.0000  -1.0534   0.0000   0.0000   0.0000   0.3781
  29.600   0.8967   0.35893   0.35628  -0.1540  0.0174  1.0000  -1.0569   0.0000   0.0000   0.0000   0.3782
  29.700   0.8960   0.35939   0.35675  -0.1542  0.0171  1.0000  -1.0613   0.0000   0.0000   0.0000   0.3783
  29.800   0.8953   0.35983   0.35720  -0.1544  0.0167  1.0000  -1.0671   0.0000   0.0000   0.0000   0.3784
  29.900   0.8945   0.36023   0.35760  -0.1546  0.0163  1.0000  -1.0748   0.0000   0.0000   0.0000   0.3784
  30.000   0.8938   0.36057   0.35796  -0.1548  0.0159  1.0000  -1.0846   0.0000   0.0000   0.0000   0.3784


