xflr5 v6.61

 Calculated polar for: Bergey BW-3  (smoothed)

 1 1 Reynolds number fixed          Mach number fixed         

 xtrf =   1.000 (top)        1.000 (bottom)
 Mach =   0.000     Re =     1.000 e 6     Ncrit =   9.000

  alpha     CL        CD       CDp       Cm    Top Xtr Bot Xtr   Cpmin    Chinge    XCp    
 ------- -------- --------- --------- -------- ------- ------- -------- --------- ---------
 -10.000  -0.4352   0.12160   0.11981  -0.0078  1.0000  0.0145  -1.9782   0.0000   0.0000   0.0000   0.2286
  -9.900  -0.4314   0.12086   0.11907  -0.0078  1.0000  0.0147  -1.9193   0.0000   0.0000   0.0000   0.2285
  -9.800  -0.4276   0.12014   0.11835  -0.0078  1.0000  0.0149  -1.8629   0.0000   0.0000   0.0000   0.2283
  -9.700  -0.4239   0.11942   0.11765  -0.0079  1.0000  0.0151  -1.8088   0.0000   0.0000   0.0000   0.2281
  -9.600  -0.4202   0.11872   0.11694  -0.0080  1.0000  0.0154  -1.7568   0.0000   0.0000   0.0000   0.2278
  -9.500  -0.4165   0.11801   0.11624  -0.0081  1.0000  0.0157  -1.7073   0.0000   0.0000   0.0000   0.2274
  -9.400  -0.4129   0.11729   0.11553  -0.0083  1.0000  0.0161  -1.6604   0.0000   0.0000   0.0000   0.2270
  -9.300  -0.4094   0.11656   0.11480  -0.0084  1.0000  0.0166  -1.6166   0.0000   0.0000   0.0000   0.2265
  -9.200  -0.4060   0.11580   0.11405  -0.0086  1.0000  0.0172  -1.5766   0.0000   0.0000   0.0000   0.2259
  -9.100  -0.4027   0.11500   0.11325  -0.0088  1.0000  0.0180  -1.5411   0.0000   0.0000   0.0000   0.2253
  -9.000  -0.3996   0.11416   0.11242  -0.0091  1.0000  0.0189  -1.5106   0.0000   0.0000   0.0000   0.2246
  -8.900  -0.3965   0.11328   0.11154  -0.0093  1.0000  0.0200  -1.4854   0.0000   0.0000   0.0000   0.2238
  -8.800  -0.3932   0.11242   0.11068  -0.0096  1.0000  0.0213  -1.4655   0.0000   0.0000   0.0000   0.2229
  -8.700  -0.3886   0.11188   0.11015  -0.0101  1.0000  0.0227  -1.4505   0.0000   0.0000   0.0000   0.2214
  -8.600  -0.3852   0.11126   0.10953  -0.0105  1.0000  0.0231  -1.4379   0.0000   0.0000   0.0000   0.2202
  -8.500  -0.3825   0.11048   0.10876  -0.0108  1.0000  0.0233  -1.4262   0.0000   0.0000   0.0000   0.2193
  -8.400  -0.3801   0.10964   0.10792  -0.0111  1.0000  0.0234  -1.4150   0.0000   0.0000   0.0000   0.2184
  -8.300  -0.3778   0.10876   0.10704  -0.0113  1.0000  0.0235  -1.4041   0.0000   0.0000   0.0000   0.2176
  -8.200  -0.3759   0.10787   0.10616  -0.0115  1.0000  0.0235  -1.3935   0.0000   0.0000   0.0000   0.2170
  -8.100  -0.3741   0.10697   0.10527  -0.0116  1.0000  0.0236  -1.3833   0.0000   0.0000   0.0000   0.2165
  -8.000  -0.3726   0.10609   0.10440  -0.0117  1.0000  0.0236  -1.3737   0.0000   0.0000   0.0000   0.2162
  -7.900  -0.3715   0.10523   0.10354  -0.0117  1.0000  0.0236  -1.3648   0.0000   0.0000   0.0000   0.2161
  -7.800  -0.3708   0.10440   0.10272  -0.0117  1.0000  0.0237  -1.3568   0.0000   0.0000   0.0000   0.2163
  -7.700  -0.3705   0.10360   0.10193  -0.0115  1.0000  0.0237  -1.3497   0.0000   0.0000   0.0000   0.2168
  -7.600  -0.3707   0.10283   0.10117  -0.0112  1.0000  0.0237  -1.3440   0.0000   0.0000   0.0000   0.2177
  -7.500  -0.3713   0.10212   0.10043  -0.0108  1.0000  0.0238  -1.3421   0.0000   0.0000   0.0000   0.2190
  -7.400  -0.3717   0.10134   0.09966  -0.0104  1.0000  0.0238  -1.3342   0.0000   0.0000   0.0000   0.2201
  -7.300  -0.3706   0.10043   0.09876  -0.0103  1.0000  0.0238  -1.3236   0.0000   0.0000   0.0000   0.2202
  -7.200  -0.3679   0.09938   0.09771  -0.0107  1.0000  0.0238  -1.3100   0.0000   0.0000   0.0000   0.2191
  -7.100  -0.3586   0.09782   0.09616  -0.0129  0.9995  0.0239  -1.2856   0.0000   0.0000   0.0000   0.2122
  -7.000  -0.3474   0.09613   0.09446  -0.0156  0.9988  0.0239  -1.2582   0.0000   0.0000   0.0000   0.2032
  -6.900  -0.3361   0.09445   0.09278  -0.0183  0.9981  0.0239  -1.2514   0.0000   0.0000   0.0000   0.1934
  -6.800  -0.3249   0.09285   0.09117  -0.0210  0.9976  0.0239  -1.2474   0.0000   0.0000   0.0000   0.1831
  -6.700  -0.3145   0.09130   0.08962  -0.0235  0.9968  0.0240  -1.2432   0.0000   0.0000   0.0000   0.1731
  -6.600  -0.3039   0.08976   0.08807  -0.0259  0.9960  0.0240  -1.2390   0.0000   0.0000   0.0000   0.1623
  -6.500  -0.2929   0.08820   0.08650  -0.0285  0.9951  0.0240  -1.2350   0.0000   0.0000   0.0000   0.1502
  -6.400  -0.2815   0.08660   0.08491  -0.0312  0.9942  0.0241  -1.2312   0.0000   0.0000   0.0000   0.1368
  -6.300  -0.2697   0.08498   0.08328  -0.0339  0.9933  0.0241  -1.2276   0.0000   0.0000   0.0000   0.1216
  -6.200  -0.2574   0.08332   0.08161  -0.0368  0.9924  0.0241  -1.2242   0.0000   0.0000   0.0000   0.1043
  -6.100  -0.2445   0.08164   0.07992  -0.0397  0.9917  0.0241  -1.2206   0.0000   0.0000   0.0000   0.0845
  -6.000  -0.2310   0.07994   0.07821  -0.0428  0.9911  0.0241  -1.2168   0.0000   0.0000   0.0000   0.0614
  -5.900  -0.2191   0.07829   0.07655  -0.0454  0.9900  0.0241  -1.2144   0.0000   0.0000   0.0000   0.0390
  -5.800  -0.2094   0.07673   0.07499  -0.0474  0.9879  0.0241  -1.2134   0.0000   0.0000   0.0000   0.0200
  -5.600  -0.2141   0.07517   0.07346  -0.0444  0.9477  0.0241  -1.2231   0.0000   0.0000   0.0000   0.0394
  -4.500   0.0018   0.01086   0.00651  -0.1168  0.9166  0.0179  -4.1030   0.0000   0.0000   0.0000  64.8468
  -4.400   0.0190   0.01010   0.00557  -0.1183  0.9141  0.0182  -4.0440   0.0000   0.0000   0.0000   6.5630
  -4.300   0.0376   0.00954   0.00487  -0.1200  0.9120  0.0189  -3.9697   0.0000   0.0000   0.0000   3.4816
  -4.200   0.0567   0.00917   0.00441  -0.1219  0.9093  0.0205  -3.8836   0.0000   0.0000   0.0000   2.4225
  -4.100   0.0757   0.00906   0.00429  -0.1237  0.9061  0.0223  -3.7659   0.0000   0.0000   0.0000   1.9012
  -4.000   0.0940   0.00907   0.00432  -0.1253  0.9026  0.0232  -3.6324   0.0000   0.0000   0.0000   1.5969
  -3.900   0.1127   0.00914   0.00442  -0.1271  0.8990  0.0237  -3.4935   0.0000   0.0000   0.0000   1.3892
  -3.800   0.1320   0.00925   0.00457  -0.1290  0.8954  0.0240  -3.3509   0.0000   0.0000   0.0000   1.2366
  -3.700   0.1525   0.00940   0.00475  -0.1312  0.8920  0.0242  -3.2044   0.0000   0.0000   0.0000   1.1183
  -3.600   0.1732   0.00957   0.00496  -0.1334  0.8885  0.0243  -3.0595   0.0000   0.0000   0.0000   1.0274
  -3.400   0.2025   0.00859   0.00364  -0.1351  0.8795  0.0264  -2.9209   0.0000   0.0000   0.0000   0.9228
  -3.300   0.2146   0.00841   0.00339  -0.1352  0.8755  0.0271  -2.8432   0.0000   0.0000   0.0000   0.8856
  -3.200   0.2270   0.00826   0.00319  -0.1355  0.8715  0.0277  -2.7619   0.0000   0.0000   0.0000   0.8516
  -3.100   0.2397   0.00815   0.00302  -0.1358  0.8676  0.0282  -2.6791   0.0000   0.0000   0.0000   0.8208
  -3.000   0.2525   0.00805   0.00287  -0.1361  0.8636  0.0288  -2.5960   0.0000   0.0000   0.0000   0.7930
  -2.900   0.2651   0.00797   0.00274  -0.1363  0.8593  0.0294  -2.5136   0.0000   0.0000   0.0000   0.7680
  -2.700   0.2887   0.00781   0.00251  -0.1365  0.8516  0.0307  -2.3561   0.0000   0.0000   0.0000   0.7258
  -2.600   0.2994   0.00773   0.00242  -0.1363  0.8485  0.0314  -2.2821   0.0000   0.0000   0.0000   0.7080
  -2.500   0.3104   0.00765   0.00232  -0.1361  0.8451  0.0322  -2.2081   0.0000   0.0000   0.0000   0.6913
  -2.400   0.3215   0.00758   0.00221  -0.1360  0.8414  0.0336  -2.1373   0.0000   0.0000   0.0000   0.6756
  -2.300   0.3329   0.00751   0.00212  -0.1360  0.8376  0.0348  -2.0629   0.0000   0.0000   0.0000   0.6608
  -2.200   0.3444   0.00745   0.00204  -0.1360  0.8335  0.0364  -1.9896   0.0000   0.0000   0.0000   0.6470
  -2.100   0.3559   0.00736   0.00195  -0.1360  0.8289  0.0461  -1.9225   0.0000   0.0000   0.0000   0.6340
  -1.900   0.3778   0.00740   0.00205  -0.1357  0.8202  0.0585  -1.7716   0.0000   0.0000   0.0000   0.6108
  -1.800   0.3880   0.00749   0.00220  -0.1354  0.8162  0.0624  -1.7171   0.0000   0.0000   0.0000   0.6003
  -1.700   0.3984   0.00760   0.00233  -0.1351  0.8115  0.0650  -1.6624   0.0000   0.0000   0.0000   0.5903
  -1.600   0.4089   0.00773   0.00247  -0.1348  0.8063  0.0671  -1.6076   0.0000   0.0000   0.0000   0.5808
  -1.500   0.4194   0.00786   0.00259  -0.1345  0.8011  0.0687  -1.5529   0.0000   0.0000   0.0000   0.5717
  -1.400   0.4299   0.00800   0.00272  -0.1342  0.7959  0.0699  -1.4988   0.0000   0.0000   0.0000   0.5631
  -1.200   0.4515   0.00822   0.00294  -0.1339  0.7884  0.0715  -1.3921   0.0000   0.0000   0.0000   0.5471
  -1.100   0.4622   0.00829   0.00302  -0.1337  0.7858  0.0721  -1.3407   0.0000   0.0000   0.0000   0.5397
  -1.000   0.4729   0.00836   0.00310  -0.1335  0.7829  0.0725  -1.2898   0.0000   0.0000   0.0000   0.5326
  -0.900   0.4837   0.00843   0.00318  -0.1333  0.7798  0.0728  -1.2393   0.0000   0.0000   0.0000   0.5258
  -0.800   0.4945   0.00851   0.00326  -0.1331  0.7764  0.0731  -1.1894   0.0000   0.0000   0.0000   0.5193
  -0.700   0.5052   0.00859   0.00334  -0.1329  0.7726  0.0734  -1.1401   0.0000   0.0000   0.0000   0.5131
  -0.600   0.5158   0.00867   0.00342  -0.1327  0.7684  0.0736  -1.0917   0.0000   0.0000   0.0000   0.5072
  -0.500   0.5262   0.00877   0.00350  -0.1324  0.7637  0.0737  -1.0442   0.0000   0.0000   0.0000   0.5015
  -0.400   0.5368   0.00832   0.00296  -0.1323  0.7587  0.0768  -1.0120   0.0000   0.0000   0.0000   0.4962
  -0.300   0.5477   0.00827   0.00290  -0.1322  0.7551  0.0783  -0.9675   0.0000   0.0000   0.0000   0.4910
  -0.200   0.5585   0.00828   0.00293  -0.1320  0.7528  0.0793  -0.9218   0.0000   0.0000   0.0000   0.4860
  -0.100   0.5692   0.00833   0.00300  -0.1319  0.7502  0.0802  -0.8766   0.0000   0.0000   0.0000   0.4811
   0.000   0.5799   0.00837   0.00305  -0.1317  0.7473  0.0810  -0.8312   0.0000   0.0000   0.0000   0.4764
   0.100   0.5905   0.00844   0.00313  -0.1315  0.7436  0.0819  -0.7855   0.0000   0.0000   0.0000   0.4719
   0.200   0.6007   0.00854   0.00323  -0.1311  0.7376  0.0830  -0.7405   0.0000   0.0000   0.0000   0.4675
   0.300   0.6104   0.00866   0.00332  -0.1307  0.7301  0.0842  -0.6970   0.0000   0.0000   0.0000   0.4632
   0.400   0.6201   0.00877   0.00340  -0.1303  0.7214  0.0853  -0.6550   0.0000   0.0000   0.0000   0.4591
   0.500   0.6307   0.00880   0.00344  -0.1301  0.7176  0.0864  -0.6577   0.0000   0.0000   0.0000   0.4552
   0.600   0.6414   0.00882   0.00346  -0.1299  0.7142  0.0874  -0.6676   0.0000   0.0000   0.0000   0.4514
   0.700   0.6520   0.00881   0.00346  -0.1297  0.7099  0.0883  -0.6783   0.0000   0.0000   0.0000   0.4477
   0.800   0.6626   0.00880   0.00343  -0.1295  0.7048  0.0889  -0.6889   0.0000   0.0000   0.0000   0.4441
   0.900   0.6728   0.00879   0.00339  -0.1293  0.6980  0.0895  -0.6994   0.0000   0.0000   0.0000   0.4406
   1.000   0.6824   0.00881   0.00335  -0.1288  0.6888  0.0899  -0.7095   0.0000   0.0000   0.0000   0.4372
   1.100   0.6926   0.00879   0.00331  -0.1285  0.6811  0.0904  -0.7291   0.0000   0.0000   0.0000   0.4339
   1.200   0.7032   0.00876   0.00326  -0.1283  0.6742  0.0907  -0.7656   0.0000   0.0000   0.0000   0.4307
   1.300   0.7135   0.00875   0.00322  -0.1281  0.6653  0.0911  -0.8020   0.0000   0.0000   0.0000   0.4276
   1.400   0.7233   0.00876   0.00317  -0.1277  0.6548  0.0913  -0.8378   0.0000   0.0000   0.0000   0.4246
   1.500   0.7331   0.00876   0.00313  -0.1273  0.6444  0.0916  -0.8740   0.0000   0.0000   0.0000   0.4216
   1.600   0.7439   0.00873   0.00308  -0.1272  0.6373  0.0918  -0.9122   0.0000   0.0000   0.0000   0.4188
   1.700   0.7545   0.00871   0.00304  -0.1270  0.6287  0.0919  -0.9503   0.0000   0.0000   0.0000   0.4161
   1.800   0.7645   0.00872   0.00300  -0.1267  0.6181  0.0921  -0.9878   0.0000   0.0000   0.0000   0.4134
   1.900   0.7744   0.00874   0.00296  -0.1263  0.6068  0.0922  -1.0254   0.0000   0.0000   0.0000   0.4107
   2.000   0.7853   0.00871   0.00292  -0.1262  0.5989  0.0923  -1.0651   0.0000   0.0000   0.0000   0.4082
   2.100   0.7956   0.00872   0.00288  -0.1260  0.5863  0.0925  -1.1041   0.0000   0.0000   0.0000   0.4058
   2.200   0.8051   0.00878   0.00286  -0.1256  0.5698  0.0925  -1.1418   0.0000   0.0000   0.0000   0.4033
   2.300   0.8158   0.00878   0.00287  -0.1254  0.5591  0.0927  -1.1834   0.0000   0.0000   0.0000   0.4010
   2.400   0.8254   0.00885   0.00286  -0.1250  0.5389  0.0928  -1.2225   0.0000   0.0000   0.0000   0.3986
   2.500   0.8352   0.00892   0.00285  -0.1247  0.5185  0.0929  -1.2620   0.0000   0.0000   0.0000   0.3964
   2.600   0.8440   0.00909   0.00286  -0.1242  0.4874  0.0929  -1.2997   0.0000   0.0000   0.0000   0.3941
   2.700   0.8524   0.00930   0.00290  -0.1236  0.4502  0.0930  -1.3369   0.0000   0.0000   0.0000   0.3919
   2.800   0.8606   0.00955   0.00297  -0.1230  0.4106  0.0932  -1.3736   0.0000   0.0000   0.0000   0.3897
   2.900   0.8685   0.00982   0.00306  -0.1223  0.3715  0.0935  -1.4102   0.0000   0.0000   0.0000   0.3875
   3.000   0.8762   0.01012   0.00317  -0.1216  0.3323  0.0938  -1.4559   0.0000   0.0000   0.0000   0.3854
   3.100   0.8837   0.01042   0.00329  -0.1209  0.2927  0.0940  -1.5052   0.0000   0.0000   0.0000   0.3833
   3.200   0.8912   0.01073   0.00340  -0.1202  0.2527  0.0942  -1.5543   0.0000   0.0000   0.0000   0.3813
   3.300   0.8977   0.01113   0.00354  -0.1193  0.2011  0.0943  -1.6006   0.0000   0.0000   0.0000   0.3792
   3.400   0.8984   0.01206   0.00393  -0.1173  0.0893  0.0943  -1.6296   0.0000   0.0000   0.0000   0.3768
   3.500   0.9069   0.01230   0.00405  -0.1168  0.0655  0.0945  -1.6816   0.0000   0.0000   0.0000   0.3749
   3.600   0.9167   0.01241   0.00413  -0.1165  0.0544  0.0946  -1.7373   0.0000   0.0000   0.0000   0.3731
   3.700   0.9272   0.01247   0.00418  -0.1163  0.0519  0.0948  -1.7969   0.0000   0.0000   0.0000   0.3713
   3.800   0.9375   0.01255   0.00424  -0.1161  0.0490  0.0950  -1.8561   0.0000   0.0000   0.0000   0.3696
   3.900   0.9474   0.01266   0.00432  -0.1158  0.0453  0.0952  -1.9142   0.0000   0.0000   0.0000   0.3679
   4.000   0.9565   0.01286   0.00453  -0.1153  0.0380  0.0954  -1.9601   0.0000   0.0000   0.0000   0.3661
   4.100   0.9669   0.01291   0.00458  -0.1151  0.0377  0.0956  -2.0232   0.0000   0.0000   0.0000   0.3645
   4.200   0.9832   0.01280   0.00445  -0.1164  0.0371  0.1029  -2.0996   0.0000   0.0000   0.0000   0.3637
   4.300   0.9941   0.01286   0.00453  -0.1163  0.0364  0.1051  -2.1636   0.0000   0.0000   0.0000   0.3623
   4.400   1.0046   0.01294   0.00462  -0.1162  0.0356  0.1067  -2.2267   0.0000   0.0000   0.0000   0.3608
   4.500   1.0150   0.01302   0.00472  -0.1160  0.0349  0.1081  -2.2897   0.0000   0.0000   0.0000   0.3593
   4.600   1.0254   0.01312   0.00483  -0.1158  0.0343  0.1093  -2.3532   0.0000   0.0000   0.0000   0.3579
   4.700   1.0358   0.01321   0.00494  -0.1156  0.0337  0.1104  -2.4172   0.0000   0.0000   0.0000   0.3565
   4.800   1.0461   0.01331   0.00505  -0.1155  0.0331  0.1114  -2.4819   0.0000   0.0000   0.0000   0.3551
   4.900   1.0565   0.01340   0.00516  -0.1153  0.0326  0.1122  -2.5471   0.0000   0.0000   0.0000   0.3537
   5.000   1.0669   0.01351   0.00527  -0.1151  0.0321  0.1130  -2.6130   0.0000   0.0000   0.0000   0.3524
   5.100   1.0772   0.01361   0.00538  -0.1149  0.0316  0.1137  -2.6794   0.0000   0.0000   0.0000   0.3511
   5.200   1.0876   0.01372   0.00550  -0.1148  0.0311  0.1144  -2.7464   0.0000   0.0000   0.0000   0.3498
   5.300   1.0979   0.01383   0.00562  -0.1146  0.0306  0.1150  -2.8140   0.0000   0.0000   0.0000   0.3485
   5.400   1.1083   0.01395   0.00574  -0.1145  0.0301  0.1156  -2.8818   0.0000   0.0000   0.0000   0.3473
   5.500   1.1185   0.01407   0.00587  -0.1143  0.0295  0.1161  -2.9496   0.0000   0.0000   0.0000   0.3461
   5.600   1.1287   0.01420   0.00601  -0.1141  0.0288  0.1166  -3.0169   0.0000   0.0000   0.0000   0.3449
   5.700   1.1387   0.01435   0.00617  -0.1139  0.0281  0.1171  -3.0825   0.0000   0.0000   0.0000   0.3436
   5.800   1.1489   0.01449   0.00641  -0.1136  0.0280  0.1177  -3.1578   0.0000   0.0000   0.0000   0.3425
   5.900   1.1583   0.01470   0.00664  -0.1133  0.0270  0.1180  -3.2204   0.0000   0.0000   0.0000   0.3412
   6.000   1.1626   0.01537   0.00744  -0.1118  0.0242  0.1183  -3.2319   0.0000   0.0000   0.0000   0.3395
   6.100   1.1748   0.01533   0.00737  -0.1121  0.0241  0.1186  -3.3192   0.0000   0.0000   0.0000   0.3386
   6.200   1.1869   0.01530   0.00732  -0.1124  0.0239  0.1190  -3.4064   0.0000   0.0000   0.0000   0.3377
   6.300   1.1988   0.01528   0.00728  -0.1126  0.0236  0.1193  -3.4922   0.0000   0.0000   0.0000   0.3368
   6.400   1.2104   0.01529   0.00728  -0.1128  0.0231  0.1196  -3.5744   0.0000   0.0000   0.0000   0.3359
   6.500   1.2216   0.01535   0.00733  -0.1128  0.0224  0.1199  -3.6505   0.0000   0.0000   0.0000   0.3350
   6.600   1.2328   0.01547   0.00745  -0.1129  0.0216  0.1209  -3.7216   0.0000   0.0000   0.0000   0.3341
   6.700   1.2445   0.01562   0.00761  -0.1131  0.0208  0.1240  -3.7917   0.0000   0.0000   0.0000   0.3333
   6.800   1.2564   0.01580   0.00781  -0.1134  0.0202  0.1309  -3.8630   0.0000   0.0000   0.0000   0.3325
   6.900   1.2686   0.01599   0.00803  -0.1137  0.0197  0.1396  -3.9367   0.0000   0.0000   0.0000   0.3317
   7.100   1.3917   0.01676   0.01016  -0.1388  0.0181  1.0000  -4.3805   0.0000   0.0000   0.0000   0.3413
   7.200   1.3994   0.01706   0.01049  -0.1381  0.0180  1.0000  -4.4363   0.0000   0.0000   0.0000   0.3401
   7.300   1.4069   0.01738   0.01084  -0.1373  0.0179  1.0000  -4.4916   0.0000   0.0000   0.0000   0.3389
   7.400   1.4144   0.01771   0.01120  -0.1366  0.0178  1.0000  -4.5466   0.0000   0.0000   0.0000   0.3377
   7.500   1.4217   0.01805   0.01157  -0.1358  0.0178  1.0000  -4.6012   0.0000   0.0000   0.0000   0.3365
   7.600   1.4289   0.01840   0.01195  -0.1350  0.0177  1.0000  -4.6555   0.0000   0.0000   0.0000   0.3353
   7.700   1.4360   0.01877   0.01235  -0.1341  0.0177  1.0000  -4.7094   0.0000   0.0000   0.0000   0.3341
   7.800   1.4431   0.01914   0.01275  -0.1333  0.0176  1.0000  -4.7632   0.0000   0.0000   0.0000   0.3329
   7.900   1.4501   0.01953   0.01317  -0.1325  0.0176  1.0000  -4.8391   0.0000   0.0000   0.0000   0.3318
   8.000   1.4570   0.01993   0.01360  -0.1316  0.0175  1.0000  -4.9226   0.0000   0.0000   0.0000   0.3306
   8.100   1.4639   0.02034   0.01404  -0.1308  0.0175  1.0000  -5.0063   0.0000   0.0000   0.0000   0.3295
   8.200   1.4708   0.02075   0.01449  -0.1299  0.0175  1.0000  -5.0902   0.0000   0.0000   0.0000   0.3283
   8.300   1.4776   0.02118   0.01495  -0.1291  0.0174  1.0000  -5.1746   0.0000   0.0000   0.0000   0.3272
   8.400   1.4845   0.02162   0.01542  -0.1283  0.0174  1.0000  -5.2594   0.0000   0.0000   0.0000   0.3261
   8.500   1.4914   0.02206   0.01589  -0.1275  0.0173  1.0000  -5.3449   0.0000   0.0000   0.0000   0.3250
   8.600   1.4962   0.02298   0.01698  -0.1262  0.0176  1.0000  -5.4044   0.0000   0.0000   0.0000   0.3238
   8.700   1.5022   0.02377   0.01782  -0.1252  0.0177  1.0000  -5.4746   0.0000   0.0000   0.0000   0.3226
   8.800   1.5089   0.02442   0.01852  -0.1243  0.0178  1.0000  -5.5535   0.0000   0.0000   0.0000   0.3216
   8.900   1.5158   0.02503   0.01918  -0.1236  0.0178  1.0000  -5.6354   0.0000   0.0000   0.0000   0.3205
   9.000   1.5229   0.02562   0.01982  -0.1228  0.0178  1.0000  -5.7195   0.0000   0.0000   0.0000   0.3195
   9.100   1.5300   0.02620   0.02044  -0.1221  0.0177  1.0000  -5.8052   0.0000   0.0000   0.0000   0.3185
   9.200   1.5371   0.02676   0.02105  -0.1214  0.0177  1.0000  -5.8925   0.0000   0.0000   0.0000   0.3176
   9.300   1.5442   0.02731   0.02163  -0.1207  0.0176  1.0000  -5.9814   0.0000   0.0000   0.0000   0.3166
   9.400   1.5512   0.02783   0.02220  -0.1200  0.0175  1.0000  -6.0717   0.0000   0.0000   0.0000   0.3156
   9.500   1.5582   0.02833   0.02274  -0.1193  0.0175  1.0000  -6.1636   0.0000   0.0000   0.0000   0.3147
   9.600   1.5651   0.02881   0.02325  -0.1186  0.0174  1.0000  -6.2570   0.0000   0.0000   0.0000   0.3137
   9.700   1.5719   0.02926   0.02374  -0.1179  0.0173  1.0000  -6.3520   0.0000   0.0000   0.0000   0.3128
   9.800   1.5786   0.02968   0.02420  -0.1171  0.0172  1.0000  -6.4487   0.0000   0.0000   0.0000   0.3119
   9.900   1.5852   0.03008   0.02462  -0.1164  0.0170  1.0000  -6.5471   0.0000   0.0000   0.0000   0.3109
  10.000   1.5918   0.03045   0.02502  -0.1157  0.0169  1.0000  -6.6470   0.0000   0.0000   0.0000   0.3100
  10.100   1.5982   0.03079   0.02540  -0.1149  0.0168  1.0000  -6.7484   0.0000   0.0000   0.0000   0.3091
  10.200   1.6045   0.03112   0.02574  -0.1142  0.0166  1.0000  -6.8510   0.0000   0.0000   0.0000   0.3082
  10.300   1.6107   0.03142   0.02607  -0.1134  0.0165  1.0000  -6.9547   0.0000   0.0000   0.0000   0.3072
  10.400   1.6167   0.03172   0.02639  -0.1126  0.0164  1.0000  -7.0593   0.0000   0.0000   0.0000   0.3063
  10.500   1.6228   0.03201   0.02670  -0.1118  0.0162  1.0000  -7.1648   0.0000   0.0000   0.0000   0.3054
  10.600   1.6288   0.03231   0.02702  -0.1110  0.0161  1.0000  -7.2707   0.0000   0.0000   0.0000   0.3045
  10.700   1.6346   0.03264   0.02737  -0.1102  0.0159  1.0000  -7.3759   0.0000   0.0000   0.0000   0.3036
  10.800   1.6402   0.03300   0.02775  -0.1094  0.0157  1.0000  -7.4793   0.0000   0.0000   0.0000   0.3027
  10.900   1.6455   0.03340   0.02818  -0.1085  0.0156  1.0000  -7.5794   0.0000   0.0000   0.0000   0.3018
  11.000   1.6503   0.03388   0.02869  -0.1075  0.0154  1.0000  -7.6745   0.0000   0.0000   0.0000   0.3008
  11.100   1.6544   0.03447   0.02932  -0.1065  0.0152  1.0000  -7.7621   0.0000   0.0000   0.0000   0.2999
  11.200   1.6576   0.03522   0.03013  -0.1054  0.0149  1.0000  -7.8382   0.0000   0.0000   0.0000   0.2989
  11.300   1.6592   0.03627   0.03125  -0.1040  0.0147  1.0000  -7.8939   0.0000   0.0000   0.0000   0.2979
  11.400   1.6566   0.03806   0.03318  -0.1021  0.0143  1.0000  -7.8989   0.0000   0.0000   0.0000   0.2967
  11.600   1.6018   0.04738   0.04323  -0.0918  0.0133  1.0000  -7.4161   0.0000   0.0000   0.0000   0.2924
  11.700   1.6047   0.04722   0.04307  -0.0905  0.0133  1.0000  -7.5214   0.0000   0.0000   0.0000   0.2913
  11.800   1.6076   0.04712   0.04297  -0.0892  0.0132  1.0000  -7.6264   0.0000   0.0000   0.0000   0.2902
  11.900   1.6110   0.04703   0.04288  -0.0881  0.0132  1.0000  -7.7343   0.0000   0.0000   0.0000   0.2892
  12.000   1.6148   0.04697   0.04282  -0.0870  0.0132  1.0000  -7.8448   0.0000   0.0000   0.0000   0.2882
  12.100   1.6184   0.04694   0.04279  -0.0859  0.0131  1.0000  -7.9541   0.0000   0.0000   0.0000   0.2872
  12.200   1.6220   0.04695   0.04280  -0.0849  0.0131  1.0000  -8.0637   0.0000   0.0000   0.0000   0.2863
  12.300   1.6259   0.04696   0.04281  -0.0840  0.0131  1.0000  -8.1753   0.0000   0.0000   0.0000   0.2854
  12.400   1.6299   0.04700   0.04285  -0.0831  0.0130  1.0000  -8.2876   0.0000   0.0000   0.0000   0.2845
  12.500   1.6337   0.04706   0.04292  -0.0822  0.0130  1.0000  -8.3988   0.0000   0.0000   0.0000   0.2836
  12.600   1.6449   0.04612   0.04195  -0.0820  0.0129  1.0000  -8.5883   0.0000   0.0000   0.0000   0.2830
  12.700   1.6502   0.04602   0.04185  -0.0813  0.0128  1.0000  -8.7157   0.0000   0.0000   0.0000   0.2822
  12.800   1.6545   0.04605   0.04187  -0.0806  0.0128  1.0000  -8.8340   0.0000   0.0000   0.0000   0.2814
  12.900   1.6585   0.04612   0.04195  -0.0798  0.0127  1.0000  -8.9493   0.0000   0.0000   0.0000   0.2806
  13.000   1.6623   0.04625   0.04207  -0.0790  0.0126  1.0000  -9.0630   0.0000   0.0000   0.0000   0.2798
  13.100   1.6662   0.04639   0.04222  -0.0783  0.0126  1.0000  -9.1770   0.0000   0.0000   0.0000   0.2791
  13.200   1.6700   0.04657   0.04240  -0.0776  0.0125  1.0000  -9.2911   0.0000   0.0000   0.0000   0.2784
  13.300   1.6739   0.04677   0.04260  -0.0769  0.0124  1.0000  -9.4057   0.0000   0.0000   0.0000   0.2777
  13.400   1.6780   0.04698   0.04282  -0.0763  0.0124  1.0000  -9.5218   0.0000   0.0000   0.0000   0.2770
  13.500   1.6819   0.04722   0.04306  -0.0758  0.0123  1.0000  -9.6371   0.0000   0.0000   0.0000   0.2763
  13.600   1.6860   0.04747   0.04332  -0.0752  0.0122  1.0000  -9.7536   0.0000   0.0000   0.0000   0.2757
  13.700   1.6902   0.04773   0.04358  -0.0747  0.0121  1.0000  -9.8714   0.0000   0.0000   0.0000   0.2751
  13.800   1.6942   0.04803   0.04389  -0.0743  0.0120  1.0000  -9.9868   0.0000   0.0000   0.0000   0.2745
  13.900   1.6982   0.04835   0.04421  -0.0738  0.0119  1.0000  -10.1027   0.0000   0.0000   0.0000   0.2739
  14.000   1.7024   0.04867   0.04453  -0.0734  0.0117  1.0000  -10.2199   0.0000   0.0000   0.0000   0.2733
  14.100   1.7064   0.04903   0.04490  -0.0730  0.0116  1.0000  -10.3347   0.0000   0.0000   0.0000   0.2727
  14.200   1.7100   0.04944   0.04532  -0.0725  0.0114  1.0000  -10.4461   0.0000   0.0000   0.0000   0.2722
  14.300   1.7138   0.04986   0.04575  -0.0722  0.0113  1.0000  -10.5582   0.0000   0.0000   0.0000   0.2716
  14.400   1.7178   0.05027   0.04616  -0.0718  0.0111  1.0000  -10.6723   0.0000   0.0000   0.0000   0.2711
  14.500   1.7215   0.05072   0.04662  -0.0715  0.0109  1.0000  -10.7834   0.0000   0.0000   0.0000   0.2706
  14.600   1.7247   0.05125   0.04716  -0.0711  0.0107  1.0000  -10.8876   0.0000   0.0000   0.0000   0.2701
  14.700   1.7277   0.05182   0.04774  -0.0708  0.0105  1.0000  -10.9895   0.0000   0.0000   0.0000   0.2696
  14.800   1.7306   0.05242   0.04835  -0.0705  0.0103  1.0000  -11.0892   0.0000   0.0000   0.0000   0.2691
  14.900   1.7331   0.05309   0.04904  -0.0701  0.0101  1.0000  -11.1827   0.0000   0.0000   0.0000   0.2686
  15.000   1.7343   0.05393   0.04991  -0.0698  0.0099  1.0000  -11.2622   0.0000   0.0000   0.0000   0.2682
  15.100   1.7349   0.05486   0.05087  -0.0695  0.0097  1.0000  -11.3345   0.0000   0.0000   0.0000   0.2677
  15.200   1.7352   0.05584   0.05188  -0.0691  0.0096  1.0000  -11.4024   0.0000   0.0000   0.0000   0.2673
  15.300   1.7349   0.05693   0.05300  -0.0688  0.0094  1.0000  -11.4618   0.0000   0.0000   0.0000   0.2669
  15.400   1.7329   0.05824   0.05436  -0.0685  0.0093  1.0000  -11.5051   0.0000   0.0000   0.0000   0.2665
  15.500   1.7307   0.05959   0.05576  -0.0682  0.0092  1.0000  -11.5448   0.0000   0.0000   0.0000   0.2662
  15.600   1.7283   0.06100   0.05721  -0.0679  0.0091  1.0000  -11.5809   0.0000   0.0000   0.0000   0.2658
  15.700   1.7246   0.06260   0.05888  -0.0678  0.0090  1.0000  -11.6030   0.0000   0.0000   0.0000   0.2656
  15.800   1.7201   0.06434   0.06067  -0.0676  0.0089  1.0000  -11.6172   0.0000   0.0000   0.0000   0.2654
  15.900   1.7156   0.06606   0.06246  -0.0675  0.0088  1.0000  -11.6296   0.0000   0.0000   0.0000   0.2652
  16.000   1.7097   0.06795   0.06441  -0.0674  0.0087  1.0000  -11.6287   0.0000   0.0000   0.0000   0.2650
  16.100   1.7028   0.07003   0.06656  -0.0675  0.0087  1.0000  -11.6175   0.0000   0.0000   0.0000   0.2650
  16.200   1.6963   0.07210   0.06870  -0.0675  0.0086  1.0000  -11.6074   0.0000   0.0000   0.0000   0.2649
  16.300   1.6887   0.07444   0.07111  -0.0678  0.0086  1.0000  -11.5845   0.0000   0.0000   0.0000   0.2651
  16.400   1.6806   0.07692   0.07367  -0.0682  0.0086  1.0000  -11.5545   0.0000   0.0000   0.0000   0.2652
  16.500   1.6727   0.07942   0.07624  -0.0686  0.0085  1.0000  -11.5239   0.0000   0.0000   0.0000   0.2655
  16.600   1.6630   0.08232   0.07923  -0.0694  0.0085  1.0000  -11.4741   0.0000   0.0000   0.0000   0.2659
  16.700   1.6538   0.08521   0.08220  -0.0702  0.0085  1.0000  -11.4245   0.0000   0.0000   0.0000   0.2664
  16.800   1.6435   0.08836   0.08544  -0.0712  0.0085  1.0000  -11.3622   0.0000   0.0000   0.0000   0.2670
  16.900   1.6326   0.09172   0.08888  -0.0724  0.0085  1.0000  -11.2898   0.0000   0.0000   0.0000   0.2678
  17.000   1.6213   0.09521   0.09247  -0.0737  0.0085  1.0000  -11.2098   0.0000   0.0000   0.0000   0.2687
  17.100   1.6087   0.09908   0.09642  -0.0754  0.0085  1.0000  -11.1128   0.0000   0.0000   0.0000   0.2699
  17.200   1.5959   0.10308   0.10051  -0.0773  0.0084  1.0000  -11.0072   0.0000   0.0000   0.0000   0.2712
  17.300   1.5818   0.10743   0.10496  -0.0794  0.0085  1.0000  -10.8837   0.0000   0.0000   0.0000   0.2728
  17.400   1.5666   0.11217   0.10980  -0.0819  0.0085  1.0000  -10.7412   0.0000   0.0000   0.0000   0.2747
  17.500   1.5509   0.11706   0.11479  -0.0846  0.0085  1.0000  -10.5858   0.0000   0.0000   0.0000   0.2767
  17.600   1.5328   0.12272   0.12055  -0.0879  0.0085  1.0000  -10.3931   0.0000   0.0000   0.0000   0.2793
  17.700   1.5126   0.12900   0.12694  -0.0917  0.0086  1.0000  -10.1645   0.0000   0.0000   0.0000   0.2824
  17.800   1.4892   0.13627   0.13433  -0.0962  0.0086  1.0000  -9.8778   0.0000   0.0000   0.0000   0.2863
  17.900   1.4573   0.14597   0.14417  -0.1024  0.0087  1.0000  -9.4509   0.0000   0.0000   0.0000   0.2919
  19.200   1.1748   0.28705   0.28552  -0.1644  0.0131  1.0000  -2.0189   0.0000   0.0000   0.0000   0.3654
  19.300   1.1757   0.28919   0.28766  -0.1650  0.0131  1.0000  -2.0184   0.0000   0.0000   0.0000   0.3657
  19.400   1.1766   0.29133   0.28980  -0.1656  0.0131  1.0000  -2.0229   0.0000   0.0000   0.0000   0.3659
  19.500   1.1774   0.29347   0.29195  -0.1662  0.0131  1.0000  -2.0275   0.0000   0.0000   0.0000   0.3662
  19.600   1.1782   0.29562   0.29410  -0.1668  0.0131  1.0000  -2.0319   0.0000   0.0000   0.0000   0.3664
  19.700   1.1790   0.29778   0.29626  -0.1674  0.0131  1.0000  -2.0362   0.0000   0.0000   0.0000   0.3666
  19.800   1.1797   0.29994   0.29842  -0.1680  0.0131  1.0000  -2.0405   0.0000   0.0000   0.0000   0.3669
  19.900   1.1803   0.30209   0.30057  -0.1686  0.0131  1.0000  -2.0448   0.0000   0.0000   0.0000   0.3671
  20.000   1.1810   0.30424   0.30272  -0.1692  0.0131  1.0000  -2.0491   0.0000   0.0000   0.0000   0.3673
  20.100   1.1816   0.30639   0.30488  -0.1697  0.0131  1.0000  -2.0535   0.0000   0.0000   0.0000   0.3675
  20.200   1.1821   0.30853   0.30702  -0.1703  0.0131  1.0000  -2.0579   0.0000   0.0000   0.0000   0.3677
  20.300   1.1826   0.31068   0.30917  -0.1708  0.0131  1.0000  -2.0623   0.0000   0.0000   0.0000   0.3679
  20.400   1.1831   0.31282   0.31131  -0.1714  0.0131  1.0000  -2.0666   0.0000   0.0000   0.0000   0.3681
  20.500   1.1835   0.31495   0.31345  -0.1719  0.0130  1.0000  -2.0707   0.0000   0.0000   0.0000   0.3683
  20.600   1.1839   0.31709   0.31559  -0.1724  0.0130  1.0000  -2.0748   0.0000   0.0000   0.0000   0.3685
  20.700   1.1842   0.31922   0.31772  -0.1729  0.0130  1.0000  -2.0787   0.0000   0.0000   0.0000   0.3687
  20.800   1.1844   0.32134   0.31985  -0.1734  0.0130  1.0000  -2.0826   0.0000   0.0000   0.0000   0.3689
  20.900   1.1846   0.32346   0.32197  -0.1739  0.0130  1.0000  -2.0863   0.0000   0.0000   0.0000   0.3691
  21.000   1.1847   0.32557   0.32408  -0.1744  0.0130  1.0000  -2.0898   0.0000   0.0000   0.0000   0.3693
  21.100   1.1848   0.32768   0.32619  -0.1749  0.0130  1.0000  -2.0931   0.0000   0.0000   0.0000   0.3695
  21.200   1.1848   0.32977   0.32829  -0.1753  0.0130  1.0000  -2.0962   0.0000   0.0000   0.0000   0.3697
  21.300   1.1847   0.33186   0.33039  -0.1757  0.0130  1.0000  -2.0989   0.0000   0.0000   0.0000   0.3699
  21.400   1.1845   0.33395   0.33248  -0.1762  0.0130  1.0000  -2.1008   0.0000   0.0000   0.0000   0.3700
  21.500   1.1842   0.33603   0.33456  -0.1766  0.0130  1.0000  -2.1022   0.0000   0.0000   0.0000   0.3702
  21.600   1.1838   0.33809   0.33662  -0.1770  0.0129  1.0000  -2.1030   0.0000   0.0000   0.0000   0.3704
  21.700   1.1834   0.34014   0.33868  -0.1773  0.0129  1.0000  -2.1030   0.0000   0.0000   0.0000   0.3706
  21.800   1.1828   0.34218   0.34072  -0.1777  0.0129  1.0000  -2.1020   0.0000   0.0000   0.0000   0.3708
  21.900   1.1821   0.34420   0.34274  -0.1780  0.0129  1.0000  -2.0996   0.0000   0.0000   0.0000   0.3709
  22.000   1.1812   0.34620   0.34475  -0.1783  0.0129  1.0000  -2.0951   0.0000   0.0000   0.0000   0.3711
  22.100   1.1802   0.34822   0.34678  -0.1787  0.0128  1.0000  -2.0850   0.0000   0.0000   0.0000   0.3713
  22.200   1.1791   0.35027   0.34883  -0.1790  0.0128  1.0000  -2.0643   0.0000   0.0000   0.0000   0.3716
  22.300   1.1783   0.35244   0.35100  -0.1796  0.0126  1.0000  -2.0056   0.0000   0.0000   0.0000   0.3720
  22.700   1.1793   0.35902   0.35759  -0.1812  0.0087  1.0000  -1.9717   0.0000   0.0000   0.0000   0.3725
  22.800   1.1775   0.36040   0.35897  -0.1812  0.0082  1.0000  -1.9897   0.0000   0.0000   0.0000   0.3725
  22.900   1.1754   0.36170   0.36028  -0.1812  0.0079  1.0000  -2.0082   0.0000   0.0000   0.0000   0.3725
  23.000   1.1728   0.36290   0.36149  -0.1810  0.0076  1.0000  -2.0265   0.0000   0.0000   0.0000   0.3724
  23.100   1.1695   0.36399   0.36258  -0.1807  0.0074  1.0000  -2.0441   0.0000   0.0000   0.0000   0.3724
  23.200   1.1654   0.36491   0.36351  -0.1803  0.0072  1.0000  -2.0596   0.0000   0.0000   0.0000   0.3724
  23.400   1.0237   0.33558   0.33425  -0.1564  0.0074  1.0000  -1.6679   0.0000   0.0000   0.0000   0.3716
  23.500   1.0200   0.33536   0.33403  -0.1560  0.0072  1.0000  -1.6808   0.0000   0.0000   0.0000   0.3716
  23.600   1.0166   0.33518   0.33385  -0.1557  0.0070  1.0000  -1.6954   0.0000   0.0000   0.0000   0.3715
  23.700   1.0135   0.33502   0.33370  -0.1554  0.0069  1.0000  -1.7116   0.0000   0.0000   0.0000   0.3715
  23.800   1.0106   0.33488   0.33356  -0.1551  0.0067  1.0000  -1.7291   0.0000   0.0000   0.0000   0.3714
  23.900   1.0078   0.33475   0.33344  -0.1548  0.0066  1.0000  -1.7479   0.0000   0.0000   0.0000   0.3713
  24.000   1.0052   0.33462   0.33331  -0.1546  0.0065  1.0000  -1.7679   0.0000   0.0000   0.0000   0.3713
  24.100   1.0027   0.33450   0.33320  -0.1543  0.0064  1.0000  -1.7891   0.0000   0.0000   0.0000   0.3712
  24.200   1.0003   0.33438   0.33309  -0.1541  0.0063  1.0000  -1.8112   0.0000   0.0000   0.0000   0.3711
  24.300   0.9980   0.33427   0.33297  -0.1539  0.0062  1.0000  -1.8344   0.0000   0.0000   0.0000   0.3709
  24.400   0.9958   0.33414   0.33285  -0.1536  0.0062  1.0000  -1.8585   0.0000   0.0000   0.0000   0.3708
  24.500   0.9936   0.33401   0.33273  -0.1534  0.0061  1.0000  -1.8834   0.0000   0.0000   0.0000   0.3707
  24.600   0.9911   0.33392   0.33264  -0.1532  0.0060  1.0000  -1.9014   0.0000   0.0000   0.0000   0.3706
  24.700   0.9879   0.33375   0.33247  -0.1529  0.0059  1.0000  -1.9138   0.0000   0.0000   0.0000   0.3705
  25.000   0.9587   0.33510   0.33382  -0.1505  0.0054  1.0000  -1.4632   0.0000   0.0000   0.0000   0.3730
  25.100   0.9564   0.33544   0.33417  -0.1505  0.0054  1.0000  -1.4452   0.0000   0.0000   0.0000   0.3732
  25.200   0.9541   0.33579   0.33452  -0.1504  0.0054  1.0000  -1.4279   0.0000   0.0000   0.0000   0.3733
  25.300   0.9519   0.33615   0.33489  -0.1504  0.0054  1.0000  -1.4112   0.0000   0.0000   0.0000   0.3735
  25.400   0.9498   0.33652   0.33526  -0.1504  0.0054  1.0000  -1.3953   0.0000   0.0000   0.0000   0.3736
  25.500   0.9478   0.33689   0.33563  -0.1503  0.0054  1.0000  -1.3798   0.0000   0.0000   0.0000   0.3738
  25.600   0.9458   0.33727   0.33602  -0.1503  0.0054  1.0000  -1.3650   0.0000   0.0000   0.0000   0.3739
  25.700   0.9439   0.33765   0.33644  -0.1503  0.0054  1.0000  -1.3524   0.0000   0.0000   0.0000   0.3740
  25.800   0.9420   0.33804   0.33683  -0.1504  0.0054  1.0000  -1.3391   0.0000   0.0000   0.0000   0.3742
  25.900   0.9402   0.33844   0.33723  -0.1504  0.0054  1.0000  -1.3258   0.0000   0.0000   0.0000   0.3743
  26.000   0.9385   0.33884   0.33763  -0.1504  0.0054  1.0000  -1.3129   0.0000   0.0000   0.0000   0.3744
  26.100   0.9368   0.33925   0.33805  -0.1505  0.0054  1.0000  -1.3001   0.0000   0.0000   0.0000   0.3746
  26.200   0.9352   0.33966   0.33846  -0.1505  0.0054  1.0000  -1.2875   0.0000   0.0000   0.0000   0.3747
  26.300   0.9336   0.34008   0.33889  -0.1506  0.0054  1.0000  -1.2753   0.0000   0.0000   0.0000   0.3748
  26.400   0.9320   0.34051   0.33931  -0.1506  0.0054  1.0000  -1.2634   0.0000   0.0000   0.0000   0.3750
  26.500   0.9305   0.34093   0.33975  -0.1507  0.0053  1.0000  -1.2518   0.0000   0.0000   0.0000   0.3751
  26.600   0.9291   0.34137   0.34018  -0.1508  0.0053  1.0000  -1.2406   0.0000   0.0000   0.0000   0.3752
  26.700   0.9276   0.34180   0.34062  -0.1509  0.0053  1.0000  -1.2296   0.0000   0.0000   0.0000   0.3754
  26.800   0.9263   0.34224   0.34106  -0.1510  0.0053  1.0000  -1.2189   0.0000   0.0000   0.0000   0.3755
  26.900   0.9249   0.34269   0.34151  -0.1511  0.0053  1.0000  -1.2086   0.0000   0.0000   0.0000   0.3756
  27.000   0.9236   0.34314   0.34197  -0.1512  0.0053  1.0000  -1.1987   0.0000   0.0000   0.0000   0.3758
  27.100   0.9224   0.34360   0.34243  -0.1513  0.0053  1.0000  -1.1892   0.0000   0.0000   0.0000   0.3759
  27.200   0.9212   0.34406   0.34290  -0.1515  0.0053  1.0000  -1.1801   0.0000   0.0000   0.0000   0.3760
  27.300   0.9201   0.34453   0.34337  -0.1516  0.0053  1.0000  -1.1806   0.0000   0.0000   0.0000   0.3762
  27.400   0.9189   0.34500   0.34385  -0.1517  0.0053  1.0000  -1.1851   0.0000   0.0000   0.0000   0.3763
  27.500   0.9178   0.34547   0.34432  -0.1519  0.0053  1.0000  -1.1898   0.0000   0.0000   0.0000   0.3764
  27.600   0.9167   0.34595   0.34480  -0.1520  0.0053  1.0000  -1.1945   0.0000   0.0000   0.0000   0.3766
  27.700   0.9157   0.34642   0.34528  -0.1522  0.0053  1.0000  -1.1991   0.0000   0.0000   0.0000   0.3767
  27.800   0.9146   0.34689   0.34575  -0.1523  0.0053  1.0000  -1.2036   0.0000   0.0000   0.0000   0.3768
  27.900   0.9135   0.34737   0.34623  -0.1525  0.0053  1.0000  -1.2083   0.0000   0.0000   0.0000   0.3769
  28.000   0.9125   0.34785   0.34672  -0.1527  0.0053  1.0000  -1.2129   0.0000   0.0000   0.0000   0.3771
  28.100   0.9115   0.34833   0.34720  -0.1528  0.0053  1.0000  -1.2176   0.0000   0.0000   0.0000   0.3772
  28.200   0.9105   0.34882   0.34769  -0.1530  0.0053  1.0000  -1.2223   0.0000   0.0000   0.0000   0.3773
  28.300   0.9096   0.34931   0.34819  -0.1532  0.0053  1.0000  -1.2269   0.0000   0.0000   0.0000   0.3774
  28.400   0.9086   0.34980   0.34868  -0.1533  0.0052  1.0000  -1.2315   0.0000   0.0000   0.0000   0.3776
  28.500   0.9077   0.35029   0.34918  -0.1535  0.0052  1.0000  -1.2360   0.0000   0.0000   0.0000   0.3777
  28.600   0.9068   0.35079   0.34969  -0.1537  0.0052  1.0000  -1.2404   0.0000   0.0000   0.0000   0.3778
  28.700   0.9059   0.35129   0.35019  -0.1539  0.0052  1.0000  -1.2446   0.0000   0.0000   0.0000   0.3779
  28.800   0.9051   0.35180   0.35070  -0.1541  0.0052  1.0000  -1.2485   0.0000   0.0000   0.0000   0.3781
  28.900   0.9042   0.35232   0.35122  -0.1543  0.0052  1.0000  -1.2520   0.0000   0.0000   0.0000   0.3782
  29.000   0.9034   0.35284   0.35175  -0.1545  0.0052  1.0000  -1.2547   0.0000   0.0000   0.0000   0.3783
  29.100   0.9026   0.35340   0.35231  -0.1547  0.0052  1.0000  -1.2556   0.0000   0.0000   0.0000   0.3785
  29.200   0.9018   0.35397   0.35288  -0.1549  0.0052  1.0000  -1.2548   0.0000   0.0000   0.0000   0.3786
  29.300   0.9011   0.35457   0.35349  -0.1552  0.0051  1.0000  -1.2509   0.0000   0.0000   0.0000   0.3788
  29.400   0.9004   0.35525   0.35418  -0.1555  0.0051  1.0000  -1.2382   0.0000   0.0000   0.0000   0.3789
  29.500   0.9001   0.35651   0.35543  -0.1558  0.0049  1.0000  -1.1508   0.0000   0.0000   0.0000   0.3792
  29.600   0.8991   0.35737   0.35630  -0.1559  0.0049  1.0000  -1.0951   0.0000   0.0000   0.0000   0.3794
  29.700   0.8981   0.35806   0.35699  -0.1560  0.0049  1.0000  -1.0642   0.0000   0.0000   0.0000   0.3795
  29.800   0.8972   0.35872   0.35766  -0.1562  0.0049  1.0000  -1.0414   0.0000   0.0000   0.0000   0.3796
  29.900   0.8964   0.35936   0.35830  -0.1564  0.0048  1.0000  -1.0229   0.0000   0.0000   0.0000   0.3797
  30.000   0.8956   0.35999   0.35893  -0.1566  0.0048  1.0000  -1.0072   0.0000   0.0000   0.0000   0.3799


