xflr5 v6.61

 Calculated polar for: CLARK YS

 1 1 Reynolds number fixed          Mach number fixed         

 xtrf =   1.000 (top)        1.000 (bottom)
 Mach =   0.000     Re =     0.400 e 6     Ncrit =   9.000

  alpha     CL        CD       CDp       Cm    Top Xtr Bot Xtr   Cpmin    Chinge    XCp    
 ------- -------- --------- --------- -------- ------- ------- -------- --------- ---------
 -10.000  -0.5389   0.10840   0.10534   0.0147  0.7983  0.0496  -1.7648   0.0000   0.0000   0.0000   0.2692
  -9.900  -0.5384   0.10673   0.10366   0.0138  0.7978  0.0497  -1.7605   0.0000   0.0000   0.0000   0.2677
  -9.800  -0.5381   0.10503   0.10196   0.0128  0.7973  0.0497  -1.7571   0.0000   0.0000   0.0000   0.2660
  -9.700  -0.5380   0.10329   0.10023   0.0117  0.7968  0.0497  -1.7552   0.0000   0.0000   0.0000   0.2642
  -9.600  -0.5382   0.10152   0.09846   0.0106  0.7963  0.0497  -1.7550   0.0000   0.0000   0.0000   0.2622
  -9.500  -0.5386   0.09970   0.09664   0.0094  0.7957  0.0497  -1.7570   0.0000   0.0000   0.0000   0.2600
  -9.400  -0.5392   0.09779   0.09474   0.0080  0.7951  0.0498  -1.7618   0.0000   0.0000   0.0000   0.2575
  -9.300  -0.5400   0.09573   0.09268   0.0062  0.7944  0.0498  -1.7788   0.0000   0.0000   0.0000   0.2544
  -9.200  -0.5411   0.09352   0.09046   0.0041  0.7937  0.0498  -1.8049   0.0000   0.0000   0.0000   0.2507
  -9.100  -0.5423   0.09131   0.08824   0.0022  0.7929  0.0498  -1.8319   0.0000   0.0000   0.0000   0.2472
  -9.000  -0.5442   0.08916   0.08609   0.0006  0.7921  0.0498  -1.8596   0.0000   0.0000   0.0000   0.2444
  -8.900  -0.5472   0.08710   0.08401  -0.0007  0.7912  0.0498  -1.8879   0.0000   0.0000   0.0000   0.2421
  -8.800  -0.5504   0.08517   0.08205  -0.0017  0.7903  0.0499  -1.9146   0.0000   0.0000   0.0000   0.2406
  -8.700  -0.5528   0.08323   0.08009  -0.0025  0.7893  0.0499  -1.9401   0.0000   0.0000   0.0000   0.2392
  -8.600  -0.5551   0.08138   0.07821  -0.0031  0.7883  0.0499  -1.9634   0.0000   0.0000   0.0000   0.2382
  -8.500  -0.5574   0.07963   0.07643  -0.0035  0.7872  0.0499  -1.9858   0.0000   0.0000   0.0000   0.2377
  -8.400  -0.5596   0.07795   0.07472  -0.0037  0.7861  0.0499  -2.0065   0.0000   0.0000   0.0000   0.2375
  -8.300  -0.5606   0.07625   0.07298  -0.0040  0.7850  0.0499  -2.0242   0.0000   0.0000   0.0000   0.2370
  -8.200  -0.5611   0.07458   0.07126  -0.0042  0.7839  0.0499  -2.0404   0.0000   0.0000   0.0000   0.2367
  -8.100  -0.5612   0.07293   0.06957  -0.0043  0.7827  0.0499  -2.0551   0.0000   0.0000   0.0000   0.2366
  -8.000  -0.5608   0.07134   0.06793  -0.0044  0.7814  0.0500  -2.0676   0.0000   0.0000   0.0000   0.2365
  -7.900  -0.5601   0.06980   0.06634  -0.0044  0.7802  0.0500  -2.0778   0.0000   0.0000   0.0000   0.2366
  -7.800  -0.5590   0.06830   0.06480  -0.0043  0.7789  0.0500  -2.0862   0.0000   0.0000   0.0000   0.2367
  -7.700  -0.5575   0.06683   0.06328  -0.0042  0.7775  0.0500  -2.0930   0.0000   0.0000   0.0000   0.2369
  -7.600  -0.5556   0.06540   0.06179  -0.0041  0.7762  0.0500  -2.0984   0.0000   0.0000   0.0000   0.2372
  -7.500  -0.6073   0.05143   0.04746  -0.0032  0.7757  0.0526  -2.4755   0.0000   0.0000   0.0000   0.2391
  -7.400  -0.6042   0.04998   0.04598  -0.0029  0.7743  0.0533  -2.4591   0.0000   0.0000   0.0000   0.2397
  -7.300  -0.5995   0.04895   0.04493  -0.0026  0.7729  0.0538  -2.4318   0.0000   0.0000   0.0000   0.2402
  -7.200  -0.5941   0.04810   0.04406  -0.0023  0.7714  0.0543  -2.4004   0.0000   0.0000   0.0000   0.2407
  -7.100  -0.5881   0.04733   0.04328  -0.0021  0.7699  0.0548  -2.3675   0.0000   0.0000   0.0000   0.2412
  -7.000  -0.5812   0.04671   0.04265  -0.0019  0.7684  0.0553  -2.3286   0.0000   0.0000   0.0000   0.2416
  -6.900  -0.5739   0.04615   0.04209  -0.0017  0.7668  0.0558  -2.2884   0.0000   0.0000   0.0000   0.2420
  -6.800  -0.5667   0.04558   0.04152  -0.0014  0.7652  0.0563  -2.2498   0.0000   0.0000   0.0000   0.2424
  -6.700  -0.5595   0.04500   0.04093  -0.0012  0.7636  0.0568  -2.2129   0.0000   0.0000   0.0000   0.2428
  -6.600  -0.5521   0.04447   0.04039  -0.0010  0.7620  0.0574  -2.1742   0.0000   0.0000   0.0000   0.2433
  -6.500  -0.5444   0.04411   0.04004  -0.0008  0.7603  0.0582  -2.1288   0.0000   0.0000   0.0000   0.2437
  -6.400  -0.5365   0.04380   0.03973  -0.0006  0.7586  0.0592  -2.0825   0.0000   0.0000   0.0000   0.2441
  -6.300  -0.5288   0.04343   0.03936  -0.0004  0.7569  0.0603  -2.0398   0.0000   0.0000   0.0000   0.2445
  -6.200  -0.5213   0.04296   0.03886  -0.0002  0.7552  0.0616  -2.0033   0.0000   0.0000   0.0000   0.2450
  -6.100  -0.5140   0.04236   0.03822   0.0000  0.7535  0.0629  -1.9734   0.0000   0.0000   0.0000   0.2455
  -6.000  -0.5067   0.04166   0.03748   0.0003  0.7518  0.0643  -1.9490   0.0000   0.0000   0.0000   0.2461
  -5.900  -0.4995   0.04089   0.03665   0.0006  0.7501  0.0656  -1.9297   0.0000   0.0000   0.0000   0.2468
  -5.800  -0.4923   0.04008   0.03578   0.0010  0.7483  0.0669  -1.9137   0.0000   0.0000   0.0000   0.2476
  -5.700  -0.4849   0.03932   0.03495   0.0014  0.7466  0.0680  -1.8978   0.0000   0.0000   0.0000   0.2484
  -5.600  -0.4770   0.03869   0.03425   0.0018  0.7448  0.0693  -1.8800   0.0000   0.0000   0.0000   0.2493
  -5.500  -0.4683   0.03828   0.03378   0.0022  0.7430  0.0706  -1.8583   0.0000   0.0000   0.0000   0.2501
  -5.400  -0.4582   0.03828   0.03371   0.0025  0.7410  0.0720  -1.8284   0.0000   0.0000   0.0000   0.2509
  -5.300  -0.4460   0.03899   0.03438   0.0027  0.7389  0.0734  -1.7835   0.0000   0.0000   0.0000   0.2516
  -5.200  -0.4341   0.03977   0.03513   0.0029  0.7367  0.0742  -1.7373   0.0000   0.0000   0.0000   0.2524
  -5.100  -0.4246   0.03976   0.03506   0.0033  0.7345  0.0745  -1.7070   0.0000   0.0000   0.0000   0.2534
  -5.000  -0.4162   0.03940   0.03464   0.0037  0.7322  0.0747  -1.6834   0.0000   0.0000   0.0000   0.2545
  -4.900  -0.4081   0.03889   0.03406   0.0041  0.7298  0.0748  -1.6628   0.0000   0.0000   0.0000   0.2557
  -4.800  -0.4002   0.03830   0.03341   0.0045  0.7272  0.0749  -1.6434   0.0000   0.0000   0.0000   0.2570
  -4.700  -0.3923   0.03767   0.03271   0.0050  0.7244  0.0749  -1.6247   0.0000   0.0000   0.0000   0.2583
  -4.600  -0.4052   0.03006   0.02479   0.0068  0.7228  0.0788  -1.7437   0.0000   0.0000   0.0000   0.2622
  -4.500  -0.3972   0.02933   0.02404   0.0070  0.7195  0.0797  -1.7142   0.0000   0.0000   0.0000   0.2632
  -4.400  -0.3886   0.02879   0.02349   0.0072  0.7158  0.0806  -1.6820   0.0000   0.0000   0.0000   0.2641
  -4.300  -0.3792   0.02835   0.02307   0.0073  0.7116  0.0813  -1.6472   0.0000   0.0000   0.0000   0.2648
  -4.200  -0.3697   0.02799   0.02272   0.0073  0.7068  0.0822  -1.6124   0.0000   0.0000   0.0000   0.2654
  -4.100  -0.3599   0.02774   0.02248   0.0073  0.7008  0.0830  -1.5778   0.0000   0.0000   0.0000   0.2658
  -4.000  -0.3503   0.02736   0.02211   0.0074  0.6997  0.0840  -1.5437   0.0000   0.0000   0.0000   0.2668
  -3.900  -0.3407   0.02698   0.02173   0.0076  0.6994  0.0850  -1.5102   0.0000   0.0000   0.0000   0.2679
  -3.800  -0.3310   0.02662   0.02136   0.0078  0.6991  0.0862  -1.4773   0.0000   0.0000   0.0000   0.2692
  -3.700  -0.3212   0.02628   0.02101   0.0080  0.6987  0.0874  -1.4451   0.0000   0.0000   0.0000   0.2705
  -3.600  -0.3113   0.02596   0.02069   0.0082  0.6982  0.0888  -1.4133   0.0000   0.0000   0.0000   0.2719
  -3.500  -0.3013   0.02568   0.02040   0.0083  0.6977  0.0902  -1.3818   0.0000   0.0000   0.0000   0.2735
  -3.400  -0.2911   0.02545   0.02015   0.0085  0.6972  0.0917  -1.3504   0.0000   0.0000   0.0000   0.2751
  -3.300  -0.2807   0.02527   0.01996   0.0087  0.6966  0.0933  -1.3185   0.0000   0.0000   0.0000   0.2768
  -3.200  -0.2700   0.02519   0.01987   0.0089  0.6959  0.0948  -1.2856   0.0000   0.0000   0.0000   0.2786
  -3.100  -0.2589   0.02526   0.01994   0.0090  0.6951  0.0964  -1.2504   0.0000   0.0000   0.0000   0.2805
  -3.000  -0.2470   0.02565   0.02034   0.0091  0.6943  0.0979  -1.2095   0.0000   0.0000   0.0000   0.2824
  -2.900  -0.2333   0.02687   0.02161   0.0089  0.6932  0.0993  -1.1539   0.0000   0.0000   0.0000   0.2840
  -2.700  -0.2169   0.01647   0.00952   0.0131  0.6921  0.0542  -1.5252   0.0000   0.0000   0.0000   0.3048
  -2.600  -0.2058   0.01641   0.00944   0.0132  0.6909  0.0531  -1.4910   0.0000   0.0000   0.0000   0.3085
  -2.500  -0.1949   0.01638   0.00940   0.0133  0.6896  0.0523  -1.4535   0.0000   0.0000   0.0000   0.3125
  -2.400  -0.1840   0.01636   0.00939   0.0134  0.6881  0.0516  -1.4149   0.0000   0.0000   0.0000   0.3170
  -2.300  -0.1731   0.01636   0.00939   0.0135  0.6865  0.0511  -1.3757   0.0000   0.0000   0.0000   0.3220
  -2.200  -0.1613   0.01554   0.00852   0.0136  0.6848  0.0488  -1.3736   0.0000   0.0000   0.0000   0.3279
  -2.100  -0.1500   0.01485   0.00777   0.0137  0.6829  0.0480  -1.3628   0.0000   0.0000   0.0000   0.3346
  -2.000  -0.1389   0.01438   0.00725   0.0138  0.6808  0.0474  -1.3441   0.0000   0.0000   0.0000   0.3424
  -1.900  -0.1280   0.01399   0.00683   0.0139  0.6786  0.0468  -1.3228   0.0000   0.0000   0.0000   0.3516
  -1.800  -0.1172   0.01365   0.00646   0.0140  0.6764  0.0462  -1.2999   0.0000   0.0000   0.0000   0.3625
  -1.700  -0.1065   0.01336   0.00613   0.0142  0.6741  0.0457  -1.2757   0.0000   0.0000   0.0000   0.3756
  -1.600  -0.0959   0.01309   0.00583   0.0144  0.6717  0.0452  -1.2507   0.0000   0.0000   0.0000   0.3917
  -1.500  -0.0854   0.01285   0.00556   0.0146  0.6691  0.0447  -1.2250   0.0000   0.0000   0.0000   0.4118
  -1.400  -0.0750   0.01263   0.00531   0.0148  0.6664  0.0442  -1.1987   0.0000   0.0000   0.0000   0.4375
  -1.300  -0.0647   0.01243   0.00508   0.0150  0.6636  0.0437  -1.1718   0.0000   0.0000   0.0000   0.4714
  -1.200  -0.0544   0.01224   0.00486   0.0152  0.6606  0.0433  -1.1444   0.0000   0.0000   0.0000   0.5181
  -1.100  -0.0441   0.01207   0.00465   0.0154  0.6576  0.0429  -1.1166   0.0000   0.0000   0.0000   0.5865
  -1.000  -0.0338   0.01192   0.00446   0.0157  0.6545  0.0425  -1.0884   0.0000   0.0000   0.0000   0.6964
  -0.900  -0.0235   0.01178   0.00428   0.0159  0.6512  0.0421  -1.0598   0.0000   0.0000   0.0000   0.9026
  -0.800  -0.0132   0.01164   0.00411   0.0161  0.6477  0.0417  -1.0308   0.0000   0.0000   0.0000   1.4303
  -0.700  -0.0029   0.01153   0.00395   0.0163  0.6441  0.0414  -1.0016   0.0000   0.0000   0.0000   5.7336
  -0.600   0.0075   0.01142   0.00381   0.0165  0.6403  0.0410  -0.9720   0.0000   0.0000   0.0000  -1.8955
  -0.500   0.0179   0.01133   0.00367   0.0167  0.6361  0.0407  -0.9421   0.0000   0.0000   0.0000  -0.6596
  -0.400   0.0284   0.01125   0.00356   0.0168  0.6314  0.0404  -0.9120   0.0000   0.0000   0.0000  -0.3312
  -0.300   0.0389   0.01119   0.00345   0.0170  0.6263  0.0401  -0.8816   0.0000   0.0000   0.0000  -0.1787
  -0.200   0.0494   0.01114   0.00337   0.0171  0.6207  0.0398  -0.8507   0.0000   0.0000   0.0000  -0.0901
  -0.100   0.0601   0.01111   0.00330   0.0171  0.6148  0.0395  -0.8193   0.0000   0.0000   0.0000  -0.0317
   0.000   0.0708   0.01110   0.00326   0.0172  0.6089  0.0393  -0.7874   0.0000   0.0000   0.0000   0.0098
   0.100   0.0816   0.01111   0.00324   0.0172  0.6028  0.0390  -0.7552   0.0000   0.0000   0.0000   0.0409
   0.200   0.0924   0.01109   0.00320   0.0172  0.5997  0.0387  -0.7226   0.0000   0.0000   0.0000   0.0647
   0.300   0.1032   0.01103   0.00313   0.0173  0.5992  0.0385  -0.6898   0.0000   0.0000   0.0000   0.0833
   0.400   0.1140   0.01098   0.00306   0.0173  0.5985  0.0383  -0.6735   0.0000   0.0000   0.0000   0.0984
   0.500   0.1248   0.01093   0.00300   0.0173  0.5977  0.0380  -0.6834   0.0000   0.0000   0.0000   0.1109
   0.600   0.1356   0.01088   0.00294   0.0174  0.5968  0.0378  -0.6934   0.0000   0.0000   0.0000   0.1214
   0.700   0.1464   0.01083   0.00288   0.0174  0.5956  0.0376  -0.7034   0.0000   0.0000   0.0000   0.1304
   0.800   0.1572   0.01079   0.00283   0.0174  0.5941  0.0374  -0.7134   0.0000   0.0000   0.0000   0.1381
   0.900   0.1680   0.01075   0.00278   0.0175  0.5923  0.0373  -0.7234   0.0000   0.0000   0.0000   0.1449
   1.000   0.1788   0.01071   0.00273   0.0175  0.5902  0.0372  -0.7334   0.0000   0.0000   0.0000   0.1508
   1.100   0.1896   0.01068   0.00269   0.0175  0.5878  0.0371  -0.7434   0.0000   0.0000   0.0000   0.1560
   1.200   0.2003   0.01064   0.00274   0.0176  0.5846  0.0380  -0.7533   0.0000   0.0000   0.0000   0.1605
   1.300   0.2111   0.01061   0.00269   0.0176  0.5809  0.0381  -0.7633   0.0000   0.0000   0.0000   0.1646
   1.400   0.2218   0.01058   0.00264   0.0177  0.5766  0.0383  -0.7733   0.0000   0.0000   0.0000   0.1682
   1.500   0.2324   0.01055   0.00259   0.0178  0.5717  0.0386  -0.7833   0.0000   0.0000   0.0000   0.1714
   1.600   0.2430   0.01053   0.00253   0.0178  0.5661  0.0390  -0.7933   0.0000   0.0000   0.0000   0.1743
   1.700   0.2536   0.01052   0.00247   0.0179  0.5599  0.0397  -0.8033   0.0000   0.0000   0.0000   0.1769
   1.800   0.2642   0.01052   0.00239   0.0180  0.5529  0.0411  -0.8133   0.0000   0.0000   0.0000   0.1793
   1.900   0.2746   0.01053   0.00235   0.0182  0.5452  0.0436  -0.8231   0.0000   0.0000   0.0000   0.1813
   2.000   0.2847   0.01051   0.00236   0.0183  0.5364  0.0459  -0.8328   0.0000   0.0000   0.0000   0.1829
   2.100   0.2948   0.01052   0.00240   0.0185  0.5259  0.0491  -0.8423   0.0000   0.0000   0.0000   0.1844
   2.300   0.3021   0.00935   0.00240   0.0209  0.5066  0.4149  -0.8532   0.0000   0.0000   0.0000   0.1778
   2.400   0.3042   0.00820   0.00271   0.0231  0.4998  0.8654  -0.8585   0.0000   0.0000   0.0000   0.1710
   2.500   0.3128   0.00826   0.00280   0.0237  0.4985  0.8774  -0.8673   0.0000   0.0000   0.0000   0.1711
   2.600   0.3212   0.00832   0.00286   0.0243  0.4967  0.8839  -0.8759   0.0000   0.0000   0.0000   0.1711
   2.700   0.3294   0.00837   0.00292   0.0249  0.4939  0.8880  -0.8844   0.0000   0.0000   0.0000   0.1709
   2.800   0.3376   0.00843   0.00297   0.0256  0.4897  0.8908  -0.8928   0.0000   0.0000   0.0000   0.1707
   2.900   0.3460   0.00850   0.00302   0.0262  0.4834  0.8930  -0.9014   0.0000   0.0000   0.0000   0.1707
   3.000   0.3542   0.00859   0.00306   0.0268  0.4739  0.8949  -0.9098   0.0000   0.0000   0.0000   0.1706
   3.100   0.3621   0.00871   0.00310   0.0275  0.4608  0.8963  -0.9190   0.0000   0.0000   0.0000   0.1702
   3.200   0.3696   0.00889   0.00317   0.0283  0.4445  0.8975  -0.9323   0.0000   0.0000   0.0000   0.1695
   3.300   0.3769   0.00911   0.00327   0.0291  0.4224  0.8985  -0.9505   0.0000   0.0000   0.0000   0.1688
   3.400   0.3855   0.00934   0.00342   0.0297  0.3992  0.8992  -0.9708   0.0000   0.0000   0.0000   0.1690
   3.500   0.3956   0.00953   0.00359   0.0300  0.3942  0.8998  -0.9933   0.0000   0.0000   0.0000   0.1701
   3.600   0.4068   0.00962   0.00363   0.0299  0.3871  0.9029  -1.0169   0.0000   0.0000   0.0000   0.1723
   3.700   0.4198   0.00974   0.00367   0.0294  0.3780  0.9069  -1.0426   0.0000   0.0000   0.0000   0.1757
   3.800   0.4328   0.00992   0.00374   0.0289  0.3679  0.9097  -1.0684   0.0000   0.0000   0.0000   0.1789
   3.900   0.4453   0.01014   0.00384   0.0284  0.3565  0.9119  -1.0936   0.0000   0.0000   0.0000   0.1816
   4.000   0.4581   0.01039   0.00400   0.0280  0.3417  0.9138  -1.1188   0.0000   0.0000   0.0000   0.1844
   4.100   0.4733   0.01069   0.00426   0.0271  0.3294  0.9161  -1.1466   0.0000   0.0000   0.0000   0.1880
   4.300   0.7272   0.01218   0.00581  -0.0194  0.3077  1.0000  -1.4665   0.0000   0.0000   0.0000   0.2720
   4.400   0.7379   0.01226   0.00592  -0.0195  0.3064  1.0000  -1.4911   0.0000   0.0000   0.0000   0.2716
   4.500   0.7486   0.01235   0.00604  -0.0196  0.3051  1.0000  -1.5158   0.0000   0.0000   0.0000   0.2712
   4.600   0.7594   0.01245   0.00617  -0.0196  0.3036  1.0000  -1.5404   0.0000   0.0000   0.0000   0.2708
   4.700   0.7701   0.01256   0.00632  -0.0197  0.3018  1.0000  -1.5651   0.0000   0.0000   0.0000   0.2705
   4.800   0.7808   0.01268   0.00648  -0.0198  0.3001  1.0000  -1.5899   0.0000   0.0000   0.0000   0.2701
   4.900   0.7912   0.01271   0.00651  -0.0198  0.2999  1.0000  -1.6152   0.0000   0.0000   0.0000   0.2697
   5.000   0.8016   0.01273   0.00654  -0.0198  0.2998  1.0000  -1.6407   0.0000   0.0000   0.0000   0.2693
   5.100   0.8121   0.01276   0.00657  -0.0198  0.2997  1.0000  -1.6662   0.0000   0.0000   0.0000   0.2688
   5.200   0.8224   0.01278   0.00660  -0.0198  0.2996  1.0000  -1.6918   0.0000   0.0000   0.0000   0.2684
   5.300   0.8328   0.01279   0.00661  -0.0197  0.2994  1.0000  -1.7176   0.0000   0.0000   0.0000   0.2679
   5.400   0.8430   0.01277   0.00658  -0.0197  0.2992  1.0000  -1.7436   0.0000   0.0000   0.0000   0.2675
   5.500   0.8530   0.01267   0.00643  -0.0196  0.2988  1.0000  -1.7706   0.0000   0.0000   0.0000   0.2669
   5.600   0.8629   0.01252   0.00624  -0.0194  0.2982  1.0000  -1.7980   0.0000   0.0000   0.0000   0.2664
   5.700   0.8728   0.01239   0.00607  -0.0193  0.2972  1.0000  -1.8257   0.0000   0.0000   0.0000   0.2658
   5.800   0.8829   0.01230   0.00597  -0.0192  0.2958  1.0000  -1.8531   0.0000   0.0000   0.0000   0.2654
   5.900   0.8930   0.01226   0.00593  -0.0191  0.2938  1.0000  -1.8801   0.0000   0.0000   0.0000   0.2649
   6.000   0.9032   0.01226   0.00593  -0.0191  0.2914  1.0000  -1.9069   0.0000   0.0000   0.0000   0.2645
   6.100   0.9135   0.01228   0.00596  -0.0191  0.2891  1.0000  -1.9334   0.0000   0.0000   0.0000   0.2642
   6.200   0.9238   0.01232   0.00601  -0.0191  0.2869  1.0000  -1.9630   0.0000   0.0000   0.0000   0.2638
   6.300   0.9341   0.01237   0.00605  -0.0190  0.2842  1.0000  -1.9976   0.0000   0.0000   0.0000   0.2634
   6.400   0.9444   0.01242   0.00610  -0.0190  0.2809  1.0000  -2.0323   0.0000   0.0000   0.0000   0.2631
   6.500   0.9546   0.01249   0.00615  -0.0190  0.2766  1.0000  -2.0672   0.0000   0.0000   0.0000   0.2628
   6.600   0.9648   0.01256   0.00621  -0.0190  0.2706  1.0000  -2.1021   0.0000   0.0000   0.0000   0.2624
   6.700   0.9749   0.01268   0.00626  -0.0191  0.2606  1.0000  -2.1371   0.0000   0.0000   0.0000   0.2621
   6.900   0.9593   0.01316   0.00670  -0.0116  0.2515  0.9891  -2.1463   0.0000   0.0000   0.0000   0.2544
   7.000   0.9665   0.01347   0.00684  -0.0112  0.2299  0.9882  -2.1763   0.0000   0.0000   0.0000   0.2538
   7.100   0.9734   0.01378   0.00702  -0.0108  0.2038  0.9872  -2.2056   0.0000   0.0000   0.0000   0.2532
   7.200   0.9805   0.01399   0.00714  -0.0103  0.1917  0.9861  -2.2354   0.0000   0.0000   0.0000   0.2524
   7.300   0.9871   0.01428   0.00728  -0.0098  0.1801  0.9851  -2.2647   0.0000   0.0000   0.0000   0.2517
   7.400   0.9931   0.01465   0.00745  -0.0092  0.1672  0.9841  -2.2927   0.0000   0.0000   0.0000   0.2510
   7.500   0.9989   0.01498   0.00765  -0.0086  0.1531  0.9830  -2.3202   0.0000   0.0000   0.0000   0.2502
   7.600   1.0052   0.01516   0.00779  -0.0079  0.1465  0.9819  -2.3489   0.0000   0.0000   0.0000   0.2493
   7.700   1.0111   0.01535   0.00795  -0.0072  0.1407  0.9808  -2.3771   0.0000   0.0000   0.0000   0.2484
   7.800   1.0165   0.01558   0.00813  -0.0064  0.1337  0.9797  -2.4045   0.0000   0.0000   0.0000   0.2474
   7.900   1.0212   0.01585   0.00833  -0.0055  0.1258  0.9786  -2.4305   0.0000   0.0000   0.0000   0.2464
   8.000   1.0252   0.01614   0.00855  -0.0044  0.1174  0.9774  -2.4553   0.0000   0.0000   0.0000   0.2452
   8.100   1.0293   0.01638   0.00872  -0.0034  0.1081  0.9763  -2.4803   0.0000   0.0000   0.0000   0.2440
   8.200   1.0336   0.01653   0.00885  -0.0023  0.0999  0.9751  -2.5398   0.0000   0.0000   0.0000   0.2428
   8.300   1.0374   0.01668   0.00898  -0.0011  0.0967  0.9740  -2.6038   0.0000   0.0000   0.0000   0.2415
   8.400   1.0405   0.01684   0.00912   0.0002  0.0933  0.9729  -2.6655   0.0000   0.0000   0.0000   0.2401
   8.500   1.0428   0.01703   0.00927   0.0017  0.0898  0.9718  -2.7242   0.0000   0.0000   0.0000   0.2386
   8.600   1.0442   0.01724   0.00944   0.0033  0.0863  0.9708  -2.7787   0.0000   0.0000   0.0000   0.2370
   8.700   1.0449   0.01748   0.00962   0.0049  0.0825  0.9698  -2.8299   0.0000   0.0000   0.0000   0.2352
   8.800   1.0453   0.01769   0.00979   0.0067  0.0785  0.9689  -2.8803   0.0000   0.0000   0.0000   0.2334
   8.900   1.0464   0.01784   0.00992   0.0083  0.0748  0.9681  -2.9341   0.0000   0.0000   0.0000   0.2317
   9.000   1.0484   0.01794   0.01002   0.0098  0.0732  0.9675  -2.9924   0.0000   0.0000   0.0000   0.2302
   9.100   1.0503   0.01807   0.01012   0.0113  0.0702  0.9671  -3.0497   0.0000   0.0000   0.0000   0.2286
   9.200   1.0512   0.01828   0.01028   0.0129  0.0641  0.9668  -3.1020   0.0000   0.0000   0.0000   0.2270
   9.300   1.0488   0.01871   0.01057   0.0148  0.0517  0.9667  -3.1378   0.0000   0.0000   0.0000   0.2251
   9.600   1.0443   0.02022   0.01170   0.0194  0.0216  0.9681  -3.2462   0.0000   0.0000   0.0000   0.2201
   9.800   1.0453   0.02159   0.01391   0.0223  0.0147  0.9708  -3.4302   0.0000   0.0000   0.0000   0.2169
   9.900   1.0463   0.02228   0.01476   0.0232  0.0152  0.9727  -3.5429   0.0000   0.0000   0.0000   0.2159
  10.000   1.0476   0.02284   0.01541   0.0239  0.0155  0.9751  -3.6139   0.0000   0.0000   0.0000   0.2151
  10.100   1.0491   0.02350   0.01615   0.0241  0.0158  0.9780  -3.6723   0.0000   0.0000   0.0000   0.2147
  10.200   1.0520   0.02421   0.01694   0.0240  0.0161  0.9810  -3.7309   0.0000   0.0000   0.0000   0.2147
  10.300   1.0563   0.02490   0.01769   0.0238  0.0165  0.9838  -3.7919   0.0000   0.0000   0.0000   0.2147
  10.400   1.0614   0.02558   0.01844   0.0236  0.0169  0.9865  -3.8515   0.0000   0.0000   0.0000   0.2149
  10.500   1.0668   0.02628   0.01922   0.0233  0.0173  0.9890  -3.9075   0.0000   0.0000   0.0000   0.2150
  10.600   1.0723   0.02701   0.02002   0.0230  0.0179  0.9914  -3.9582   0.0000   0.0000   0.0000   0.2152
  10.700   1.0777   0.02777   0.02086   0.0229  0.0185  0.9935  -3.9992   0.0000   0.0000   0.0000   0.2153
  10.800   1.0826   0.02858   0.02175   0.0228  0.0192  0.9953  -4.0286   0.0000   0.0000   0.0000   0.2152
  10.900   1.0870   0.02948   0.02276   0.0228  0.0201  0.9969  -4.0493   0.0000   0.0000   0.0000   0.2151
  11.000   1.0907   0.03050   0.02389   0.0229  0.0210  0.9981  -4.0633   0.0000   0.0000   0.0000   0.2149
  11.100   1.0937   0.03162   0.02514   0.0232  0.0220  0.9991  -4.0695   0.0000   0.0000   0.0000   0.2145
  11.200   1.0956   0.03293   0.02659   0.0237  0.0230  0.9999  -4.0639   0.0000   0.0000   0.0000   0.2139
  11.700   1.0512   0.03621   0.03010   0.0354  0.0241  1.0000  -4.0009   0.0000   0.0000   0.0000   0.2008
  11.800   1.0421   0.03892   0.03308   0.0378  0.0253  1.0000  -3.8970   0.0000   0.0000   0.0000   0.1981
  11.900   1.0514   0.03829   0.03235   0.0381  0.0264  1.0000  -3.9973   0.0000   0.0000   0.0000   0.1980
  12.000   1.0592   0.03805   0.03206   0.0384  0.0276  1.0000  -4.0807   0.0000   0.0000   0.0000   0.1978
  12.100   1.0654   0.03814   0.03214   0.0388  0.0292  1.0000  -4.1471   0.0000   0.0000   0.0000   0.1974
  12.200   1.0700   0.03866   0.03274   0.0396  0.0317  1.0000  -4.1850   0.0000   0.0000   0.0000   0.1967
  12.600   1.0232   0.05268   0.04803   0.0456  0.0484  1.0000  -3.6990   0.0000   0.0000   0.0000   0.1885
  12.700   1.0103   0.05532   0.05079   0.0458  0.0489  1.0000  -3.6454   0.0000   0.0000   0.0000   0.1875
  12.800   0.9964   0.05818   0.05376   0.0458  0.0492  1.0000  -3.5868   0.0000   0.0000   0.0000   0.1867
  12.900   0.9809   0.06138   0.05706   0.0455  0.0495  1.0000  -3.5184   0.0000   0.0000   0.0000   0.1860
  14.700   0.8344   0.10703   0.10362   0.0230  0.0484  1.0000  -3.0374   0.0000   0.0000   0.0000   0.2010
  14.800   0.8292   0.11004   0.10665   0.0208  0.0479  1.0000  -3.0188   0.0000   0.0000   0.0000   0.2033
  14.900   0.8221   0.11340   0.11004   0.0189  0.0475  1.0000  -2.9775   0.0000   0.0000   0.0000   0.2053
  15.000   0.8144   0.11690   0.11356   0.0171  0.0474  1.0000  -2.9256   0.0000   0.0000   0.0000   0.2072
  15.100   0.8065   0.12049   0.11718   0.0153  0.0472  1.0000  -2.8674   0.0000   0.0000   0.0000   0.2091
  15.200   0.7986   0.12420   0.12092   0.0135  0.0471  1.0000  -2.8039   0.0000   0.0000   0.0000   0.2111
  15.300   0.7906   0.12810   0.12484   0.0116  0.0469  1.0000  -2.7332   0.0000   0.0000   0.0000   0.2133
  15.400   0.7832   0.13232   0.12909   0.0095  0.0463  1.0000  -2.6587   0.0000   0.0000   0.0000   0.2160
  15.500   0.7755   0.13678   0.13356   0.0074  0.0457  1.0000  -2.5718   0.0000   0.0000   0.0000   0.2187
  15.600   0.7682   0.14100   0.13778   0.0055  0.0455  1.0000  -2.4857   0.0000   0.0000   0.0000   0.2211
  15.700   0.7616   0.14487   0.14166   0.0037  0.0456  1.0000  -2.4053   0.0000   0.0000   0.0000   0.2234
  15.800   0.7558   0.14845   0.14524   0.0021  0.0460  1.0000  -2.3310   0.0000   0.0000   0.0000   0.2255
  15.900   0.7508   0.15171   0.14851   0.0007  0.0465  1.0000  -2.2642   0.0000   0.0000   0.0000   0.2273
  16.000   0.7470   0.15461   0.15142  -0.0005  0.0471  1.0000  -2.2079   0.0000   0.0000   0.0000   0.2289
  18.400   0.7421   0.20952   0.20620  -0.0249  0.0406  1.0000  -1.6133   0.0000   0.0000   0.0000   0.2600
  18.500   0.7441   0.21102   0.20769  -0.0257  0.0380  1.0000  -1.6271   0.0000   0.0000   0.0000   0.2609
  18.600   0.7468   0.21215   0.20881  -0.0263  0.0356  1.0000  -1.6576   0.0000   0.0000   0.0000   0.2613
  18.700   0.7505   0.21283   0.20948  -0.0267  0.0335  1.0000  -1.7088   0.0000   0.0000   0.0000   0.2613
  18.800   0.7559   0.21277   0.20941  -0.0266  0.0316  1.0000  -1.7933   0.0000   0.0000   0.0000   0.2607
  18.900   0.7646   0.21133   0.20796  -0.0258  0.0297  1.0000  -1.9440   0.0000   0.0000   0.0000   0.2588
  19.000   0.7709   0.21040   0.20702  -0.0254  0.0282  1.0000  -2.0716   0.0000   0.0000   0.0000   0.2574
  19.100   0.7693   0.21245   0.20907  -0.0257  0.0264  1.0000  -2.0822   0.0000   0.0000   0.0000   0.2577
  19.900   0.7765   0.23060   0.22716  -0.0346  0.0185  1.0000  -1.9337   0.0000   0.0000   0.0000   0.2682
  20.000   0.7790   0.23196   0.22852  -0.0353  0.0177  1.0000  -1.9613   0.0000   0.0000   0.0000   0.2688
  20.100   0.7819   0.23309   0.22964  -0.0359  0.0169  1.0000  -2.0017   0.0000   0.0000   0.0000   0.2692
  20.200   0.7850   0.23400   0.23055  -0.0365  0.0163  1.0000  -2.0530   0.0000   0.0000   0.0000   0.2694
  20.300   0.7885   0.23469   0.23123  -0.0369  0.0157  1.0000  -2.1159   0.0000   0.0000   0.0000   0.2695
  20.400   0.7922   0.23518   0.23171  -0.0373  0.0152  1.0000  -2.1897   0.0000   0.0000   0.0000   0.2695
  20.500   0.7956   0.23581   0.23234  -0.0377  0.0148  1.0000  -2.2573   0.0000   0.0000   0.0000   0.2695
  20.600   0.7980   0.23686   0.23339  -0.0383  0.0143  1.0000  -2.3057   0.0000   0.0000   0.0000   0.2698
  20.700   0.7993   0.23833   0.23485  -0.0389  0.0138  1.0000  -2.3348   0.0000   0.0000   0.0000   0.2702
  20.800   0.7831   0.24904   0.24554  -0.0408  0.0125  1.0000  -1.9290   0.0000   0.0000   0.0000   0.2742
  20.900   0.7845   0.25135   0.24785  -0.0416  0.0125  1.0000  -1.9109   0.0000   0.0000   0.0000   0.2750
  21.000   0.7859   0.25364   0.25014  -0.0423  0.0124  1.0000  -1.8937   0.0000   0.0000   0.0000   0.2758
  21.100   0.7873   0.25592   0.25242  -0.0431  0.0124  1.0000  -1.8773   0.0000   0.0000   0.0000   0.2766
  21.200   0.7887   0.25819   0.25469  -0.0439  0.0124  1.0000  -1.8616   0.0000   0.0000   0.0000   0.2773
  21.300   0.7902   0.26045   0.25695  -0.0446  0.0124  1.0000  -1.8466   0.0000   0.0000   0.0000   0.2780
  21.400   0.7916   0.26270   0.25920  -0.0453  0.0124  1.0000  -1.8322   0.0000   0.0000   0.0000   0.2787
  21.500   0.7931   0.26494   0.26144  -0.0461  0.0124  1.0000  -1.8185   0.0000   0.0000   0.0000   0.2794
  21.600   0.7946   0.26717   0.26367  -0.0468  0.0123  1.0000  -1.8053   0.0000   0.0000   0.0000   0.2801
  21.700   0.7961   0.26939   0.26590  -0.0475  0.0123  1.0000  -1.7926   0.0000   0.0000   0.0000   0.2808
  21.800   0.7976   0.27161   0.26812  -0.0482  0.0123  1.0000  -1.7803   0.0000   0.0000   0.0000   0.2815
  21.900   0.7990   0.27382   0.27033  -0.0490  0.0123  1.0000  -1.7684   0.0000   0.0000   0.0000   0.2821
  22.000   0.8005   0.27603   0.27254  -0.0497  0.0123  1.0000  -1.7569   0.0000   0.0000   0.0000   0.2827
  22.100   0.8020   0.27823   0.27474  -0.0504  0.0123  1.0000  -1.7458   0.0000   0.0000   0.0000   0.2834
  22.200   0.8034   0.28043   0.27694  -0.0511  0.0122  1.0000  -1.7351   0.0000   0.0000   0.0000   0.2840
  22.300   0.8049   0.28262   0.27913  -0.0517  0.0122  1.0000  -1.7247   0.0000   0.0000   0.0000   0.2846
  22.400   0.8063   0.28480   0.28132  -0.0524  0.0122  1.0000  -1.7146   0.0000   0.0000   0.0000   0.2852
  22.500   0.8077   0.28699   0.28350  -0.0531  0.0122  1.0000  -1.7048   0.0000   0.0000   0.0000   0.2858
  22.600   0.8091   0.28917   0.28569  -0.0538  0.0122  1.0000  -1.6952   0.0000   0.0000   0.0000   0.2864
  22.700   0.8105   0.29134   0.28786  -0.0544  0.0121  1.0000  -1.6858   0.0000   0.0000   0.0000   0.2869
  22.800   0.8118   0.29352   0.29004  -0.0551  0.0121  1.0000  -1.6765   0.0000   0.0000   0.0000   0.2875
  22.900   0.8132   0.29569   0.29221  -0.0558  0.0121  1.0000  -1.6675   0.0000   0.0000   0.0000   0.2880
  23.000   0.8144   0.29785   0.29438  -0.0564  0.0121  1.0000  -1.6587   0.0000   0.0000   0.0000   0.2886
  23.100   0.8157   0.30001   0.29654  -0.0570  0.0121  1.0000  -1.6501   0.0000   0.0000   0.0000   0.2891
  23.200   0.8170   0.30217   0.29870  -0.0577  0.0120  1.0000  -1.6416   0.0000   0.0000   0.0000   0.2897
  23.300   0.8182   0.30433   0.30086  -0.0583  0.0120  1.0000  -1.6333   0.0000   0.0000   0.0000   0.2902
  23.400   0.8194   0.30648   0.30301  -0.0589  0.0120  1.0000  -1.6252   0.0000   0.0000   0.0000   0.2907
  23.500   0.8205   0.30862   0.30516  -0.0595  0.0120  1.0000  -1.6172   0.0000   0.0000   0.0000   0.2912
  23.600   0.8216   0.31076   0.30731  -0.0601  0.0119  1.0000  -1.6092   0.0000   0.0000   0.0000   0.2917
  23.700   0.8227   0.31290   0.30945  -0.0607  0.0119  1.0000  -1.6014   0.0000   0.0000   0.0000   0.2922
  23.800   0.8237   0.31503   0.31159  -0.0613  0.0119  1.0000  -1.5933   0.0000   0.0000   0.0000   0.2927
  23.900   0.8246   0.31717   0.31372  -0.0619  0.0119  1.0000  -1.5852   0.0000   0.0000   0.0000   0.2931
  24.000   0.8255   0.31929   0.31585  -0.0625  0.0119  1.0000  -1.5771   0.0000   0.0000   0.0000   0.2936
  24.100   0.8264   0.32140   0.31797  -0.0630  0.0118  1.0000  -1.5691   0.0000   0.0000   0.0000   0.2941
  24.200   0.8271   0.32351   0.32008  -0.0636  0.0118  1.0000  -1.5612   0.0000   0.0000   0.0000   0.2946
  24.300   0.8279   0.32561   0.32218  -0.0642  0.0118  1.0000  -1.5533   0.0000   0.0000   0.0000   0.2950
  24.400   0.8285   0.32770   0.32427  -0.0647  0.0118  1.0000  -1.5454   0.0000   0.0000   0.0000   0.2955
  24.500   0.8292   0.32978   0.32636  -0.0652  0.0118  1.0000  -1.5376   0.0000   0.0000   0.0000   0.2959
  24.600   0.8296   0.33186   0.32844  -0.0657  0.0117  1.0000  -1.5286   0.0000   0.0000   0.0000   0.2964
  24.700   0.8300   0.33393   0.33051  -0.0663  0.0117  1.0000  -1.5197   0.0000   0.0000   0.0000   0.2968
  24.800   0.8306   0.33584   0.33252  -0.0667  0.0117  1.0000  -1.5125   0.0000   0.0000   0.0000   0.2972
  24.900   0.8309   0.33785   0.33454  -0.0672  0.0117  1.0000  -1.5047   0.0000   0.0000   0.0000   0.2976
  25.000   0.8310   0.33985   0.33655  -0.0677  0.0117  1.0000  -1.4965   0.0000   0.0000   0.0000   0.2980
  25.100   0.8311   0.34184   0.33854  -0.0681  0.0117  1.0000  -1.4881   0.0000   0.0000   0.0000   0.2984
  25.200   0.8310   0.34380   0.34051  -0.0685  0.0117  1.0000  -1.4796   0.0000   0.0000   0.0000   0.2988
  25.300   0.8308   0.34573   0.34245  -0.0689  0.0116  1.0000  -1.4709   0.0000   0.0000   0.0000   0.2991
  25.400   0.8305   0.34763   0.34436  -0.0693  0.0116  1.0000  -1.4619   0.0000   0.0000   0.0000   0.2995
  25.500   0.8300   0.34950   0.34624  -0.0697  0.0116  1.0000  -1.4528   0.0000   0.0000   0.0000   0.2999
  25.600   0.8293   0.35132   0.34807  -0.0700  0.0116  1.0000  -1.4434   0.0000   0.0000   0.0000   0.3002
  25.700   0.8285   0.35309   0.34984  -0.0703  0.0116  1.0000  -1.4337   0.0000   0.0000   0.0000   0.3006
  25.800   0.8274   0.35480   0.35156  -0.0705  0.0116  1.0000  -1.4237   0.0000   0.0000   0.0000   0.3009
  25.900   0.8260   0.35643   0.35320  -0.0707  0.0115  1.0000  -1.4132   0.0000   0.0000   0.0000   0.3012
  26.000   0.8243   0.35797   0.35475  -0.0709  0.0115  1.0000  -1.4022   0.0000   0.0000   0.0000   0.3014
  26.100   0.8222   0.35940   0.35618  -0.0710  0.0115  1.0000  -1.3904   0.0000   0.0000   0.0000   0.3017
  26.200   0.8195   0.36066   0.35746  -0.0710  0.0115  1.0000  -1.3776   0.0000   0.0000   0.0000   0.3019
  26.300   0.7655   0.34731   0.34419  -0.0628  0.0115  1.0000  -1.2599   0.0000   0.0000   0.0000   0.2990
  26.400   0.7579   0.34625   0.34315  -0.0619  0.0115  1.0000  -1.2374   0.0000   0.0000   0.0000   0.2989
  26.500   0.7521   0.34567   0.34259  -0.0614  0.0115  1.0000  -1.2186   0.0000   0.0000   0.0000   0.2989
  26.600   0.7473   0.34534   0.34227  -0.0610  0.0114  1.0000  -1.2021   0.0000   0.0000   0.0000   0.2990
  26.700   0.7432   0.34516   0.34210  -0.0608  0.0114  1.0000  -1.1869   0.0000   0.0000   0.0000   0.2991
  26.800   0.7396   0.34509   0.34204  -0.0606  0.0114  1.0000  -1.1729   0.0000   0.0000   0.0000   0.2993
  26.900   0.7363   0.34510   0.34206  -0.0604  0.0114  1.0000  -1.1597   0.0000   0.0000   0.0000   0.2995
  27.000   0.7333   0.34517   0.34214  -0.0603  0.0114  1.0000  -1.1472   0.0000   0.0000   0.0000   0.2997
  27.100   0.7305   0.34528   0.34227  -0.0602  0.0114  1.0000  -1.1353   0.0000   0.0000   0.0000   0.2999
  27.200   0.7280   0.34543   0.34242  -0.0602  0.0113  1.0000  -1.1239   0.0000   0.0000   0.0000   0.3001
  27.300   0.7256   0.34561   0.34262  -0.0602  0.0113  1.0000  -1.1130   0.0000   0.0000   0.0000   0.3004
  27.400   0.7234   0.34583   0.34284  -0.0602  0.0113  1.0000  -1.1024   0.0000   0.0000   0.0000   0.3006
  27.500   0.7214   0.34607   0.34309  -0.0603  0.0113  1.0000  -1.0923   0.0000   0.0000   0.0000   0.3009
  27.600   0.7194   0.34633   0.34337  -0.0603  0.0113  1.0000  -1.0825   0.0000   0.0000   0.0000   0.3012
  27.700   0.7176   0.34662   0.34366  -0.0604  0.0113  1.0000  -1.0731   0.0000   0.0000   0.0000   0.3014
  27.800   0.7159   0.34692   0.34397  -0.0605  0.0112  1.0000  -1.0640   0.0000   0.0000   0.0000   0.3017
  27.900   0.7143   0.34724   0.34430  -0.0606  0.0112  1.0000  -1.0551   0.0000   0.0000   0.0000   0.3020
  28.000   0.7128   0.34758   0.34465  -0.0607  0.0112  1.0000  -1.0465   0.0000   0.0000   0.0000   0.3023
  28.100   0.7114   0.34793   0.34501  -0.0609  0.0112  1.0000  -1.0381   0.0000   0.0000   0.0000   0.3026
  28.200   0.7100   0.34829   0.34538  -0.0610  0.0112  1.0000  -1.0302   0.0000   0.0000   0.0000   0.3030
  28.300   0.7087   0.34866   0.34576  -0.0612  0.0112  1.0000  -1.0227   0.0000   0.0000   0.0000   0.3033
  28.400   0.7075   0.34905   0.34615  -0.0613  0.0111  1.0000  -1.0155   0.0000   0.0000   0.0000   0.3036
  28.500   0.7064   0.34944   0.34655  -0.0615  0.0111  1.0000  -1.0085   0.0000   0.0000   0.0000   0.3039
  28.600   0.7053   0.34984   0.34696  -0.0617  0.0111  1.0000  -1.0016   0.0000   0.0000   0.0000   0.3043
  28.700   0.7042   0.35025   0.34738  -0.0619  0.0111  1.0000  -0.9949   0.0000   0.0000   0.0000   0.3046
  28.800   0.7032   0.35067   0.34781  -0.0621  0.0111  1.0000  -0.9884   0.0000   0.0000   0.0000   0.3049
  28.900   0.7023   0.35110   0.34824  -0.0623  0.0111  1.0000  -0.9820   0.0000   0.0000   0.0000   0.3053
  29.000   0.7014   0.35153   0.34868  -0.0625  0.0110  1.0000  -0.9758   0.0000   0.0000   0.0000   0.3056
  29.100   0.7005   0.35197   0.34913  -0.0627  0.0110  1.0000  -0.9697   0.0000   0.0000   0.0000   0.3060
  29.200   0.6997   0.35241   0.34958  -0.0630  0.0110  1.0000  -0.9637   0.0000   0.0000   0.0000   0.3063
  29.300   0.6989   0.35286   0.35004  -0.0632  0.0110  1.0000  -0.9579   0.0000   0.0000   0.0000   0.3067
  29.400   0.6982   0.35332   0.35050  -0.0634  0.0110  1.0000  -0.9522   0.0000   0.0000   0.0000   0.3070
  29.500   0.6975   0.35378   0.35097  -0.0637  0.0110  1.0000  -0.9466   0.0000   0.0000   0.0000   0.3074
  29.600   0.6968   0.35424   0.35144  -0.0639  0.0109  1.0000  -0.9411   0.0000   0.0000   0.0000   0.3077
  29.700   0.6961   0.35471   0.35192  -0.0642  0.0109  1.0000  -0.9358   0.0000   0.0000   0.0000   0.3081
  29.800   0.6955   0.35518   0.35240  -0.0645  0.0109  1.0000  -0.9305   0.0000   0.0000   0.0000   0.3085
  29.900   0.6949   0.35566   0.35288  -0.0647  0.0109  1.0000  -0.9254   0.0000   0.0000   0.0000   0.3088
  30.000   0.6943   0.35614   0.35337  -0.0650  0.0109  1.0000  -0.9204   0.0000   0.0000   0.0000   0.3092


