xflr5 v6.61

 Calculated polar for: CLARK YS

 1 1 Reynolds number fixed          Mach number fixed         

 xtrf =   1.000 (top)        1.000 (bottom)
 Mach =   0.000     Re =     0.688 e 6     Ncrit =   9.000

  alpha     CL        CD       CDp       Cm    Top Xtr Bot Xtr   Cpmin    Chinge    XCp    
 ------- -------- --------- --------- -------- ------- ------- -------- --------- ---------
 -10.000  -0.5894   0.09876   0.09621   0.0202  0.7856  0.0339  -2.1147   0.0000   0.0000   0.0000   0.2764
  -9.900  -0.5872   0.09777   0.09522   0.0198  0.7844  0.0347  -2.0750   0.0000   0.0000   0.0000   0.2759
  -9.800  -0.5858   0.09660   0.09406   0.0192  0.7832  0.0355  -2.0447   0.0000   0.0000   0.0000   0.2751
  -9.700  -0.5850   0.09530   0.09276   0.0185  0.7819  0.0363  -2.0220   0.0000   0.0000   0.0000   0.2741
  -9.600  -0.5848   0.09389   0.09136   0.0177  0.7805  0.0370  -2.0058   0.0000   0.0000   0.0000   0.2729
  -9.500  -0.5852   0.09237   0.08984   0.0167  0.7790  0.0376  -1.9955   0.0000   0.0000   0.0000   0.2715
  -9.400  -0.5859   0.09072   0.08820   0.0156  0.7775  0.0383  -1.9899   0.0000   0.0000   0.0000   0.2697
  -9.300  -0.5868   0.08891   0.08640   0.0143  0.7758  0.0389  -1.9891   0.0000   0.0000   0.0000   0.2675
  -9.200  -0.5886   0.08691   0.08441   0.0126  0.7741  0.0395  -1.9964   0.0000   0.0000   0.0000   0.2648
  -9.100  -0.5914   0.08468   0.08218   0.0106  0.7723  0.0400  -2.0143   0.0000   0.0000   0.0000   0.2613
  -9.000  -0.5947   0.08242   0.07992   0.0085  0.7704  0.0404  -2.0357   0.0000   0.0000   0.0000   0.2580
  -8.900  -0.5998   0.08021   0.07770   0.0069  0.7684  0.0407  -2.0632   0.0000   0.0000   0.0000   0.2553
  -8.800  -0.6048   0.07807   0.07555   0.0055  0.7662  0.0411  -2.0908   0.0000   0.0000   0.0000   0.2532
  -8.700  -0.6082   0.07603   0.07350   0.0044  0.7640  0.0416  -2.1166   0.0000   0.0000   0.0000   0.2514
  -8.600  -0.6105   0.07405   0.07149   0.0034  0.7618  0.0423  -2.1399   0.0000   0.0000   0.0000   0.2499
  -8.500  -0.6133   0.07226   0.06968   0.0029  0.7595  0.0429  -2.1619   0.0000   0.0000   0.0000   0.2491
  -8.400  -0.6136   0.07046   0.06784   0.0021  0.7572  0.0438  -2.1799   0.0000   0.0000   0.0000   0.2479
  -8.300  -0.6116   0.06875   0.06609   0.0013  0.7550  0.0449  -2.1937   0.0000   0.0000   0.0000   0.2466
  -8.200  -0.6044   0.06798   0.06529   0.0008  0.7526  0.0465  -2.1788   0.0000   0.0000   0.0000   0.2458
  -8.100  -0.5863   0.06936   0.06667   0.0006  0.7500  0.0483  -2.0955   0.0000   0.0000   0.0000   0.2456
  -8.000  -0.5808   0.06858   0.06585   0.0004  0.7476  0.0486  -2.0814   0.0000   0.0000   0.0000   0.2452
  -7.900  -0.5772   0.06737   0.06460   0.0001  0.7453  0.0488  -2.0800   0.0000   0.0000   0.0000   0.2449
  -7.800  -0.5742   0.06605   0.06323  -0.0000  0.7430  0.0490  -2.0821   0.0000   0.0000   0.0000   0.2447
  -7.700  -0.5717   0.06473   0.06186  -0.0001  0.7406  0.0491  -2.0849   0.0000   0.0000   0.0000   0.2447
  -7.600  -0.5692   0.06339   0.06047  -0.0000  0.7381  0.0492  -2.0880   0.0000   0.0000   0.0000   0.2447
  -7.500  -0.5665   0.06203   0.05906   0.0000  0.7356  0.0492  -2.0912   0.0000   0.0000   0.0000   0.2449
  -7.400  -0.5635   0.06067   0.05764   0.0001  0.7331  0.0493  -2.0941   0.0000   0.0000   0.0000   0.2451
  -7.300  -0.5602   0.05932   0.05624   0.0002  0.7304  0.0493  -2.0963   0.0000   0.0000   0.0000   0.2454
  -7.200  -0.5567   0.05801   0.05487   0.0004  0.7277  0.0494  -2.0970   0.0000   0.0000   0.0000   0.2457
  -7.100  -0.5530   0.05675   0.05355   0.0006  0.7249  0.0494  -2.0961   0.0000   0.0000   0.0000   0.2461
  -7.000  -0.5491   0.05551   0.05226   0.0009  0.7221  0.0495  -2.0942   0.0000   0.0000   0.0000   0.2466
  -6.900  -0.5449   0.05429   0.05098   0.0011  0.7193  0.0495  -2.0913   0.0000   0.0000   0.0000   0.2471
  -6.800  -0.5403   0.05310   0.04973   0.0014  0.7165  0.0496  -2.0875   0.0000   0.0000   0.0000   0.2476
  -6.700  -0.5355   0.05193   0.04850   0.0016  0.7138  0.0496  -2.0826   0.0000   0.0000   0.0000   0.2482
  -6.600  -0.5304   0.05078   0.04730   0.0019  0.7113  0.0496  -2.0766   0.0000   0.0000   0.0000   0.2487
  -6.500  -0.5252   0.04966   0.04613   0.0022  0.7087  0.0497  -2.0698   0.0000   0.0000   0.0000   0.2494
  -6.400  -0.5198   0.04857   0.04498   0.0025  0.7063  0.0497  -2.0621   0.0000   0.0000   0.0000   0.2500
  -6.300  -0.5143   0.04750   0.04387   0.0028  0.7039  0.0497  -2.0536   0.0000   0.0000   0.0000   0.2506
  -6.200  -0.5085   0.04646   0.04277   0.0031  0.7016  0.0497  -2.0442   0.0000   0.0000   0.0000   0.2513
  -6.100  -0.5025   0.04544   0.04169   0.0034  0.6999  0.0498  -2.0341   0.0000   0.0000   0.0000   0.2521
  -6.000  -0.4965   0.04444   0.04064   0.0038  0.6998  0.0498  -2.0227   0.0000   0.0000   0.0000   0.2530
  -5.900  -0.4903   0.04349   0.03963   0.0042  0.6997  0.0498  -2.0099   0.0000   0.0000   0.0000   0.2540
  -5.800  -0.4838   0.04257   0.03864   0.0047  0.6996  0.0499  -1.9963   0.0000   0.0000   0.0000   0.2550
  -5.700  -0.4772   0.04167   0.03768   0.0051  0.6994  0.0499  -1.9822   0.0000   0.0000   0.0000   0.2560
  -5.600  -0.4705   0.04076   0.03671   0.0055  0.6993  0.0499  -1.9679   0.0000   0.0000   0.0000   0.2571
  -5.500  -0.4637   0.03985   0.03574   0.0059  0.6991  0.0499  -1.9536   0.0000   0.0000   0.0000   0.2582
  -5.400  -0.4568   0.03893   0.03475   0.0064  0.6989  0.0500  -1.9394   0.0000   0.0000   0.0000   0.2593
  -5.300  -0.4818   0.02876   0.02397   0.0101  0.6988  0.0532  -2.2086   0.0000   0.0000   0.0000   0.2661
  -5.200  -0.4741   0.02784   0.02303   0.0104  0.6986  0.0540  -2.1800   0.0000   0.0000   0.0000   0.2671
  -5.100  -0.4656   0.02718   0.02234   0.0106  0.6984  0.0546  -2.1457   0.0000   0.0000   0.0000   0.2680
  -5.000  -0.4568   0.02661   0.02176   0.0108  0.6981  0.0551  -2.1095   0.0000   0.0000   0.0000   0.2690
  -4.900  -0.4477   0.02611   0.02124   0.0110  0.6979  0.0557  -2.0724   0.0000   0.0000   0.0000   0.2699
  -4.800  -0.4386   0.02564   0.02076   0.0112  0.6976  0.0562  -2.0349   0.0000   0.0000   0.0000   0.2709
  -4.700  -0.4293   0.02519   0.02030   0.0114  0.6972  0.0568  -1.9973   0.0000   0.0000   0.0000   0.2719
  -4.600  -0.4199   0.02477   0.01987   0.0115  0.6968  0.0574  -1.9587   0.0000   0.0000   0.0000   0.2729
  -4.500  -0.4103   0.02437   0.01947   0.0117  0.6964  0.0580  -1.9199   0.0000   0.0000   0.0000   0.2739
  -4.400  -0.4008   0.02398   0.01907   0.0118  0.6959  0.0586  -1.8816   0.0000   0.0000   0.0000   0.2750
  -4.300  -0.3912   0.02361   0.01868   0.0120  0.6954  0.0594  -1.8437   0.0000   0.0000   0.0000   0.2762
  -4.200  -0.3816   0.02323   0.01830   0.0122  0.6948  0.0602  -1.8064   0.0000   0.0000   0.0000   0.2774
  -4.100  -0.3719   0.02287   0.01792   0.0123  0.6941  0.0610  -1.7695   0.0000   0.0000   0.0000   0.2787
  -4.000  -0.3622   0.02252   0.01755   0.0125  0.6934  0.0620  -1.7333   0.0000   0.0000   0.0000   0.2800
  -3.900  -0.3524   0.02218   0.01719   0.0126  0.6925  0.0631  -1.6976   0.0000   0.0000   0.0000   0.2815
  -3.800  -0.3426   0.02185   0.01684   0.0128  0.6916  0.0644  -1.6623   0.0000   0.0000   0.0000   0.2830
  -3.700  -0.3326   0.02155   0.01651   0.0130  0.6905  0.0657  -1.6274   0.0000   0.0000   0.0000   0.2846
  -3.600  -0.3224   0.02130   0.01623   0.0131  0.6893  0.0673  -1.5924   0.0000   0.0000   0.0000   0.2863
  -3.500  -0.3120   0.02111   0.01603   0.0133  0.6880  0.0689  -1.5567   0.0000   0.0000   0.0000   0.2881
  -3.400  -0.3013   0.02107   0.01596   0.0134  0.6865  0.0706  -1.5189   0.0000   0.0000   0.0000   0.2900
  -3.300  -0.2899   0.02124   0.01613   0.0134  0.6848  0.0722  -1.4766   0.0000   0.0000   0.0000   0.2919
  -3.200  -0.2778   0.02179   0.01669   0.0134  0.6829  0.0735  -1.4264   0.0000   0.0000   0.0000   0.2938
  -3.100  -0.2651   0.02266   0.01757   0.0133  0.6807  0.0745  -1.3706   0.0000   0.0000   0.0000   0.2957
  -3.000  -0.2640   0.01880   0.01342   0.0146  0.6791  0.0790  -1.4195   0.0000   0.0000   0.0000   0.3007
  -2.900  -0.2544   0.01823   0.01288   0.0146  0.6767  0.0807  -1.3839   0.0000   0.0000   0.0000   0.3030
  -2.800  -0.2444   0.01793   0.01260   0.0147  0.6740  0.0821  -1.3454   0.0000   0.0000   0.0000   0.3056
  -2.700  -0.2341   0.01770   0.01239   0.0147  0.6710  0.0835  -1.3063   0.0000   0.0000   0.0000   0.3084
  -2.600  -0.2239   0.01752   0.01221   0.0148  0.6678  0.0850  -1.2677   0.0000   0.0000   0.0000   0.3115
  -2.500  -0.2137   0.01735   0.01205   0.0149  0.6642  0.0866  -1.2302   0.0000   0.0000   0.0000   0.3151
  -2.400  -0.2033   0.01722   0.01191   0.0150  0.6603  0.0885  -1.1938   0.0000   0.0000   0.0000   0.3191
  -2.300  -0.1928   0.01712   0.01180   0.0151  0.6559  0.0905  -1.1578   0.0000   0.0000   0.0000   0.3235
  -2.200  -0.1822   0.01709   0.01175   0.0152  0.6512  0.0926  -1.1218   0.0000   0.0000   0.0000   0.3286
  -2.100  -0.1714   0.01716   0.01181   0.0153  0.6463  0.0948  -1.0851   0.0000   0.0000   0.0000   0.3343
  -2.000  -0.1601   0.01741   0.01206   0.0153  0.6411  0.0969  -1.0461   0.0000   0.0000   0.0000   0.3408
  -1.900  -0.1482   0.01799   0.01267   0.0153  0.6353  0.0986  -1.0017   0.0000   0.0000   0.0000   0.3481
  -1.800  -0.1431   0.01518   0.00961   0.0159  0.6307  0.1116  -1.0153   0.0000   0.0000   0.0000   0.3560
  -1.700  -0.1330   0.01485   0.00932   0.0159  0.6244  0.1157  -0.9829   0.0000   0.0000   0.0000   0.3647
  -1.600  -0.1228   0.01462   0.00911   0.0160  0.6180  0.1192  -0.9504   0.0000   0.0000   0.0000   0.3750
  -1.500  -0.1126   0.01442   0.00892   0.0161  0.6120  0.1228  -0.9189   0.0000   0.0000   0.0000   0.3874
  -1.400  -0.1022   0.01421   0.00873   0.0161  0.6065  0.1265  -0.8885   0.0000   0.0000   0.0000   0.4022
  -1.300  -0.0917   0.01402   0.00853   0.0162  0.6015  0.1303  -0.8594   0.0000   0.0000   0.0000   0.4207
  -1.200  -0.0810   0.01380   0.00832   0.0163  0.5998  0.1342  -0.8316   0.0000   0.0000   0.0000   0.4445
  -1.100  -0.0540   0.01104   0.00436   0.0179  0.5996  0.0476  -1.0813   0.0000   0.0000   0.0000   0.5707
  -1.000  -0.0436   0.01071   0.00399   0.0182  0.5992  0.0461  -1.0670   0.0000   0.0000   0.0000   0.6538
  -0.900  -0.0332   0.01048   0.00372   0.0184  0.5988  0.0447  -1.0476   0.0000   0.0000   0.0000   0.7889
  -0.800  -0.0227   0.01029   0.00350   0.0186  0.5983  0.0434  -1.0257   0.0000   0.0000   0.0000   1.0492
  -0.700  -0.0121   0.01013   0.00332   0.0187  0.5978  0.0423  -1.0021   0.0000   0.0000   0.0000   1.7646
  -0.600  -0.0015   0.00999   0.00315   0.0189  0.5971  0.0412  -0.9772   0.0000   0.0000   0.0000  12.9124
  -0.500   0.0092   0.00988   0.00301   0.0190  0.5963  0.0402  -0.9514   0.0000   0.0000   0.0000  -1.7729
  -0.400   0.0200   0.00977   0.00289   0.0191  0.5953  0.0393  -0.9245   0.0000   0.0000   0.0000  -0.6927
  -0.300   0.0307   0.00968   0.00278   0.0192  0.5941  0.0385  -0.8965   0.0000   0.0000   0.0000  -0.3666
  -0.200   0.0415   0.00960   0.00267   0.0193  0.5925  0.0378  -0.8667   0.0000   0.0000   0.0000  -0.2091
  -0.100   0.0523   0.00952   0.00258   0.0194  0.5906  0.0371  -0.8355   0.0000   0.0000   0.0000  -0.1163
   0.000   0.0631   0.00946   0.00249   0.0194  0.5881  0.0365  -0.8034   0.0000   0.0000   0.0000  -0.0551
   0.100   0.0739   0.00940   0.00241   0.0195  0.5849  0.0360  -0.7706   0.0000   0.0000   0.0000  -0.0118
   0.200   0.0846   0.00935   0.00233   0.0195  0.5809  0.0355  -0.7376   0.0000   0.0000   0.0000   0.0204
   0.300   0.0953   0.00931   0.00226   0.0196  0.5756  0.0350  -0.7045   0.0000   0.0000   0.0000   0.0451
   0.400   0.1060   0.00927   0.00218   0.0196  0.5691  0.0346  -0.6736   0.0000   0.0000   0.0000   0.0646
   0.500   0.1165   0.00924   0.00211   0.0197  0.5612  0.0342  -0.6835   0.0000   0.0000   0.0000   0.0803
   0.600   0.1270   0.00923   0.00203   0.0198  0.5521  0.0338  -0.6933   0.0000   0.0000   0.0000   0.0931
   0.700   0.1373   0.00923   0.00196   0.0199  0.5420  0.0334  -0.7030   0.0000   0.0000   0.0000   0.1039
   0.800   0.1477   0.00924   0.00191   0.0200  0.5307  0.0331  -0.7128   0.0000   0.0000   0.0000   0.1132
   0.900   0.1582   0.00925   0.00186   0.0201  0.5184  0.0328  -0.7225   0.0000   0.0000   0.0000   0.1216
   1.000   0.1689   0.00925   0.00183   0.0201  0.5071  0.0325  -0.7324   0.0000   0.0000   0.0000   0.1292
   1.100   0.1796   0.00924   0.00180   0.0201  0.4997  0.0322  -0.7423   0.0000   0.0000   0.0000   0.1361
   1.200   0.1905   0.00922   0.00178   0.0201  0.4985  0.0320  -0.7524   0.0000   0.0000   0.0000   0.1424
   1.300   0.2015   0.00920   0.00183   0.0201  0.4978  0.0320  -0.7624   0.0000   0.0000   0.0000   0.1480
   1.400   0.2123   0.00919   0.00181   0.0201  0.4962  0.0319  -0.7725   0.0000   0.0000   0.0000   0.1530
   1.500   0.2232   0.00918   0.00179   0.0201  0.4943  0.0318  -0.7826   0.0000   0.0000   0.0000   0.1575
   1.600   0.2340   0.00916   0.00176   0.0201  0.4917  0.0316  -0.7927   0.0000   0.0000   0.0000   0.1616
   1.700   0.2448   0.00916   0.00174   0.0201  0.4884  0.0316  -0.8027   0.0000   0.0000   0.0000   0.1652
   1.800   0.2555   0.00916   0.00173   0.0202  0.4837  0.0315  -0.8128   0.0000   0.0000   0.0000   0.1685
   1.900   0.2661   0.00917   0.00171   0.0202  0.4767  0.0315  -0.8228   0.0000   0.0000   0.0000   0.1714
   2.000   0.2764   0.00921   0.00169   0.0203  0.4657  0.0315  -0.8326   0.0000   0.0000   0.0000   0.1738
   2.100   0.2864   0.00928   0.00168   0.0204  0.4509  0.0316  -0.8423   0.0000   0.0000   0.0000   0.1758
   2.200   0.2962   0.00938   0.00167   0.0206  0.4338  0.0318  -0.8517   0.0000   0.0000   0.0000   0.1776
   2.300   0.3062   0.00945   0.00167   0.0207  0.4137  0.0320  -0.8611   0.0000   0.0000   0.0000   0.1794
   2.400   0.3166   0.00949   0.00167   0.0207  0.3990  0.0326  -0.8708   0.0000   0.0000   0.0000   0.1813
   2.500   0.3271   0.00951   0.00166   0.0208  0.3940  0.0349  -0.8807   0.0000   0.0000   0.0000   0.1832
   2.600   0.3376   0.00957   0.00169   0.0208  0.3880  0.0442  -0.8907   0.0000   0.0000   0.0000   0.1850
   2.700   0.3478   0.00961   0.00176   0.0209  0.3810  0.0473  -0.9005   0.0000   0.0000   0.0000   0.1864
   2.800   0.3578   0.00968   0.00181   0.0210  0.3733  0.0497  -0.9101   0.0000   0.0000   0.0000   0.1878
   2.900   0.3665   0.00962   0.00183   0.0213  0.3652  0.0989  -0.9188   0.0000   0.0000   0.0000   0.1882
   3.100   0.3786   0.00913   0.00190   0.0228  0.3472  0.3218  -0.9334   0.0000   0.0000   0.0000   0.1859
   3.200   0.3853   0.00901   0.00192   0.0235  0.3326  0.3848  -0.9502   0.0000   0.0000   0.0000   0.1851
   3.600   0.3968   0.00792   0.00228   0.0303  0.2996  0.8775  -1.0054   0.0000   0.0000   0.0000   0.1694
   3.700   0.4071   0.00796   0.00233   0.0304  0.2995  0.8818  -1.0279   0.0000   0.0000   0.0000   0.1709
   3.800   0.4171   0.00800   0.00238   0.0306  0.2995  0.8856  -1.0503   0.0000   0.0000   0.0000   0.1722
   3.900   0.4269   0.00805   0.00244   0.0309  0.2994  0.8887  -1.0726   0.0000   0.0000   0.0000   0.1732
   4.000   0.4364   0.00810   0.00250   0.0312  0.2993  0.8912  -1.0945   0.0000   0.0000   0.0000   0.1740
   4.100   0.4457   0.00815   0.00256   0.0315  0.2992  0.8932  -1.1164   0.0000   0.0000   0.0000   0.1746
   4.200   0.4549   0.00821   0.00263   0.0319  0.2992  0.8948  -1.1384   0.0000   0.0000   0.0000   0.1751
   4.300   0.4643   0.00827   0.00269   0.0322  0.2991  0.8959  -1.1606   0.0000   0.0000   0.0000   0.1757
   4.400   0.4739   0.00833   0.00277   0.0325  0.2990  0.8967  -1.1831   0.0000   0.0000   0.0000   0.1764
   4.500   0.4838   0.00839   0.00283   0.0328  0.2990  0.8973  -1.2060   0.0000   0.0000   0.0000   0.1773
   4.600   0.4939   0.00845   0.00290   0.0329  0.2989  0.8977  -1.2293   0.0000   0.0000   0.0000   0.1782
   4.700   0.5041   0.00851   0.00296   0.0330  0.2988  0.8980  -1.2529   0.0000   0.0000   0.0000   0.1793
   4.800   0.5145   0.00856   0.00303   0.0331  0.2987  0.8982  -1.2766   0.0000   0.0000   0.0000   0.1803
   4.900   0.5249   0.00862   0.00309   0.0332  0.2986  0.8985  -1.3006   0.0000   0.0000   0.0000   0.1813
   5.000   0.5354   0.00868   0.00316   0.0333  0.2985  0.8987  -1.3247   0.0000   0.0000   0.0000   0.1823
   5.100   0.5460   0.00875   0.00324   0.0334  0.2984  0.8989  -1.3491   0.0000   0.0000   0.0000   0.1833
   5.300   0.5688   0.00911   0.00364   0.0334  0.2982  0.8998  -1.4006   0.0000   0.0000   0.0000   0.1855
   5.400   0.5796   0.00913   0.00367   0.0335  0.2981  0.9053  -1.4258   0.0000   0.0000   0.0000   0.1864
   5.500   0.5958   0.00922   0.00380   0.0325  0.2979  0.9158  -1.4576   0.0000   0.0000   0.0000   0.1896
   5.600   0.7189   0.01221   0.00681   0.0112  0.2966  0.9474  -1.6249   0.0000   0.0000   0.0000   0.2282
   5.700   0.7252   0.01199   0.00660   0.0121  0.2959  0.9466  -1.6455   0.0000   0.0000   0.0000   0.2272
   5.800   0.7323   0.01183   0.00644   0.0127  0.2948  0.9460  -1.6674   0.0000   0.0000   0.0000   0.2264
   5.900   0.7398   0.01170   0.00631   0.0132  0.2931  0.9453  -1.6897   0.0000   0.0000   0.0000   0.2257
   6.000   0.7475   0.01160   0.00621   0.0138  0.2912  0.9447  -1.7121   0.0000   0.0000   0.0000   0.2250
   6.100   0.7551   0.01153   0.00613   0.0143  0.2888  0.9441  -1.7344   0.0000   0.0000   0.0000   0.2244
   6.200   0.7628   0.01146   0.00606   0.0148  0.2865  0.9435  -1.7566   0.0000   0.0000   0.0000   0.2238
   6.300   0.7704   0.01141   0.00601   0.0153  0.2845  0.9430  -1.7788   0.0000   0.0000   0.0000   0.2232
   6.400   0.7779   0.01136   0.00596   0.0159  0.2822  0.9424  -1.8009   0.0000   0.0000   0.0000   0.2226
   6.500   0.7853   0.01132   0.00591   0.0164  0.2792  0.9418  -1.8229   0.0000   0.0000   0.0000   0.2220
   6.600   0.7924   0.01130   0.00587   0.0171  0.2752  0.9413  -1.8446   0.0000   0.0000   0.0000   0.2213
   6.700   0.7989   0.01130   0.00584   0.0178  0.2686  0.9407  -1.8656   0.0000   0.0000   0.0000   0.2205
   6.800   0.8041   0.01136   0.00582   0.0187  0.2553  0.9401  -1.8850   0.0000   0.0000   0.0000   0.2194
   6.900   0.8072   0.01150   0.00583   0.0199  0.2361  0.9395  -1.9037   0.0000   0.0000   0.0000   0.2178
   7.000   0.8099   0.01164   0.00583   0.0212  0.2136  0.9389  -1.9250   0.0000   0.0000   0.0000   0.2162
   7.100   0.8143   0.01168   0.00582   0.0222  0.1970  0.9384  -1.9491   0.0000   0.0000   0.0000   0.2149
   7.200   0.8181   0.01176   0.00581   0.0234  0.1884  0.9380  -1.9727   0.0000   0.0000   0.0000   0.2135
   7.300   0.8209   0.01189   0.00583   0.0247  0.1787  0.9377  -1.9943   0.0000   0.0000   0.0000   0.2119
   7.400   0.8227   0.01208   0.00589   0.0261  0.1679  0.9374  -2.0142   0.0000   0.0000   0.0000   0.2102
   7.500   0.8261   0.01224   0.00595   0.0272  0.1547  0.9373  -2.0367   0.0000   0.0000   0.0000   0.2088
   7.600   0.8318   0.01230   0.00598   0.0280  0.1476  0.9373  -2.0635   0.0000   0.0000   0.0000   0.2079
   7.700   0.8377   0.01238   0.00602   0.0287  0.1426  0.9373  -2.0907   0.0000   0.0000   0.0000   0.2072
   7.800   0.8432   0.01251   0.00609   0.0295  0.1352  0.9373  -2.1172   0.0000   0.0000   0.0000   0.2064
   7.900   0.8483   0.01268   0.00618   0.0303  0.1257  0.9375  -2.1432   0.0000   0.0000   0.0000   0.2055
   8.000   0.8540   0.01287   0.00628   0.0310  0.1144  0.9377  -2.1701   0.0000   0.0000   0.0000   0.2049
   8.100   0.8611   0.01300   0.00637   0.0315  0.1015  0.9379  -2.1995   0.0000   0.0000   0.0000   0.2045
   8.200   0.8687   0.01310   0.00644   0.0319  0.0967  0.9382  -2.2302   0.0000   0.0000   0.0000   0.2042
   8.300   0.8760   0.01323   0.00654   0.0323  0.0928  0.9385  -2.2603   0.0000   0.0000   0.0000   0.2039
   8.400   0.8830   0.01340   0.00665   0.0327  0.0887  0.9388  -2.2900   0.0000   0.0000   0.0000   0.2036
   8.500   0.8899   0.01360   0.00677   0.0331  0.0843  0.9393  -2.3196   0.0000   0.0000   0.0000   0.2033
   8.600   0.8975   0.01377   0.00688   0.0334  0.0793  0.9397  -2.3503   0.0000   0.0000   0.0000   0.2031
   8.700   0.9059   0.01388   0.00697   0.0336  0.0749  0.9401  -2.3828   0.0000   0.0000   0.0000   0.2031
   8.800   0.9148   0.01397   0.00706   0.0338  0.0738  0.9406  -2.4167   0.0000   0.0000   0.0000   0.2031
   8.900   0.9235   0.01407   0.00715   0.0340  0.0720  0.9410  -2.4504   0.0000   0.0000   0.0000   0.2032
   9.000   0.9320   0.01421   0.00727   0.0341  0.0691  0.9416  -2.5067   0.0000   0.0000   0.0000   0.2032
   9.100   0.9393   0.01444   0.00746   0.0344  0.0631  0.9422  -2.5853   0.0000   0.0000   0.0000   0.2030
   9.200   0.9448   0.01482   0.00774   0.0348  0.0527  0.9431  -2.6558   0.0000   0.0000   0.0000   0.2026
   9.300   0.9527   0.01502   0.00789   0.0350  0.0463  0.9438  -2.7380   0.0000   0.0000   0.0000   0.2026
   9.500   0.9616   0.01597   0.00862   0.0361  0.0236  0.9461  -2.8690   0.0000   0.0000   0.0000   0.2016
   9.600   0.9683   0.01626   0.00884   0.0363  0.0216  0.9470  -2.9460   0.0000   0.0000   0.0000   0.2014
   9.700   0.9757   0.01650   0.00902   0.0366  0.0187  0.9478  -3.0253   0.0000   0.0000   0.0000   0.2012
   9.800   0.9837   0.01671   0.00921   0.0368  0.0141  0.9485  -3.0954   0.0000   0.0000   0.0000   0.2011
  10.500   1.0474   0.02168   0.01541   0.0315  0.0155  0.9804  -3.8134   0.0000   0.0000   0.0000   0.2070
  10.600   1.0563   0.02234   0.01613   0.0307  0.0165  0.9832  -3.8873   0.0000   0.0000   0.0000   0.2078
  10.700   1.0641   0.02311   0.01701   0.0302  0.0181  0.9862  -3.9367   0.0000   0.0000   0.0000   0.2083
  10.800   1.0703   0.02413   0.01824   0.0303  0.0216  0.9893  -3.9020   0.0000   0.0000   0.0000   0.2081
  10.900   1.0697   0.02577   0.02013   0.0310  0.0239  0.9925  -3.8499   0.0000   0.0000   0.0000   0.2072
  11.000   1.0655   0.02770   0.02226   0.0324  0.0261  0.9946  -3.7816   0.0000   0.0000   0.0000   0.2056
  11.100   1.0860   0.02686   0.02131   0.0314  0.0298  0.9950  -3.9254   0.0000   0.0000   0.0000   0.2069


