xflr5 v6.61

 Calculated polar for: CLARK YS

 1 1 Reynolds number fixed          Mach number fixed         

 xtrf =   1.000 (top)        1.000 (bottom)
 Mach =   0.000     Re =     1.000 e 6     Ncrit =   9.000

  alpha     CL        CD       CDp       Cm    Top Xtr Bot Xtr   Cpmin    Chinge    XCp    
 ------- -------- --------- --------- -------- ------- ------- -------- --------- ---------
 -10.000  -0.8587   0.04041   0.03733   0.0000  0.7799  0.0118  -6.0476   0.0000   0.0000   0.0000   0.2409
  -9.900  -0.8647   0.03820   0.03498   0.0014  0.7783  0.0118  -6.1010   0.0000   0.0000   0.0000   0.2426
  -9.800  -0.8694   0.03611   0.03274   0.0029  0.7765  0.0118  -6.1449   0.0000   0.0000   0.0000   0.2443
  -9.700  -0.8726   0.03414   0.03062   0.0043  0.7746  0.0118  -6.1792   0.0000   0.0000   0.0000   0.2460
  -9.600  -0.8746   0.03229   0.02861   0.0057  0.7725  0.0118  -6.2040   0.0000   0.0000   0.0000   0.2477
  -9.500  -0.8752   0.03056   0.02673   0.0071  0.7703  0.0118  -6.2195   0.0000   0.0000   0.0000   0.2493
  -9.400  -0.8748   0.02895   0.02497   0.0083  0.7680  0.0118  -6.2263   0.0000   0.0000   0.0000   0.2508
  -9.300  -0.8732   0.02746   0.02332   0.0095  0.7657  0.0118  -6.2247   0.0000   0.0000   0.0000   0.2523
  -9.200  -0.8706   0.02609   0.02180   0.0107  0.7631  0.0118  -6.2150   0.0000   0.0000   0.0000   0.2536
  -9.100  -0.8671   0.02483   0.02040   0.0117  0.7605  0.0118  -6.1977   0.0000   0.0000   0.0000   0.2550
  -9.000  -0.8628   0.02367   0.01910   0.0126  0.7577  0.0118  -6.1735   0.0000   0.0000   0.0000   0.2562
  -8.900  -0.8578   0.02262   0.01792   0.0135  0.7548  0.0118  -6.1430   0.0000   0.0000   0.0000   0.2574
  -8.800  -0.8521   0.02166   0.01683   0.0143  0.7518  0.0118  -6.1067   0.0000   0.0000   0.0000   0.2585
  -8.700  -0.8458   0.02078   0.01582   0.0150  0.7486  0.0118  -6.0656   0.0000   0.0000   0.0000   0.2596
  -8.600  -0.8390   0.01997   0.01490   0.0157  0.7453  0.0118  -6.0203   0.0000   0.0000   0.0000   0.2606
  -8.500  -0.8318   0.01923   0.01405   0.0163  0.7418  0.0118  -5.9714   0.0000   0.0000   0.0000   0.2616
  -8.400  -0.8243   0.01855   0.01326   0.0169  0.7381  0.0119  -5.9192   0.0000   0.0000   0.0000   0.2625
  -8.300  -0.8164   0.01792   0.01253   0.0174  0.7340  0.0119  -5.8642   0.0000   0.0000   0.0000   0.2634
  -8.200  -0.8082   0.01735   0.01186   0.0178  0.7295  0.0120  -5.8068   0.0000   0.0000   0.0000   0.2643
  -8.100  -0.7998   0.01681   0.01124   0.0183  0.7247  0.0120  -5.7472   0.0000   0.0000   0.0000   0.2651
  -8.000  -0.7911   0.01631   0.01066   0.0186  0.7198  0.0121  -5.6856   0.0000   0.0000   0.0000   0.2660
  -7.900  -0.7822   0.01585   0.01012   0.0190  0.7150  0.0122  -5.6223   0.0000   0.0000   0.0000   0.2667
  -7.800  -0.7731   0.01542   0.00961   0.0193  0.7105  0.0123  -5.5574   0.0000   0.0000   0.0000   0.2675
  -7.700  -0.7639   0.01500   0.00914   0.0196  0.7065  0.0124  -5.4910   0.0000   0.0000   0.0000   0.2683
  -7.600  -0.7545   0.01461   0.00868   0.0198  0.7030  0.0125  -5.4231   0.0000   0.0000   0.0000   0.2690
  -7.500  -0.7455   0.01415   0.00820   0.0201  0.7000  0.0140  -5.3345   0.0000   0.0000   0.0000   0.2697
  -7.400  -0.6592   0.03741   0.03383   0.0061  0.6997  0.0318  -3.1043   0.0000   0.0000   0.0000   0.2534
  -7.300  -0.6520   0.03684   0.03322   0.0064  0.6996  0.0321  -3.0635   0.0000   0.0000   0.0000   0.2541
  -7.200  -0.6449   0.03625   0.03260   0.0067  0.6995  0.0324  -3.0241   0.0000   0.0000   0.0000   0.2547
  -7.100  -0.6374   0.03570   0.03202   0.0070  0.6994  0.0327  -2.9832   0.0000   0.0000   0.0000   0.2554
  -7.000  -0.6298   0.03514   0.03143   0.0073  0.6993  0.0330  -2.9430   0.0000   0.0000   0.0000   0.2561
  -6.900  -0.6223   0.03456   0.03082   0.0076  0.6992  0.0333  -2.9043   0.0000   0.0000   0.0000   0.2567
  -6.800  -0.6147   0.03398   0.03020   0.0079  0.6991  0.0336  -2.8669   0.0000   0.0000   0.0000   0.2574
  -6.700  -0.6071   0.03338   0.02956   0.0082  0.6989  0.0339  -2.8306   0.0000   0.0000   0.0000   0.2582
  -6.600  -0.5994   0.03277   0.02892   0.0086  0.6988  0.0343  -2.7952   0.0000   0.0000   0.0000   0.2589
  -6.500  -0.5916   0.03216   0.02827   0.0089  0.6986  0.0346  -2.7607   0.0000   0.0000   0.0000   0.2597
  -6.400  -0.5838   0.03154   0.02761   0.0092  0.6985  0.0349  -2.7268   0.0000   0.0000   0.0000   0.2605
  -6.300  -0.5758   0.03093   0.02695   0.0095  0.6983  0.0353  -2.6935   0.0000   0.0000   0.0000   0.2614
  -6.200  -0.5678   0.03032   0.02630   0.0099  0.6981  0.0356  -2.6607   0.0000   0.0000   0.0000   0.2622
  -6.100  -0.5597   0.02971   0.02565   0.0102  0.6979  0.0360  -2.6283   0.0000   0.0000   0.0000   0.2631
  -6.000  -0.5516   0.02911   0.02500   0.0105  0.6977  0.0364  -2.5962   0.0000   0.0000   0.0000   0.2640
  -5.900  -0.5433   0.02851   0.02436   0.0109  0.6974  0.0368  -2.5643   0.0000   0.0000   0.0000   0.2650
  -5.800  -0.5349   0.02793   0.02372   0.0112  0.6972  0.0372  -2.5326   0.0000   0.0000   0.0000   0.2659
  -5.700  -0.5264   0.02735   0.02310   0.0115  0.6969  0.0376  -2.5010   0.0000   0.0000   0.0000   0.2669
  -5.600  -0.5178   0.02678   0.02248   0.0118  0.6966  0.0380  -2.4695   0.0000   0.0000   0.0000   0.2679
  -5.500  -0.5090   0.02629   0.02196   0.0121  0.6963  0.0385  -2.4335   0.0000   0.0000   0.0000   0.2689
  -5.400  -0.4998   0.02590   0.02153   0.0123  0.6959  0.0393  -2.3924   0.0000   0.0000   0.0000   0.2697
  -5.300  -0.4905   0.02554   0.02114   0.0125  0.6955  0.0401  -2.3503   0.0000   0.0000   0.0000   0.2706
  -5.200  -0.4812   0.02516   0.02073   0.0127  0.6950  0.0410  -2.3102   0.0000   0.0000   0.0000   0.2716
  -5.100  -0.4719   0.02472   0.02025   0.0129  0.6945  0.0416  -2.2751   0.0000   0.0000   0.0000   0.2727
  -5.000  -0.4628   0.02419   0.01967   0.0132  0.6940  0.0420  -2.2459   0.0000   0.0000   0.0000   0.2739
  -4.900  -0.4536   0.02367   0.01910   0.0135  0.6934  0.0425  -2.2164   0.0000   0.0000   0.0000   0.2751
  -4.800  -0.4443   0.02317   0.01856   0.0138  0.6928  0.0429  -2.1863   0.0000   0.0000   0.0000   0.2764
  -4.700  -0.4348   0.02270   0.01804   0.0141  0.6921  0.0433  -2.1556   0.0000   0.0000   0.0000   0.2777
  -4.600  -0.4253   0.02225   0.01755   0.0143  0.6913  0.0438  -2.1241   0.0000   0.0000   0.0000   0.2790
  -4.500  -0.4156   0.02182   0.01708   0.0146  0.6904  0.0442  -2.0920   0.0000   0.0000   0.0000   0.2804
  -4.400  -0.4058   0.02142   0.01664   0.0148  0.6894  0.0447  -2.0592   0.0000   0.0000   0.0000   0.2818
  -4.300  -0.3960   0.02104   0.01622   0.0150  0.6883  0.0451  -2.0256   0.0000   0.0000   0.0000   0.2832
  -4.200  -0.3860   0.02069   0.01583   0.0152  0.6871  0.0456  -1.9914   0.0000   0.0000   0.0000   0.2847
  -4.100  -0.3760   0.02036   0.01547   0.0154  0.6857  0.0460  -1.9564   0.0000   0.0000   0.0000   0.2863
  -4.000  -0.3659   0.02006   0.01514   0.0155  0.6841  0.0465  -1.9206   0.0000   0.0000   0.0000   0.2879
  -3.900  -0.3557   0.01980   0.01484   0.0157  0.6823  0.0469  -1.8839   0.0000   0.0000   0.0000   0.2895
  -3.800  -0.3454   0.01957   0.01458   0.0158  0.6802  0.0474  -1.8461   0.0000   0.0000   0.0000   0.2913
  -3.700  -0.3350   0.01939   0.01438   0.0160  0.6778  0.0478  -1.8069   0.0000   0.0000   0.0000   0.2931
  -3.600  -0.3244   0.01928   0.01423   0.0161  0.6751  0.0482  -1.7658   0.0000   0.0000   0.0000   0.2950
  -3.500  -0.3137   0.01925   0.01419   0.0161  0.6720  0.0486  -1.7217   0.0000   0.0000   0.0000   0.2969
  -3.400  -0.3027   0.01939   0.01431   0.0162  0.6684  0.0491  -1.6727   0.0000   0.0000   0.0000   0.2988
  -3.300  -0.2914   0.01967   0.01458   0.0162  0.6643  0.0495  -1.6198   0.0000   0.0000   0.0000   0.3009
  -3.200  -0.2807   0.01976   0.01464   0.0162  0.6599  0.0497  -1.5750   0.0000   0.0000   0.0000   0.3033
  -3.100  -0.2704   0.01963   0.01447   0.0164  0.6553  0.0498  -1.5383   0.0000   0.0000   0.0000   0.3061
  -3.000  -0.2602   0.01940   0.01417   0.0166  0.6504  0.0499  -1.5056   0.0000   0.0000   0.0000   0.3092
  -2.900  -0.2502   0.01912   0.01382   0.0168  0.6452  0.0499  -1.4748   0.0000   0.0000   0.0000   0.3126
  -2.800  -0.2402   0.01881   0.01345   0.0170  0.6395  0.0500  -1.4452   0.0000   0.0000   0.0000   0.3163
  -2.700  -0.2301   0.01849   0.01305   0.0172  0.6333  0.0500  -1.4162   0.0000   0.0000   0.0000   0.3202
  -2.600  -0.2268   0.01437   0.00874   0.0180  0.6286  0.0595  -1.4580   0.0000   0.0000   0.0000   0.3244
  -2.500  -0.2164   0.01420   0.00855   0.0180  0.6211  0.0607  -1.4170   0.0000   0.0000   0.0000   0.3284
  -2.400  -0.2059   0.01404   0.00839   0.0180  0.6137  0.0620  -1.3762   0.0000   0.0000   0.0000   0.3326
  -2.300  -0.1953   0.01390   0.00823   0.0180  0.6070  0.0635  -1.3359   0.0000   0.0000   0.0000   0.3373
  -2.200  -0.1846   0.01377   0.00810   0.0180  0.6014  0.0652  -1.2961   0.0000   0.0000   0.0000   0.3426
  -2.100  -0.1738   0.01366   0.00799   0.0180  0.5998  0.0671  -1.2566   0.0000   0.0000   0.0000   0.3485
  -2.000  -0.1629   0.01358   0.00793   0.0180  0.5994  0.0691  -1.2171   0.0000   0.0000   0.0000   0.3552
  -1.900  -0.1519   0.01359   0.00795   0.0180  0.5990  0.0710  -1.1768   0.0000   0.0000   0.0000   0.3630
  -1.800  -0.1408   0.01377   0.00816   0.0180  0.5985  0.0728  -1.1335   0.0000   0.0000   0.0000   0.3721
  -1.700  -0.1312   0.01276   0.00709   0.0180  0.5979  0.0807  -1.1060   0.0000   0.0000   0.0000   0.3810
  -1.600  -0.1185   0.01469   0.00910   0.0180  0.5971  0.0756  -1.0395   0.0000   0.0000   0.0000   0.3959
  -1.500  -0.1102   0.01238   0.00683   0.0178  0.5965  0.0851  -1.0275   0.0000   0.0000   0.0000   0.4059
  -1.400  -0.0996   0.01229   0.00679   0.0178  0.5955  0.0874  -0.9884   0.0000   0.0000   0.0000   0.4224
  -1.300  -0.0890   0.01224   0.00677   0.0178  0.5942  0.0901  -0.9500   0.0000   0.0000   0.0000   0.4433
  -1.200  -0.0783   0.01225   0.00681   0.0178  0.5927  0.0930  -0.9122   0.0000   0.0000   0.0000   0.4701
  -1.100  -0.0675   0.01237   0.00695   0.0178  0.5908  0.0959  -0.8740   0.0000   0.0000   0.0000   0.5061
  -1.000  -0.0565   0.01275   0.00737   0.0178  0.5884  0.0982  -0.8325   0.0000   0.0000   0.0000   0.5568
  -0.900  -0.0449   0.01379   0.00850   0.0177  0.5850  0.0998  -0.7801   0.0000   0.0000   0.0000   0.6358
  -0.800  -0.0369   0.01120   0.00585   0.0177  0.5819  0.1235  -0.7778   0.0000   0.0000   0.0000   0.7187
  -0.700  -0.0269   0.01107   0.00576   0.0178  0.5767  0.1298  -0.7442   0.0000   0.0000   0.0000   0.8966
  -0.600  -0.0168   0.01097   0.00568   0.0178  0.5696  0.1364  -0.7119   0.0000   0.0000   0.0000   1.2917
  -0.500   0.0046   0.01028   0.00424   0.0185  0.5614  0.0744  -0.7966   0.0000   0.0000   0.0000  -3.6887
  -0.400   0.0155   0.01053   0.00446   0.0185  0.5513  0.0750  -0.7570   0.0000   0.0000   0.0000  -0.9312
  -0.300   0.0222   0.01031   0.00449   0.0184  0.5414  0.0986  -0.6886   0.0000   0.0000   0.0000  -0.5679
  -0.200   0.0351   0.00910   0.00256   0.0203  0.5321  0.0471  -0.8250   0.0000   0.0000   0.0000  -0.3229
  -0.100   0.0454   0.00900   0.00236   0.0206  0.5206  0.0445  -0.8097   0.0000   0.0000   0.0000  -0.1989
   0.000   0.0561   0.00892   0.00222   0.0208  0.5096  0.0419  -0.7911   0.0000   0.0000   0.0000  -0.1179
   0.100   0.0668   0.00885   0.00211   0.0209  0.5010  0.0396  -0.7705   0.0000   0.0000   0.0000  -0.0612
   0.200   0.0777   0.00879   0.00201   0.0210  0.4991  0.0379  -0.7447   0.0000   0.0000   0.0000  -0.0191
   0.300   0.0885   0.00873   0.00193   0.0210  0.4980  0.0366  -0.7146   0.0000   0.0000   0.0000   0.0129
   0.400   0.0994   0.00868   0.00186   0.0210  0.4967  0.0356  -0.6827   0.0000   0.0000   0.0000   0.0381
   0.500   0.1102   0.00864   0.00180   0.0211  0.4952  0.0347  -0.6816   0.0000   0.0000   0.0000   0.0584
   0.600   0.1211   0.00860   0.00175   0.0211  0.4935  0.0340  -0.6915   0.0000   0.0000   0.0000   0.0751
   0.700   0.1319   0.00857   0.00171   0.0211  0.4914  0.0333  -0.7015   0.0000   0.0000   0.0000   0.0891
   0.800   0.1428   0.00854   0.00167   0.0211  0.4888  0.0328  -0.7115   0.0000   0.0000   0.0000   0.1010
   0.900   0.1536   0.00853   0.00163   0.0211  0.4852  0.0322  -0.7215   0.0000   0.0000   0.0000   0.1111
   1.000   0.1643   0.00852   0.00160   0.0211  0.4795  0.0317  -0.7315   0.0000   0.0000   0.0000   0.1197
   1.100   0.1747   0.00855   0.00158   0.0212  0.4687  0.0313  -0.7414   0.0000   0.0000   0.0000   0.1269
   1.200   0.1848   0.00862   0.00156   0.0213  0.4527  0.0309  -0.7510   0.0000   0.0000   0.0000   0.1328
   1.300   0.1959   0.00859   0.00159   0.0213  0.4539  0.0305  -0.7612   0.0000   0.0000   0.0000   0.1392
   1.400   0.2058   0.00867   0.00157   0.0214  0.4365  0.0302  -0.7707   0.0000   0.0000   0.0000   0.1438
   1.500   0.2161   0.00873   0.00155   0.0215  0.4167  0.0300  -0.7803   0.0000   0.0000   0.0000   0.1483
   1.600   0.2266   0.00875   0.00153   0.0215  0.3998  0.0297  -0.7902   0.0000   0.0000   0.0000   0.1527
   1.700   0.2373   0.00876   0.00152   0.0215  0.3958  0.0295  -0.8002   0.0000   0.0000   0.0000   0.1567
   1.800   0.2479   0.00878   0.00150   0.0215  0.3916  0.0293  -0.8102   0.0000   0.0000   0.0000   0.1604
   1.900   0.2585   0.00880   0.00149   0.0216  0.3868  0.0292  -0.8202   0.0000   0.0000   0.0000   0.1638
   2.000   0.2690   0.00883   0.00149   0.0216  0.3811  0.0290  -0.8302   0.0000   0.0000   0.0000   0.1668
   2.100   0.2794   0.00888   0.00149   0.0217  0.3746  0.0289  -0.8402   0.0000   0.0000   0.0000   0.1695
   2.200   0.2896   0.00893   0.00150   0.0217  0.3676  0.0288  -0.8500   0.0000   0.0000   0.0000   0.1720
   2.300   0.2999   0.00900   0.00150   0.0218  0.3601  0.0288  -0.8598   0.0000   0.0000   0.0000   0.1743
   2.400   0.3102   0.00905   0.00150   0.0218  0.3521  0.0287  -0.8695   0.0000   0.0000   0.0000   0.1764
   2.500   0.3206   0.00910   0.00151   0.0219  0.3433  0.0288  -0.8792   0.0000   0.0000   0.0000   0.1785
   2.600   0.3311   0.00914   0.00151   0.0219  0.3338  0.0289  -0.8889   0.0000   0.0000   0.0000   0.1804
   2.700   0.3416   0.00917   0.00153   0.0220  0.3238  0.0292  -0.8983   0.0000   0.0000   0.0000   0.1823
   2.800   0.3522   0.00921   0.00153   0.0220  0.3137  0.0360  -0.9073   0.0000   0.0000   0.0000   0.1839
   3.200   0.3948   0.00929   0.00170   0.0220  0.2995  0.0476  -0.9629   0.0000   0.0000   0.0000   0.1903
   3.300   0.4056   0.00929   0.00173   0.0220  0.2994  0.0492  -0.9857   0.0000   0.0000   0.0000   0.1917
   3.400   0.4158   0.00924   0.00174   0.0221  0.2993  0.0725  -1.0079   0.0000   0.0000   0.0000   0.1928
   3.500   0.4265   0.00924   0.00177   0.0221  0.2992  0.0743  -1.0309   0.0000   0.0000   0.0000   0.1940
   3.600   0.4370   0.00923   0.00179   0.0221  0.2991  0.0840  -1.0538   0.0000   0.0000   0.0000   0.1952
   3.700   0.4474   0.00920   0.00182   0.0222  0.2990  0.0970  -1.0767   0.0000   0.0000   0.0000   0.1961
   3.900   0.4616   0.00866   0.00186   0.0235  0.2988  0.2974  -1.1148   0.0000   0.0000   0.0000   0.1947
   4.000   0.4712   0.00860   0.00190   0.0237  0.2986  0.3402  -1.1370   0.0000   0.0000   0.0000   0.1953
   4.100   0.4788   0.00842   0.00191   0.0242  0.2985  0.3993  -1.1570   0.0000   0.0000   0.0000   0.1948
   4.300   0.4681   0.00702   0.00194   0.0312  0.2984  0.8677  -1.1683   0.0000   0.0000   0.0000   0.1786
   4.400   0.4784   0.00706   0.00199   0.0313  0.2983  0.8773  -1.1918   0.0000   0.0000   0.0000   0.1797
   4.500   0.4889   0.00709   0.00204   0.0314  0.2982  0.8826  -1.2154   0.0000   0.0000   0.0000   0.1809
   4.600   0.4992   0.00713   0.00208   0.0315  0.2980  0.8863  -1.2390   0.0000   0.0000   0.0000   0.1819
   4.700   0.5095   0.00716   0.00213   0.0316  0.2979  0.8891  -1.2626   0.0000   0.0000   0.0000   0.1828
   4.800   0.5196   0.00720   0.00217   0.0317  0.2978  0.8912  -1.2862   0.0000   0.0000   0.0000   0.1837
   4.900   0.5298   0.00723   0.00222   0.0319  0.2976  0.8926  -1.3099   0.0000   0.0000   0.0000   0.1845
   5.000   0.5400   0.00727   0.00226   0.0320  0.2975  0.8937  -1.3338   0.0000   0.0000   0.0000   0.1853
   5.100   0.5502   0.00730   0.00230   0.0321  0.2973  0.8946  -1.3578   0.0000   0.0000   0.0000   0.1861
   5.200   0.5605   0.00734   0.00234   0.0322  0.2971  0.8954  -1.3819   0.0000   0.0000   0.0000   0.1869
   5.300   0.5708   0.00737   0.00238   0.0323  0.2969  0.8960  -1.4063   0.0000   0.0000   0.0000   0.1877
   5.400   0.5811   0.00741   0.00243   0.0324  0.2967  0.8965  -1.4307   0.0000   0.0000   0.0000   0.1884
   5.500   0.5915   0.00745   0.00247   0.0325  0.2964  0.8969  -1.4553   0.0000   0.0000   0.0000   0.1891
   5.600   0.6019   0.00748   0.00252   0.0326  0.2961  0.8973  -1.4801   0.0000   0.0000   0.0000   0.1899
   5.700   0.6122   0.00753   0.00257   0.0327  0.2956  0.8977  -1.5048   0.0000   0.0000   0.0000   0.1905
   5.900   0.6326   0.00772   0.00279   0.0332  0.2944  0.8988  -1.5547   0.0000   0.0000   0.0000   0.1913
   6.000   0.6443   0.00793   0.00302   0.0332  0.2929  0.8993  -1.5820   0.0000   0.0000   0.0000   0.1921
   6.200   0.6682   0.00830   0.00341   0.0330  0.2871  0.9042  -1.6373   0.0000   0.0000   0.0000   0.1939
   6.300   0.6776   0.00825   0.00335   0.0332  0.2840  0.9099  -1.6615   0.0000   0.0000   0.0000   0.1943
   6.400   0.6893   0.00830   0.00340   0.0330  0.2810  0.9149  -1.6886   0.0000   0.0000   0.0000   0.1953
   6.500   0.7009   0.00839   0.00348   0.0327  0.2765  0.9175  -1.7157   0.0000   0.0000   0.0000   0.1963
   6.600   0.7105   0.00849   0.00353   0.0328  0.2665  0.9178  -1.7403   0.0000   0.0000   0.0000   0.1967
   6.700   0.7178   0.00873   0.00360   0.0332  0.2441  0.9177  -1.7619   0.0000   0.0000   0.0000   0.1966
   6.800   0.7253   0.00898   0.00370   0.0335  0.2161  0.9177  -1.7834   0.0000   0.0000   0.0000   0.1965
   6.900   0.7344   0.00912   0.00375   0.0337  0.1958  0.9177  -1.8072   0.0000   0.0000   0.0000   0.1968
   7.000   0.7427   0.00932   0.00384   0.0339  0.1849  0.9178  -1.8301   0.0000   0.0000   0.0000   0.1969
   7.100   0.7498   0.00964   0.00401   0.0342  0.1707  0.9179  -1.8513   0.0000   0.0000   0.0000   0.1968
   7.200   0.7578   0.00991   0.00413   0.0344  0.1540  0.9180  -1.8757   0.0000   0.0000   0.0000   0.1968
   7.300   0.7674   0.01003   0.00420   0.0344  0.1470  0.9180  -1.9085   0.0000   0.0000   0.0000   0.1972
   7.400   0.7768   0.01017   0.00429   0.0345  0.1408  0.9181  -1.9411   0.0000   0.0000   0.0000   0.1976
   7.500   0.7853   0.01041   0.00444   0.0346  0.1294  0.9183  -1.9722   0.0000   0.0000   0.0000   0.1978
   7.600   0.7939   0.01068   0.00461   0.0347  0.1145  0.9185  -2.0032   0.0000   0.0000   0.0000   0.1980
   7.700   0.8034   0.01084   0.00471   0.0347  0.0996  0.9187  -2.0361   0.0000   0.0000   0.0000   0.1984
   7.800   0.8130   0.01098   0.00481   0.0347  0.0951  0.9189  -2.0697   0.0000   0.0000   0.0000   0.1988
   7.900   0.8224   0.01116   0.00492   0.0347  0.0905  0.9192  -2.1030   0.0000   0.0000   0.0000   0.1991
   8.000   0.8315   0.01136   0.00505   0.0347  0.0857  0.9196  -2.1359   0.0000   0.0000   0.0000   0.1995
   8.100   0.8408   0.01155   0.00519   0.0348  0.0804  0.9199  -2.1690   0.0000   0.0000   0.0000   0.1998
   8.200   0.8507   0.01168   0.00530   0.0347  0.0754  0.9203  -2.2035   0.0000   0.0000   0.0000   0.2002
   8.300   0.8610   0.01177   0.00538   0.0346  0.0741  0.9207  -2.2393   0.0000   0.0000   0.0000   0.2006
   8.400   0.8712   0.01187   0.00548   0.0345  0.0727  0.9211  -2.2751   0.0000   0.0000   0.0000   0.2011
   8.500   0.8812   0.01199   0.00558   0.0345  0.0705  0.9217  -2.3108   0.0000   0.0000   0.0000   0.2015
   8.600   0.8907   0.01217   0.00572   0.0345  0.0662  0.9223  -2.3457   0.0000   0.0000   0.0000   0.2018
   8.700   0.8990   0.01247   0.00593   0.0345  0.0580  0.9232  -2.3786   0.0000   0.0000   0.0000   0.2019
   8.800   0.9082   0.01268   0.00608   0.0345  0.0493  0.9240  -2.4132   0.0000   0.0000   0.0000   0.2022
   8.900   0.9179   0.01283   0.00622   0.0345  0.0461  0.9248  -2.4491   0.0000   0.0000   0.0000   0.2025
   9.100   0.9324   0.01364   0.00684   0.0347  0.0238  0.9274  -2.5573   0.0000   0.0000   0.0000   0.2025
   9.200   0.9414   0.01386   0.00702   0.0348  0.0222  0.9285  -2.6435   0.0000   0.0000   0.0000   0.2027
   9.300   0.9502   0.01409   0.00721   0.0348  0.0206  0.9297  -2.7299   0.0000   0.0000   0.0000   0.2028
   9.400   0.9596   0.01426   0.00736   0.0348  0.0185  0.9309  -2.8193   0.0000   0.0000   0.0000   0.2030
   9.500   0.9691   0.01442   0.00750   0.0348  0.0161  0.9321  -2.9096   0.0000   0.0000   0.0000   0.2033
   9.600   0.9788   0.01456   0.00763   0.0348  0.0135  0.9334  -2.9976   0.0000   0.0000   0.0000   0.2035
   9.700   0.9883   0.01472   0.00777   0.0348  0.0124  0.9348  -3.0849   0.0000   0.0000   0.0000   0.2036
   9.800   0.9977   0.01488   0.00795   0.0348  0.0123  0.9363  -3.1754   0.0000   0.0000   0.0000   0.2038
   9.900   1.0069   0.01505   0.00814   0.0349  0.0122  0.9380  -3.2649   0.0000   0.0000   0.0000   0.2039


