xflr5 v6.61

 Calculated polar for: CLARK YS

 1 1 Reynolds number fixed          Mach number fixed         

 xtrf =   1.000 (top)        1.000 (bottom)
 Mach =   0.000     Re =     0.719 e 6     Ncrit =   9.000

  alpha     CL        CD       CDp       Cm    Top Xtr Bot Xtr   Cpmin    Chinge    XCp    
 ------- -------- --------- --------- -------- ------- ------- -------- --------- ---------
 -10.000  -0.6016   0.09573   0.09322   0.0184  0.7846  0.0321  -2.2736   0.0000   0.0000   0.0000   0.2727
  -9.900  -0.5984   0.09503   0.09253   0.0182  0.7833  0.0328  -2.2176   0.0000   0.0000   0.0000   0.2726
  -9.800  -0.5963   0.09409   0.09159   0.0178  0.7820  0.0334  -2.1752   0.0000   0.0000   0.0000   0.2722
  -9.700  -0.5950   0.09296   0.09047   0.0172  0.7806  0.0340  -2.1434   0.0000   0.0000   0.0000   0.2714
  -9.600  -0.5945   0.09168   0.08919   0.0165  0.7791  0.0346  -2.1198   0.0000   0.0000   0.0000   0.2704
  -9.500  -0.5944   0.09025   0.08777   0.0156  0.7775  0.0351  -2.1029   0.0000   0.0000   0.0000   0.2691
  -9.400  -0.5947   0.08864   0.08617   0.0145  0.7759  0.0356  -2.0918   0.0000   0.0000   0.0000   0.2673
  -9.300  -0.5958   0.08683   0.08436   0.0130  0.7741  0.0361  -2.0899   0.0000   0.0000   0.0000   0.2650
  -9.200  -0.5981   0.08474   0.08228   0.0112  0.7723  0.0365  -2.1004   0.0000   0.0000   0.0000   0.2620
  -9.100  -0.6010   0.08256   0.08010   0.0092  0.7704  0.0369  -2.1163   0.0000   0.0000   0.0000   0.2588
  -9.000  -0.6053   0.08038   0.07791   0.0075  0.7684  0.0372  -2.1388   0.0000   0.0000   0.0000   0.2561
  -8.900  -0.6110   0.07820   0.07572   0.0061  0.7661  0.0374  -2.1678   0.0000   0.0000   0.0000   0.2539
  -8.800  -0.6149   0.07621   0.07371   0.0050  0.7639  0.0378  -2.1836   0.0000   0.0000   0.0000   0.2522
  -8.700  -0.6177   0.07426   0.07175   0.0041  0.7616  0.0382  -2.2003   0.0000   0.0000   0.0000   0.2508
  -8.600  -0.6201   0.07242   0.06989   0.0034  0.7592  0.0387  -2.2185   0.0000   0.0000   0.0000   0.2498
  -8.500  -0.6224   0.07070   0.06813   0.0030  0.7569  0.0392  -2.2350   0.0000   0.0000   0.0000   0.2492
  -8.400  -0.6229   0.06891   0.06631   0.0024  0.7546  0.0399  -2.2481   0.0000   0.0000   0.0000   0.2483
  -8.300  -0.6225   0.06711   0.06447   0.0018  0.7522  0.0406  -2.2604   0.0000   0.0000   0.0000   0.2474
  -8.200  -0.6216   0.06535   0.06267   0.0013  0.7499  0.0414  -2.2715   0.0000   0.0000   0.0000   0.2467
  -8.100  -0.6207   0.06369   0.06097   0.0011  0.7475  0.0422  -2.2816   0.0000   0.0000   0.0000   0.2463
  -8.000  -0.6189   0.06207   0.05930   0.0008  0.7451  0.0431  -2.2906   0.0000   0.0000   0.0000   0.2460
  -7.900  -0.6158   0.06051   0.05769   0.0006  0.7427  0.0441  -2.2977   0.0000   0.0000   0.0000   0.2456
  -7.800  -0.6104   0.05928   0.05641   0.0004  0.7401  0.0452  -2.2940   0.0000   0.0000   0.0000   0.2453
  -7.700  -0.6021   0.05880   0.05588   0.0003  0.7374  0.0465  -2.2679   0.0000   0.0000   0.0000   0.2453
  -7.600  -0.5880   0.05957   0.05663   0.0003  0.7343  0.0479  -2.2025   0.0000   0.0000   0.0000   0.2453
  -7.500  -0.5780   0.05965   0.05668   0.0003  0.7313  0.0486  -2.1599   0.0000   0.0000   0.0000   0.2454
  -7.400  -0.5719   0.05891   0.05590   0.0004  0.7283  0.0488  -2.1433   0.0000   0.0000   0.0000   0.2456
  -7.300  -0.5668   0.05791   0.05484   0.0005  0.7252  0.0490  -2.1347   0.0000   0.0000   0.0000   0.2458
  -7.200  -0.5621   0.05681   0.05369   0.0006  0.7222  0.0491  -2.1286   0.0000   0.0000   0.0000   0.2461
  -7.100  -0.5575   0.05570   0.05253   0.0008  0.7193  0.0492  -2.1230   0.0000   0.0000   0.0000   0.2465
  -7.000  -0.5530   0.05458   0.05136   0.0010  0.7164  0.0493  -2.1173   0.0000   0.0000   0.0000   0.2469
  -6.900  -0.5482   0.05346   0.05018   0.0013  0.7136  0.0493  -2.1115   0.0000   0.0000   0.0000   0.2474
  -6.800  -0.5433   0.05234   0.04902   0.0015  0.7110  0.0494  -2.1052   0.0000   0.0000   0.0000   0.2479
  -6.700  -0.5382   0.05124   0.04786   0.0018  0.7084  0.0494  -2.0984   0.0000   0.0000   0.0000   0.2484
  -6.600  -0.5328   0.05014   0.04672   0.0020  0.7060  0.0495  -2.0909   0.0000   0.0000   0.0000   0.2489
  -6.500  -0.5272   0.04907   0.04559   0.0023  0.7036  0.0495  -2.0826   0.0000   0.0000   0.0000   0.2495
  -6.400  -0.5215   0.04802   0.04449   0.0025  0.7013  0.0496  -2.0737   0.0000   0.0000   0.0000   0.2501
  -6.300  -0.5158   0.04698   0.04340   0.0029  0.6999  0.0496  -2.0642   0.0000   0.0000   0.0000   0.2508
  -6.200  -0.5101   0.04594   0.04230   0.0033  0.6998  0.0496  -2.0542   0.0000   0.0000   0.0000   0.2516
  -6.100  -0.5042   0.04491   0.04122   0.0037  0.6997  0.0497  -2.0435   0.0000   0.0000   0.0000   0.2525
  -6.000  -0.4982   0.04392   0.04016   0.0041  0.6996  0.0497  -2.0319   0.0000   0.0000   0.0000   0.2534
  -5.900  -0.4918   0.04299   0.03917   0.0045  0.6995  0.0497  -2.0185   0.0000   0.0000   0.0000   0.2544
  -5.800  -0.4852   0.04209   0.03822   0.0049  0.6993  0.0498  -2.0041   0.0000   0.0000   0.0000   0.2554
  -5.700  -0.4785   0.04122   0.03728   0.0053  0.6991  0.0498  -1.9891   0.0000   0.0000   0.0000   0.2564
  -5.600  -0.4717   0.04034   0.03635   0.0057  0.6990  0.0498  -1.9739   0.0000   0.0000   0.0000   0.2575
  -5.500  -0.4648   0.03946   0.03541   0.0061  0.6988  0.0499  -1.9588   0.0000   0.0000   0.0000   0.2586
  -5.400  -0.4578   0.03856   0.03445   0.0065  0.6986  0.0499  -1.9440   0.0000   0.0000   0.0000   0.2597
  -5.300  -0.4507   0.03766   0.03348   0.0070  0.6984  0.0499  -1.9293   0.0000   0.0000   0.0000   0.2609
  -5.200  -0.4435   0.03677   0.03253   0.0074  0.6981  0.0499  -1.9140   0.0000   0.0000   0.0000   0.2621
  -5.100  -0.4361   0.03590   0.03160   0.0078  0.6979  0.0499  -1.8981   0.0000   0.0000   0.0000   0.2634
  -5.000  -0.4574   0.02638   0.02147   0.0114  0.6978  0.0536  -2.1439   0.0000   0.0000   0.0000   0.2702
  -4.900  -0.4490   0.02563   0.02071   0.0117  0.6975  0.0543  -2.1115   0.0000   0.0000   0.0000   0.2713
  -4.800  -0.4401   0.02506   0.02012   0.0119  0.6971  0.0549  -2.0753   0.0000   0.0000   0.0000   0.2723
  -4.700  -0.4309   0.02456   0.01961   0.0121  0.6968  0.0555  -2.0378   0.0000   0.0000   0.0000   0.2733
  -4.600  -0.4216   0.02411   0.01914   0.0122  0.6963  0.0561  -1.9997   0.0000   0.0000   0.0000   0.2744
  -4.500  -0.4122   0.02368   0.01871   0.0124  0.6959  0.0567  -1.9613   0.0000   0.0000   0.0000   0.2755
  -4.400  -0.4026   0.02329   0.01830   0.0125  0.6954  0.0573  -1.9229   0.0000   0.0000   0.0000   0.2766
  -4.300  -0.3929   0.02291   0.01792   0.0127  0.6948  0.0579  -1.8833   0.0000   0.0000   0.0000   0.2777
  -4.200  -0.3832   0.02255   0.01756   0.0128  0.6941  0.0586  -1.8442   0.0000   0.0000   0.0000   0.2789
  -4.100  -0.3734   0.02220   0.01720   0.0129  0.6934  0.0593  -1.8055   0.0000   0.0000   0.0000   0.2801
  -4.000  -0.3636   0.02186   0.01685   0.0131  0.6926  0.0602  -1.7674   0.0000   0.0000   0.0000   0.2814
  -3.900  -0.3538   0.02152   0.01650   0.0132  0.6917  0.0611  -1.7297   0.0000   0.0000   0.0000   0.2828
  -3.800  -0.3439   0.02120   0.01617   0.0133  0.6906  0.0621  -1.6927   0.0000   0.0000   0.0000   0.2843
  -3.700  -0.3340   0.02089   0.01584   0.0135  0.6895  0.0633  -1.6561   0.0000   0.0000   0.0000   0.2859
  -3.600  -0.3239   0.02060   0.01552   0.0136  0.6882  0.0645  -1.6201   0.0000   0.0000   0.0000   0.2876
  -3.500  -0.3138   0.02033   0.01523   0.0138  0.6868  0.0660  -1.5843   0.0000   0.0000   0.0000   0.2894
  -3.400  -0.3035   0.02011   0.01499   0.0139  0.6852  0.0676  -1.5485   0.0000   0.0000   0.0000   0.2914
  -3.300  -0.2930   0.01997   0.01483   0.0140  0.6834  0.0693  -1.5117   0.0000   0.0000   0.0000   0.2934
  -3.200  -0.2821   0.01997   0.01482   0.0141  0.6815  0.0710  -1.4727   0.0000   0.0000   0.0000   0.2956
  -3.100  -0.2706   0.02022   0.01506   0.0141  0.6792  0.0725  -1.4288   0.0000   0.0000   0.0000   0.2978
  -3.000  -0.2584   0.02087   0.01573   0.0141  0.6765  0.0739  -1.3761   0.0000   0.0000   0.0000   0.3000
  -2.900  -0.2460   0.02168   0.01654   0.0140  0.6736  0.0746  -1.3223   0.0000   0.0000   0.0000   0.3024
  -2.800  -0.2446   0.01762   0.01222   0.0152  0.6715  0.0800  -1.3686   0.0000   0.0000   0.0000   0.3074
  -2.700  -0.2347   0.01726   0.01188   0.0152  0.6683  0.0816  -1.3306   0.0000   0.0000   0.0000   0.3102
  -2.600  -0.2245   0.01703   0.01167   0.0153  0.6648  0.0830  -1.2917   0.0000   0.0000   0.0000   0.3134
  -2.500  -0.2143   0.01684   0.01150   0.0153  0.6609  0.0845  -1.2526   0.0000   0.0000   0.0000   0.3168
  -2.400  -0.2041   0.01670   0.01135   0.0154  0.6567  0.0862  -1.2144   0.0000   0.0000   0.0000   0.3208
  -2.300  -0.1938   0.01659   0.01123   0.0155  0.6519  0.0881  -1.1766   0.0000   0.0000   0.0000   0.3252
  -2.200  -0.1833   0.01653   0.01116   0.0156  0.6468  0.0903  -1.1391   0.0000   0.0000   0.0000   0.3302
  -2.100  -0.1727   0.01655   0.01117   0.0156  0.6415  0.0927  -1.1016   0.0000   0.0000   0.0000   0.3358
  -2.000  -0.1618   0.01668   0.01129   0.0157  0.6358  0.0951  -1.0634   0.0000   0.0000   0.0000   0.3421
  -1.900  -0.1504   0.01697   0.01159   0.0157  0.6294  0.0972  -1.0237   0.0000   0.0000   0.0000   0.3494
  -1.800  -0.1384   0.01765   0.01230   0.0156  0.6223  0.0988  -0.9778   0.0000   0.0000   0.0000   0.3579
  -1.700  -0.1331   0.01472   0.00915   0.0162  0.6175  0.1130  -0.9915   0.0000   0.0000   0.0000   0.3664
  -1.600  -0.1229   0.01445   0.00893   0.0162  0.6114  0.1170  -0.9582   0.0000   0.0000   0.0000   0.3765
  -1.500  -0.1127   0.01425   0.00876   0.0162  0.6059  0.1208  -0.9254   0.0000   0.0000   0.0000   0.3887
  -1.400  -0.0881   0.01136   0.00479   0.0177  0.6028  0.0569  -1.1454   0.0000   0.0000   0.0000   0.4428
  -1.300  -0.0768   0.01133   0.00474   0.0177  0.5999  0.0539  -1.1160   0.0000   0.0000   0.0000   0.4724
  -1.200  -0.0655   0.01135   0.00477   0.0177  0.5995  0.0525  -1.0795   0.0000   0.0000   0.0000   0.5112
  -1.100  -0.0542   0.01139   0.00482   0.0177  0.5992  0.0515  -1.0416   0.0000   0.0000   0.0000   0.5658
  -1.000  -0.0439   0.01075   0.00414   0.0181  0.5988  0.0476  -1.0515   0.0000   0.0000   0.0000   0.6509
  -0.900  -0.0335   0.01044   0.00378   0.0184  0.5983  0.0460  -1.0376   0.0000   0.0000   0.0000   0.7836
  -0.800  -0.0231   0.01022   0.00353   0.0186  0.5977  0.0445  -1.0185   0.0000   0.0000   0.0000   1.0363
  -0.700  -0.0126   0.01005   0.00332   0.0188  0.5971  0.0432  -0.9967   0.0000   0.0000   0.0000   1.7130
  -0.600  -0.0020   0.00990   0.00314   0.0190  0.5962  0.0419  -0.9732   0.0000   0.0000   0.0000   9.6539
  -0.500   0.0087   0.00978   0.00299   0.0191  0.5952  0.0408  -0.9484   0.0000   0.0000   0.0000  -1.9115
  -0.400   0.0194   0.00967   0.00286   0.0192  0.5940  0.0398  -0.9226   0.0000   0.0000   0.0000  -0.7260
  -0.300   0.0302   0.00957   0.00274   0.0194  0.5924  0.0388  -0.8956   0.0000   0.0000   0.0000  -0.3828
  -0.200   0.0409   0.00949   0.00263   0.0194  0.5905  0.0380  -0.8668   0.0000   0.0000   0.0000  -0.2193
  -0.100   0.0517   0.00942   0.00253   0.0195  0.5879  0.0372  -0.8362   0.0000   0.0000   0.0000  -0.1236
   0.000   0.0625   0.00935   0.00244   0.0196  0.5848  0.0366  -0.8044   0.0000   0.0000   0.0000  -0.0608
   0.100   0.0732   0.00930   0.00236   0.0196  0.5807  0.0360  -0.7718   0.0000   0.0000   0.0000  -0.0166
   0.200   0.0839   0.00925   0.00228   0.0197  0.5754  0.0355  -0.7390   0.0000   0.0000   0.0000   0.0161
   0.300   0.0945   0.00921   0.00220   0.0198  0.5686  0.0350  -0.7060   0.0000   0.0000   0.0000   0.0412
   0.400   0.1051   0.00919   0.00212   0.0199  0.5604  0.0345  -0.6735   0.0000   0.0000   0.0000   0.0609
   0.500   0.1155   0.00917   0.00205   0.0200  0.5513  0.0341  -0.6832   0.0000   0.0000   0.0000   0.0768
   0.600   0.1259   0.00917   0.00197   0.0201  0.5410  0.0337  -0.6929   0.0000   0.0000   0.0000   0.0899
   0.700   0.1363   0.00917   0.00191   0.0201  0.5297  0.0333  -0.7027   0.0000   0.0000   0.0000   0.1011
   0.800   0.1468   0.00917   0.00186   0.0202  0.5175  0.0330  -0.7124   0.0000   0.0000   0.0000   0.1111
   0.900   0.1574   0.00917   0.00182   0.0203  0.5065  0.0326  -0.7223   0.0000   0.0000   0.0000   0.1199
   1.000   0.1682   0.00916   0.00179   0.0203  0.4997  0.0323  -0.7322   0.0000   0.0000   0.0000   0.1279
   1.100   0.1791   0.00914   0.00177   0.0203  0.4985  0.0320  -0.7423   0.0000   0.0000   0.0000   0.1351
   1.200   0.1900   0.00912   0.00175   0.0203  0.4971  0.0318  -0.7524   0.0000   0.0000   0.0000   0.1415
   1.300   0.2010   0.00910   0.00180   0.0203  0.4961  0.0318  -0.7624   0.0000   0.0000   0.0000   0.1472
   1.400   0.2118   0.00909   0.00177   0.0202  0.4942  0.0316  -0.7725   0.0000   0.0000   0.0000   0.1522
   1.500   0.2227   0.00908   0.00175   0.0203  0.4918  0.0315  -0.7826   0.0000   0.0000   0.0000   0.1568
   1.600   0.2335   0.00907   0.00173   0.0203  0.4887  0.0313  -0.7926   0.0000   0.0000   0.0000   0.1609
   1.700   0.2442   0.00907   0.00171   0.0203  0.4844  0.0312  -0.8027   0.0000   0.0000   0.0000   0.1645
   1.800   0.2548   0.00908   0.00169   0.0203  0.4780  0.0312  -0.8127   0.0000   0.0000   0.0000   0.1677
   1.900   0.2652   0.00911   0.00167   0.0204  0.4677  0.0311  -0.8226   0.0000   0.0000   0.0000   0.1705
   2.000   0.2753   0.00918   0.00166   0.0205  0.4532  0.0311  -0.8323   0.0000   0.0000   0.0000   0.1727
   2.100   0.2851   0.00927   0.00165   0.0206  0.4363  0.0312  -0.8417   0.0000   0.0000   0.0000   0.1747
   2.200   0.2950   0.00935   0.00164   0.0208  0.4167  0.0313  -0.8512   0.0000   0.0000   0.0000   0.1767
   2.300   0.3054   0.00939   0.00164   0.0208  0.3997  0.0315  -0.8608   0.0000   0.0000   0.0000   0.1788
   2.400   0.3160   0.00941   0.00164   0.0209  0.3949  0.0319  -0.8708   0.0000   0.0000   0.0000   0.1808
   2.500   0.3264   0.00944   0.00164   0.0209  0.3893  0.0329  -0.8807   0.0000   0.0000   0.0000   0.1827
   2.600   0.3370   0.00951   0.00163   0.0210  0.3827  0.0424  -0.8907   0.0000   0.0000   0.0000   0.1845
   2.700   0.3470   0.00956   0.00171   0.0211  0.3753  0.0459  -0.9004   0.0000   0.0000   0.0000   0.1859
   2.800   0.3570   0.00964   0.00178   0.0211  0.3672  0.0484  -0.9100   0.0000   0.0000   0.0000   0.1872
   2.900   0.3664   0.00966   0.00182   0.0213  0.3585  0.0736  -0.9191   0.0000   0.0000   0.0000   0.1882
   3.000   0.3756   0.00967   0.00184   0.0216  0.3481  0.1002  -0.9277   0.0000   0.0000   0.0000   0.1889
   3.300   0.3945   0.00918   0.00205   0.0238  0.2997  0.3756  -0.9694   0.0000   0.0000   0.0000   0.1857
   3.400   0.3964   0.00874   0.00204   0.0255  0.2997  0.5208  -0.9824   0.0000   0.0000   0.0000   0.1816
   3.500   0.3865   0.00797   0.00191   0.0298  0.2996  0.7145  -0.9828   0.0000   0.0000   0.0000   0.1686
   3.600   0.3964   0.00776   0.00218   0.0304  0.2996  0.8712  -1.0054   0.0000   0.0000   0.0000   0.1691
   3.700   0.4068   0.00780   0.00223   0.0305  0.2995  0.8772  -1.0281   0.0000   0.0000   0.0000   0.1708
   3.800   0.4171   0.00784   0.00228   0.0306  0.2994  0.8818  -1.0508   0.0000   0.0000   0.0000   0.1722
   3.900   0.4271   0.00788   0.00234   0.0308  0.2993  0.8857  -1.0734   0.0000   0.0000   0.0000   0.1735
   4.000   0.4370   0.00793   0.00239   0.0310  0.2992  0.8889  -1.0957   0.0000   0.0000   0.0000   0.1745
   4.100   0.4465   0.00798   0.00245   0.0313  0.2992  0.8913  -1.1179   0.0000   0.0000   0.0000   0.1752
   4.200   0.4559   0.00803   0.00251   0.0316  0.2991  0.8933  -1.1400   0.0000   0.0000   0.0000   0.1758
   4.300   0.4652   0.00809   0.00257   0.0320  0.2990  0.8948  -1.1622   0.0000   0.0000   0.0000   0.1764
   4.400   0.4747   0.00814   0.00264   0.0323  0.2989  0.8959  -1.1846   0.0000   0.0000   0.0000   0.1770
   4.500   0.4844   0.00820   0.00270   0.0326  0.2988  0.8966  -1.2073   0.0000   0.0000   0.0000   0.1778
   4.600   0.4944   0.00826   0.00277   0.0328  0.2988  0.8971  -1.2304   0.0000   0.0000   0.0000   0.1786
   4.700   0.5045   0.00831   0.00283   0.0329  0.2987  0.8975  -1.2539   0.0000   0.0000   0.0000   0.1796
   4.800   0.5148   0.00837   0.00289   0.0330  0.2986  0.8979  -1.2776   0.0000   0.0000   0.0000   0.1806
   4.900   0.5251   0.00842   0.00295   0.0331  0.2985  0.8981  -1.3014   0.0000   0.0000   0.0000   0.1816
   5.000   0.5356   0.00847   0.00301   0.0332  0.2984  0.8984  -1.3255   0.0000   0.0000   0.0000   0.1825
   5.100   0.5461   0.00853   0.00308   0.0333  0.2983  0.8986  -1.3498   0.0000   0.0000   0.0000   0.1835
   5.500   0.5905   0.00900   0.00361   0.0335  0.2977  0.9054  -1.4517   0.0000   0.0000   0.0000   0.1874
   5.600   0.6057   0.00908   0.00372   0.0326  0.2975  0.9156  -1.4825   0.0000   0.0000   0.0000   0.1901
   5.700   0.7163   0.01144   0.00612   0.0137  0.2957  0.9439  -1.6347   0.0000   0.0000   0.0000   0.2246
   5.800   0.7243   0.01134   0.00601   0.0142  0.2945  0.9433  -1.6576   0.0000   0.0000   0.0000   0.2241
   5.900   0.7322   0.01125   0.00593   0.0147  0.2928  0.9427  -1.6803   0.0000   0.0000   0.0000   0.2235
   6.000   0.7401   0.01118   0.00585   0.0152  0.2908  0.9420  -1.7029   0.0000   0.0000   0.0000   0.2230
   6.100   0.7478   0.01112   0.00579   0.0157  0.2883  0.9414  -1.7252   0.0000   0.0000   0.0000   0.2224
   6.200   0.7553   0.01107   0.00574   0.0162  0.2861  0.9408  -1.7473   0.0000   0.0000   0.0000   0.2218
   6.300   0.7628   0.01103   0.00569   0.0168  0.2841  0.9401  -1.7692   0.0000   0.0000   0.0000   0.2211
   6.400   0.7700   0.01099   0.00565   0.0174  0.2817  0.9395  -1.7909   0.0000   0.0000   0.0000   0.2205
   6.500   0.7769   0.01096   0.00561   0.0180  0.2787  0.9389  -1.8123   0.0000   0.0000   0.0000   0.2197
   6.600   0.7835   0.01094   0.00558   0.0188  0.2744  0.9383  -1.8332   0.0000   0.0000   0.0000   0.2189
   6.700   0.7893   0.01095   0.00554   0.0196  0.2672  0.9377  -1.8533   0.0000   0.0000   0.0000   0.2179
   6.800   0.7935   0.01101   0.00553   0.0207  0.2534  0.9371  -1.8713   0.0000   0.0000   0.0000   0.2165
   6.900   0.7956   0.01115   0.00553   0.0221  0.2339  0.9365  -1.8864   0.0000   0.0000   0.0000   0.2147
   7.000   0.7982   0.01127   0.00552   0.0235  0.2113  0.9360  -1.9062   0.0000   0.0000   0.0000   0.2130
   7.100   0.8025   0.01131   0.00551   0.0245  0.1963  0.9356  -1.9302   0.0000   0.0000   0.0000   0.2117
   7.200   0.8064   0.01139   0.00550   0.0257  0.1875  0.9353  -1.9538   0.0000   0.0000   0.0000   0.2103
   7.300   0.8095   0.01154   0.00554   0.0269  0.1775  0.9351  -1.9758   0.0000   0.0000   0.0000   0.2088
   7.400   0.8120   0.01175   0.00561   0.0281  0.1659  0.9350  -1.9968   0.0000   0.0000   0.0000   0.2072
   7.500   0.8165   0.01190   0.00568   0.0291  0.1522  0.9350  -2.0211   0.0000   0.0000   0.0000   0.2061
   7.600   0.8230   0.01197   0.00571   0.0297  0.1466  0.9351  -2.0492   0.0000   0.0000   0.0000   0.2055
   7.700   0.8295   0.01207   0.00577   0.0303  0.1410  0.9351  -2.0774   0.0000   0.0000   0.0000   0.2049
   7.800   0.8354   0.01222   0.00585   0.0310  0.1327  0.9353  -2.1047   0.0000   0.0000   0.0000   0.2043
   7.900   0.8413   0.01242   0.00595   0.0316  0.1219  0.9356  -2.1317   0.0000   0.0000   0.0000   0.2037
   8.000   0.8479   0.01261   0.00607   0.0321  0.1091  0.9358  -2.1601   0.0000   0.0000   0.0000   0.2033
   8.100   0.8559   0.01272   0.00615   0.0324  0.0989  0.9361  -2.1913   0.0000   0.0000   0.0000   0.2031
   8.200   0.8638   0.01284   0.00624   0.0328  0.0949  0.9364  -2.2223   0.0000   0.0000   0.0000   0.2030
   8.300   0.8714   0.01300   0.00635   0.0331  0.0908  0.9367  -2.2530   0.0000   0.0000   0.0000   0.2028
   8.400   0.8788   0.01319   0.00647   0.0334  0.0865  0.9371  -2.2833   0.0000   0.0000   0.0000   0.2026
   8.500   0.8863   0.01338   0.00659   0.0337  0.0817  0.9376  -2.3140   0.0000   0.0000   0.0000   0.2024
   8.600   0.8947   0.01352   0.00670   0.0339  0.0767  0.9380  -2.3462   0.0000   0.0000   0.0000   0.2024
   8.700   0.9038   0.01362   0.00679   0.0341  0.0744  0.9385  -2.3800   0.0000   0.0000   0.0000   0.2025
   8.800   0.9129   0.01372   0.00688   0.0342  0.0730  0.9389  -2.4144   0.0000   0.0000   0.0000   0.2027
   8.900   0.9218   0.01384   0.00698   0.0343  0.0707  0.9394  -2.4484   0.0000   0.0000   0.0000   0.2028
   9.000   0.9301   0.01401   0.00713   0.0344  0.0667  0.9400  -2.4998   0.0000   0.0000   0.0000   0.2028
   9.100   0.9368   0.01432   0.00737   0.0347  0.0587  0.9409  -2.5752   0.0000   0.0000   0.0000   0.2026
   9.200   0.9438   0.01462   0.00758   0.0350  0.0490  0.9417  -2.6525   0.0000   0.0000   0.0000   0.2024
   9.300   0.9522   0.01480   0.00773   0.0351  0.0447  0.9425  -2.7369   0.0000   0.0000   0.0000   0.2025
   9.400   0.9542   0.01551   0.00826   0.0358  0.0247  0.9440  -2.7896   0.0000   0.0000   0.0000   0.2017
   9.500   0.9615   0.01578   0.00847   0.0361  0.0229  0.9450  -2.8696   0.0000   0.0000   0.0000   0.2016
   9.600   0.9687   0.01605   0.00868   0.0363  0.0208  0.9460  -2.9486   0.0000   0.0000   0.0000   0.2014
   9.700   0.9767   0.01626   0.00885   0.0365  0.0175  0.9468  -3.0305   0.0000   0.0000   0.0000   0.2014
  10.700   1.0634   0.02280   0.01677   0.0307  0.0186  0.9855  -3.9230   0.0000   0.0000   0.0000   0.2078
  10.800   1.0686   0.02396   0.01820   0.0310  0.0225  0.9889  -3.8699   0.0000   0.0000   0.0000   0.2074


