xflr5 v6.61

 Calculated polar for: CLARK YS

 1 1 Reynolds number fixed          Mach number fixed         

 xtrf =   1.000 (top)        1.000 (bottom)
 Mach =   0.000     Re =     0.200 e 6     Ncrit =   9.000

  alpha     CL        CD       CDp       Cm    Top Xtr Bot Xtr   Cpmin    Chinge    XCp    
 ------- -------- --------- --------- -------- ------- ------- -------- --------- ---------
 -10.000  -0.5192   0.10726   0.10374   0.0056  1.0000  0.0730  -1.6121   0.0000   0.0000   0.0000   0.2530
  -9.900  -0.5196   0.10590   0.10238   0.0025  1.0000  0.0737  -1.6364   0.0000   0.0000   0.0000   0.2472
  -9.800  -0.5175   0.10431   0.10079  -0.0002  0.9902  0.0740  -1.6417   0.0000   0.0000   0.0000   0.2421
  -9.600  -0.5173   0.10083   0.09730  -0.0050  0.9443  0.0744  -1.6609   0.0000   0.0000   0.0000   0.2331
  -9.000  -0.5333   0.09091   0.08719  -0.0123  0.8976  0.0747  -1.7608   0.0000   0.0000   0.0000   0.2208
  -8.900  -0.5354   0.08940   0.08564  -0.0128  0.8945  0.0748  -1.7791   0.0000   0.0000   0.0000   0.2200
  -8.800  -0.5378   0.08797   0.08418  -0.0131  0.8915  0.0748  -1.7965   0.0000   0.0000   0.0000   0.2196
  -8.700  -0.5390   0.08648   0.08264  -0.0135  0.8885  0.0749  -1.8117   0.0000   0.0000   0.0000   0.2190
  -8.600  -0.5398   0.08503   0.08115  -0.0138  0.8855  0.0749  -1.8249   0.0000   0.0000   0.0000   0.2186
  -8.500  -0.5403   0.08360   0.07967  -0.0140  0.8825  0.0749  -1.8367   0.0000   0.0000   0.0000   0.2183
  -8.400  -0.5405   0.08220   0.07822  -0.0142  0.8795  0.0750  -1.8471   0.0000   0.0000   0.0000   0.2181
  -8.300  -0.5403   0.08081   0.07677  -0.0142  0.8766  0.0750  -1.8564   0.0000   0.0000   0.0000   0.2180
  -8.100  -0.5653   0.07000   0.06587  -0.0156  0.8725  0.0769  -2.0197   0.0000   0.0000   0.0000   0.2169
  -8.000  -0.5644   0.06784   0.06372  -0.0155  0.8700  0.0777  -2.0114   0.0000   0.0000   0.0000   0.2171
  -7.900  -0.5528   0.06735   0.06334  -0.0150  0.8677  0.0789  -1.9323   0.0000   0.0000   0.0000   0.2176
  -7.800  -0.5401   0.06795   0.06404  -0.0138  0.8652  0.0804  -1.8322   0.0000   0.0000   0.0000   0.2192
  -7.700  -0.5304   0.06822   0.06436  -0.0129  0.8623  0.0819  -1.7609   0.0000   0.0000   0.0000   0.2207
  -7.600  -0.5241   0.06796   0.06411  -0.0123  0.8593  0.0832  -1.7193   0.0000   0.0000   0.0000   0.2215
  -7.500  -0.5192   0.06737   0.06351  -0.0120  0.8560  0.0844  -1.6931   0.0000   0.0000   0.0000   0.2219
  -7.400  -0.5148   0.06659   0.06270  -0.0119  0.8527  0.0856  -1.6756   0.0000   0.0000   0.0000   0.2220
  -7.300  -0.5108   0.06570   0.06177  -0.0119  0.8492  0.0867  -1.6639   0.0000   0.0000   0.0000   0.2220
  -7.200  -0.5070   0.06472   0.06076  -0.0119  0.8456  0.0877  -1.6558   0.0000   0.0000   0.0000   0.2218
  -7.100  -0.5030   0.06370   0.05969  -0.0120  0.8419  0.0885  -1.6499   0.0000   0.0000   0.0000   0.2216
  -7.000  -0.4987   0.06271   0.05866  -0.0120  0.8379  0.0895  -1.6434   0.0000   0.0000   0.0000   0.2213
  -6.900  -0.4937   0.06179   0.05769  -0.0121  0.8338  0.0905  -1.6358   0.0000   0.0000   0.0000   0.2210
  -6.800  -0.4880   0.06095   0.05681  -0.0122  0.8296  0.0916  -1.6267   0.0000   0.0000   0.0000   0.2205
  -6.700  -0.4814   0.06023   0.05605  -0.0123  0.8251  0.0927  -1.6154   0.0000   0.0000   0.0000   0.2200
  -6.600  -0.4738   0.05968   0.05546  -0.0124  0.8205  0.0940  -1.6011   0.0000   0.0000   0.0000   0.2193
  -6.500  -0.4649   0.05938   0.05512  -0.0126  0.8156  0.0953  -1.5824   0.0000   0.0000   0.0000   0.2184
  -6.400  -0.4546   0.05945   0.05515  -0.0128  0.8104  0.0967  -1.5577   0.0000   0.0000   0.0000   0.2174
  -6.300  -0.4432   0.06001   0.05567  -0.0131  0.8050  0.0979  -1.5260   0.0000   0.0000   0.0000   0.2161
  -6.200  -0.4322   0.06063   0.05626  -0.0133  0.7999  0.0989  -1.4946   0.0000   0.0000   0.0000   0.2149
  -6.100  -0.4253   0.06051   0.05609  -0.0128  0.7992  0.0993  -1.4755   0.0000   0.0000   0.0000   0.2155
  -6.000  -0.4193   0.06002   0.05554  -0.0124  0.7984  0.0995  -1.4617   0.0000   0.0000   0.0000   0.2161
  -5.900  -0.4137   0.05932   0.05478  -0.0120  0.7976  0.0997  -1.4505   0.0000   0.0000   0.0000   0.2167
  -5.800  -0.4081   0.05851   0.05391  -0.0116  0.7967  0.0998  -1.4405   0.0000   0.0000   0.0000   0.2173
  -5.700  -0.4390   0.04750   0.04259  -0.0113  0.7965  0.1054  -1.6142   0.0000   0.0000   0.0000   0.2200
  -5.600  -0.4352   0.04573   0.04080  -0.0109  0.7954  0.1071  -1.6041   0.0000   0.0000   0.0000   0.2208
  -5.500  -0.4295   0.04454   0.03961  -0.0105  0.7943  0.1085  -1.5854   0.0000   0.0000   0.0000   0.2214
  -5.400  -0.4231   0.04358   0.03863  -0.0101  0.7931  0.1098  -1.5639   0.0000   0.0000   0.0000   0.2220
  -5.300  -0.4163   0.04273   0.03778  -0.0097  0.7918  0.1110  -1.5413   0.0000   0.0000   0.0000   0.2226
  -5.200  -0.4091   0.04197   0.03701  -0.0094  0.7904  0.1123  -1.5179   0.0000   0.0000   0.0000   0.2231
  -5.100  -0.4014   0.04126   0.03630  -0.0090  0.7889  0.1135  -1.4925   0.0000   0.0000   0.0000   0.2235
  -5.000  -0.3937   0.04059   0.03563  -0.0087  0.7873  0.1148  -1.4678   0.0000   0.0000   0.0000   0.2240
  -4.900  -0.3860   0.03993   0.03497  -0.0083  0.7855  0.1161  -1.4437   0.0000   0.0000   0.0000   0.2245
  -4.800  -0.3784   0.03930   0.03432  -0.0080  0.7835  0.1176  -1.4204   0.0000   0.0000   0.0000   0.2250
  -4.700  -0.3707   0.03867   0.03367  -0.0076  0.7814  0.1191  -1.3979   0.0000   0.0000   0.0000   0.2256
  -4.600  -0.3630   0.03805   0.03303  -0.0072  0.7792  0.1207  -1.3761   0.0000   0.0000   0.0000   0.2262
  -4.500  -0.3553   0.03743   0.03239  -0.0069  0.7768  0.1224  -1.3552   0.0000   0.0000   0.0000   0.2269
  -4.400  -0.3475   0.03682   0.03175  -0.0065  0.7744  0.1242  -1.3351   0.0000   0.0000   0.0000   0.2275
  -4.300  -0.3396   0.03621   0.03110  -0.0061  0.7718  0.1261  -1.3158   0.0000   0.0000   0.0000   0.2283
  -4.200  -0.3317   0.03561   0.03046  -0.0057  0.7692  0.1281  -1.2973   0.0000   0.0000   0.0000   0.2290
  -4.100  -0.3236   0.03501   0.02981  -0.0053  0.7665  0.1300  -1.2795   0.0000   0.0000   0.0000   0.2299
  -4.000  -0.3206   0.02796   0.02110  -0.0009  0.7650  0.0777  -1.6317   0.0000   0.0000   0.0000   0.2419
  -3.900  -0.3098   0.02692   0.02002  -0.0006  0.7624  0.0709  -1.6350   0.0000   0.0000   0.0000   0.2428
  -3.800  -0.3016   0.02574   0.01872  -0.0000  0.7597  0.0689  -1.6369   0.0000   0.0000   0.0000   0.2446
  -3.700  -0.2927   0.02477   0.01761   0.0005  0.7571  0.0670  -1.6360   0.0000   0.0000   0.0000   0.2464
  -3.600  -0.2832   0.02387   0.01656   0.0010  0.7544  0.0650  -1.6358   0.0000   0.0000   0.0000   0.2481
  -3.500  -0.2732   0.02300   0.01554   0.0015  0.7518  0.0630  -1.6375   0.0000   0.0000   0.0000   0.2498
  -3.400  -0.2626   0.02216   0.01452   0.0019  0.7492  0.0610  -1.6416   0.0000   0.0000   0.0000   0.2516
  -3.300  -0.2516   0.02144   0.01365   0.0023  0.7467  0.0592  -1.6398   0.0000   0.0000   0.0000   0.2531
  -3.200  -0.2405   0.02084   0.01291   0.0026  0.7442  0.0577  -1.6339   0.0000   0.0000   0.0000   0.2546
  -3.100  -0.2294   0.02038   0.01233   0.0028  0.7416  0.0565  -1.6209   0.0000   0.0000   0.0000   0.2561
  -3.000  -0.2186   0.02004   0.01190   0.0031  0.7391  0.0556  -1.6012   0.0000   0.0000   0.0000   0.2577
  -2.900  -0.2079   0.01976   0.01156   0.0033  0.7367  0.0548  -1.5768   0.0000   0.0000   0.0000   0.2595
  -2.800  -0.1975   0.01952   0.01128   0.0036  0.7342  0.0542  -1.5496   0.0000   0.0000   0.0000   0.2615
  -2.700  -0.1871   0.01932   0.01103   0.0039  0.7318  0.0536  -1.5206   0.0000   0.0000   0.0000   0.2637
  -2.600  -0.1768   0.01913   0.01081   0.0041  0.7294  0.0531  -1.4906   0.0000   0.0000   0.0000   0.2663
  -2.500  -0.1665   0.01896   0.01061   0.0044  0.7269  0.0527  -1.4601   0.0000   0.0000   0.0000   0.2691
  -2.400  -0.1564   0.01880   0.01042   0.0047  0.7244  0.0523  -1.4293   0.0000   0.0000   0.0000   0.2724
  -2.300  -0.1463   0.01865   0.01025   0.0050  0.7216  0.0519  -1.3984   0.0000   0.0000   0.0000   0.2762
  -2.200  -0.1363   0.01852   0.01011   0.0053  0.7183  0.0515  -1.3676   0.0000   0.0000   0.0000   0.2806
  -2.100  -0.1263   0.01843   0.01000   0.0055  0.7146  0.0512  -1.3370   0.0000   0.0000   0.0000   0.2854
  -2.000  -0.1163   0.01841   0.00996   0.0057  0.7102  0.0509  -1.3066   0.0000   0.0000   0.0000   0.2903
  -1.900  -0.1064   0.01852   0.01007   0.0057  0.7047  0.0506  -1.2768   0.0000   0.0000   0.0000   0.2946
  -1.800  -0.0964   0.01870   0.01025   0.0056  0.6998  0.0503  -1.2474   0.0000   0.0000   0.0000   0.2986
  -1.700  -0.0857   0.01842   0.00993   0.0058  0.6992  0.0500  -1.2185   0.0000   0.0000   0.0000   0.3067
  -1.600  -0.0752   0.01803   0.00952   0.0060  0.6986  0.0499  -1.1957   0.0000   0.0000   0.0000   0.3176
  -1.500  -0.0649   0.01768   0.00916   0.0062  0.6978  0.0497  -1.1718   0.0000   0.0000   0.0000   0.3324
  -1.400  -0.0547   0.01737   0.00883   0.0064  0.6970  0.0496  -1.1470   0.0000   0.0000   0.0000   0.3530
  -1.300  -0.0446   0.01710   0.00854   0.0067  0.6961  0.0495  -1.1216   0.0000   0.0000   0.0000   0.3831
  -1.200  -0.0348   0.01685   0.00827   0.0070  0.6951  0.0494  -1.0957   0.0000   0.0000   0.0000   0.4305
  -1.100  -0.0249   0.01662   0.00801   0.0073  0.6939  0.0493  -1.0693   0.0000   0.0000   0.0000   0.5156
  -1.000  -0.0149   0.01641   0.00778   0.0076  0.6926  0.0492  -1.0424   0.0000   0.0000   0.0000   0.7142
  -0.900  -0.0049   0.01623   0.00758   0.0078  0.6911  0.0491  -1.0149   0.0000   0.0000   0.0000   1.7324
  -0.800   0.0052   0.01606   0.00738   0.0081  0.6894  0.0490  -0.9871   0.0000   0.0000   0.0000  -1.1863
  -0.700   0.0153   0.01590   0.00720   0.0083  0.6876  0.0490  -0.9589   0.0000   0.0000   0.0000  -0.2613
  -0.600   0.0254   0.01575   0.00703   0.0086  0.6855  0.0489  -0.9304   0.0000   0.0000   0.0000  -0.0687
  -0.500   0.0357   0.01562   0.00686   0.0088  0.6833  0.0489  -0.9017   0.0000   0.0000   0.0000   0.0150
  -0.400   0.0459   0.01550   0.00672   0.0090  0.6809  0.0489  -0.8726   0.0000   0.0000   0.0000   0.0620
  -0.300   0.0563   0.01539   0.00658   0.0093  0.6783  0.0489  -0.8434   0.0000   0.0000   0.0000   0.0919
  -0.200   0.0666   0.01528   0.00645   0.0095  0.6755  0.0489  -0.8141   0.0000   0.0000   0.0000   0.1125
  -0.100   0.0769   0.01518   0.00633   0.0097  0.6725  0.0490  -0.7848   0.0000   0.0000   0.0000   0.1276
   0.000   0.0873   0.01508   0.00621   0.0099  0.6694  0.0491  -0.7555   0.0000   0.0000   0.0000   0.1390
   0.100   0.0976   0.01499   0.00609   0.0102  0.6662  0.0493  -0.7262   0.0000   0.0000   0.0000   0.1479
   0.200   0.1079   0.01489   0.00599   0.0104  0.6629  0.0495  -0.6969   0.0000   0.0000   0.0000   0.1548
   0.300   0.1181   0.01480   0.00588   0.0107  0.6595  0.0498  -0.6674   0.0000   0.0000   0.0000   0.1606
   0.600   0.1490   0.01452   0.00557   0.0115  0.6491  0.0529  -0.6890   0.0000   0.0000   0.0000   0.1728
   0.700   0.1592   0.01442   0.00546   0.0118  0.6456  0.0556  -0.6988   0.0000   0.0000   0.0000   0.1758
   0.800   0.1694   0.01431   0.00535   0.0121  0.6419  0.0605  -0.7084   0.0000   0.0000   0.0000   0.1781
   0.900   0.1775   0.01394   0.00522   0.0126  0.6383  0.1287  -0.7168   0.0000   0.0000   0.0000   0.1779
   1.000   0.1809   0.01311   0.00512   0.0139  0.6348  0.3220  -0.7225   0.0000   0.0000   0.0000   0.1722
   1.100   0.1881   0.01276   0.00501   0.0147  0.6309  0.3942  -0.7305   0.0000   0.0000   0.0000   0.1708
   1.300   0.2214   0.01224   0.00609   0.0143  0.6204  0.8908  -0.7589   0.0000   0.0000   0.0000   0.1839
   1.400   0.2249   0.01240   0.00620   0.0161  0.6141  0.8949  -0.7644   0.0000   0.0000   0.0000   0.1768
   1.500   0.2291   0.01268   0.00646   0.0177  0.6061  0.8979  -0.7699   0.0000   0.0000   0.0000   0.1712
   1.600   0.2345   0.01303   0.00681   0.0189  0.5996  0.9000  -0.7761   0.0000   0.0000   0.0000   0.1674
   1.800   0.3302   0.01404   0.00786   0.0058  0.5955  0.9321  -0.8423   0.0000   0.0000   0.0000   0.2304
   1.900   0.3437   0.01421   0.00803   0.0055  0.5933  0.9385  -0.8543   0.0000   0.0000   0.0000   0.2316
   2.000   0.3546   0.01443   0.00825   0.0058  0.5906  0.9437  -0.8646   0.0000   0.0000   0.0000   0.2312
   2.100   0.3643   0.01474   0.00856   0.0064  0.5873  0.9477  -0.8742   0.0000   0.0000   0.0000   0.2300
   2.200   0.4394   0.01397   0.00776  -0.0067  0.5784  0.9712  -0.9244   0.0000   0.0000   0.0000   0.2627
   2.300   0.5112   0.01330   0.00703  -0.0193  0.5650  1.0000  -0.9786   0.0000   0.0000   0.0000   0.2850
   2.400   0.5213   0.01326   0.00694  -0.0190  0.5575  1.0000  -1.0012   0.0000   0.0000   0.0000   0.2837
   2.500   0.5312   0.01322   0.00683  -0.0188  0.5491  1.0000  -1.0239   0.0000   0.0000   0.0000   0.2824
   2.600   0.5412   0.01319   0.00670  -0.0185  0.5393  1.0000  -1.0467   0.0000   0.0000   0.0000   0.2812
   2.700   0.5513   0.01318   0.00658  -0.0183  0.5270  1.0000  -1.0696   0.0000   0.0000   0.0000   0.2800
   2.800   0.5618   0.01327   0.00656  -0.0182  0.5082  1.0000  -1.0927   0.0000   0.0000   0.0000   0.2792
   2.900   0.5726   0.01334   0.00659  -0.0182  0.4983  1.0000  -1.1160   0.0000   0.0000   0.0000   0.2785
   3.000   0.5831   0.01332   0.00659  -0.0182  0.4945  1.0000  -1.1397   0.0000   0.0000   0.0000   0.2778
   3.100   0.5937   0.01332   0.00659  -0.0182  0.4886  1.0000  -1.1634   0.0000   0.0000   0.0000   0.2771
   3.200   0.6042   0.01334   0.00657  -0.0182  0.4800  1.0000  -1.1871   0.0000   0.0000   0.0000   0.2765
   3.300   0.6147   0.01338   0.00654  -0.0181  0.4687  1.0000  -1.2107   0.0000   0.0000   0.0000   0.2757
   3.400   0.6251   0.01344   0.00647  -0.0180  0.4554  1.0000  -1.2345   0.0000   0.0000   0.0000   0.2750
   3.500   0.6355   0.01356   0.00639  -0.0180  0.4391  1.0000  -1.2584   0.0000   0.0000   0.0000   0.2744
   3.600   0.6466   0.01384   0.00648  -0.0182  0.4112  1.0000  -1.2816   0.0000   0.0000   0.0000   0.2741
   3.700   0.6577   0.01405   0.00666  -0.0183  0.3991  1.0000  -1.3051   0.0000   0.0000   0.0000   0.2738
   3.800   0.6681   0.01407   0.00667  -0.0183  0.3977  1.0000  -1.3296   0.0000   0.0000   0.0000   0.2733
   3.900   0.6786   0.01409   0.00670  -0.0184  0.3959  1.0000  -1.3541   0.0000   0.0000   0.0000   0.2728
   4.000   0.6891   0.01413   0.00675  -0.0184  0.3938  1.0000  -1.3786   0.0000   0.0000   0.0000   0.2723
   4.100   0.6997   0.01418   0.00681  -0.0184  0.3916  1.0000  -1.4031   0.0000   0.0000   0.0000   0.2718
   4.200   0.7102   0.01423   0.00687  -0.0185  0.3892  1.0000  -1.4276   0.0000   0.0000   0.0000   0.2714
   4.300   0.7208   0.01429   0.00695  -0.0185  0.3868  1.0000  -1.4522   0.0000   0.0000   0.0000   0.2710
   4.400   0.7314   0.01436   0.00702  -0.0185  0.3843  1.0000  -1.4769   0.0000   0.0000   0.0000   0.2706
   4.500   0.7420   0.01444   0.00711  -0.0186  0.3821  1.0000  -1.5015   0.0000   0.0000   0.0000   0.2702
   4.600   0.7526   0.01452   0.00721  -0.0186  0.3799  1.0000  -1.5262   0.0000   0.0000   0.0000   0.2698
   4.700   0.7632   0.01461   0.00731  -0.0187  0.3778  1.0000  -1.5509   0.0000   0.0000   0.0000   0.2694
   4.800   0.7737   0.01470   0.00740  -0.0187  0.3757  1.0000  -1.5756   0.0000   0.0000   0.0000   0.2690
   4.900   0.7842   0.01479   0.00750  -0.0188  0.3736  1.0000  -1.6004   0.0000   0.0000   0.0000   0.2687
   5.000   0.7947   0.01488   0.00760  -0.0188  0.3714  1.0000  -1.6253   0.0000   0.0000   0.0000   0.2683
   5.100   0.8051   0.01497   0.00769  -0.0188  0.3689  1.0000  -1.6503   0.0000   0.0000   0.0000   0.2679
   5.200   0.8155   0.01505   0.00777  -0.0189  0.3662  1.0000  -1.6753   0.0000   0.0000   0.0000   0.2675
   5.300   0.8259   0.01514   0.00784  -0.0189  0.3634  1.0000  -1.7004   0.0000   0.0000   0.0000   0.2671
   5.400   0.8362   0.01523   0.00793  -0.0189  0.3607  1.0000  -1.7255   0.0000   0.0000   0.0000   0.2667
   5.500   0.8465   0.01533   0.00802  -0.0189  0.3582  1.0000  -1.7506   0.0000   0.0000   0.0000   0.2664
   5.600   0.8568   0.01544   0.00812  -0.0189  0.3558  1.0000  -1.7757   0.0000   0.0000   0.0000   0.2660
   5.700   0.8671   0.01554   0.00822  -0.0189  0.3533  1.0000  -1.8008   0.0000   0.0000   0.0000   0.2656
   5.800   0.8773   0.01565   0.00832  -0.0189  0.3508  1.0000  -1.8259   0.0000   0.0000   0.0000   0.2652
   5.900   0.8876   0.01576   0.00843  -0.0189  0.3480  1.0000  -1.8510   0.0000   0.0000   0.0000   0.2649
   6.000   0.8977   0.01588   0.00854  -0.0189  0.3452  1.0000  -1.8761   0.0000   0.0000   0.0000   0.2645
   6.100   0.9079   0.01600   0.00866  -0.0189  0.3422  1.0000  -1.9012   0.0000   0.0000   0.0000   0.2641
   6.200   0.9180   0.01613   0.00879  -0.0188  0.3386  1.0000  -1.9262   0.0000   0.0000   0.0000   0.2638
   6.300   0.9280   0.01627   0.00890  -0.0188  0.3326  1.0000  -1.9526   0.0000   0.0000   0.0000   0.2634
   6.400   0.9380   0.01646   0.00906  -0.0188  0.3240  1.0000  -1.9855   0.0000   0.0000   0.0000   0.2630
   6.500   0.9479   0.01674   0.00934  -0.0188  0.3137  1.0000  -2.0180   0.0000   0.0000   0.0000   0.2627
   6.600   0.9578   0.01718   0.00984  -0.0189  0.3026  1.0000  -2.0497   0.0000   0.0000   0.0000   0.2625
   6.700   0.9674   0.01700   0.00959  -0.0187  0.2991  1.0000  -2.0859   0.0000   0.0000   0.0000   0.2620
   6.800   0.9769   0.01666   0.00918  -0.0184  0.2976  1.0000  -2.1235   0.0000   0.0000   0.0000   0.2613
   6.900   0.9865   0.01647   0.00895  -0.0182  0.2956  1.0000  -2.1602   0.0000   0.0000   0.0000   0.2608
   7.000   0.9963   0.01639   0.00888  -0.0181  0.2933  1.0000  -2.1961   0.0000   0.0000   0.0000   0.2604
   7.100   1.0062   0.01638   0.00890  -0.0180  0.2910  1.0000  -2.2314   0.0000   0.0000   0.0000   0.2600
   7.200   1.0160   0.01640   0.00893  -0.0179  0.2881  1.0000  -2.2667   0.0000   0.0000   0.0000   0.2596
   7.300   1.0258   0.01642   0.00898  -0.0178  0.2843  1.0000  -2.3020   0.0000   0.0000   0.0000   0.2592
   7.400   1.0356   0.01647   0.00904  -0.0178  0.2796  1.0000  -2.3372   0.0000   0.0000   0.0000   0.2589
   7.500   1.0452   0.01654   0.00911  -0.0177  0.2733  1.0000  -2.3723   0.0000   0.0000   0.0000   0.2585
   7.600   1.0547   0.01664   0.00917  -0.0176  0.2650  1.0000  -2.4173   0.0000   0.0000   0.0000   0.2581
   7.700   1.0639   0.01677   0.00924  -0.0175  0.2534  1.0000  -2.4630   0.0000   0.0000   0.0000   0.2577
   7.800   1.0726   0.01698   0.00931  -0.0173  0.2376  1.0000  -2.5085   0.0000   0.0000   0.0000   0.2573
   7.900   1.0806   0.01731   0.00942  -0.0172  0.2180  1.0000  -2.5528   0.0000   0.0000   0.0000   0.2570
   8.000   1.0887   0.01762   0.00961  -0.0171  0.1987  1.0000  -2.6333   0.0000   0.0000   0.0000   0.2566
   8.100   1.0973   0.01785   0.00975  -0.0170  0.1885  1.0000  -2.7183   0.0000   0.0000   0.0000   0.2562
   8.200   1.1052   0.01818   0.00994  -0.0169  0.1775  1.0000  -2.8010   0.0000   0.0000   0.0000   0.2558
   8.300   1.1122   0.01861   0.01018  -0.0167  0.1660  1.0000  -2.8804   0.0000   0.0000   0.0000   0.2554
   8.400   1.1190   0.01903   0.01043  -0.0165  0.1540  1.0000  -2.9590   0.0000   0.0000   0.0000   0.2550
   8.500   1.1272   0.01927   0.01063  -0.0162  0.1469  1.0000  -3.0438   0.0000   0.0000   0.0000   0.2545
   8.600   1.1353   0.01950   0.01082  -0.0160  0.1410  1.0000  -3.1291   0.0000   0.0000   0.0000   0.2541
   8.700   1.1431   0.01976   0.01102  -0.0158  0.1339  1.0000  -3.2128   0.0000   0.0000   0.0000   0.2536
   9.100   1.1390   0.02513   0.01613  -0.0109  0.0223  1.0000  -3.5112   0.0000   0.0000   0.0000   0.2487
   9.200   1.1403   0.02587   0.01699  -0.0096  0.0223  1.0000  -3.5828   0.0000   0.0000   0.0000   0.2473
   9.300   1.1406   0.02656   0.01780  -0.0082  0.0223  1.0000  -3.6345   0.0000   0.0000   0.0000   0.2460
   9.400   1.1401   0.02723   0.01855  -0.0069  0.0223  1.0000  -3.6762   0.0000   0.0000   0.0000   0.2446
   9.500   1.1387   0.02787   0.01927  -0.0054  0.0224  1.0000  -3.7108   0.0000   0.0000   0.0000   0.2431
   9.600   1.1367   0.02849   0.01996  -0.0038  0.0225  1.0000  -3.7405   0.0000   0.0000   0.0000   0.2416
   9.700   1.1334   0.02908   0.02062  -0.0021  0.0225  1.0000  -3.7643   0.0000   0.0000   0.0000   0.2399
   9.800   1.1277   0.02966   0.02125  -0.0002  0.0225  1.0000  -3.7774   0.0000   0.0000   0.0000   0.2381
   9.900   1.1176   0.03012   0.02175   0.0024  0.0226  1.0000  -3.7743   0.0000   0.0000   0.0000   0.2356
  10.000   1.1078   0.03054   0.02219   0.0050  0.0226  1.0000  -3.7724   0.0000   0.0000   0.0000   0.2330
  10.100   1.0981   0.03089   0.02257   0.0076  0.0226  1.0000  -3.7709   0.0000   0.0000   0.0000   0.2304
  10.200   1.0859   0.03106   0.02274   0.0108  0.0226  1.0000  -3.7607   0.0000   0.0000   0.0000   0.2272
  10.300   1.0668   0.03076   0.02241   0.0155  0.0225  1.0000  -3.7259   0.0000   0.0000   0.0000   0.2226
  10.400   1.0568   0.03104   0.02269   0.0183  0.0225  1.0000  -3.7237   0.0000   0.0000   0.0000   0.2196
  10.500   1.0500   0.03152   0.02320   0.0205  0.0226  1.0000  -3.7328   0.0000   0.0000   0.0000   0.2172
  10.600   1.0444   0.03209   0.02381   0.0223  0.0226  1.0000  -3.7454   0.0000   0.0000   0.0000   0.2152
  10.700   1.0394   0.03271   0.02447   0.0240  0.0227  1.0000  -3.7595   0.0000   0.0000   0.0000   0.2132
  10.800   1.0343   0.03341   0.02521   0.0256  0.0227  1.0000  -3.7723   0.0000   0.0000   0.0000   0.2114
  10.900   1.0286   0.03421   0.02605   0.0270  0.0228  1.0000  -3.7813   0.0000   0.0000   0.0000   0.2097
  11.000   1.0242   0.03501   0.02689   0.0283  0.0228  1.0000  -3.7945   0.0000   0.0000   0.0000   0.2081
  11.100   1.0209   0.03580   0.02773   0.0294  0.0229  1.0000  -3.8112   0.0000   0.0000   0.0000   0.2067
  11.200   1.0185   0.03659   0.02857   0.0305  0.0230  1.0000  -3.8298   0.0000   0.0000   0.0000   0.2053
  11.300   1.0167   0.03739   0.02941   0.0316  0.0231  1.0000  -3.8496   0.0000   0.0000   0.0000   0.2041
  11.400   1.0154   0.03818   0.03026   0.0326  0.0232  1.0000  -3.8700   0.0000   0.0000   0.0000   0.2028
  11.500   1.0147   0.03900   0.03112   0.0336  0.0234  1.0000  -3.8905   0.0000   0.0000   0.0000   0.2017
  11.600   1.0142   0.03983   0.03201   0.0345  0.0235  1.0000  -3.9106   0.0000   0.0000   0.0000   0.2005
  11.700   1.0142   0.04069   0.03293   0.0354  0.0237  1.0000  -3.9301   0.0000   0.0000   0.0000   0.1995
  11.800   1.0141   0.04160   0.03391   0.0363  0.0239  1.0000  -3.9475   0.0000   0.0000   0.0000   0.1984
  11.900   1.0141   0.04257   0.03495   0.0372  0.0240  1.0000  -3.9623   0.0000   0.0000   0.0000   0.1974
  12.000   1.0140   0.04362   0.03607   0.0380  0.0242  1.0000  -3.9736   0.0000   0.0000   0.0000   0.1963
  12.100   1.0132   0.04478   0.03732   0.0389  0.0244  1.0000  -3.9792   0.0000   0.0000   0.0000   0.1953
  12.200   1.0116   0.04610   0.03874   0.0397  0.0246  1.0000  -3.9775   0.0000   0.0000   0.0000   0.1942
  12.300   1.0089   0.04766   0.04042   0.0405  0.0248  1.0000  -3.9650   0.0000   0.0000   0.0000   0.1931
  12.400   1.0059   0.04932   0.04226   0.0413  0.0251  1.0000  -3.9503   0.0000   0.0000   0.0000   0.1921
  12.500   1.0088   0.04995   0.04290   0.0416  0.0254  1.0000  -3.9950   0.0000   0.0000   0.0000   0.1917
  12.600   1.0119   0.05057   0.04354   0.0418  0.0258  1.0000  -4.0403   0.0000   0.0000   0.0000   0.1914
  12.700   1.0150   0.05120   0.04419   0.0421  0.0262  1.0000  -4.0854   0.0000   0.0000   0.0000   0.1911
  12.800   1.0179   0.05187   0.04487   0.0423  0.0266  1.0000  -4.1295   0.0000   0.0000   0.0000   0.1908
  12.900   1.0199   0.05265   0.04569   0.0424  0.0271  1.0000  -4.1679   0.0000   0.0000   0.0000   0.1905
  13.000   1.0203   0.05361   0.04668   0.0425  0.0275  1.0000  -4.1981   0.0000   0.0000   0.0000   0.1903
  13.100   1.0210   0.05459   0.04769   0.0425  0.0280  1.0000  -4.2283   0.0000   0.0000   0.0000   0.1900
  13.200   1.0220   0.05557   0.04873   0.0426  0.0285  1.0000  -4.2578   0.0000   0.0000   0.0000   0.1898
  13.300   1.0228   0.05662   0.04984   0.0426  0.0291  1.0000  -4.2833   0.0000   0.0000   0.0000   0.1896
  13.400   1.0229   0.05781   0.05110   0.0427  0.0299  1.0000  -4.3014   0.0000   0.0000   0.0000   0.1893
  13.500   1.0220   0.05918   0.05258   0.0428  0.0307  1.0000  -4.3083   0.0000   0.0000   0.0000   0.1890
  13.600   1.0196   0.06085   0.05437   0.0428  0.0316  1.0000  -4.2987   0.0000   0.0000   0.0000   0.1887
  13.700   1.0147   0.06288   0.05655   0.0427  0.0325  1.0000  -4.2700   0.0000   0.0000   0.0000   0.1883
  13.800   1.0078   0.06517   0.05900   0.0425  0.0333  1.0000  -4.2302   0.0000   0.0000   0.0000   0.1881
  13.900   0.9997   0.06760   0.06157   0.0420  0.0340  1.0000  -4.1875   0.0000   0.0000   0.0000   0.1880
  14.000   0.9911   0.07009   0.06418   0.0413  0.0345  1.0000  -4.1459   0.0000   0.0000   0.0000   0.1881
  14.100   0.9816   0.07261   0.06679   0.0402  0.0346  1.0000  -4.1123   0.0000   0.0000   0.0000   0.1886
  14.200   0.9726   0.07523   0.06951   0.0392  0.0348  1.0000  -4.0737   0.0000   0.0000   0.0000   0.1891
  14.300   0.9636   0.07790   0.07228   0.0381  0.0351  1.0000  -4.0316   0.0000   0.0000   0.0000   0.1895
  14.400   0.9546   0.08066   0.07513   0.0370  0.0354  1.0000  -3.9884   0.0000   0.0000   0.0000   0.1901
  14.500   0.9455   0.08349   0.07805   0.0358  0.0357  1.0000  -3.9453   0.0000   0.0000   0.0000   0.1908
  14.600   0.9363   0.08641   0.08105   0.0344  0.0358  1.0000  -3.9030   0.0000   0.0000   0.0000   0.1917
  14.700   0.9268   0.08950   0.08420   0.0326  0.0356  1.0000  -3.8647   0.0000   0.0000   0.0000   0.1930
  14.800   0.9173   0.09270   0.08746   0.0307  0.0354  1.0000  -3.8257   0.0000   0.0000   0.0000   0.1946
  14.900   0.9080   0.09592   0.09075   0.0290  0.0354  1.0000  -3.7799   0.0000   0.0000   0.0000   0.1959
  15.000   0.8987   0.09920   0.09409   0.0272  0.0354  1.0000  -3.7311   0.0000   0.0000   0.0000   0.1973
  15.100   0.8893   0.10254   0.09750   0.0254  0.0353  1.0000  -3.6809   0.0000   0.0000   0.0000   0.1989
  15.200   0.8798   0.10605   0.10106   0.0234  0.0352  1.0000  -3.6293   0.0000   0.0000   0.0000   0.2007
  15.300   0.8700   0.10972   0.10477   0.0210  0.0347  1.0000  -3.5835   0.0000   0.0000   0.0000   0.2029
  15.400   0.8603   0.11341   0.10850   0.0188  0.0344  1.0000  -3.5285   0.0000   0.0000   0.0000   0.2051
  15.500   0.8507   0.11714   0.11228   0.0169  0.0344  1.0000  -3.4620   0.0000   0.0000   0.0000   0.2070
  15.600   0.8408   0.12102   0.11621   0.0149  0.0344  1.0000  -3.3861   0.0000   0.0000   0.0000   0.2090
  15.700   0.8304   0.12517   0.12042   0.0128  0.0344  1.0000  -3.2998   0.0000   0.0000   0.0000   0.2113
  15.800   0.8194   0.12962   0.12492   0.0105  0.0343  1.0000  -3.2016   0.0000   0.0000   0.0000   0.2138
  15.900   0.8074   0.13459   0.12991   0.0080  0.0341  1.0000  -3.0890   0.0000   0.0000   0.0000   0.2169
  16.000   0.7944   0.14015   0.13551   0.0052  0.0339  1.0000  -2.9491   0.0000   0.0000   0.0000   0.2203
  16.100   0.7800   0.14657   0.14194   0.0024  0.0339  1.0000  -2.7651   0.0000   0.0000   0.0000   0.2241
  16.200   0.7687   0.15216   0.14754   0.0001  0.0344  1.0000  -2.6035   0.0000   0.0000   0.0000   0.2273
  16.300   0.7598   0.15700   0.15239  -0.0020  0.0349  1.0000  -2.4671   0.0000   0.0000   0.0000   0.2302
  16.400   0.7531   0.16110   0.15649  -0.0039  0.0356  1.0000  -2.3530   0.0000   0.0000   0.0000   0.2328
  16.500   0.7481   0.16463   0.16002  -0.0055  0.0364  1.0000  -2.2576   0.0000   0.0000   0.0000   0.2350
  16.600   0.7444   0.16780   0.16320  -0.0069  0.0373  1.0000  -2.1768   0.0000   0.0000   0.0000   0.2370
  16.700   0.7418   0.17072   0.16612  -0.0082  0.0384  1.0000  -2.1077   0.0000   0.0000   0.0000   0.2387
  16.800   0.7400   0.17343   0.16884  -0.0093  0.0397  1.0000  -2.0483   0.0000   0.0000   0.0000   0.2402
  16.900   0.7388   0.17599   0.17141  -0.0103  0.0412  1.0000  -1.9969   0.0000   0.0000   0.0000   0.2415
  17.000   0.7380   0.17846   0.17389  -0.0111  0.0433  1.0000  -1.9524   0.0000   0.0000   0.0000   0.2425
  17.100   0.7367   0.18102   0.17644  -0.0115  0.0465  1.0000  -1.9135   0.0000   0.0000   0.0000   0.2430
  17.400   0.7259   0.19372   0.18898  -0.0176  0.0617  1.0000  -1.5520   0.0000   0.0000   0.0000   0.2521
  17.500   0.7259   0.19610   0.19136  -0.0185  0.0627  1.0000  -1.5251   0.0000   0.0000   0.0000   0.2534
  17.600   0.7265   0.19828   0.19354  -0.0194  0.0633  1.0000  -1.5065   0.0000   0.0000   0.0000   0.2545
  17.700   0.7273   0.20034   0.19560  -0.0203  0.0636  1.0000  -1.4923   0.0000   0.0000   0.0000   0.2555
  17.800   0.7284   0.20234   0.19759  -0.0211  0.0637  1.0000  -1.4808   0.0000   0.0000   0.0000   0.2565
  17.900   0.7296   0.20428   0.19954  -0.0218  0.0635  1.0000  -1.4712   0.0000   0.0000   0.0000   0.2574
  18.000   0.7309   0.20620   0.20145  -0.0226  0.0633  1.0000  -1.4631   0.0000   0.0000   0.0000   0.2583
  18.100   0.7323   0.20809   0.20334  -0.0234  0.0630  1.0000  -1.4561   0.0000   0.0000   0.0000   0.2591
  18.200   0.7338   0.20996   0.20521  -0.0241  0.0626  1.0000  -1.4502   0.0000   0.0000   0.0000   0.2600
  18.300   0.7354   0.21181   0.20706  -0.0249  0.0622  1.0000  -1.4452   0.0000   0.0000   0.0000   0.2608
  18.400   0.7370   0.21365   0.20890  -0.0256  0.0618  1.0000  -1.4411   0.0000   0.0000   0.0000   0.2615
  18.500   0.7387   0.21548   0.21073  -0.0263  0.0614  1.0000  -1.4379   0.0000   0.0000   0.0000   0.2623
  18.700   0.7411   0.21988   0.21528  -0.0277  0.0600  1.0000  -1.4325   0.0000   0.0000   0.0000   0.2639
  18.800   0.7428   0.22186   0.21724  -0.0284  0.0593  1.0000  -1.4329   0.0000   0.0000   0.0000   0.2646
  18.900   0.7448   0.22371   0.21908  -0.0290  0.0588  1.0000  -1.4352   0.0000   0.0000   0.0000   0.2651
  19.000   0.7469   0.22550   0.22086  -0.0296  0.0582  1.0000  -1.4392   0.0000   0.0000   0.0000   0.2657
  19.100   0.7492   0.22725   0.22259  -0.0301  0.0576  1.0000  -1.4450   0.0000   0.0000   0.0000   0.2661
  19.200   0.7516   0.22895   0.22428  -0.0307  0.0571  1.0000  -1.4526   0.0000   0.0000   0.0000   0.2665
  19.300   0.7542   0.23062   0.22594  -0.0311  0.0565  1.0000  -1.4623   0.0000   0.0000   0.0000   0.2668
  19.400   0.7569   0.23226   0.22758  -0.0315  0.0560  1.0000  -1.4742   0.0000   0.0000   0.0000   0.2671
  19.500   0.7598   0.23389   0.22920  -0.0319  0.0555  1.0000  -1.4882   0.0000   0.0000   0.0000   0.2672
  19.600   0.7629   0.23551   0.23082  -0.0322  0.0549  1.0000  -1.5046   0.0000   0.0000   0.0000   0.2673
  19.700   0.7671   0.23699   0.23229  -0.0322  0.0542  1.0000  -1.5354   0.0000   0.0000   0.0000   0.2669
  19.800   0.7792   0.23832   0.23362  -0.0300  0.0524  1.0000  -1.6668   0.0000   0.0000   0.0000   0.2631
  20.000   0.7715   0.25169   0.24695  -0.0312  0.0499  1.0000  -1.5569   0.0000   0.0000   0.0000   0.2651
  20.100   0.7727   0.25334   0.24860  -0.0321  0.0498  1.0000  -1.5485   0.0000   0.0000   0.0000   0.2660
  20.200   0.7740   0.25492   0.25018  -0.0330  0.0497  1.0000  -1.5405   0.0000   0.0000   0.0000   0.2670
  20.300   0.7753   0.25642   0.25168  -0.0339  0.0496  1.0000  -1.5332   0.0000   0.0000   0.0000   0.2679
  20.400   0.7767   0.25780   0.25306  -0.0348  0.0495  1.0000  -1.5265   0.0000   0.0000   0.0000   0.2689
  20.500   0.7782   0.25902   0.25428  -0.0358  0.0493  1.0000  -1.5205   0.0000   0.0000   0.0000   0.2699
  20.600   0.7799   0.25993   0.25518  -0.0369  0.0490  1.0000  -1.5150   0.0000   0.0000   0.0000   0.2710
  20.700   0.7806   0.26034   0.25558  -0.0382  0.0485  1.0000  -1.5011   0.0000   0.0000   0.0000   0.2725
  20.800   0.7800   0.26044   0.25568  -0.0403  0.0474  1.0000  -1.4682   0.0000   0.0000   0.0000   0.2750
  20.900   0.7807   0.26142   0.25666  -0.0423  0.0451  1.0000  -1.4350   0.0000   0.0000   0.0000   0.2774
  21.000   0.7822   0.26316   0.25840  -0.0434  0.0427  1.0000  -1.4240   0.0000   0.0000   0.0000   0.2787
  21.100   0.7841   0.26493   0.26017  -0.0443  0.0405  1.0000  -1.4248   0.0000   0.0000   0.0000   0.2795
  21.200   0.7860   0.26661   0.26185  -0.0450  0.0385  1.0000  -1.4321   0.0000   0.0000   0.0000   0.2801
  21.300   0.7881   0.26820   0.26344  -0.0456  0.0366  1.0000  -1.4448   0.0000   0.0000   0.0000   0.2805
  21.400   0.7904   0.26968   0.26491  -0.0462  0.0350  1.0000  -1.4631   0.0000   0.0000   0.0000   0.2809
  21.500   0.7930   0.27102   0.26625  -0.0467  0.0334  1.0000  -1.4879   0.0000   0.0000   0.0000   0.2811
  21.600   0.7958   0.27220   0.26743  -0.0471  0.0321  1.0000  -1.5205   0.0000   0.0000   0.0000   0.2811
  21.700   0.7990   0.27319   0.26842  -0.0473  0.0308  1.0000  -1.5637   0.0000   0.0000   0.0000   0.2809
  21.800   0.8028   0.27397   0.26919  -0.0473  0.0296  1.0000  -1.6206   0.0000   0.0000   0.0000   0.2804
  21.900   0.8075   0.27454   0.26976  -0.0471  0.0285  1.0000  -1.6975   0.0000   0.0000   0.0000   0.2794
  22.000   0.8137   0.27515   0.27036  -0.0462  0.0274  1.0000  -1.8045   0.0000   0.0000   0.0000   0.2775
  22.500   0.8056   0.29220   0.28738  -0.0503  0.0244  1.0000  -1.6077   0.0000   0.0000   0.0000   0.2828
  22.600   0.8089   0.29229   0.28747  -0.0515  0.0238  1.0000  -1.6245   0.0000   0.0000   0.0000   0.2838
  22.700   0.8119   0.29294   0.28812  -0.0528  0.0227  1.0000  -1.6248   0.0000   0.0000   0.0000   0.2850
  22.800   0.8137   0.29462   0.28980  -0.0541  0.0217  1.0000  -1.6055   0.0000   0.0000   0.0000   0.2863
  22.900   0.8153   0.29662   0.29180  -0.0551  0.0207  1.0000  -1.5920   0.0000   0.0000   0.0000   0.2873
  23.000   0.8169   0.29862   0.29381  -0.0559  0.0198  1.0000  -1.5865   0.0000   0.0000   0.0000   0.2881
  23.100   0.8183   0.30055   0.29574  -0.0566  0.0190  1.0000  -1.5872   0.0000   0.0000   0.0000   0.2887
  23.200   0.8198   0.30241   0.29760  -0.0573  0.0183  1.0000  -1.5929   0.0000   0.0000   0.0000   0.2892
  23.300   0.8214   0.30419   0.29938  -0.0579  0.0176  1.0000  -1.6027   0.0000   0.0000   0.0000   0.2896
  23.400   0.8229   0.30590   0.30109  -0.0585  0.0171  1.0000  -1.6164   0.0000   0.0000   0.0000   0.2900
  23.500   0.8245   0.30753   0.30273  -0.0590  0.0165  1.0000  -1.6340   0.0000   0.0000   0.0000   0.2903
  23.600   0.8261   0.30909   0.30429  -0.0596  0.0161  1.0000  -1.6554   0.0000   0.0000   0.0000   0.2906
  23.700   0.8277   0.31058   0.30578  -0.0600  0.0156  1.0000  -1.6807   0.0000   0.0000   0.0000   0.2908
  23.800   0.8294   0.31199   0.30719  -0.0605  0.0152  1.0000  -1.7103   0.0000   0.0000   0.0000   0.2910
  23.900   0.8312   0.31334   0.30854  -0.0609  0.0149  1.0000  -1.7442   0.0000   0.0000   0.0000   0.2910
  24.000   0.8331   0.31462   0.30982  -0.0612  0.0145  1.0000  -1.7828   0.0000   0.0000   0.0000   0.2910
  24.100   0.8350   0.31586   0.31105  -0.0614  0.0142  1.0000  -1.8265   0.0000   0.0000   0.0000   0.2909
  24.200   0.8367   0.31737   0.31270  -0.0618  0.0141  1.0000  -1.8456   0.0000   0.0000   0.0000   0.2909
  24.300   0.8382   0.31892   0.31426  -0.0620  0.0139  1.0000  -1.8741   0.0000   0.0000   0.0000   0.2909
  24.400   0.8395   0.32055   0.31591  -0.0622  0.0137  1.0000  -1.9034   0.0000   0.0000   0.0000   0.2908
  24.500   0.8388   0.32302   0.31838  -0.0624  0.0132  1.0000  -1.9043   0.0000   0.0000   0.0000   0.2909
  24.600   0.8274   0.33119   0.32650  -0.0624  0.0125  1.0000  -1.6838   0.0000   0.0000   0.0000   0.2923
  24.700   0.8275   0.33324   0.32856  -0.0629  0.0125  1.0000  -1.6728   0.0000   0.0000   0.0000   0.2928
  24.800   0.8274   0.33528   0.33061  -0.0633  0.0125  1.0000  -1.6617   0.0000   0.0000   0.0000   0.2932
  24.900   0.8273   0.33729   0.33263  -0.0638  0.0124  1.0000  -1.6506   0.0000   0.0000   0.0000   0.2937
  25.000   0.8270   0.33927   0.33462  -0.0642  0.0124  1.0000  -1.6393   0.0000   0.0000   0.0000   0.2941
  25.100   0.8266   0.34122   0.33658  -0.0646  0.0124  1.0000  -1.6279   0.0000   0.0000   0.0000   0.2945
  25.200   0.8261   0.34314   0.33851  -0.0650  0.0124  1.0000  -1.6164   0.0000   0.0000   0.0000   0.2949
  25.300   0.8254   0.34500   0.34038  -0.0654  0.0124  1.0000  -1.6047   0.0000   0.0000   0.0000   0.2953
  25.400   0.8244   0.34682   0.34221  -0.0657  0.0124  1.0000  -1.5927   0.0000   0.0000   0.0000   0.2957
  25.500   0.8233   0.34857   0.34397  -0.0660  0.0124  1.0000  -1.5803   0.0000   0.0000   0.0000   0.2961
  25.600   0.8218   0.35025   0.34566  -0.0662  0.0124  1.0000  -1.5674   0.0000   0.0000   0.0000   0.2964
  25.700   0.8201   0.35183   0.34726  -0.0664  0.0124  1.0000  -1.5541   0.0000   0.0000   0.0000   0.2967
  25.800   0.8179   0.35330   0.34874  -0.0665  0.0123  1.0000  -1.5401   0.0000   0.0000   0.0000   0.2970
  25.900   0.8153   0.35462   0.35007  -0.0666  0.0123  1.0000  -1.5252   0.0000   0.0000   0.0000   0.2973
  26.000   0.8113   0.35559   0.35106  -0.0664  0.0123  1.0000  -1.5078   0.0000   0.0000   0.0000   0.2975
  26.100   0.7622   0.34335   0.33892  -0.0591  0.0123  1.0000  -1.3957   0.0000   0.0000   0.0000   0.2947
  26.200   0.7546   0.34234   0.33794  -0.0583  0.0123  1.0000  -1.3709   0.0000   0.0000   0.0000   0.2946
  26.300   0.7487   0.34177   0.33739  -0.0578  0.0123  1.0000  -1.3500   0.0000   0.0000   0.0000   0.2947
  26.400   0.7438   0.34143   0.33707  -0.0575  0.0123  1.0000  -1.3312   0.0000   0.0000   0.0000   0.2948
  26.500   0.7396   0.34125   0.33691  -0.0572  0.0123  1.0000  -1.3140   0.0000   0.0000   0.0000   0.2949
  26.600   0.7358   0.34118   0.33685  -0.0571  0.0123  1.0000  -1.2979   0.0000   0.0000   0.0000   0.2951
  26.700   0.7324   0.34118   0.33687  -0.0569  0.0123  1.0000  -1.2827   0.0000   0.0000   0.0000   0.2953
  26.800   0.7293   0.34124   0.33695  -0.0569  0.0123  1.0000  -1.2684   0.0000   0.0000   0.0000   0.2956
  26.900   0.7264   0.34136   0.33708  -0.0568  0.0122  1.0000  -1.2547   0.0000   0.0000   0.0000   0.2958
  27.000   0.7238   0.34152   0.33725  -0.0568  0.0122  1.0000  -1.2416   0.0000   0.0000   0.0000   0.2961
  27.100   0.7213   0.34169   0.33744  -0.0568  0.0122  1.0000  -1.2285   0.0000   0.0000   0.0000   0.2964
  27.200   0.7190   0.34190   0.33766  -0.0569  0.0122  1.0000  -1.2158   0.0000   0.0000   0.0000   0.2967
  27.300   0.7168   0.34213   0.33791  -0.0569  0.0122  1.0000  -1.2037   0.0000   0.0000   0.0000   0.2970
  27.400   0.7147   0.34239   0.33818  -0.0570  0.0122  1.0000  -1.1919   0.0000   0.0000   0.0000   0.2973
  27.500   0.7128   0.34267   0.33847  -0.0571  0.0122  1.0000  -1.1806   0.0000   0.0000   0.0000   0.2976
  27.600   0.7110   0.34297   0.33878  -0.0572  0.0122  1.0000  -1.1696   0.0000   0.0000   0.0000   0.2980
  27.700   0.7093   0.34328   0.33911  -0.0574  0.0121  1.0000  -1.1589   0.0000   0.0000   0.0000   0.2983
  27.800   0.7077   0.34361   0.33945  -0.0575  0.0121  1.0000  -1.1486   0.0000   0.0000   0.0000   0.2987
  27.900   0.7061   0.34396   0.33981  -0.0577  0.0121  1.0000  -1.1386   0.0000   0.0000   0.0000   0.2990
  28.000   0.7047   0.34431   0.34018  -0.0578  0.0121  1.0000  -1.1288   0.0000   0.0000   0.0000   0.2994
  28.100   0.7033   0.34468   0.34056  -0.0580  0.0121  1.0000  -1.1193   0.0000   0.0000   0.0000   0.2997
  28.200   0.7021   0.34506   0.34095  -0.0582  0.0121  1.0000  -1.1101   0.0000   0.0000   0.0000   0.3001
  28.300   0.7008   0.34545   0.34135  -0.0584  0.0121  1.0000  -1.1011   0.0000   0.0000   0.0000   0.3005
  28.400   0.6997   0.34585   0.34177  -0.0586  0.0120  1.0000  -1.0924   0.0000   0.0000   0.0000   0.3008
  28.500   0.6986   0.34626   0.34219  -0.0588  0.0120  1.0000  -1.0838   0.0000   0.0000   0.0000   0.3012
  28.600   0.6975   0.34668   0.34262  -0.0590  0.0120  1.0000  -1.0749   0.0000   0.0000   0.0000   0.3016
  28.700   0.6964   0.34710   0.34305  -0.0593  0.0120  1.0000  -1.0659   0.0000   0.0000   0.0000   0.3020
  28.800   0.6954   0.34754   0.34350  -0.0595  0.0120  1.0000  -1.0571   0.0000   0.0000   0.0000   0.3024
  28.900   0.6945   0.34798   0.34395  -0.0598  0.0120  1.0000  -1.0486   0.0000   0.0000   0.0000   0.3028
  29.000   0.6936   0.34842   0.34441  -0.0600  0.0120  1.0000  -1.0402   0.0000   0.0000   0.0000   0.3032
  29.100   0.6927   0.34888   0.34487  -0.0603  0.0119  1.0000  -1.0321   0.0000   0.0000   0.0000   0.3036
  29.200   0.6919   0.34934   0.34534  -0.0606  0.0119  1.0000  -1.0242   0.0000   0.0000   0.0000   0.3040
  29.300   0.6911   0.34980   0.34582  -0.0609  0.0119  1.0000  -1.0164   0.0000   0.0000   0.0000   0.3045
  29.400   0.6904   0.35027   0.34630  -0.0611  0.0119  1.0000  -1.0089   0.0000   0.0000   0.0000   0.3049
  29.500   0.6897   0.35075   0.34679  -0.0614  0.0119  1.0000  -1.0015   0.0000   0.0000   0.0000   0.3053
  29.600   0.6890   0.35123   0.34728  -0.0617  0.0119  1.0000  -0.9942   0.0000   0.0000   0.0000   0.3057
  29.700   0.6884   0.35172   0.34778  -0.0620  0.0119  1.0000  -0.9872   0.0000   0.0000   0.0000   0.3061
  29.800   0.6878   0.35221   0.34828  -0.0623  0.0119  1.0000  -0.9803   0.0000   0.0000   0.0000   0.3065
  29.900   0.6872   0.35270   0.34878  -0.0626  0.0118  1.0000  -0.9735   0.0000   0.0000   0.0000   0.3069
  30.000   0.6867   0.35320   0.34929  -0.0629  0.0118  1.0000  -0.9669   0.0000   0.0000   0.0000   0.3074


