xflr5 v6.61

 Calculated polar for: CLARK YS

 1 1 Reynolds number fixed          Mach number fixed         

 xtrf =   1.000 (top)        1.000 (bottom)
 Mach =   0.000     Re =     0.130 e 6     Ncrit =   9.000

  alpha     CL        CD       CDp       Cm    Top Xtr Bot Xtr   Cpmin    Chinge    XCp    
 ------- -------- --------- --------- -------- ------- ------- -------- --------- ---------
 -10.000  -0.5015   0.11243   0.10803   0.0100  1.0000  0.0924  -1.3622   0.0000   0.0000   0.0000   0.2624
  -9.900  -0.5000   0.11192   0.10754   0.0080  1.0000  0.0946  -1.3601   0.0000   0.0000   0.0000   0.2585
  -9.800  -0.4943   0.11330   0.10893   0.0055  1.0000  0.0976  -1.3369   0.0000   0.0000   0.0000   0.2539
  -9.700  -0.4914   0.11407   0.10972   0.0033  1.0000  0.0989  -1.3357   0.0000   0.0000   0.0000   0.2497
  -9.600  -0.4902   0.11362   0.10928   0.0013  1.0000  0.0994  -1.3423   0.0000   0.0000   0.0000   0.2458
  -9.500  -0.4893   0.11261   0.10829  -0.0008  1.0000  0.0996  -1.3527   0.0000   0.0000   0.0000   0.2417
  -9.400  -0.4887   0.11131   0.10700  -0.0030  1.0000  0.0998  -1.3653   0.0000   0.0000   0.0000   0.2374
  -9.300  -0.4883   0.10992   0.10561  -0.0050  1.0000  0.0999  -1.3784   0.0000   0.0000   0.0000   0.2335
  -9.200  -0.4884   0.10849   0.10419  -0.0067  1.0000  0.1000  -1.3914   0.0000   0.0000   0.0000   0.2301
  -9.100  -0.4945   0.10516   0.10090  -0.0088  1.0000  0.1004  -1.4360   0.0000   0.0000   0.0000   0.2261
  -9.000  -0.5118   0.09798   0.09372  -0.0118  1.0000  0.1018  -1.5381   0.0000   0.0000   0.0000   0.2211
  -8.900  -0.5220   0.09231   0.08806  -0.0134  1.0000  0.1035  -1.5959   0.0000   0.0000   0.0000   0.2186
  -8.800  -0.5198   0.08900   0.08479  -0.0127  1.0000  0.1064  -1.5742   0.0000   0.0000   0.0000   0.2198
  -8.700  -0.4944   0.08928   0.08512  -0.0079  1.0000  0.1101  -1.4437   0.0000   0.0000   0.0000   0.2281
  -8.600  -0.4884   0.08804   0.08390  -0.0082  1.0000  0.1111  -1.4246   0.0000   0.0000   0.0000   0.2274
  -8.500  -0.4837   0.08666   0.08252  -0.0090  1.0000  0.1120  -1.4141   0.0000   0.0000   0.0000   0.2257
  -8.400  -0.4795   0.08527   0.08114  -0.0098  1.0000  0.1129  -1.4053   0.0000   0.0000   0.0000   0.2238
  -8.300  -0.4755   0.08388   0.07976  -0.0108  1.0000  0.1138  -1.3977   0.0000   0.0000   0.0000   0.2218
  -8.200  -0.4715   0.08250   0.07839  -0.0117  1.0000  0.1148  -1.3904   0.0000   0.0000   0.0000   0.2197
  -8.100  -0.4678   0.08112   0.07702  -0.0127  1.0000  0.1157  -1.3845   0.0000   0.0000   0.0000   0.2174
  -8.000  -0.4644   0.07975   0.07565  -0.0138  1.0000  0.1168  -1.3797   0.0000   0.0000   0.0000   0.2151
  -7.900  -0.4604   0.07834   0.07423  -0.0150  0.9891  0.1179  -1.3752   0.0000   0.0000   0.0000   0.2123
  -7.800  -0.4561   0.07690   0.07278  -0.0163  0.9752  0.1191  -1.3713   0.0000   0.0000   0.0000   0.2092
  -7.700  -0.4509   0.07541   0.07127  -0.0178  0.9647  0.1205  -1.3670   0.0000   0.0000   0.0000   0.2055
  -7.600  -0.4460   0.07395   0.06978  -0.0193  0.9561  0.1219  -1.3636   0.0000   0.0000   0.0000   0.2019
  -7.500  -0.4418   0.07253   0.06834  -0.0206  0.9492  0.1233  -1.3613   0.0000   0.0000   0.0000   0.1987
  -7.400  -0.4401   0.07131   0.06710  -0.0211  0.9439  0.1247  -1.3616   0.0000   0.0000   0.0000   0.1975
  -7.300  -0.4383   0.07009   0.06586  -0.0216  0.9389  0.1261  -1.3621   0.0000   0.0000   0.0000   0.1962
  -7.200  -0.4362   0.06888   0.06463  -0.0221  0.9343  0.1277  -1.3628   0.0000   0.0000   0.0000   0.1948
  -7.100  -0.4340   0.06768   0.06340  -0.0226  0.9300  0.1293  -1.3636   0.0000   0.0000   0.0000   0.1935
  -7.000  -0.4319   0.06653   0.06221  -0.0230  0.9257  0.1311  -1.3647   0.0000   0.0000   0.0000   0.1924
  -6.900  -0.4296   0.06542   0.06106  -0.0234  0.9216  0.1329  -1.3660   0.0000   0.0000   0.0000   0.1914
  -6.800  -0.4272   0.06437   0.05996  -0.0237  0.9176  0.1350  -1.3675   0.0000   0.0000   0.0000   0.1904
  -6.700  -0.4244   0.06342   0.05896  -0.0239  0.9136  0.1372  -1.3690   0.0000   0.0000   0.0000   0.1894
  -6.600  -0.4207   0.06267   0.05814  -0.0242  0.9098  0.1398  -1.3702   0.0000   0.0000   0.0000   0.1883
  -6.500  -0.4146   0.06245   0.05784  -0.0245  0.9059  0.1429  -1.3646   0.0000   0.0000   0.0000   0.1869
  -6.300  -0.3932   0.06631   0.06149  -0.0241  0.8984  0.1491  -1.3140   0.0000   0.0000   0.0000   0.1847
  -6.200  -0.3872   0.06597   0.06110  -0.0240  0.8961  0.1495  -1.3041   0.0000   0.0000   0.0000   0.1841
  -6.100  -0.3817   0.06533   0.06041  -0.0238  0.8935  0.1497  -1.2961   0.0000   0.0000   0.0000   0.1837
  -6.000  -0.3764   0.06455   0.05959  -0.0236  0.8907  0.1499  -1.2889   0.0000   0.0000   0.0000   0.1834
  -5.900  -0.4012   0.05487   0.04983  -0.0244  0.8894  0.1553  -1.3877   0.0000   0.0000   0.0000   0.1853
  -5.800  -0.3981   0.05306   0.04804  -0.0241  0.8864  0.1573  -1.3764   0.0000   0.0000   0.0000   0.1857
  -5.700  -0.3924   0.05189   0.04689  -0.0237  0.8830  0.1590  -1.3576   0.0000   0.0000   0.0000   0.1859
  -5.600  -0.3854   0.05096   0.04599  -0.0232  0.8792  0.1606  -1.3349   0.0000   0.0000   0.0000   0.1860
  -5.500  -0.3786   0.05018   0.04524  -0.0227  0.8751  0.1622  -1.3126   0.0000   0.0000   0.0000   0.1864
  -5.400  -0.3720   0.04949   0.04457  -0.0221  0.8707  0.1639  -1.2911   0.0000   0.0000   0.0000   0.1869
  -5.300  -0.3656   0.04888   0.04396  -0.0214  0.8662  0.1657  -1.2705   0.0000   0.0000   0.0000   0.1877
  -5.200  -0.3594   0.04832   0.04340  -0.0207  0.8614  0.1676  -1.2507   0.0000   0.0000   0.0000   0.1887
  -5.100  -0.3532   0.04780   0.04289  -0.0200  0.8566  0.1697  -1.2317   0.0000   0.0000   0.0000   0.1898
  -5.000  -0.3471   0.04734   0.04241  -0.0192  0.8517  0.1719  -1.2135   0.0000   0.0000   0.0000   0.1910
  -4.900  -0.3409   0.04692   0.04197  -0.0185  0.8467  0.1743  -1.1958   0.0000   0.0000   0.0000   0.1922
  -4.800  -0.3344   0.04654   0.04157  -0.0178  0.8415  0.1768  -1.1784   0.0000   0.0000   0.0000   0.1934
  -4.700  -0.3276   0.04621   0.04121  -0.0171  0.8363  0.1795  -1.1611   0.0000   0.0000   0.0000   0.1943
  -4.600  -0.3202   0.04594   0.04091  -0.0165  0.8308  0.1823  -1.1438   0.0000   0.0000   0.0000   0.1949
  -4.500  -0.3308   0.03580   0.02919  -0.0151  0.8302  0.1068  -1.5075   0.0000   0.0000   0.0000   0.1996
  -4.400  -0.3109   0.03793   0.03141  -0.0152  0.8233  0.0978  -1.4486   0.0000   0.0000   0.0000   0.1962
  -4.300  -0.3192   0.03072   0.02314  -0.0120  0.8208  0.0796  -1.6820   0.0000   0.0000   0.0000   0.2068
  -4.200  -0.3091   0.03093   0.02315  -0.0115  0.8139  0.0771  -1.6759   0.0000   0.0000   0.0000   0.2072
  -4.100  -0.2992   0.03146   0.02366  -0.0115  0.8057  0.0762  -1.6459   0.0000   0.0000   0.0000   0.2059
  -4.000  -0.2896   0.03201   0.02420  -0.0115  0.7996  0.0755  -1.6125   0.0000   0.0000   0.0000   0.2046
  -3.900  -0.2813   0.03051   0.02259  -0.0111  0.7986  0.0738  -1.6144   0.0000   0.0000   0.0000   0.2049
  -3.800  -0.2731   0.02929   0.02126  -0.0105  0.7975  0.0728  -1.6120   0.0000   0.0000   0.0000   0.2055
  -3.700  -0.2643   0.02837   0.02024  -0.0101  0.7964  0.0720  -1.6030   0.0000   0.0000   0.0000   0.2057
  -3.600  -0.2549   0.02759   0.01936  -0.0098  0.7951  0.0712  -1.5913   0.0000   0.0000   0.0000   0.2056
  -3.500  -0.2453   0.02689   0.01857  -0.0094  0.7938  0.0705  -1.5779   0.0000   0.0000   0.0000   0.2053
  -3.400  -0.2353   0.02625   0.01784  -0.0092  0.7923  0.0697  -1.5632   0.0000   0.0000   0.0000   0.2047
  -3.300  -0.2251   0.02565   0.01716  -0.0089  0.7907  0.0690  -1.5475   0.0000   0.0000   0.0000   0.2038
  -3.200  -0.2147   0.02511   0.01653  -0.0087  0.7890  0.0683  -1.5309   0.0000   0.0000   0.0000   0.2027
  -3.100  -0.2041   0.02460   0.01594  -0.0085  0.7871  0.0677  -1.5135   0.0000   0.0000   0.0000   0.2013
  -3.000  -0.1933   0.02412   0.01539  -0.0084  0.7852  0.0671  -1.4953   0.0000   0.0000   0.0000   0.1995
  -2.900  -0.1824   0.02367   0.01488  -0.0083  0.7831  0.0665  -1.4763   0.0000   0.0000   0.0000   0.1973
  -2.800  -0.1714   0.02325   0.01440  -0.0081  0.7809  0.0659  -1.4566   0.0000   0.0000   0.0000   0.1948
  -2.700  -0.1604   0.02286   0.01396  -0.0080  0.7786  0.0654  -1.4361   0.0000   0.0000   0.0000   0.1919
  -2.600  -0.1495   0.02250   0.01355  -0.0079  0.7761  0.0649  -1.4148   0.0000   0.0000   0.0000   0.1887
  -2.500  -0.1387   0.02216   0.01317  -0.0078  0.7734  0.0645  -1.3927   0.0000   0.0000   0.0000   0.1853
  -2.400  -0.1282   0.02184   0.01281  -0.0076  0.7704  0.0641  -1.3704   0.0000   0.0000   0.0000   0.1819
  -2.300  -0.1180   0.02153   0.01247  -0.0073  0.7673  0.0638  -1.3478   0.0000   0.0000   0.0000   0.1786
  -2.200  -0.1079   0.02126   0.01217  -0.0070  0.7640  0.0635  -1.3248   0.0000   0.0000   0.0000   0.1753
  -2.100  -0.0981   0.02101   0.01189  -0.0066  0.7607  0.0633  -1.3016   0.0000   0.0000   0.0000   0.1717
  -2.000  -0.0884   0.02079   0.01164  -0.0063  0.7576  0.0631  -1.2781   0.0000   0.0000   0.0000   0.1676
  -1.900  -0.0790   0.02059   0.01141  -0.0058  0.7545  0.0630  -1.2544   0.0000   0.0000   0.0000   0.1634
  -1.800  -0.0698   0.02040   0.01120  -0.0054  0.7513  0.0629  -1.2306   0.0000   0.0000   0.0000   0.1589
  -1.700  -0.0606   0.02023   0.01100  -0.0049  0.7481  0.0628  -1.2065   0.0000   0.0000   0.0000   0.1538
  -1.600  -0.0515   0.02008   0.01081  -0.0044  0.7449  0.0628  -1.1822   0.0000   0.0000   0.0000   0.1473
  -1.500  -0.0425   0.01993   0.01063  -0.0039  0.7417  0.0629  -1.1576   0.0000   0.0000   0.0000   0.1389
  -1.400  -0.0334   0.01979   0.01046  -0.0033  0.7385  0.0630  -1.1327   0.0000   0.0000   0.0000   0.1264
  -1.300  -0.0243   0.01967   0.01029  -0.0027  0.7353  0.0632  -1.1076   0.0000   0.0000   0.0000   0.1045
  -1.200  -0.0150   0.01956   0.01014  -0.0022  0.7321  0.0635  -1.0821   0.0000   0.0000   0.0000   0.0543
  -1.100  -0.0057   0.01945   0.00999  -0.0016  0.7290  0.0639  -1.0565   0.0000   0.0000   0.0000  -0.1584
  -1.000   0.0036   0.01935   0.00985  -0.0010  0.7258  0.0645  -1.0307   0.0000   0.0000   0.0000   0.7334
  -0.900   0.0129   0.01926   0.00972  -0.0005  0.7227  0.0651  -1.0048   0.0000   0.0000   0.0000   0.3367
  -0.800   0.0223   0.01921   0.00963   0.0001  0.7194  0.0660  -0.9790   0.0000   0.0000   0.0000   0.2730
  -0.700   0.0314   0.01919   0.00957   0.0007  0.7159  0.0671  -0.9535   0.0000   0.0000   0.0000   0.2467
  -0.600   0.0403   0.01925   0.00960   0.0013  0.7118  0.0685  -0.9285   0.0000   0.0000   0.0000   0.2322
  -0.500   0.0482   0.01956   0.00989   0.0018  0.7059  0.0702  -0.9053   0.0000   0.0000   0.0000   0.2232
  -0.400   0.0555   0.02012   0.01045   0.0021  0.6994  0.0725  -0.8837   0.0000   0.0000   0.0000   0.2203
  -0.300   0.0659   0.01991   0.01026   0.0023  0.6982  0.0785  -0.8582   0.0000   0.0000   0.0000   0.2210
  -0.200   0.0759   0.01963   0.01008   0.0026  0.6969  0.0984  -0.8326   0.0000   0.0000   0.0000   0.2207
  -0.100   0.0876   0.01869   0.00998   0.0021  0.6954  0.2796  -0.8026   0.0000   0.0000   0.0000   0.2295
   0.000   0.0983   0.01822   0.00985   0.0021  0.6937  0.3732  -0.7732   0.0000   0.0000   0.0000   0.2316
   0.100   0.1068   0.01766   0.00971   0.0026  0.6917  0.4843  -0.7461   0.0000   0.0000   0.0000   0.2284
   0.400   0.2143   0.01843   0.01156  -0.0078  0.6835  0.9203  -0.7069   0.0000   0.0000   0.0000   0.2868
   0.500   0.2341   0.01853   0.01164  -0.0092  0.6799  0.9295  -0.7222   0.0000   0.0000   0.0000   0.2893
   0.600   0.2477   0.01866   0.01176  -0.0094  0.6762  0.9374  -0.7339   0.0000   0.0000   0.0000   0.2877
   0.700   0.2567   0.01894   0.01202  -0.0086  0.6723  0.9452  -0.7428   0.0000   0.0000   0.0000   0.2831
   0.800   0.3814   0.01765   0.01091  -0.0311  0.6646  1.0000  -0.8228   0.0000   0.0000   0.0000   0.3307
   0.900   0.3910   0.01759   0.01083  -0.0308  0.6602  1.0000  -0.8322   0.0000   0.0000   0.0000   0.3277
   1.000   0.4005   0.01752   0.01074  -0.0303  0.6557  1.0000  -0.8416   0.0000   0.0000   0.0000   0.3247
   1.100   0.4098   0.01744   0.01063  -0.0299  0.6513  1.0000  -0.8510   0.0000   0.0000   0.0000   0.3217
   1.200   0.4190   0.01736   0.01052  -0.0294  0.6469  1.0000  -0.8603   0.0000   0.0000   0.0000   0.3188
   1.300   0.4280   0.01726   0.01039  -0.0288  0.6426  1.0000  -0.8697   0.0000   0.0000   0.0000   0.3158
   1.400   0.4370   0.01716   0.01025  -0.0282  0.6383  1.0000  -0.8791   0.0000   0.0000   0.0000   0.3130
   1.500   0.4459   0.01706   0.01011  -0.0276  0.6338  1.0000  -0.8884   0.0000   0.0000   0.0000   0.3101
   1.600   0.4547   0.01697   0.00996  -0.0269  0.6292  1.0000  -0.8976   0.0000   0.0000   0.0000   0.3073
   1.700   0.4635   0.01689   0.00983  -0.0262  0.6241  1.0000  -0.9068   0.0000   0.0000   0.0000   0.3047
   1.800   0.4725   0.01685   0.00974  -0.0256  0.6180  1.0000  -0.9159   0.0000   0.0000   0.0000   0.3022
   1.900   0.4819   0.01695   0.00978  -0.0253  0.6096  1.0000  -0.9247   0.0000   0.0000   0.0000   0.3003
   2.000   0.4926   0.01728   0.01009  -0.0254  0.5994  1.0000  -0.9331   0.0000   0.0000   0.0000   0.2994
   2.100   0.5027   0.01717   0.00997  -0.0252  0.5974  1.0000  -0.9453   0.0000   0.0000   0.0000   0.2979
   2.200   0.5128   0.01707   0.00986  -0.0250  0.5947  1.0000  -0.9609   0.0000   0.0000   0.0000   0.2964
   2.300   0.5229   0.01697   0.00977  -0.0248  0.5911  1.0000  -0.9771   0.0000   0.0000   0.0000   0.2949
   2.400   0.5330   0.01688   0.00967  -0.0246  0.5865  1.0000  -0.9998   0.0000   0.0000   0.0000   0.2935
   2.500   0.5430   0.01680   0.00958  -0.0243  0.5809  1.0000  -1.0224   0.0000   0.0000   0.0000   0.2921
   2.600   0.5529   0.01672   0.00948  -0.0240  0.5744  1.0000  -1.0450   0.0000   0.0000   0.0000   0.2906
   2.700   0.5626   0.01663   0.00937  -0.0237  0.5671  1.0000  -1.0676   0.0000   0.0000   0.0000   0.2891
   2.800   0.5722   0.01653   0.00924  -0.0233  0.5594  1.0000  -1.0902   0.0000   0.0000   0.0000   0.2876
   2.900   0.5816   0.01643   0.00908  -0.0227  0.5511  1.0000  -1.1127   0.0000   0.0000   0.0000   0.2859
   3.000   0.5907   0.01633   0.00889  -0.0221  0.5423  1.0000  -1.1352   0.0000   0.0000   0.0000   0.2842
   3.100   0.5999   0.01626   0.00871  -0.0215  0.5325  1.0000  -1.1576   0.0000   0.0000   0.0000   0.2825
   3.200   0.6093   0.01631   0.00861  -0.0211  0.5182  1.0000  -1.1798   0.0000   0.0000   0.0000   0.2811
   3.300   0.6204   0.01674   0.00896  -0.0213  0.4987  1.0000  -1.2018   0.0000   0.0000   0.0000   0.2808
   3.400   0.6308   0.01673   0.00896  -0.0212  0.4955  1.0000  -1.2254   0.0000   0.0000   0.0000   0.2800
   3.500   0.6413   0.01674   0.00897  -0.0212  0.4912  1.0000  -1.2490   0.0000   0.0000   0.0000   0.2793
   3.600   0.6517   0.01675   0.00898  -0.0211  0.4857  1.0000  -1.2726   0.0000   0.0000   0.0000   0.2786
   3.700   0.6620   0.01678   0.00900  -0.0211  0.4795  1.0000  -1.2963   0.0000   0.0000   0.0000   0.2779
   3.800   0.6722   0.01681   0.00901  -0.0210  0.4730  1.0000  -1.3200   0.0000   0.0000   0.0000   0.2772
   3.900   0.6824   0.01684   0.00902  -0.0209  0.4666  1.0000  -1.3438   0.0000   0.0000   0.0000   0.2764
   4.000   0.6926   0.01689   0.00904  -0.0207  0.4603  1.0000  -1.3675   0.0000   0.0000   0.0000   0.2757
   4.100   0.7027   0.01695   0.00905  -0.0206  0.4542  1.0000  -1.3913   0.0000   0.0000   0.0000   0.2750
   4.200   0.7128   0.01701   0.00905  -0.0205  0.4483  1.0000  -1.4151   0.0000   0.0000   0.0000   0.2742
   4.300   0.7228   0.01708   0.00905  -0.0203  0.4422  1.0000  -1.4390   0.0000   0.0000   0.0000   0.2735
   4.400   0.7329   0.01719   0.00909  -0.0202  0.4358  1.0000  -1.4629   0.0000   0.0000   0.0000   0.2729
   4.500   0.7431   0.01735   0.00919  -0.0201  0.4292  1.0000  -1.4866   0.0000   0.0000   0.0000   0.2723
   4.600   0.7535   0.01758   0.00939  -0.0202  0.4225  1.0000  -1.5100   0.0000   0.0000   0.0000   0.2719
   4.700   0.7641   0.01788   0.00969  -0.0203  0.4157  1.0000  -1.5332   0.0000   0.0000   0.0000   0.2717
   4.800   0.7749   0.01829   0.01012  -0.0206  0.4092  1.0000  -1.5561   0.0000   0.0000   0.0000   0.2716
   4.900   0.7857   0.01885   0.01075  -0.0210  0.4030  1.0000  -1.5783   0.0000   0.0000   0.0000   0.2716
   5.000   0.7961   0.01924   0.01119  -0.0213  0.3996  1.0000  -1.6013   0.0000   0.0000   0.0000   0.2715
   5.100   0.8062   0.01927   0.01123  -0.0212  0.3988  1.0000  -1.6259   0.0000   0.0000   0.0000   0.2710
   5.200   0.8163   0.01932   0.01130  -0.0212  0.3978  1.0000  -1.6505   0.0000   0.0000   0.0000   0.2705
   5.300   0.8263   0.01937   0.01138  -0.0211  0.3968  1.0000  -1.6751   0.0000   0.0000   0.0000   0.2700
   5.400   0.8363   0.01944   0.01146  -0.0211  0.3956  1.0000  -1.6997   0.0000   0.0000   0.0000   0.2695
   5.500   0.8462   0.01950   0.01155  -0.0210  0.3942  1.0000  -1.7242   0.0000   0.0000   0.0000   0.2690
   5.600   0.8562   0.01957   0.01164  -0.0209  0.3926  1.0000  -1.7488   0.0000   0.0000   0.0000   0.2686
   5.700   0.8660   0.01963   0.01174  -0.0209  0.3908  1.0000  -1.7734   0.0000   0.0000   0.0000   0.2681
   5.800   0.8759   0.01972   0.01185  -0.0208  0.3890  1.0000  -1.7979   0.0000   0.0000   0.0000   0.2676
   5.900   0.8858   0.01983   0.01200  -0.0207  0.3871  1.0000  -1.8223   0.0000   0.0000   0.0000   0.2672
   6.000   0.8956   0.01996   0.01216  -0.0207  0.3852  1.0000  -1.8465   0.0000   0.0000   0.0000   0.2667
   6.100   0.9053   0.02008   0.01231  -0.0206  0.3830  1.0000  -1.8708   0.0000   0.0000   0.0000   0.2663
   6.200   0.9150   0.02020   0.01246  -0.0205  0.3808  1.0000  -1.8950   0.0000   0.0000   0.0000   0.2659
   6.300   0.9247   0.02031   0.01261  -0.0204  0.3783  1.0000  -1.9193   0.0000   0.0000   0.0000   0.2654
   6.400   0.9343   0.02042   0.01275  -0.0203  0.3757  1.0000  -1.9461   0.0000   0.0000   0.0000   0.2649
   6.500   0.9439   0.02052   0.01288  -0.0202  0.3729  1.0000  -1.9784   0.0000   0.0000   0.0000   0.2644
   6.600   0.9534   0.02062   0.01300  -0.0200  0.3700  1.0000  -2.0108   0.0000   0.0000   0.0000   0.2639
   6.700   0.9628   0.02071   0.01311  -0.0198  0.3668  1.0000  -2.0433   0.0000   0.0000   0.0000   0.2634
   6.800   0.9722   0.02078   0.01321  -0.0196  0.3635  1.0000  -2.0760   0.0000   0.0000   0.0000   0.2629
   6.900   0.9815   0.02073   0.01314  -0.0193  0.3587  1.0000  -2.1099   0.0000   0.0000   0.0000   0.2622
   7.000   0.9905   0.02057   0.01289  -0.0188  0.3517  1.0000  -2.1451   0.0000   0.0000   0.0000   0.2614
   7.100   0.9992   0.02040   0.01256  -0.0182  0.3423  1.0000  -2.1805   0.0000   0.0000   0.0000   0.2605
   7.200   1.0076   0.02039   0.01235  -0.0177  0.3299  1.0000  -2.2146   0.0000   0.0000   0.0000   0.2597
   7.300   1.0162   0.02071   0.01257  -0.0174  0.3144  1.0000  -2.2465   0.0000   0.0000   0.0000   0.2591
   7.400   1.0246   0.02139   0.01326  -0.0174  0.2998  1.0000  -2.2843   0.0000   0.0000   0.0000   0.2588
   7.500   1.0338   0.02089   0.01268  -0.0169  0.2980  1.0000  -2.3340   0.0000   0.0000   0.0000   0.2581
   7.600   1.0429   0.02061   0.01237  -0.0166  0.2956  1.0000  -2.3818   0.0000   0.0000   0.0000   0.2575
   7.700   1.0519   0.02052   0.01231  -0.0164  0.2933  1.0000  -2.4283   0.0000   0.0000   0.0000   0.2570
   7.800   1.0609   0.02050   0.01232  -0.0161  0.2905  1.0000  -2.4747   0.0000   0.0000   0.0000   0.2565
   7.900   1.0698   0.02050   0.01235  -0.0159  0.2869  1.0000  -2.5214   0.0000   0.0000   0.0000   0.2560
   8.000   1.0786   0.02052   0.01240  -0.0157  0.2822  1.0000  -2.5684   0.0000   0.0000   0.0000   0.2555
   8.100   1.0874   0.02056   0.01247  -0.0154  0.2764  1.0000  -2.6183   0.0000   0.0000   0.0000   0.2550
   8.200   1.0959   0.02062   0.01253  -0.0151  0.2693  1.0000  -2.7035   0.0000   0.0000   0.0000   0.2545
   8.300   1.1042   0.02071   0.01260  -0.0148  0.2605  1.0000  -2.7882   0.0000   0.0000   0.0000   0.2540
   8.400   1.1122   0.02082   0.01266  -0.0145  0.2500  1.0000  -2.8724   0.0000   0.0000   0.0000   0.2534
   8.500   1.1196   0.02098   0.01271  -0.0141  0.2380  1.0000  -2.9552   0.0000   0.0000   0.0000   0.2528
   8.600   1.1264   0.02120   0.01278  -0.0136  0.2251  1.0000  -3.0350   0.0000   0.0000   0.0000   0.2522
   8.700   1.1322   0.02151   0.01293  -0.0131  0.2112  1.0000  -3.1105   0.0000   0.0000   0.0000   0.2515
   8.800   1.1383   0.02180   0.01317  -0.0126  0.1988  1.0000  -3.1863   0.0000   0.0000   0.0000   0.2508
   9.400   1.1084   0.02882   0.01884  -0.0026  0.0314  1.0000  -3.4340   0.0000   0.0000   0.0000   0.2410
   9.500   1.1034   0.02951   0.01963  -0.0004  0.0300  1.0000  -3.4702   0.0000   0.0000   0.0000   0.2389
   9.600   1.0970   0.03008   0.02028   0.0019  0.0294  1.0000  -3.4925   0.0000   0.0000   0.0000   0.2366
   9.700   1.0893   0.03052   0.02079   0.0044  0.0291  1.0000  -3.5044   0.0000   0.0000   0.0000   0.2341
   9.800   1.0793   0.03082   0.02111   0.0073  0.0291  1.0000  -3.5037   0.0000   0.0000   0.0000   0.2313
   9.900   1.0677   0.03103   0.02133   0.0104  0.0292  1.0000  -3.4935   0.0000   0.0000   0.0000   0.2281
  10.000   1.0573   0.03138   0.02170   0.0131  0.0292  1.0000  -3.4897   0.0000   0.0000   0.0000   0.2253
  10.100   1.0485   0.03187   0.02223   0.0155  0.0290  1.0000  -3.4944   0.0000   0.0000   0.0000   0.2227
  10.200   1.0409   0.03246   0.02287   0.0177  0.0288  1.0000  -3.5044   0.0000   0.0000   0.0000   0.2203
  10.300   1.0340   0.03311   0.02359   0.0196  0.0286  1.0000  -3.5174   0.0000   0.0000   0.0000   0.2181
  10.400   1.0276   0.03382   0.02436   0.0214  0.0284  1.0000  -3.5316   0.0000   0.0000   0.0000   0.2161
  10.500   1.0217   0.03457   0.02517   0.0230  0.0282  1.0000  -3.5463   0.0000   0.0000   0.0000   0.2142
  10.600   1.0161   0.03537   0.02603   0.0245  0.0281  1.0000  -3.5611   0.0000   0.0000   0.0000   0.2124
  10.700   1.0102   0.03623   0.02696   0.0259  0.0280  1.0000  -3.5730   0.0000   0.0000   0.0000   0.2107
  10.800   1.0043   0.03717   0.02795   0.0271  0.0279  1.0000  -3.5837   0.0000   0.0000   0.0000   0.2091
  10.900   0.9994   0.03812   0.02895   0.0282  0.0278  1.0000  -3.5979   0.0000   0.0000   0.0000   0.2077
  11.000   0.9953   0.03905   0.02994   0.0292  0.0277  1.0000  -3.6149   0.0000   0.0000   0.0000   0.2063
  11.100   0.9920   0.03996   0.03091   0.0302  0.0277  1.0000  -3.6341   0.0000   0.0000   0.0000   0.2050
  11.200   0.9893   0.04086   0.03186   0.0311  0.0276  1.0000  -3.6553   0.0000   0.0000   0.0000   0.2038
  11.300   0.9874   0.04173   0.03278   0.0320  0.0276  1.0000  -3.6789   0.0000   0.0000   0.0000   0.2027
  11.400   0.9860   0.04261   0.03371   0.0328  0.0275  1.0000  -3.7031   0.0000   0.0000   0.0000   0.2016
  11.500   0.9848   0.04351   0.03465   0.0335  0.0275  1.0000  -3.7273   0.0000   0.0000   0.0000   0.2006
  11.600   0.9842   0.04439   0.03557   0.0342  0.0275  1.0000  -3.7531   0.0000   0.0000   0.0000   0.1997
  11.700   0.9841   0.04524   0.03647   0.0349  0.0275  1.0000  -3.7804   0.0000   0.0000   0.0000   0.1988
  11.800   0.9843   0.04608   0.03735   0.0355  0.0276  1.0000  -3.8085   0.0000   0.0000   0.0000   0.1979
  11.900   0.9850   0.04690   0.03821   0.0362  0.0276  1.0000  -3.8379   0.0000   0.0000   0.0000   0.1971
  12.000   0.9860   0.04773   0.03908   0.0368  0.0277  1.0000  -3.8678   0.0000   0.0000   0.0000   0.1963
  12.100   0.9867   0.04863   0.04002   0.0373  0.0278  1.0000  -3.8954   0.0000   0.0000   0.0000   0.1956
  12.200   0.9874   0.04955   0.04099   0.0378  0.0279  1.0000  -3.9227   0.0000   0.0000   0.0000   0.1950
  12.300   0.9883   0.05049   0.04197   0.0382  0.0280  1.0000  -3.9504   0.0000   0.0000   0.0000   0.1944
  12.400   0.9895   0.05141   0.04295   0.0386  0.0281  1.0000  -3.9789   0.0000   0.0000   0.0000   0.1938
  12.500   0.9908   0.05235   0.04394   0.0390  0.0283  1.0000  -4.0075   0.0000   0.0000   0.0000   0.1933
  12.600   0.9920   0.05333   0.04496   0.0394  0.0285  1.0000  -4.0348   0.0000   0.0000   0.0000   0.1928
  12.700   0.9932   0.05431   0.04600   0.0397  0.0287  1.0000  -4.0620   0.0000   0.0000   0.0000   0.1923
  12.800   0.9945   0.05531   0.04706   0.0400  0.0289  1.0000  -4.0886   0.0000   0.0000   0.0000   0.1919
  12.900   0.9957   0.05634   0.04815   0.0403  0.0291  1.0000  -4.1143   0.0000   0.0000   0.0000   0.1914
  13.000   0.9968   0.05740   0.04927   0.0406  0.0294  1.0000  -4.1387   0.0000   0.0000   0.0000   0.1910
  13.100   0.9977   0.05850   0.05044   0.0408  0.0297  1.0000  -4.1612   0.0000   0.0000   0.0000   0.1906
  13.200   0.9984   0.05965   0.05166   0.0410  0.0300  1.0000  -4.1812   0.0000   0.0000   0.0000   0.1903
  13.300   0.9987   0.06086   0.05296   0.0412  0.0303  1.0000  -4.1978   0.0000   0.0000   0.0000   0.1899
  13.400   0.9986   0.06216   0.05435   0.0413  0.0307  1.0000  -4.2100   0.0000   0.0000   0.0000   0.1896
  13.500   0.9977   0.06357   0.05585   0.0414  0.0311  1.0000  -4.2169   0.0000   0.0000   0.0000   0.1893
  13.600   0.9959   0.06511   0.05749   0.0414  0.0315  1.0000  -4.2174   0.0000   0.0000   0.0000   0.1890
  13.700   0.9931   0.06680   0.05928   0.0413  0.0319  1.0000  -4.2113   0.0000   0.0000   0.0000   0.1888
  13.800   0.9891   0.06863   0.06123   0.0411  0.0322  1.0000  -4.1983   0.0000   0.0000   0.0000   0.1887
  13.900   0.9841   0.07062   0.06333   0.0407  0.0326  1.0000  -4.1792   0.0000   0.0000   0.0000   0.1886
  14.000   0.9773   0.07282   0.06563   0.0400  0.0328  1.0000  -4.1535   0.0000   0.0000   0.0000   0.1888
  14.100   0.9694   0.07518   0.06809   0.0391  0.0330  1.0000  -4.1235   0.0000   0.0000   0.0000   0.1892
  14.200   0.9620   0.07759   0.07060   0.0382  0.0333  1.0000  -4.0924   0.0000   0.0000   0.0000   0.1895
  14.300   0.9546   0.08006   0.07318   0.0373  0.0335  1.0000  -4.0590   0.0000   0.0000   0.0000   0.1900
  14.400   0.9468   0.08266   0.07587   0.0363  0.0338  1.0000  -4.0226   0.0000   0.0000   0.0000   0.1905
  14.500   0.9386   0.08538   0.07870   0.0351  0.0340  1.0000  -3.9831   0.0000   0.0000   0.0000   0.1912
  14.600   0.9297   0.08826   0.08167   0.0338  0.0341  1.0000  -3.9403   0.0000   0.0000   0.0000   0.1921
  14.700   0.9198   0.09144   0.08493   0.0320  0.0342  1.0000  -3.8929   0.0000   0.0000   0.0000   0.1934
  14.800   0.9093   0.09483   0.08840   0.0301  0.0342  1.0000  -3.8415   0.0000   0.0000   0.0000   0.1949
  14.900   0.8995   0.09817   0.09183   0.0283  0.0343  1.0000  -3.7884   0.0000   0.0000   0.0000   0.1964
  15.000   0.8896   0.10158   0.09531   0.0265  0.0343  1.0000  -3.7318   0.0000   0.0000   0.0000   0.1979
  15.100   0.8792   0.10514   0.09895   0.0245  0.0344  1.0000  -3.6703   0.0000   0.0000   0.0000   0.1996
  15.200   0.8681   0.10900   0.10288   0.0223  0.0344  1.0000  -3.6016   0.0000   0.0000   0.0000   0.2016
  15.300   0.8552   0.11341   0.10736   0.0195  0.0343  1.0000  -3.5211   0.0000   0.0000   0.0000   0.2043
  15.400   0.8437   0.11759   0.11160   0.0172  0.0343  1.0000  -3.4384   0.0000   0.0000   0.0000   0.2067
  15.500   0.8324   0.12180   0.11588   0.0150  0.0344  1.0000  -3.3481   0.0000   0.0000   0.0000   0.2090
  15.600   0.8204   0.12637   0.12051   0.0126  0.0346  1.0000  -3.2432   0.0000   0.0000   0.0000   0.2116
  15.700   0.8071   0.13150   0.12570   0.0100  0.0348  1.0000  -3.1161   0.0000   0.0000   0.0000   0.2146
  15.800   0.7915   0.13763   0.13187   0.0068  0.0349  1.0000  -2.9522   0.0000   0.0000   0.0000   0.2185
  15.900   0.7779   0.14357   0.13785   0.0041  0.0353  1.0000  -2.7846   0.0000   0.0000   0.0000   0.2221
  16.000   0.7677   0.14881   0.14311   0.0018  0.0358  1.0000  -2.6374   0.0000   0.0000   0.0000   0.2252
  16.100   0.7599   0.15331   0.14761  -0.0001  0.0362  1.0000  -2.5171   0.0000   0.0000   0.0000   0.2278
  16.200   0.7542   0.15709   0.15139  -0.0018  0.0367  1.0000  -2.4226   0.0000   0.0000   0.0000   0.2301
  16.300   0.7500   0.16036   0.15466  -0.0033  0.0372  1.0000  -2.3441   0.0000   0.0000   0.0000   0.2321
  16.400   0.7467   0.16333   0.15763  -0.0046  0.0377  1.0000  -2.2760   0.0000   0.0000   0.0000   0.2339
  16.500   0.7441   0.16612   0.16043  -0.0058  0.0382  1.0000  -2.2156   0.0000   0.0000   0.0000   0.2356
  16.600   0.7421   0.16879   0.16309  -0.0070  0.0388  1.0000  -2.1611   0.0000   0.0000   0.0000   0.2371
  16.700   0.7405   0.17137   0.16568  -0.0081  0.0395  1.0000  -2.1113   0.0000   0.0000   0.0000   0.2386
  16.800   0.7393   0.17389   0.16820  -0.0091  0.0402  1.0000  -2.0655   0.0000   0.0000   0.0000   0.2400
  16.900   0.7384   0.17637   0.17068  -0.0101  0.0411  1.0000  -2.0231   0.0000   0.0000   0.0000   0.2413
  17.000   0.7378   0.17882   0.17313  -0.0110  0.0421  1.0000  -1.9841   0.0000   0.0000   0.0000   0.2425
  17.100   0.7374   0.18126   0.17557  -0.0118  0.0434  1.0000  -1.9488   0.0000   0.0000   0.0000   0.2435
  17.200   0.7371   0.18372   0.17802  -0.0125  0.0451  1.0000  -1.9186   0.0000   0.0000   0.0000   0.2443
  17.300   0.7365   0.18638   0.18066  -0.0127  0.0475  1.0000  -1.8932   0.0000   0.0000   0.0000   0.2445
  18.200   0.7513   0.22194   0.21626  -0.0173  0.0750  1.0000  -1.5832   0.0000   0.0000   0.0000   0.2504
  18.300   0.7529   0.22433   0.21864  -0.0180  0.0750  1.0000  -1.5759   0.0000   0.0000   0.0000   0.2512
  18.400   0.7545   0.22664   0.22094  -0.0188  0.0750  1.0000  -1.5686   0.0000   0.0000   0.0000   0.2521
  18.500   0.7560   0.22888   0.22317  -0.0196  0.0749  1.0000  -1.5615   0.0000   0.0000   0.0000   0.2529
  18.600   0.7576   0.23106   0.22535  -0.0203  0.0749  1.0000  -1.5544   0.0000   0.0000   0.0000   0.2538
  18.700   0.7591   0.23320   0.22747  -0.0211  0.0749  1.0000  -1.5474   0.0000   0.0000   0.0000   0.2546
  18.800   0.7606   0.23529   0.22955  -0.0219  0.0749  1.0000  -1.5404   0.0000   0.0000   0.0000   0.2555
  18.900   0.7621   0.23733   0.23159  -0.0227  0.0748  1.0000  -1.5334   0.0000   0.0000   0.0000   0.2563
  19.000   0.7636   0.23934   0.23359  -0.0234  0.0748  1.0000  -1.5266   0.0000   0.0000   0.0000   0.2572
  19.100   0.7651   0.24130   0.23555  -0.0242  0.0748  1.0000  -1.5198   0.0000   0.0000   0.0000   0.2580
  19.200   0.7666   0.24322   0.23746  -0.0250  0.0747  1.0000  -1.5130   0.0000   0.0000   0.0000   0.2589
  19.300   0.7680   0.24508   0.23932  -0.0258  0.0747  1.0000  -1.5062   0.0000   0.0000   0.0000   0.2597
  19.400   0.7694   0.24689   0.24113  -0.0266  0.0746  1.0000  -1.4995   0.0000   0.0000   0.0000   0.2606
  19.500   0.7709   0.24866   0.24289  -0.0275  0.0745  1.0000  -1.4927   0.0000   0.0000   0.0000   0.2615
  19.600   0.7723   0.25037   0.24460  -0.0283  0.0745  1.0000  -1.4859   0.0000   0.0000   0.0000   0.2623
  19.700   0.7736   0.25202   0.24625  -0.0291  0.0744  1.0000  -1.4790   0.0000   0.0000   0.0000   0.2632
  19.800   0.7740   0.25336   0.24758  -0.0301  0.0743  1.0000  -1.4665   0.0000   0.0000   0.0000   0.2643
  19.900   0.7741   0.25452   0.24874  -0.0312  0.0741  1.0000  -1.4526   0.0000   0.0000   0.0000   0.2655
  20.000   0.7740   0.25553   0.24974  -0.0323  0.0739  1.0000  -1.4375   0.0000   0.0000   0.0000   0.2668
  20.100   0.7733   0.25620   0.25040  -0.0335  0.0737  1.0000  -1.4184   0.0000   0.0000   0.0000   0.2683
  20.200   0.7716   0.25643   0.25063  -0.0350  0.0733  1.0000  -1.3927   0.0000   0.0000   0.0000   0.2701
  20.300   0.7700   0.25657   0.25076  -0.0367  0.0725  1.0000  -1.3631   0.0000   0.0000   0.0000   0.2723
  20.400   0.7693   0.25721   0.25140  -0.0384  0.0714  1.0000  -1.3363   0.0000   0.0000   0.0000   0.2743
  20.500   0.7700   0.25856   0.25275  -0.0396  0.0702  1.0000  -1.3199   0.0000   0.0000   0.0000   0.2757
  20.600   0.7713   0.26022   0.25441  -0.0406  0.0690  1.0000  -1.3105   0.0000   0.0000   0.0000   0.2768
  20.700   0.7728   0.26199   0.25618  -0.0415  0.0680  1.0000  -1.3047   0.0000   0.0000   0.0000   0.2777
  20.800   0.7745   0.26381   0.25799  -0.0423  0.0669  1.0000  -1.3011   0.0000   0.0000   0.0000   0.2784
  20.900   0.7762   0.26565   0.25983  -0.0430  0.0660  1.0000  -1.2990   0.0000   0.0000   0.0000   0.2791
  21.000   0.7780   0.26749   0.26167  -0.0437  0.0650  1.0000  -1.2980   0.0000   0.0000   0.0000   0.2797
  21.100   0.7798   0.26932   0.26351  -0.0443  0.0641  1.0000  -1.2981   0.0000   0.0000   0.0000   0.2802
  21.200   0.7816   0.27116   0.26534  -0.0450  0.0632  1.0000  -1.2990   0.0000   0.0000   0.0000   0.2808
  21.300   0.7836   0.27295   0.26713  -0.0456  0.0621  1.0000  -1.3020   0.0000   0.0000   0.0000   0.2812
  21.400   0.7858   0.27455   0.26873  -0.0461  0.0604  1.0000  -1.3129   0.0000   0.0000   0.0000   0.2815
  21.500   0.7883   0.27608   0.27026  -0.0465  0.0587  1.0000  -1.3286   0.0000   0.0000   0.0000   0.2817
  21.600   0.7912   0.27755   0.27173  -0.0468  0.0572  1.0000  -1.3502   0.0000   0.0000   0.0000   0.2816
  21.700   0.7945   0.27898   0.27316  -0.0468  0.0557  1.0000  -1.3797   0.0000   0.0000   0.0000   0.2812
  21.800   0.7987   0.28046   0.27464  -0.0466  0.0543  1.0000  -1.4212   0.0000   0.0000   0.0000   0.2804
  21.900   0.8046   0.28234   0.27652  -0.0458  0.0530  1.0000  -1.4838   0.0000   0.0000   0.0000   0.2788
  22.000   0.8108   0.29739   0.29153  -0.0431  0.0500  1.0000  -1.5282   0.0000   0.0000   0.0000   0.2751
  22.100   0.8115   0.29893   0.29308  -0.0439  0.0499  1.0000  -1.5196   0.0000   0.0000   0.0000   0.2760
  22.200   0.8122   0.30043   0.29458  -0.0447  0.0499  1.0000  -1.5112   0.0000   0.0000   0.0000   0.2768
  22.300   0.8129   0.30188   0.29603  -0.0456  0.0498  1.0000  -1.5030   0.0000   0.0000   0.0000   0.2776
  22.400   0.8136   0.30327   0.29742  -0.0464  0.0497  1.0000  -1.4949   0.0000   0.0000   0.0000   0.2784
  22.500   0.8143   0.30456   0.29871  -0.0472  0.0496  1.0000  -1.4869   0.0000   0.0000   0.0000   0.2792
  22.600   0.8149   0.30571   0.29986  -0.0481  0.0494  1.0000  -1.4785   0.0000   0.0000   0.0000   0.2801
  22.700   0.8154   0.30669   0.30085  -0.0490  0.0493  1.0000  -1.4692   0.0000   0.0000   0.0000   0.2810
  22.800   0.8144   0.30729   0.30144  -0.0501  0.0491  1.0000  -1.4509   0.0000   0.0000   0.0000   0.2822
  22.900   0.8133   0.30767   0.30182  -0.0514  0.0487  1.0000  -1.4293   0.0000   0.0000   0.0000   0.2837
  23.000   0.8122   0.30784   0.30199  -0.0528  0.0482  1.0000  -1.4040   0.0000   0.0000   0.0000   0.2854
  23.100   0.8117   0.30803   0.30218  -0.0546  0.0472  1.0000  -1.3728   0.0000   0.0000   0.0000   0.2874
  23.200   0.8123   0.30909   0.30325  -0.0562  0.0453  1.0000  -1.3469   0.0000   0.0000   0.0000   0.2892
  23.300   0.8134   0.31083   0.30499  -0.0572  0.0433  1.0000  -1.3365   0.0000   0.0000   0.0000   0.2902
  23.400   0.8146   0.31267   0.30683  -0.0579  0.0415  1.0000  -1.3338   0.0000   0.0000   0.0000   0.2908
  23.500   0.8157   0.31449   0.30866  -0.0586  0.0398  1.0000  -1.3352   0.0000   0.0000   0.0000   0.2914
  23.600   0.8168   0.31628   0.31046  -0.0592  0.0382  1.0000  -1.3393   0.0000   0.0000   0.0000   0.2918
  23.700   0.8180   0.31802   0.31220  -0.0597  0.0368  1.0000  -1.3460   0.0000   0.0000   0.0000   0.2922
  23.800   0.8191   0.31970   0.31389  -0.0602  0.0354  1.0000  -1.3550   0.0000   0.0000   0.0000   0.2925
  23.900   0.8204   0.32133   0.31552  -0.0606  0.0342  1.0000  -1.3667   0.0000   0.0000   0.0000   0.2927
  24.000   0.8216   0.32289   0.31708  -0.0610  0.0330  1.0000  -1.3814   0.0000   0.0000   0.0000   0.2929
  24.100   0.8230   0.32438   0.31858  -0.0614  0.0319  1.0000  -1.3996   0.0000   0.0000   0.0000   0.2930
  24.200   0.8244   0.32580   0.32000  -0.0616  0.0309  1.0000  -1.4219   0.0000   0.0000   0.0000   0.2930
  24.300   0.8259   0.32715   0.32135  -0.0618  0.0300  1.0000  -1.4492   0.0000   0.0000   0.0000   0.2929
  24.400   0.8277   0.32845   0.32265  -0.0619  0.0292  1.0000  -1.4824   0.0000   0.0000   0.0000   0.2926
  24.500   0.8298   0.32975   0.32395  -0.0618  0.0284  1.0000  -1.5237   0.0000   0.0000   0.0000   0.2920
  24.600   0.8316   0.33121   0.32557  -0.0618  0.0279  1.0000  -1.5540   0.0000   0.0000   0.0000   0.2916
  24.700   0.8331   0.33297   0.32735  -0.0619  0.0275  1.0000  -1.5765   0.0000   0.0000   0.0000   0.2914
  24.800   0.8353   0.33495   0.32935  -0.0616  0.0270  1.0000  -1.6154   0.0000   0.0000   0.0000   0.2906
  24.900   0.8370   0.33839   0.33281  -0.0609  0.0262  1.0000  -1.6533   0.0000   0.0000   0.0000   0.2895
  25.100   0.8224   0.34969   0.34407  -0.0613  0.0249  1.0000  -1.4856   0.0000   0.0000   0.0000   0.2916
  25.200   0.8212   0.35083   0.34522  -0.0617  0.0248  1.0000  -1.4770   0.0000   0.0000   0.0000   0.2921
  25.300   0.8198   0.35182   0.34623  -0.0621  0.0247  1.0000  -1.4684   0.0000   0.0000   0.0000   0.2926
  25.400   0.8183   0.35264   0.34706  -0.0625  0.0246  1.0000  -1.4601   0.0000   0.0000   0.0000   0.2931
  25.500   0.8165   0.35319   0.34763  -0.0630  0.0245  1.0000  -1.4511   0.0000   0.0000   0.0000   0.2937
  25.600   0.8145   0.35350   0.34795  -0.0634  0.0242  1.0000  -1.4421   0.0000   0.0000   0.0000   0.2943
  25.700   0.8123   0.35357   0.34803  -0.0639  0.0239  1.0000  -1.4305   0.0000   0.0000   0.0000   0.2950
  25.800   0.8085   0.35343   0.34791  -0.0644  0.0234  1.0000  -1.4066   0.0000   0.0000   0.0000   0.2959
  25.900   0.7644   0.34364   0.33823  -0.0575  0.0238  1.0000  -1.3151   0.0000   0.0000   0.0000   0.2929
  26.000   0.7564   0.34182   0.33644  -0.0572  0.0234  1.0000  -1.2838   0.0000   0.0000   0.0000   0.2934
  26.100   0.7516   0.34101   0.33566  -0.0574  0.0229  1.0000  -1.2559   0.0000   0.0000   0.0000   0.2942
  26.200   0.7480   0.34081   0.33547  -0.0576  0.0223  1.0000  -1.2302   0.0000   0.0000   0.0000   0.2949
  26.300   0.7447   0.34083   0.33552  -0.0578  0.0217  1.0000  -1.2081   0.0000   0.0000   0.0000   0.2955
  26.400   0.7414   0.34092   0.33563  -0.0578  0.0212  1.0000  -1.1897   0.0000   0.0000   0.0000   0.2959
  26.500   0.7383   0.34103   0.33576  -0.0578  0.0206  1.0000  -1.1743   0.0000   0.0000   0.0000   0.2963
  26.600   0.7354   0.34116   0.33591  -0.0578  0.0201  1.0000  -1.1615   0.0000   0.0000   0.0000   0.2966
  26.700   0.7326   0.34131   0.33607  -0.0578  0.0197  1.0000  -1.1508   0.0000   0.0000   0.0000   0.2969
  26.800   0.7301   0.34146   0.33625  -0.0578  0.0192  1.0000  -1.1418   0.0000   0.0000   0.0000   0.2972
  26.900   0.7277   0.34163   0.33643  -0.0578  0.0188  1.0000  -1.1343   0.0000   0.0000   0.0000   0.2974
  27.000   0.7254   0.34180   0.33662  -0.0579  0.0184  1.0000  -1.1282   0.0000   0.0000   0.0000   0.2977
  27.100   0.7234   0.34198   0.33682  -0.0579  0.0180  1.0000  -1.1233   0.0000   0.0000   0.0000   0.2979
  27.200   0.7214   0.34217   0.33702  -0.0580  0.0176  1.0000  -1.1196   0.0000   0.0000   0.0000   0.2982
  27.300   0.7196   0.34237   0.33724  -0.0580  0.0173  1.0000  -1.1170   0.0000   0.0000   0.0000   0.2984
  27.400   0.7180   0.34257   0.33745  -0.0581  0.0169  1.0000  -1.1157   0.0000   0.0000   0.0000   0.2987
  27.500   0.7164   0.34278   0.33767  -0.0582  0.0166  1.0000  -1.1154   0.0000   0.0000   0.0000   0.2989
  27.600   0.7150   0.34298   0.33789  -0.0583  0.0163  1.0000  -1.1163   0.0000   0.0000   0.0000   0.2991
  27.700   0.7136   0.34319   0.33811  -0.0584  0.0160  1.0000  -1.1184   0.0000   0.0000   0.0000   0.2994
  27.800   0.7123   0.34338   0.33832  -0.0585  0.0157  1.0000  -1.1217   0.0000   0.0000   0.0000   0.2996
  27.900   0.7112   0.34358   0.33852  -0.0586  0.0154  1.0000  -1.1263   0.0000   0.0000   0.0000   0.2998
  28.000   0.7101   0.34376   0.33872  -0.0588  0.0152  1.0000  -1.1321   0.0000   0.0000   0.0000   0.3000
  28.100   0.7091   0.34393   0.33890  -0.0589  0.0149  1.0000  -1.1393   0.0000   0.0000   0.0000   0.3001
  28.200   0.7081   0.34409   0.33908  -0.0590  0.0147  1.0000  -1.1479   0.0000   0.0000   0.0000   0.3003
  28.300   0.7072   0.34424   0.33924  -0.0591  0.0144  1.0000  -1.1579   0.0000   0.0000   0.0000   0.3004
  28.400   0.7064   0.34438   0.33939  -0.0591  0.0142  1.0000  -1.1695   0.0000   0.0000   0.0000   0.3005
  28.500   0.7056   0.34452   0.33954  -0.0592  0.0140  1.0000  -1.1827   0.0000   0.0000   0.0000   0.3005
  28.600   0.7049   0.34466   0.33969  -0.0592  0.0138  1.0000  -1.1976   0.0000   0.0000   0.0000   0.3005
  28.700   0.7042   0.34483   0.33987  -0.0592  0.0136  1.0000  -1.2140   0.0000   0.0000   0.0000   0.3004
  28.800   0.7037   0.34508   0.34013  -0.0591  0.0134  1.0000  -1.2320   0.0000   0.0000   0.0000   0.3002
  28.900   0.7032   0.34555   0.34062  -0.0589  0.0132  1.0000  -1.2516   0.0000   0.0000   0.0000   0.2998
  29.000   0.6959   0.34875   0.34377  -0.0577  0.0125  1.0000  -1.1607   0.0000   0.0000   0.0000   0.2995
  29.100   0.6949   0.34916   0.34419  -0.0580  0.0125  1.0000  -1.1512   0.0000   0.0000   0.0000   0.2999
  29.200   0.6940   0.34957   0.34462  -0.0582  0.0125  1.0000  -1.1420   0.0000   0.0000   0.0000   0.3003
  29.300   0.6930   0.34999   0.34505  -0.0585  0.0125  1.0000  -1.1330   0.0000   0.0000   0.0000   0.3008
  29.400   0.6922   0.35042   0.34549  -0.0588  0.0125  1.0000  -1.1242   0.0000   0.0000   0.0000   0.3012
  29.500   0.6913   0.35085   0.34594  -0.0591  0.0125  1.0000  -1.1156   0.0000   0.0000   0.0000   0.3016
  29.600   0.6905   0.35129   0.34639  -0.0594  0.0124  1.0000  -1.1071   0.0000   0.0000   0.0000   0.3021
  29.700   0.6898   0.35173   0.34685  -0.0597  0.0124  1.0000  -1.0989   0.0000   0.0000   0.0000   0.3025
  29.800   0.6890   0.35218   0.34731  -0.0600  0.0124  1.0000  -1.0909   0.0000   0.0000   0.0000   0.3030
  29.900   0.6883   0.35263   0.34777  -0.0603  0.0124  1.0000  -1.0830   0.0000   0.0000   0.0000   0.3034
  30.000   0.6877   0.35309   0.34825  -0.0606  0.0124  1.0000  -1.0754   0.0000   0.0000   0.0000   0.3038


