xflr5 v6.61

 Calculated polar for: CLARK YS

 1 1 Reynolds number fixed          Mach number fixed         

 xtrf =   1.000 (top)        1.000 (bottom)
 Mach =   0.000     Re =     0.160 e 6     Ncrit =   9.000

  alpha     CL        CD       CDp       Cm    Top Xtr Bot Xtr   Cpmin    Chinge    XCp    
 ------- -------- --------- --------- -------- ------- ------- -------- --------- ---------
  -9.800  -0.5515   0.09928   0.09536  -0.0066  1.0000  0.0767  -1.9071   0.0000   0.0000   0.0000   0.2308
  -9.700  -0.5356   0.09905   0.09515  -0.0015  1.0000  0.0782  -1.7306   0.0000   0.0000   0.0000   0.2400
  -9.600  -0.5262   0.09843   0.09454  -0.0002  1.0000  0.0791  -1.6354   0.0000   0.0000   0.0000   0.2425
  -9.500  -0.5192   0.09755   0.09368   0.0002  1.0000  0.0799  -1.5676   0.0000   0.0000   0.0000   0.2432
  -9.400  -0.5134   0.09655   0.09268   0.0000  1.0000  0.0806  -1.5388   0.0000   0.0000   0.0000   0.2431
  -9.300  -0.5050   0.09608   0.09223   0.0005  1.0000  0.0822  -1.4905   0.0000   0.0000   0.0000   0.2440
  -9.200  -0.4959   0.09580   0.09197   0.0008  1.0000  0.0846  -1.4398   0.0000   0.0000   0.0000   0.2447
  -9.100  -0.4905   0.09495   0.09113  -0.0001  1.0000  0.0869  -1.4198   0.0000   0.0000   0.0000   0.2430
  -9.000  -0.4866   0.09380   0.08999  -0.0018  1.0000  0.0890  -1.4152   0.0000   0.0000   0.0000   0.2397
  -8.900  -0.4836   0.09249   0.08869  -0.0041  1.0000  0.0909  -1.4204   0.0000   0.0000   0.0000   0.2351
  -8.800  -0.4799   0.09114   0.08734  -0.0071  0.9935  0.0929  -1.4297   0.0000   0.0000   0.0000   0.2288
  -8.500  -0.4661   0.08994   0.08607  -0.0147  0.9414  0.0980  -1.4341   0.0000   0.0000   0.0000   0.2127
  -8.400  -0.4649   0.08966   0.08575  -0.0156  0.9327  0.0987  -1.4357   0.0000   0.0000   0.0000   0.2109
  -8.300  -0.4651   0.08911   0.08516  -0.0159  0.9250  0.0990  -1.4399   0.0000   0.0000   0.0000   0.2104
  -8.200  -0.4662   0.08840   0.08442  -0.0159  0.9183  0.0992  -1.4459   0.0000   0.0000   0.0000   0.2106
  -8.100  -0.4664   0.08754   0.08351  -0.0160  0.9123  0.0994  -1.4511   0.0000   0.0000   0.0000   0.2105
  -7.800  -0.4633   0.08444   0.08028  -0.0167  0.8989  0.0997  -1.4629   0.0000   0.0000   0.0000   0.2089
  -7.700  -0.4610   0.08324   0.07905  -0.0171  0.8970  0.0998  -1.4655   0.0000   0.0000   0.0000   0.2079
  -7.600  -0.4584   0.08200   0.07778  -0.0175  0.8951  0.0999  -1.4676   0.0000   0.0000   0.0000   0.2069
  -7.500  -0.4555   0.08076   0.07649  -0.0178  0.8932  0.0999  -1.4692   0.0000   0.0000   0.0000   0.2060
  -7.400  -0.4985   0.06740   0.06304  -0.0204  0.8921  0.1049  -1.6787   0.0000   0.0000   0.0000   0.2043
  -7.300  -0.4966   0.06539   0.06102  -0.0205  0.8903  0.1061  -1.6747   0.0000   0.0000   0.0000   0.2041
  -7.200  -0.4931   0.06385   0.05947  -0.0205  0.8884  0.1071  -1.6639   0.0000   0.0000   0.0000   0.2039
  -7.100  -0.4891   0.06253   0.05815  -0.0204  0.8864  0.1081  -1.6504   0.0000   0.0000   0.0000   0.2038
  -7.000  -0.4846   0.06135   0.05696  -0.0203  0.8843  0.1090  -1.6354   0.0000   0.0000   0.0000   0.2037
  -6.900  -0.4790   0.06032   0.05592  -0.0201  0.8820  0.1099  -1.6158   0.0000   0.0000   0.0000   0.2037
  -6.800  -0.4733   0.05936   0.05496  -0.0198  0.8794  0.1108  -1.5957   0.0000   0.0000   0.0000   0.2038
  -6.700  -0.4677   0.05844   0.05404  -0.0195  0.8766  0.1117  -1.5762   0.0000   0.0000   0.0000   0.2040
  -6.600  -0.4623   0.05755   0.05315  -0.0192  0.8736  0.1126  -1.5575   0.0000   0.0000   0.0000   0.2042
  -6.500  -0.4571   0.05669   0.05227  -0.0188  0.8704  0.1136  -1.5394   0.0000   0.0000   0.0000   0.2046
  -6.400  -0.4520   0.05585   0.05142  -0.0184  0.8670  0.1146  -1.5222   0.0000   0.0000   0.0000   0.2051
  -6.300  -0.4470   0.05503   0.05058  -0.0180  0.8634  0.1157  -1.5057   0.0000   0.0000   0.0000   0.2056
  -6.200  -0.4421   0.05422   0.04974  -0.0175  0.8595  0.1169  -1.4899   0.0000   0.0000   0.0000   0.2063
  -6.100  -0.4373   0.05342   0.04892  -0.0170  0.8556  0.1181  -1.4747   0.0000   0.0000   0.0000   0.2071
  -6.000  -0.4326   0.05264   0.04811  -0.0165  0.8514  0.1195  -1.4602   0.0000   0.0000   0.0000   0.2079
  -5.900  -0.4277   0.05186   0.04729  -0.0160  0.8471  0.1209  -1.4461   0.0000   0.0000   0.0000   0.2087
  -5.800  -0.4228   0.05109   0.04648  -0.0155  0.8425  0.1223  -1.4325   0.0000   0.0000   0.0000   0.2094
  -5.700  -0.4176   0.05032   0.04567  -0.0150  0.8377  0.1240  -1.4193   0.0000   0.0000   0.0000   0.2101
  -5.600  -0.4121   0.04956   0.04486  -0.0147  0.8326  0.1257  -1.4063   0.0000   0.0000   0.0000   0.2106
  -5.500  -0.4061   0.04881   0.04407  -0.0144  0.8273  0.1276  -1.3934   0.0000   0.0000   0.0000   0.2108
  -5.400  -0.3996   0.04808   0.04329  -0.0142  0.8216  0.1296  -1.3806   0.0000   0.0000   0.0000   0.2106
  -5.300  -0.3925   0.04740   0.04256  -0.0142  0.8154  0.1318  -1.3676   0.0000   0.0000   0.0000   0.2100
  -5.200  -0.3846   0.04680   0.04192  -0.0144  0.8089  0.1341  -1.3542   0.0000   0.0000   0.0000   0.2088
  -5.100  -0.3758   0.04636   0.04144  -0.0148  0.8017  0.1366  -1.3401   0.0000   0.0000   0.0000   0.2068
  -5.000  -0.3679   0.04585   0.04088  -0.0146  0.7993  0.1391  -1.3259   0.0000   0.0000   0.0000   0.2065
  -4.900  -0.3595   0.04549   0.04046  -0.0142  0.7983  0.1417  -1.3095   0.0000   0.0000   0.0000   0.2067
  -4.800  -0.3369   0.05021   0.04513  -0.0136  0.7969  0.1491  -1.2325   0.0000   0.0000   0.0000   0.2056
  -4.700  -0.3281   0.05034   0.04520  -0.0132  0.7957  0.1497  -1.2120   0.0000   0.0000   0.0000   0.2060
  -4.600  -0.3454   0.04275   0.03743  -0.0125  0.7948  0.1554  -1.2904   0.0000   0.0000   0.0000   0.2099
  -4.200  -0.3225   0.03058   0.02336  -0.0068  0.7896  0.0769  -1.6672   0.0000   0.0000   0.0000   0.2234
  -4.100  -0.3113   0.03100   0.02377  -0.0066  0.7877  0.0759  -1.6281   0.0000   0.0000   0.0000   0.2235
  -4.000  -0.3039   0.02881   0.02148  -0.0061  0.7859  0.0720  -1.6480   0.0000   0.0000   0.0000   0.2244
  -3.900  -0.2957   0.02773   0.02029  -0.0056  0.7839  0.0707  -1.6447   0.0000   0.0000   0.0000   0.2255
  -3.800  -0.2869   0.02684   0.01929  -0.0051  0.7818  0.0695  -1.6376   0.0000   0.0000   0.0000   0.2265
  -3.700  -0.2778   0.02604   0.01839  -0.0047  0.7796  0.0684  -1.6289   0.0000   0.0000   0.0000   0.2273
  -3.600  -0.2682   0.02532   0.01755  -0.0043  0.7772  0.0672  -1.6192   0.0000   0.0000   0.0000   0.2280
  -3.500  -0.2583   0.02464   0.01677  -0.0040  0.7748  0.0661  -1.6088   0.0000   0.0000   0.0000   0.2286
  -3.400  -0.2481   0.02400   0.01603  -0.0037  0.7723  0.0650  -1.5978   0.0000   0.0000   0.0000   0.2291
  -3.300  -0.2376   0.02340   0.01532  -0.0034  0.7698  0.0639  -1.5862   0.0000   0.0000   0.0000   0.2294
  -3.200  -0.2269   0.02285   0.01466  -0.0032  0.7672  0.0629  -1.5735   0.0000   0.0000   0.0000   0.2296
  -3.100  -0.2160   0.02234   0.01405  -0.0030  0.7646  0.0619  -1.5592   0.0000   0.0000   0.0000   0.2296
  -3.000  -0.2050   0.02187   0.01349  -0.0028  0.7620  0.0611  -1.5430   0.0000   0.0000   0.0000   0.2295
  -2.900  -0.1939   0.02143   0.01298  -0.0027  0.7593  0.0603  -1.5256   0.0000   0.0000   0.0000   0.2292
  -2.800  -0.1828   0.02104   0.01251  -0.0025  0.7567  0.0595  -1.5069   0.0000   0.0000   0.0000   0.2290
  -2.700  -0.1718   0.02067   0.01208  -0.0024  0.7540  0.0589  -1.4868   0.0000   0.0000   0.0000   0.2287
  -2.600  -0.1610   0.02035   0.01170  -0.0022  0.7513  0.0583  -1.4654   0.0000   0.0000   0.0000   0.2287
  -2.500  -0.1503   0.02005   0.01135  -0.0020  0.7486  0.0577  -1.4427   0.0000   0.0000   0.0000   0.2289
  -2.400  -0.1399   0.01978   0.01104  -0.0017  0.7458  0.0573  -1.4188   0.0000   0.0000   0.0000   0.2295
  -2.300  -0.1298   0.01953   0.01076  -0.0013  0.7429  0.0568  -1.3940   0.0000   0.0000   0.0000   0.2308
  -2.200  -0.1199   0.01929   0.01049  -0.0010  0.7399  0.0564  -1.3685   0.0000   0.0000   0.0000   0.2328
  -2.100  -0.1101   0.01908   0.01024  -0.0005  0.7370  0.0561  -1.3424   0.0000   0.0000   0.0000   0.2354
  -2.000  -0.1006   0.01887   0.01002  -0.0001  0.7342  0.0558  -1.3158   0.0000   0.0000   0.0000   0.2388
  -1.900  -0.0911   0.01869   0.00981   0.0003  0.7316  0.0555  -1.2888   0.0000   0.0000   0.0000   0.2428
  -1.800  -0.0817   0.01852   0.00961   0.0008  0.7290  0.0553  -1.2617   0.0000   0.0000   0.0000   0.2481
  -1.700  -0.0724   0.01838   0.00943   0.0013  0.7263  0.0551  -1.2344   0.0000   0.0000   0.0000   0.2551
  -1.600  -0.0632   0.01824   0.00927   0.0018  0.7237  0.0549  -1.2071   0.0000   0.0000   0.0000   0.2643
  -1.500  -0.0540   0.01813   0.00912   0.0023  0.7209  0.0548  -1.1798   0.0000   0.0000   0.0000   0.2768
  -1.400  -0.0451   0.01804   0.00900   0.0028  0.7178  0.0546  -1.1528   0.0000   0.0000   0.0000   0.2947
  -1.300  -0.0362   0.01799   0.00892   0.0033  0.7145  0.0546  -1.1259   0.0000   0.0000   0.0000   0.3205
  -1.200  -0.0274   0.01804   0.00893   0.0038  0.7103  0.0545  -1.0992   0.0000   0.0000   0.0000   0.3607
  -1.100  -0.0190   0.01831   0.00918   0.0041  0.7045  0.0545  -1.0735   0.0000   0.0000   0.0000   0.4282
  -1.000  -0.0104   0.01862   0.00947   0.0043  0.6995  0.0545  -1.0477   0.0000   0.0000   0.0000   0.5952
  -0.900  -0.0001   0.01843   0.00926   0.0045  0.6987  0.0546  -1.0190   0.0000   0.0000   0.0000  34.9451
  -0.800   0.0101   0.01825   0.00905   0.0048  0.6977  0.0548  -0.9905   0.0000   0.0000   0.0000  -0.1623
  -0.700   0.0204   0.01808   0.00885   0.0050  0.6966  0.0551  -0.9621   0.0000   0.0000   0.0000   0.0316
  -0.600   0.0307   0.01791   0.00866   0.0052  0.6953  0.0554  -0.9337   0.0000   0.0000   0.0000   0.0959
  -0.500   0.0410   0.01776   0.00848   0.0055  0.6938  0.0560  -0.9054   0.0000   0.0000   0.0000   0.1279
  -0.400   0.0513   0.01762   0.00832   0.0057  0.6920  0.0567  -0.8772   0.0000   0.0000   0.0000   0.1471
  -0.300   0.0616   0.01748   0.00817   0.0059  0.6901  0.0576  -0.8490   0.0000   0.0000   0.0000   0.1599
  -0.200   0.0719   0.01736   0.00804   0.0062  0.6878  0.0590  -0.8207   0.0000   0.0000   0.0000   0.1692
  -0.100   0.0822   0.01724   0.00792   0.0064  0.6853  0.0608  -0.7924   0.0000   0.0000   0.0000   0.1759
   0.000   0.0923   0.01712   0.00782   0.0066  0.6825  0.0633  -0.7639   0.0000   0.0000   0.0000   0.1809
   0.100   0.1024   0.01701   0.00772   0.0069  0.6796  0.0663  -0.7350   0.0000   0.0000   0.0000   0.1848
   0.200   0.1125   0.01689   0.00763   0.0071  0.6763  0.0705  -0.7058   0.0000   0.0000   0.0000   0.1881
   0.400   0.1285   0.01605   0.00747   0.0081  0.6697  0.2248  -0.6618   0.0000   0.0000   0.0000   0.1876
   0.500   0.1380   0.01577   0.00738   0.0084  0.6662  0.2830  -0.6709   0.0000   0.0000   0.0000   0.1896
   0.600   0.1463   0.01522   0.00731   0.0088  0.6627  0.4091  -0.6794   0.0000   0.0000   0.0000   0.1897
   0.800   0.1959   0.01477   0.00828   0.0055  0.6555  0.8892  -0.7176   0.0000   0.0000   0.0000   0.2213
   0.900   0.1998   0.01478   0.00826   0.0072  0.6519  0.8925  -0.7236   0.0000   0.0000   0.0000   0.2131
   1.000   0.2033   0.01481   0.00825   0.0091  0.6483  0.8956  -0.7293   0.0000   0.0000   0.0000   0.2046
   1.100   0.2060   0.01486   0.00828   0.0111  0.6448  0.8985  -0.7347   0.0000   0.0000   0.0000   0.1951
   1.200   0.2877   0.01630   0.00991  -0.0003  0.6389  0.9447  -0.7890   0.0000   0.0000   0.0000   0.2497
   1.300   0.2951   0.01653   0.01010   0.0008  0.6349  0.9483  -0.7973   0.0000   0.0000   0.0000   0.2457
   1.400   0.3633   0.01570   0.00919  -0.0105  0.6278  0.9692  -0.8432   0.0000   0.0000   0.0000   0.2773
   1.500   0.3989   0.01541   0.00883  -0.0154  0.6204  0.9834  -0.8688   0.0000   0.0000   0.0000   0.2869
   1.600   0.4439   0.01516   0.00850  -0.0224  0.6084  1.0000  -0.8997   0.0000   0.0000   0.0000   0.2986
   1.700   0.4549   0.01538   0.00871  -0.0226  0.5996  1.0000  -0.9089   0.0000   0.0000   0.0000   0.2978
   1.800   0.4652   0.01530   0.00862  -0.0225  0.5980  1.0000  -0.9188   0.0000   0.0000   0.0000   0.2962
   1.900   0.4754   0.01522   0.00854  -0.0223  0.5960  1.0000  -0.9288   0.0000   0.0000   0.0000   0.2948
   2.000   0.4857   0.01515   0.00846  -0.0222  0.5934  1.0000  -0.9387   0.0000   0.0000   0.0000   0.2934
   2.100   0.4959   0.01508   0.00839  -0.0220  0.5901  1.0000  -0.9485   0.0000   0.0000   0.0000   0.2920
   2.200   0.5061   0.01501   0.00832  -0.0219  0.5860  1.0000  -0.9619   0.0000   0.0000   0.0000   0.2907
   2.300   0.5163   0.01495   0.00824  -0.0217  0.5810  1.0000  -0.9777   0.0000   0.0000   0.0000   0.2894
   2.400   0.5264   0.01488   0.00816  -0.0215  0.5751  1.0000  -1.0004   0.0000   0.0000   0.0000   0.2880
   2.500   0.5364   0.01481   0.00807  -0.0212  0.5684  1.0000  -1.0231   0.0000   0.0000   0.0000   0.2867
   2.600   0.5462   0.01474   0.00796  -0.0209  0.5607  1.0000  -1.0457   0.0000   0.0000   0.0000   0.2853
   2.700   0.5559   0.01467   0.00783  -0.0205  0.5522  1.0000  -1.0683   0.0000   0.0000   0.0000   0.2838
   2.800   0.5654   0.01461   0.00767  -0.0200  0.5429  1.0000  -1.0910   0.0000   0.0000   0.0000   0.2823
   2.900   0.5749   0.01457   0.00751  -0.0196  0.5320  1.0000  -1.1136   0.0000   0.0000   0.0000   0.2809
   3.000   0.5848   0.01463   0.00742  -0.0193  0.5156  1.0000  -1.1363   0.0000   0.0000   0.0000   0.2797
   3.100   0.5957   0.01484   0.00756  -0.0194  0.4986  1.0000  -1.1592   0.0000   0.0000   0.0000   0.2792
   3.200   0.6063   0.01482   0.00755  -0.0194  0.4952  1.0000  -1.1829   0.0000   0.0000   0.0000   0.2784
   3.300   0.6168   0.01482   0.00755  -0.0194  0.4899  1.0000  -1.2066   0.0000   0.0000   0.0000   0.2778
   3.400   0.6273   0.01484   0.00756  -0.0193  0.4829  1.0000  -1.2303   0.0000   0.0000   0.0000   0.2771
   3.500   0.6378   0.01486   0.00756  -0.0193  0.4744  1.0000  -1.2540   0.0000   0.0000   0.0000   0.2764
   3.600   0.6480   0.01489   0.00753  -0.0191  0.4650  1.0000  -1.2777   0.0000   0.0000   0.0000   0.2756
   3.700   0.6582   0.01494   0.00748  -0.0190  0.4555  1.0000  -1.3015   0.0000   0.0000   0.0000   0.2748
   3.800   0.6684   0.01501   0.00743  -0.0189  0.4458  1.0000  -1.3254   0.0000   0.0000   0.0000   0.2741
   3.900   0.6787   0.01513   0.00741  -0.0188  0.4348  1.0000  -1.3492   0.0000   0.0000   0.0000   0.2735
   4.000   0.6893   0.01534   0.00752  -0.0189  0.4215  1.0000  -1.3726   0.0000   0.0000   0.0000   0.2730
   4.100   0.7005   0.01570   0.00784  -0.0191  0.4079  1.0000  -1.3955   0.0000   0.0000   0.0000   0.2729
   4.200   0.7118   0.01608   0.00825  -0.0195  0.3997  1.0000  -1.4186   0.0000   0.0000   0.0000   0.2729
   4.300   0.7222   0.01611   0.00829  -0.0195  0.3988  1.0000  -1.4432   0.0000   0.0000   0.0000   0.2724
   4.400   0.7326   0.01615   0.00834  -0.0195  0.3978  1.0000  -1.4678   0.0000   0.0000   0.0000   0.2719
   4.500   0.7430   0.01619   0.00840  -0.0195  0.3966  1.0000  -1.4924   0.0000   0.0000   0.0000   0.2714
   4.600   0.7534   0.01624   0.00846  -0.0195  0.3952  1.0000  -1.5171   0.0000   0.0000   0.0000   0.2710
   4.700   0.7638   0.01630   0.00854  -0.0195  0.3938  1.0000  -1.5418   0.0000   0.0000   0.0000   0.2705
   4.800   0.7742   0.01637   0.00864  -0.0195  0.3922  1.0000  -1.5664   0.0000   0.0000   0.0000   0.2701
   4.900   0.7846   0.01646   0.00875  -0.0196  0.3906  1.0000  -1.5910   0.0000   0.0000   0.0000   0.2697
   5.000   0.7950   0.01656   0.00888  -0.0196  0.3891  1.0000  -1.6156   0.0000   0.0000   0.0000   0.2693
   5.100   0.8054   0.01667   0.00901  -0.0196  0.3875  1.0000  -1.6402   0.0000   0.0000   0.0000   0.2690
   5.200   0.8157   0.01676   0.00913  -0.0197  0.3857  1.0000  -1.6649   0.0000   0.0000   0.0000   0.2686
   5.300   0.8260   0.01685   0.00924  -0.0197  0.3837  1.0000  -1.6897   0.0000   0.0000   0.0000   0.2682
   5.400   0.8362   0.01694   0.00934  -0.0197  0.3814  1.0000  -1.7146   0.0000   0.0000   0.0000   0.2677
   5.500   0.8464   0.01702   0.00944  -0.0196  0.3790  1.0000  -1.7395   0.0000   0.0000   0.0000   0.2673
   5.600   0.8566   0.01711   0.00955  -0.0196  0.3767  1.0000  -1.7644   0.0000   0.0000   0.0000   0.2669
   5.700   0.8667   0.01721   0.00968  -0.0196  0.3745  1.0000  -1.7892   0.0000   0.0000   0.0000   0.2665
   5.800   0.8769   0.01732   0.00981  -0.0196  0.3724  1.0000  -1.8140   0.0000   0.0000   0.0000   0.2661
   5.900   0.8870   0.01742   0.00994  -0.0196  0.3701  1.0000  -1.8389   0.0000   0.0000   0.0000   0.2657
   6.000   0.8970   0.01752   0.01006  -0.0195  0.3677  1.0000  -1.8638   0.0000   0.0000   0.0000   0.2653
   6.100   0.9070   0.01762   0.01018  -0.0195  0.3653  1.0000  -1.8887   0.0000   0.0000   0.0000   0.2649
   6.200   0.9170   0.01773   0.01029  -0.0194  0.3627  1.0000  -1.9136   0.0000   0.0000   0.0000   0.2645
   6.300   0.9269   0.01783   0.01040  -0.0193  0.3599  1.0000  -1.9385   0.0000   0.0000   0.0000   0.2641
   6.400   0.9367   0.01793   0.01050  -0.0192  0.3570  1.0000  -1.9695   0.0000   0.0000   0.0000   0.2636
   6.500   0.9465   0.01803   0.01059  -0.0191  0.3538  1.0000  -2.0026   0.0000   0.0000   0.0000   0.2632
   6.600   0.9560   0.01807   0.01058  -0.0189  0.3487  1.0000  -2.0361   0.0000   0.0000   0.0000   0.2626
   6.700   0.9652   0.01811   0.01050  -0.0186  0.3409  1.0000  -2.0699   0.0000   0.0000   0.0000   0.2620
   6.800   0.9743   0.01823   0.01049  -0.0184  0.3301  1.0000  -2.1032   0.0000   0.0000   0.0000   0.2614
   6.900   0.9836   0.01850   0.01070  -0.0183  0.3168  1.0000  -2.1357   0.0000   0.0000   0.0000   0.2610
   7.000   0.9929   0.01904   0.01128  -0.0183  0.3031  1.0000  -2.1665   0.0000   0.0000   0.0000   0.2608
   7.100   1.0022   0.01886   0.01104  -0.0180  0.2989  1.0000  -2.2029   0.0000   0.0000   0.0000   0.2602
   7.200   1.0116   0.01852   0.01064  -0.0177  0.2970  1.0000  -2.2407   0.0000   0.0000   0.0000   0.2596
   7.300   1.0211   0.01835   0.01046  -0.0175  0.2948  1.0000  -2.2772   0.0000   0.0000   0.0000   0.2590
   7.400   1.0306   0.01831   0.01044  -0.0174  0.2926  1.0000  -2.3125   0.0000   0.0000   0.0000   0.2586
   7.500   1.0401   0.01830   0.01046  -0.0172  0.2898  1.0000  -2.3576   0.0000   0.0000   0.0000   0.2582
   7.600   1.0495   0.01832   0.01049  -0.0171  0.2862  1.0000  -2.4036   0.0000   0.0000   0.0000   0.2578
   7.700   1.0589   0.01834   0.01055  -0.0169  0.2816  1.0000  -2.4499   0.0000   0.0000   0.0000   0.2573
   7.800   1.0682   0.01839   0.01061  -0.0168  0.2758  1.0000  -2.4966   0.0000   0.0000   0.0000   0.2569
   7.900   1.0773   0.01847   0.01068  -0.0166  0.2683  1.0000  -2.5436   0.0000   0.0000   0.0000   0.2565
   8.000   1.0861   0.01858   0.01075  -0.0164  0.2586  1.0000  -2.5961   0.0000   0.0000   0.0000   0.2560
   8.100   1.0946   0.01872   0.01081  -0.0162  0.2462  1.0000  -2.6812   0.0000   0.0000   0.0000   0.2556
   8.200   1.1025   0.01894   0.01087  -0.0159  0.2313  1.0000  -2.7647   0.0000   0.0000   0.0000   0.2551
   8.300   1.1095   0.01925   0.01099  -0.0156  0.2143  1.0000  -2.8445   0.0000   0.0000   0.0000   0.2545
   8.400   1.1167   0.01957   0.01121  -0.0153  0.1986  1.0000  -2.9241   0.0000   0.0000   0.0000   0.2540
   8.500   1.1246   0.01980   0.01137  -0.0151  0.1900  1.0000  -3.0080   0.0000   0.0000   0.0000   0.2536
   8.600   1.1318   0.02008   0.01154  -0.0148  0.1807  1.0000  -3.0897   0.0000   0.0000   0.0000   0.2531
   8.700   1.1383   0.02044   0.01174  -0.0144  0.1712  1.0000  -3.1679   0.0000   0.0000   0.0000   0.2525
   8.800   1.1439   0.02086   0.01199  -0.0140  0.1616  1.0000  -3.2420   0.0000   0.0000   0.0000   0.2519
   9.200   1.1267   0.02676   0.01727  -0.0078  0.0252  1.0000  -3.4220   0.0000   0.0000   0.0000   0.2459
   9.300   1.1241   0.02762   0.01825  -0.0060  0.0248  1.0000  -3.4814   0.0000   0.0000   0.0000   0.2441
   9.400   1.1210   0.02836   0.01912  -0.0042  0.0247  1.0000  -3.5245   0.0000   0.0000   0.0000   0.2424
   9.500   1.1171   0.02904   0.01988  -0.0024  0.0246  1.0000  -3.5561   0.0000   0.0000   0.0000   0.2406
   9.600   1.1122   0.02964   0.02057  -0.0004  0.0246  1.0000  -3.5792   0.0000   0.0000   0.0000   0.2386
   9.700   1.1057   0.03018   0.02118   0.0018  0.0246  1.0000  -3.5937   0.0000   0.0000   0.0000   0.2365
   9.800   1.0952   0.03054   0.02156   0.0045  0.0246  1.0000  -3.5890   0.0000   0.0000   0.0000   0.2338
   9.900   1.0823   0.03071   0.02173   0.0078  0.0246  1.0000  -3.5743   0.0000   0.0000   0.0000   0.2306
  10.000   1.0687   0.03075   0.02175   0.0113  0.0246  1.0000  -3.5558   0.0000   0.0000   0.0000   0.2270
  10.100   1.0574   0.03096   0.02197   0.0144  0.0246  1.0000  -3.5483   0.0000   0.0000   0.0000   0.2239
  10.200   1.0487   0.03138   0.02242   0.0168  0.0246  1.0000  -3.5525   0.0000   0.0000   0.0000   0.2212
  10.300   1.0415   0.03192   0.02300   0.0190  0.0246  1.0000  -3.5626   0.0000   0.0000   0.0000   0.2189
  10.400   1.0351   0.03254   0.02367   0.0209  0.0246  1.0000  -3.5754   0.0000   0.0000   0.0000   0.2167
  10.500   1.0293   0.03321   0.02440   0.0227  0.0246  1.0000  -3.5893   0.0000   0.0000   0.0000   0.2147
  10.600   1.0239   0.03394   0.02517   0.0243  0.0246  1.0000  -3.6037   0.0000   0.0000   0.0000   0.2128
  10.700   1.0185   0.03471   0.02600   0.0258  0.0246  1.0000  -3.6167   0.0000   0.0000   0.0000   0.2110
  10.800   1.0127   0.03558   0.02691   0.0271  0.0246  1.0000  -3.6268   0.0000   0.0000   0.0000   0.2093
  10.900   1.0078   0.03646   0.02784   0.0283  0.0246  1.0000  -3.6396   0.0000   0.0000   0.0000   0.2078
  11.000   1.0040   0.03733   0.02876   0.0295  0.0246  1.0000  -3.6556   0.0000   0.0000   0.0000   0.2063
  11.100   1.0010   0.03820   0.02967   0.0306  0.0246  1.0000  -3.6737   0.0000   0.0000   0.0000   0.2049
  11.200   0.9987   0.03907   0.03060   0.0316  0.0247  1.0000  -3.6928   0.0000   0.0000   0.0000   0.2036
  11.300   0.9969   0.03995   0.03152   0.0326  0.0247  1.0000  -3.7127   0.0000   0.0000   0.0000   0.2024
  11.400   0.9957   0.04083   0.03245   0.0335  0.0248  1.0000  -3.7333   0.0000   0.0000   0.0000   0.2012
  11.500   0.9951   0.04172   0.03339   0.0345  0.0248  1.0000  -3.7539   0.0000   0.0000   0.0000   0.2001
  11.600   0.9945   0.04265   0.03438   0.0354  0.0249  1.0000  -3.7729   0.0000   0.0000   0.0000   0.1990
  11.700   0.9945   0.04361   0.03540   0.0362  0.0249  1.0000  -3.7912   0.0000   0.0000   0.0000   0.1979
  11.900   0.9963   0.04542   0.03738   0.0378  0.0252  1.0000  -3.8395   0.0000   0.0000   0.0000   0.1960
  12.000   0.9980   0.04624   0.03824   0.0384  0.0253  1.0000  -3.8718   0.0000   0.0000   0.0000   0.1953
  12.100   0.9997   0.04706   0.03911   0.0390  0.0255  1.0000  -3.9043   0.0000   0.0000   0.0000   0.1946
  12.200   1.0013   0.04790   0.03999   0.0395  0.0257  1.0000  -3.9367   0.0000   0.0000   0.0000   0.1940
  12.300   1.0029   0.04874   0.04088   0.0400  0.0259  1.0000  -3.9689   0.0000   0.0000   0.0000   0.1934
  12.400   1.0045   0.04960   0.04178   0.0404  0.0261  1.0000  -4.0014   0.0000   0.0000   0.0000   0.1928
  12.500   1.0061   0.05047   0.04269   0.0408  0.0264  1.0000  -4.0338   0.0000   0.0000   0.0000   0.1923
  12.600   1.0076   0.05136   0.04362   0.0411  0.0266  1.0000  -4.0660   0.0000   0.0000   0.0000   0.1919
  12.700   1.0089   0.05228   0.04459   0.0414  0.0269  1.0000  -4.0966   0.0000   0.0000   0.0000   0.1915
  12.800   1.0090   0.05332   0.04567   0.0415  0.0272  1.0000  -4.1222   0.0000   0.0000   0.0000   0.1911
  12.900   1.0090   0.05439   0.04680   0.0417  0.0275  1.0000  -4.1467   0.0000   0.0000   0.0000   0.1908
  13.000   1.0094   0.05545   0.04791   0.0418  0.0278  1.0000  -4.1720   0.0000   0.0000   0.0000   0.1904
  13.100   1.0097   0.05654   0.04905   0.0419  0.0281  1.0000  -4.1966   0.0000   0.0000   0.0000   0.1902
  13.200   1.0101   0.05764   0.05021   0.0420  0.0285  1.0000  -4.2203   0.0000   0.0000   0.0000   0.1899
  13.300   1.0104   0.05878   0.05142   0.0420  0.0289  1.0000  -4.2419   0.0000   0.0000   0.0000   0.1896
  13.400   1.0103   0.05999   0.05270   0.0421  0.0293  1.0000  -4.2601   0.0000   0.0000   0.0000   0.1894
  13.500   1.0096   0.06129   0.05408   0.0421  0.0298  1.0000  -4.2733   0.0000   0.0000   0.0000   0.1891
  13.600   1.0083   0.06272   0.05560   0.0421  0.0303  1.0000  -4.2801   0.0000   0.0000   0.0000   0.1889
  13.700   1.0061   0.06429   0.05727   0.0420  0.0309  1.0000  -4.2794   0.0000   0.0000   0.0000   0.1886
  13.800   1.0027   0.06604   0.05914   0.0418  0.0314  1.0000  -4.2692   0.0000   0.0000   0.0000   0.1885
  13.900   0.9978   0.06800   0.06122   0.0415  0.0319  1.0000  -4.2496   0.0000   0.0000   0.0000   0.1884
  14.000   0.9916   0.07015   0.06348   0.0410  0.0324  1.0000  -4.2229   0.0000   0.0000   0.0000   0.1884
  14.100   0.9834   0.07253   0.06596   0.0402  0.0326  1.0000  -4.1917   0.0000   0.0000   0.0000   0.1887
  14.200   0.9751   0.07500   0.06853   0.0392  0.0328  1.0000  -4.1583   0.0000   0.0000   0.0000   0.1891
  14.300   0.9671   0.07750   0.07114   0.0383  0.0331  1.0000  -4.1222   0.0000   0.0000   0.0000   0.1895
  14.400   0.9590   0.08011   0.07386   0.0373  0.0334  1.0000  -4.0834   0.0000   0.0000   0.0000   0.1900
  14.500   0.9506   0.08283   0.07668   0.0362  0.0337  1.0000  -4.0424   0.0000   0.0000   0.0000   0.1906
  14.600   0.9417   0.08567   0.07961   0.0349  0.0339  1.0000  -3.9999   0.0000   0.0000   0.0000   0.1914
  14.700   0.9325   0.08865   0.08268   0.0334  0.0340  1.0000  -3.9558   0.0000   0.0000   0.0000   0.1924
  14.800   0.9223   0.09193   0.08603   0.0314  0.0339  1.0000  -3.9119   0.0000   0.0000   0.0000   0.1939
  14.900   0.9126   0.09521   0.08938   0.0296  0.0339  1.0000  -3.8641   0.0000   0.0000   0.0000   0.1954
  15.000   0.9031   0.09850   0.09275   0.0278  0.0339  1.0000  -3.8130   0.0000   0.0000   0.0000   0.1968
  15.100   0.8934   0.10187   0.09619   0.0260  0.0340  1.0000  -3.7589   0.0000   0.0000   0.0000   0.1983
  15.200   0.8834   0.10541   0.09980   0.0241  0.0339  1.0000  -3.7014   0.0000   0.0000   0.0000   0.2000
  15.300   0.8728   0.10920   0.10365   0.0218  0.0338  1.0000  -3.6408   0.0000   0.0000   0.0000   0.2021
  15.400   0.8616   0.11322   0.10772   0.0193  0.0335  1.0000  -3.5763   0.0000   0.0000   0.0000   0.2045
  15.500   0.8511   0.11712   0.11168   0.0172  0.0335  1.0000  -3.5039   0.0000   0.0000   0.0000   0.2066
  15.600   0.8406   0.12111   0.11573   0.0151  0.0336  1.0000  -3.4226   0.0000   0.0000   0.0000   0.2088
  15.700   0.8296   0.12544   0.12011   0.0129  0.0336  1.0000  -3.3283   0.0000   0.0000   0.0000   0.2112
  15.800   0.8174   0.13018   0.12491   0.0104  0.0337  1.0000  -3.2176   0.0000   0.0000   0.0000   0.2139
  15.900   0.8033   0.13573   0.13051   0.0075  0.0336  1.0000  -3.0796   0.0000   0.0000   0.0000   0.2174
  16.000   0.7882   0.14196   0.13677   0.0045  0.0337  1.0000  -2.9074   0.0000   0.0000   0.0000   0.2213
  16.100   0.7739   0.14847   0.14331   0.0017  0.0341  1.0000  -2.7120   0.0000   0.0000   0.0000   0.2251
  16.200   0.7643   0.15358   0.14843  -0.0004  0.0346  1.0000  -2.5661   0.0000   0.0000   0.0000   0.2280
  16.300   0.7569   0.15795   0.15280  -0.0023  0.0352  1.0000  -2.4457   0.0000   0.0000   0.0000   0.2307
  16.400   0.7513   0.16164   0.15649  -0.0040  0.0358  1.0000  -2.3467   0.0000   0.0000   0.0000   0.2330
  16.500   0.7472   0.16491   0.15976  -0.0055  0.0364  1.0000  -2.2638   0.0000   0.0000   0.0000   0.2350
  16.600   0.7441   0.16792   0.16277  -0.0068  0.0372  1.0000  -2.1922   0.0000   0.0000   0.0000   0.2368
  16.700   0.7418   0.17074   0.16560  -0.0081  0.0380  1.0000  -2.1293   0.0000   0.0000   0.0000   0.2385
  16.800   0.7401   0.17343   0.16829  -0.0092  0.0389  1.0000  -2.0735   0.0000   0.0000   0.0000   0.2400
  16.900   0.7388   0.17601   0.17088  -0.0102  0.0400  1.0000  -2.0234   0.0000   0.0000   0.0000   0.2414
  17.000   0.7380   0.17852   0.17339  -0.0112  0.0413  1.0000  -1.9783   0.0000   0.0000   0.0000   0.2427
  17.100   0.7375   0.18100   0.17587  -0.0120  0.0429  1.0000  -1.9383   0.0000   0.0000   0.0000   0.2437
  17.200   0.7370   0.18350   0.17836  -0.0125  0.0454  1.0000  -1.9049   0.0000   0.0000   0.0000   0.2444
  17.400   0.7300   0.19238   0.18708  -0.0167  0.0593  1.0000  -1.6190   0.0000   0.0000   0.0000   0.2506
  17.600   0.7383   0.20352   0.19824  -0.0143  0.0745  1.0000  -1.5976   0.0000   0.0000   0.0000   0.2472
  17.700   0.7398   0.20582   0.20054  -0.0150  0.0745  1.0000  -1.5888   0.0000   0.0000   0.0000   0.2480
  17.800   0.7412   0.20807   0.20279  -0.0158  0.0745  1.0000  -1.5802   0.0000   0.0000   0.0000   0.2489
  17.900   0.7427   0.21027   0.20499  -0.0165  0.0745  1.0000  -1.5718   0.0000   0.0000   0.0000   0.2497
  19.000   0.7442   0.22825   0.22308  -0.0296  0.0694  1.0000  -1.3773   0.0000   0.0000   0.0000   0.2660
  19.100   0.7454   0.23008   0.22490  -0.0306  0.0683  1.0000  -1.3668   0.0000   0.0000   0.0000   0.2671
  19.200   0.7467   0.23196   0.22677  -0.0314  0.0674  1.0000  -1.3597   0.0000   0.0000   0.0000   0.2681
  19.300   0.7483   0.23384   0.22864  -0.0322  0.0665  1.0000  -1.3546   0.0000   0.0000   0.0000   0.2690
  19.400   0.7500   0.23571   0.23050  -0.0330  0.0656  1.0000  -1.3509   0.0000   0.0000   0.0000   0.2697
  19.500   0.7517   0.23756   0.23235  -0.0337  0.0648  1.0000  -1.3484   0.0000   0.0000   0.0000   0.2705
  19.600   0.7536   0.23941   0.23419  -0.0345  0.0641  1.0000  -1.3469   0.0000   0.0000   0.0000   0.2712
  19.700   0.7555   0.24124   0.23601  -0.0351  0.0633  1.0000  -1.3464   0.0000   0.0000   0.0000   0.2718
  19.800   0.7575   0.24305   0.23782  -0.0358  0.0625  1.0000  -1.3468   0.0000   0.0000   0.0000   0.2724
  19.900   0.7595   0.24485   0.23962  -0.0365  0.0618  1.0000  -1.3482   0.0000   0.0000   0.0000   0.2730
  20.000   0.7616   0.24663   0.24139  -0.0371  0.0610  1.0000  -1.3507   0.0000   0.0000   0.0000   0.2735
  20.100   0.7637   0.24840   0.24315  -0.0377  0.0603  1.0000  -1.3542   0.0000   0.0000   0.0000   0.2740
  20.200   0.7659   0.25014   0.24490  -0.0383  0.0596  1.0000  -1.3588   0.0000   0.0000   0.0000   0.2745
  20.300   0.7682   0.25188   0.24663  -0.0388  0.0589  1.0000  -1.3646   0.0000   0.0000   0.0000   0.2749
  20.400   0.7705   0.25360   0.24835  -0.0393  0.0582  1.0000  -1.3716   0.0000   0.0000   0.0000   0.2752
  20.500   0.7729   0.25531   0.25006  -0.0398  0.0575  1.0000  -1.3799   0.0000   0.0000   0.0000   0.2756
  20.600   0.7767   0.25658   0.25132  -0.0399  0.0560  1.0000  -1.4127   0.0000   0.0000   0.0000   0.2752
  20.700   0.7816   0.25778   0.25252  -0.0396  0.0545  1.0000  -1.4618   0.0000   0.0000   0.0000   0.2742
  20.800   0.7890   0.25927   0.25401  -0.0385  0.0531  1.0000  -1.5402   0.0000   0.0000   0.0000   0.2722
  20.900   0.7906   0.27250   0.26721  -0.0365  0.0500  1.0000  -1.5478   0.0000   0.0000   0.0000   0.2696
  21.000   0.7916   0.27413   0.26883  -0.0374  0.0499  1.0000  -1.5391   0.0000   0.0000   0.0000   0.2705
  21.100   0.7926   0.27571   0.27041  -0.0382  0.0498  1.0000  -1.5308   0.0000   0.0000   0.0000   0.2714
  21.200   0.7937   0.27724   0.27194  -0.0391  0.0498  1.0000  -1.5228   0.0000   0.0000   0.0000   0.2723
  21.300   0.7948   0.27869   0.27339  -0.0400  0.0497  1.0000  -1.5151   0.0000   0.0000   0.0000   0.2731
  21.400   0.7959   0.28006   0.27476  -0.0409  0.0496  1.0000  -1.5078   0.0000   0.0000   0.0000   0.2740
  21.500   0.7971   0.28129   0.27599  -0.0418  0.0494  1.0000  -1.5007   0.0000   0.0000   0.0000   0.2750
  21.600   0.7981   0.28229   0.27699  -0.0427  0.0492  1.0000  -1.4932   0.0000   0.0000   0.0000   0.2759
  21.700   0.7985   0.28296   0.27765  -0.0439  0.0489  1.0000  -1.4798   0.0000   0.0000   0.0000   0.2772
  21.800   0.7976   0.28321   0.27791  -0.0454  0.0484  1.0000  -1.4553   0.0000   0.0000   0.0000   0.2790
  21.900   0.7970   0.28329   0.27798  -0.0474  0.0474  1.0000  -1.4231   0.0000   0.0000   0.0000   0.2813
  22.000   0.7977   0.28420   0.27889  -0.0492  0.0454  1.0000  -1.3920   0.0000   0.0000   0.0000   0.2834
  22.100   0.7991   0.28593   0.28062  -0.0504  0.0431  1.0000  -1.3805   0.0000   0.0000   0.0000   0.2846
  22.200   0.8007   0.28775   0.28244  -0.0512  0.0411  1.0000  -1.3793   0.0000   0.0000   0.0000   0.2853
  22.300   0.8024   0.28953   0.28423  -0.0519  0.0392  1.0000  -1.3834   0.0000   0.0000   0.0000   0.2859
  22.400   0.8041   0.29125   0.28595  -0.0525  0.0375  1.0000  -1.3913   0.0000   0.0000   0.0000   0.2864
  22.500   0.8059   0.29290   0.28761  -0.0531  0.0359  1.0000  -1.4030   0.0000   0.0000   0.0000   0.2868
  22.600   0.8078   0.29448   0.28918  -0.0536  0.0345  1.0000  -1.4186   0.0000   0.0000   0.0000   0.2870
  22.700   0.8099   0.29595   0.29065  -0.0541  0.0331  1.0000  -1.4388   0.0000   0.0000   0.0000   0.2872
  22.800   0.8121   0.29733   0.29203  -0.0545  0.0319  1.0000  -1.4645   0.0000   0.0000   0.0000   0.2873
  22.900   0.8146   0.29859   0.29329  -0.0548  0.0308  1.0000  -1.4968   0.0000   0.0000   0.0000   0.2872
  23.000   0.8174   0.29973   0.29443  -0.0549  0.0297  1.0000  -1.5379   0.0000   0.0000   0.0000   0.2869
  23.100   0.8206   0.30078   0.29548  -0.0549  0.0288  1.0000  -1.5904   0.0000   0.0000   0.0000   0.2863
  23.200   0.8246   0.30185   0.29655  -0.0545  0.0279  1.0000  -1.6586   0.0000   0.0000   0.0000   0.2853
  23.300   0.8296   0.30362   0.29831  -0.0536  0.0268  1.0000  -1.7452   0.0000   0.0000   0.0000   0.2835
  23.400   0.8163   0.31545   0.31011  -0.0539  0.0250  1.0000  -1.5654   0.0000   0.0000   0.0000   0.2853
  23.500   0.8170   0.31697   0.31163  -0.0546  0.0249  1.0000  -1.5604   0.0000   0.0000   0.0000   0.2860
  23.600   0.8177   0.31833   0.31300  -0.0554  0.0248  1.0000  -1.5561   0.0000   0.0000   0.0000   0.2867
  23.700   0.8185   0.31947   0.31414  -0.0562  0.0247  1.0000  -1.5537   0.0000   0.0000   0.0000   0.2875
  23.800   0.8197   0.32029   0.31496  -0.0571  0.0244  1.0000  -1.5545   0.0000   0.0000   0.0000   0.2883
  23.900   0.8214   0.32065   0.31533  -0.0582  0.0240  1.0000  -1.5585   0.0000   0.0000   0.0000   0.2892
  24.000   0.8232   0.32111   0.31579  -0.0595  0.0232  1.0000  -1.5527   0.0000   0.0000   0.0000   0.2905
  24.100   0.8243   0.32240   0.31708  -0.0608  0.0223  1.0000  -1.5307   0.0000   0.0000   0.0000   0.2919
  24.200   0.8254   0.32422   0.31891  -0.0619  0.0214  1.0000  -1.5118   0.0000   0.0000   0.0000   0.2929
  24.300   0.8263   0.32619   0.32088  -0.0627  0.0206  1.0000  -1.4997   0.0000   0.0000   0.0000   0.2937
  24.400   0.8271   0.32814   0.32284  -0.0633  0.0198  1.0000  -1.4932   0.0000   0.0000   0.0000   0.2943
  24.500   0.8277   0.33005   0.32475  -0.0639  0.0192  1.0000  -1.4906   0.0000   0.0000   0.0000   0.2948
  24.600   0.8283   0.33189   0.32661  -0.0645  0.0186  1.0000  -1.4912   0.0000   0.0000   0.0000   0.2952
  24.700   0.8288   0.33369   0.32840  -0.0649  0.0180  1.0000  -1.4943   0.0000   0.0000   0.0000   0.2956
  24.800   0.8293   0.33538   0.33024  -0.0654  0.0176  1.0000  -1.4968   0.0000   0.0000   0.0000   0.2959
  24.900   0.8295   0.33720   0.33208  -0.0658  0.0174  1.0000  -1.4953   0.0000   0.0000   0.0000   0.2963
  25.000   0.8297   0.33894   0.33383  -0.0662  0.0171  1.0000  -1.4976   0.0000   0.0000   0.0000   0.2966
  25.100   0.8297   0.34062   0.33553  -0.0666  0.0167  1.0000  -1.5018   0.0000   0.0000   0.0000   0.2969
  25.200   0.8297   0.34224   0.33716  -0.0670  0.0164  1.0000  -1.5077   0.0000   0.0000   0.0000   0.2972
  25.300   0.8296   0.34380   0.33873  -0.0673  0.0161  1.0000  -1.5151   0.0000   0.0000   0.0000   0.2974
  25.400   0.8293   0.34529   0.34023  -0.0676  0.0158  1.0000  -1.5240   0.0000   0.0000   0.0000   0.2976
  25.500   0.8290   0.34672   0.34166  -0.0678  0.0155  1.0000  -1.5345   0.0000   0.0000   0.0000   0.2978
  25.600   0.8284   0.34806   0.34302  -0.0680  0.0152  1.0000  -1.5463   0.0000   0.0000   0.0000   0.2979
  25.700   0.8277   0.34933   0.34430  -0.0682  0.0149  1.0000  -1.5596   0.0000   0.0000   0.0000   0.2980
  25.800   0.8268   0.35051   0.34548  -0.0683  0.0147  1.0000  -1.5742   0.0000   0.0000   0.0000   0.2981
  25.900   0.8256   0.35159   0.34657  -0.0683  0.0145  1.0000  -1.5900   0.0000   0.0000   0.0000   0.2980
  26.000   0.8241   0.35256   0.34755  -0.0682  0.0142  1.0000  -1.6065   0.0000   0.0000   0.0000   0.2980
  26.100   0.8221   0.35339   0.34839  -0.0680  0.0140  1.0000  -1.6234   0.0000   0.0000   0.0000   0.2978
  26.200   0.7777   0.34387   0.33899  -0.0618  0.0142  1.0000  -1.4907   0.0000   0.0000   0.0000   0.2959
  26.300   0.7690   0.34230   0.33744  -0.0606  0.0140  1.0000  -1.4833   0.0000   0.0000   0.0000   0.2954
  26.400   0.7631   0.34134   0.33651  -0.0598  0.0139  1.0000  -1.4862   0.0000   0.0000   0.0000   0.2950
  26.500   0.7584   0.34067   0.33586  -0.0591  0.0137  1.0000  -1.4949   0.0000   0.0000   0.0000   0.2946
  26.600   0.7544   0.34022   0.33542  -0.0585  0.0135  1.0000  -1.5076   0.0000   0.0000   0.0000   0.2941
  26.700   0.7495   0.33999   0.33521  -0.0577  0.0132  1.0000  -1.5087   0.0000   0.0000   0.0000   0.2936
  26.800   0.7304   0.34104   0.33624  -0.0555  0.0125  1.0000  -1.3391   0.0000   0.0000   0.0000   0.2935
  26.900   0.7274   0.34115   0.33637  -0.0554  0.0125  1.0000  -1.3238   0.0000   0.0000   0.0000   0.2938
  27.000   0.7247   0.34129   0.33652  -0.0555  0.0125  1.0000  -1.3089   0.0000   0.0000   0.0000   0.2941
  27.100   0.7221   0.34146   0.33671  -0.0555  0.0125  1.0000  -1.2946   0.0000   0.0000   0.0000   0.2944
  27.200   0.7197   0.34166   0.33693  -0.0555  0.0125  1.0000  -1.2809   0.0000   0.0000   0.0000   0.2947
  27.300   0.7174   0.34189   0.33717  -0.0556  0.0124  1.0000  -1.2676   0.0000   0.0000   0.0000   0.2950
  27.400   0.7153   0.34213   0.33743  -0.0557  0.0124  1.0000  -1.2548   0.0000   0.0000   0.0000   0.2954
  27.500   0.7133   0.34240   0.33771  -0.0558  0.0124  1.0000  -1.2424   0.0000   0.0000   0.0000   0.2957
  27.600   0.7115   0.34269   0.33802  -0.0559  0.0124  1.0000  -1.2303   0.0000   0.0000   0.0000   0.2961
  27.700   0.7097   0.34300   0.33834  -0.0561  0.0124  1.0000  -1.2187   0.0000   0.0000   0.0000   0.2964
  27.800   0.7080   0.34332   0.33867  -0.0562  0.0124  1.0000  -1.2074   0.0000   0.0000   0.0000   0.2968
  27.900   0.7064   0.34366   0.33902  -0.0564  0.0124  1.0000  -1.1965   0.0000   0.0000   0.0000   0.2972
  28.000   0.7049   0.34400   0.33938  -0.0566  0.0124  1.0000  -1.1858   0.0000   0.0000   0.0000   0.2975
  28.100   0.7035   0.34436   0.33976  -0.0568  0.0124  1.0000  -1.1755   0.0000   0.0000   0.0000   0.2979
  28.200   0.7022   0.34474   0.34014  -0.0570  0.0123  1.0000  -1.1654   0.0000   0.0000   0.0000   0.2983
  28.300   0.7009   0.34512   0.34054  -0.0572  0.0123  1.0000  -1.1556   0.0000   0.0000   0.0000   0.2987
  28.400   0.6997   0.34551   0.34094  -0.0574  0.0123  1.0000  -1.1460   0.0000   0.0000   0.0000   0.2991
  28.500   0.6985   0.34590   0.34135  -0.0576  0.0123  1.0000  -1.1366   0.0000   0.0000   0.0000   0.2995
  28.600   0.6974   0.34630   0.34176  -0.0578  0.0123  1.0000  -1.1270   0.0000   0.0000   0.0000   0.2999
  28.700   0.6963   0.34670   0.34218  -0.0581  0.0123  1.0000  -1.1177   0.0000   0.0000   0.0000   0.3003
  28.800   0.6952   0.34712   0.34260  -0.0583  0.0123  1.0000  -1.1086   0.0000   0.0000   0.0000   0.3007
  28.900   0.6942   0.34754   0.34303  -0.0586  0.0123  1.0000  -1.0998   0.0000   0.0000   0.0000   0.3011
  29.000   0.6933   0.34796   0.34347  -0.0588  0.0123  1.0000  -1.0911   0.0000   0.0000   0.0000   0.3015
  29.100   0.6924   0.34840   0.34392  -0.0591  0.0122  1.0000  -1.0827   0.0000   0.0000   0.0000   0.3020
  29.200   0.6915   0.34884   0.34437  -0.0594  0.0122  1.0000  -1.0745   0.0000   0.0000   0.0000   0.3024
  29.300   0.6907   0.34928   0.34483  -0.0597  0.0122  1.0000  -1.0665   0.0000   0.0000   0.0000   0.3028
  29.400   0.6899   0.34973   0.34529  -0.0599  0.0122  1.0000  -1.0586   0.0000   0.0000   0.0000   0.3032
  29.500   0.6892   0.35019   0.34576  -0.0602  0.0122  1.0000  -1.0510   0.0000   0.0000   0.0000   0.3036
  29.600   0.6885   0.35065   0.34624  -0.0605  0.0122  1.0000  -1.0435   0.0000   0.0000   0.0000   0.3041
  29.700   0.6878   0.35112   0.34672  -0.0608  0.0122  1.0000  -1.0361   0.0000   0.0000   0.0000   0.3045
  29.800   0.6872   0.35159   0.34720  -0.0611  0.0122  1.0000  -1.0290   0.0000   0.0000   0.0000   0.3049
  29.900   0.6866   0.35207   0.34769  -0.0614  0.0121  1.0000  -1.0219   0.0000   0.0000   0.0000   0.3053
  30.000   0.6860   0.35255   0.34818  -0.0617  0.0121  1.0000  -1.0151   0.0000   0.0000   0.0000   0.3057


