xflr5 v6.61

 Calculated polar for: CLARK YS

 1 1 Reynolds number fixed          Mach number fixed         

 xtrf =   1.000 (top)        1.000 (bottom)
 Mach =   0.000     Re =     0.500 e 6     Ncrit =   9.000

  alpha     CL        CD       CDp       Cm    Top Xtr Bot Xtr   Cpmin    Chinge    XCp    
 ------- -------- --------- --------- -------- ------- ------- -------- --------- ---------
 -10.000  -0.5445   0.10823   0.10537   0.0182  0.7930  0.0492  -1.7590   0.0000   0.0000   0.0000   0.2755
  -9.900  -0.5436   0.10665   0.10380   0.0173  0.7923  0.0493  -1.7505   0.0000   0.0000   0.0000   0.2740
  -9.800  -0.5428   0.10504   0.10219   0.0163  0.7916  0.0493  -1.7432   0.0000   0.0000   0.0000   0.2724
  -9.700  -0.5422   0.10340   0.10055   0.0154  0.7908  0.0494  -1.7372   0.0000   0.0000   0.0000   0.2707
  -9.600  -0.5418   0.10172   0.09888   0.0143  0.7900  0.0494  -1.7327   0.0000   0.0000   0.0000   0.2690
  -9.500  -0.5417   0.10001   0.09717   0.0132  0.7891  0.0495  -1.7301   0.0000   0.0000   0.0000   0.2671
  -9.400  -0.5419   0.09825   0.09542   0.0121  0.7882  0.0495  -1.7296   0.0000   0.0000   0.0000   0.2651
  -9.300  -0.5424   0.09641   0.09358   0.0107  0.7871  0.0495  -1.7405   0.0000   0.0000   0.0000   0.2627
  -9.200  -0.5429   0.09443   0.09160   0.0091  0.7860  0.0495  -1.7605   0.0000   0.0000   0.0000   0.2598
  -9.100  -0.5438   0.09229   0.08947   0.0071  0.7849  0.0496  -1.7841   0.0000   0.0000   0.0000   0.2563
  -9.000  -0.5449   0.09012   0.08729   0.0051  0.7836  0.0496  -1.8094   0.0000   0.0000   0.0000   0.2527
  -8.900  -0.5466   0.08800   0.08516   0.0034  0.7822  0.0496  -1.8353   0.0000   0.0000   0.0000   0.2497
  -8.800  -0.5495   0.08596   0.08312   0.0020  0.7807  0.0496  -1.8622   0.0000   0.0000   0.0000   0.2474
  -8.700  -0.5525   0.08401   0.08114   0.0010  0.7792  0.0496  -1.8883   0.0000   0.0000   0.0000   0.2456
  -8.600  -0.5549   0.08211   0.07923   0.0001  0.7776  0.0497  -1.9123   0.0000   0.0000   0.0000   0.2441
  -8.500  -0.5566   0.08021   0.07730  -0.0006  0.7760  0.0497  -1.9353   0.0000   0.0000   0.0000   0.2429
  -8.400  -0.5587   0.07846   0.07552  -0.0010  0.7744  0.0497  -1.9564   0.0000   0.0000   0.0000   0.2423
  -8.300  -0.5608   0.07678   0.07381  -0.0013  0.7728  0.0497  -1.9768   0.0000   0.0000   0.0000   0.2420
  -8.200  -0.5613   0.07499   0.07199  -0.0017  0.7711  0.0497  -1.9955   0.0000   0.0000   0.0000   0.2413
  -8.100  -0.5615   0.07328   0.07024  -0.0020  0.7695  0.0498  -2.0120   0.0000   0.0000   0.0000   0.2408
  -8.000  -0.5615   0.07163   0.06855  -0.0022  0.7679  0.0498  -2.0263   0.0000   0.0000   0.0000   0.2406
  -7.900  -0.5610   0.07001   0.06688  -0.0023  0.7662  0.0498  -2.0394   0.0000   0.0000   0.0000   0.2404
  -7.800  -0.5601   0.06841   0.06524  -0.0023  0.7646  0.0498  -2.0511   0.0000   0.0000   0.0000   0.2404
  -7.700  -0.5588   0.06685   0.06363  -0.0023  0.7630  0.0498  -2.0610   0.0000   0.0000   0.0000   0.2405
  -7.600  -0.5572   0.06536   0.06209  -0.0022  0.7613  0.0498  -2.0686   0.0000   0.0000   0.0000   0.2407
  -7.500  -0.5553   0.06392   0.06059  -0.0021  0.7597  0.0499  -2.0744   0.0000   0.0000   0.0000   0.2409
  -7.400  -0.5530   0.06250   0.05912  -0.0019  0.7581  0.0499  -2.0787   0.0000   0.0000   0.0000   0.2413
  -7.300  -0.5503   0.06111   0.05768  -0.0017  0.7565  0.0499  -2.0817   0.0000   0.0000   0.0000   0.2417
  -7.200  -0.5473   0.05976   0.05627  -0.0015  0.7549  0.0499  -2.0832   0.0000   0.0000   0.0000   0.2421
  -7.100  -0.5439   0.05843   0.05489  -0.0012  0.7532  0.0499  -2.0834   0.0000   0.0000   0.0000   0.2427
  -7.000  -0.5404   0.05715   0.05354  -0.0009  0.7516  0.0499  -2.0824   0.0000   0.0000   0.0000   0.2432
  -6.900  -0.5366   0.05589   0.05222  -0.0006  0.7500  0.0500  -2.0801   0.0000   0.0000   0.0000   0.2439
  -6.800  -0.5326   0.05466   0.05093  -0.0002  0.7483  0.0500  -2.0768   0.0000   0.0000   0.0000   0.2445
  -6.700  -0.5284   0.05346   0.04967   0.0001  0.7466  0.0500  -2.0725   0.0000   0.0000   0.0000   0.2453
  -6.500  -0.5641   0.03947   0.03510   0.0033  0.7444  0.0531  -2.4051   0.0000   0.0000   0.0000   0.2507
  -6.400  -0.5581   0.03838   0.03398   0.0037  0.7426  0.0537  -2.3785   0.0000   0.0000   0.0000   0.2514
  -6.300  -0.5511   0.03758   0.03317   0.0039  0.7408  0.0543  -2.3450   0.0000   0.0000   0.0000   0.2521
  -6.200  -0.5436   0.03698   0.03255   0.0042  0.7390  0.0549  -2.3048   0.0000   0.0000   0.0000   0.2527
  -6.100  -0.5355   0.03655   0.03213   0.0043  0.7371  0.0557  -2.2582   0.0000   0.0000   0.0000   0.2532
  -6.000  -0.5266   0.03632   0.03192   0.0044  0.7350  0.0564  -2.2027   0.0000   0.0000   0.0000   0.2535
  -5.900  -0.5180   0.03610   0.03172   0.0045  0.7329  0.0572  -2.1496   0.0000   0.0000   0.0000   0.2539
  -5.800  -0.5095   0.03583   0.03145   0.0046  0.7306  0.0581  -2.1009   0.0000   0.0000   0.0000   0.2544
  -5.700  -0.5011   0.03546   0.03107   0.0048  0.7283  0.0589  -2.0585   0.0000   0.0000   0.0000   0.2550
  -5.600  -0.4929   0.03499   0.03057   0.0050  0.7258  0.0597  -2.0228   0.0000   0.0000   0.0000   0.2557
  -5.500  -0.4848   0.03441   0.02995   0.0053  0.7232  0.0604  -1.9933   0.0000   0.0000   0.0000   0.2564
  -5.400  -0.4768   0.03380   0.02930   0.0056  0.7204  0.0611  -1.9658   0.0000   0.0000   0.0000   0.2573
  -5.300  -0.4686   0.03321   0.02867   0.0059  0.7175  0.0619  -1.9387   0.0000   0.0000   0.0000   0.2581
  -5.200  -0.4602   0.03263   0.02804   0.0061  0.7144  0.0627  -1.9120   0.0000   0.0000   0.0000   0.2589
  -5.100  -0.4517   0.03207   0.02744   0.0064  0.7112  0.0636  -1.8856   0.0000   0.0000   0.0000   0.2597
  -5.000  -0.4431   0.03153   0.02686   0.0066  0.7079  0.0647  -1.8594   0.0000   0.0000   0.0000   0.2605
  -4.900  -0.4342   0.03103   0.02632   0.0068  0.7043  0.0658  -1.8334   0.0000   0.0000   0.0000   0.2613
  -4.800  -0.4250   0.03060   0.02585   0.0070  0.7004  0.0670  -1.8071   0.0000   0.0000   0.0000   0.2620
  -4.700  -0.4157   0.03015   0.02536   0.0072  0.6998  0.0683  -1.7802   0.0000   0.0000   0.0000   0.2630
  -4.600  -0.4060   0.02981   0.02498   0.0075  0.6996  0.0697  -1.7513   0.0000   0.0000   0.0000   0.2641
  -4.500  -0.3956   0.02968   0.02481   0.0077  0.6993  0.0711  -1.7182   0.0000   0.0000   0.0000   0.2652
  -4.400  -0.3840   0.02991   0.02502   0.0078  0.6990  0.0725  -1.6773   0.0000   0.0000   0.0000   0.2661
  -4.300  -0.3711   0.03073   0.02583   0.0079  0.6987  0.0738  -1.6240   0.0000   0.0000   0.0000   0.2668
  -4.200  -0.3590   0.03141   0.02650   0.0080  0.6983  0.0745  -1.5753   0.0000   0.0000   0.0000   0.2679
  -3.900  -0.3465   0.02493   0.01957   0.0104  0.6972  0.0785  -1.6140   0.0000   0.0000   0.0000   0.2757
  -3.800  -0.3379   0.02411   0.01876   0.0106  0.6967  0.0798  -1.5832   0.0000   0.0000   0.0000   0.2770
  -3.700  -0.3285   0.02361   0.01826   0.0108  0.6962  0.0809  -1.5484   0.0000   0.0000   0.0000   0.2784
  -3.600  -0.3189   0.02320   0.01787   0.0109  0.6955  0.0819  -1.5123   0.0000   0.0000   0.0000   0.2798
  -3.500  -0.3090   0.02284   0.01752   0.0110  0.6948  0.0829  -1.4758   0.0000   0.0000   0.0000   0.2812
  -3.400  -0.2991   0.02252   0.01721   0.0111  0.6940  0.0840  -1.4396   0.0000   0.0000   0.0000   0.2828
  -3.300  -0.2890   0.02223   0.01692   0.0112  0.6931  0.0852  -1.4040   0.0000   0.0000   0.0000   0.2845
  -3.200  -0.2789   0.02196   0.01666   0.0114  0.6920  0.0865  -1.3689   0.0000   0.0000   0.0000   0.2864
  -3.100  -0.2687   0.02171   0.01642   0.0115  0.6909  0.0879  -1.3345   0.0000   0.0000   0.0000   0.2884
  -3.000  -0.2584   0.02150   0.01621   0.0116  0.6896  0.0895  -1.3007   0.0000   0.0000   0.0000   0.2906
  -2.900  -0.2479   0.02133   0.01603   0.0117  0.6882  0.0912  -1.2671   0.0000   0.0000   0.0000   0.2930
  -2.800  -0.2373   0.02121   0.01591   0.0118  0.6866  0.0930  -1.2335   0.0000   0.0000   0.0000   0.2956
  -2.700  -0.2264   0.02117   0.01588   0.0120  0.6848  0.0948  -1.1992   0.0000   0.0000   0.0000   0.2984
  -2.600  -0.2152   0.02128   0.01599   0.0120  0.6829  0.0964  -1.1629   0.0000   0.0000   0.0000   0.3015
  -2.500  -0.2033   0.02166   0.01640   0.0120  0.6808  0.0980  -1.1219   0.0000   0.0000   0.0000   0.3048
  -2.400  -0.1902   0.02268   0.01747   0.0119  0.6783  0.0994  -1.0698   0.0000   0.0000   0.0000   0.3083
  -2.300  -0.1786   0.02306   0.01784   0.0120  0.6756  0.0998  -1.0329   0.0000   0.0000   0.0000   0.3129
  -2.200  -0.1672   0.01420   0.00749   0.0151  0.6753  0.0539  -1.3791   0.0000   0.0000   0.0000   0.3341
  -2.100  -0.1562   0.01419   0.00746   0.0152  0.6724  0.0528  -1.3427   0.0000   0.0000   0.0000   0.3410
  -2.000  -0.1453   0.01421   0.00747   0.0153  0.6694  0.0519  -1.3045   0.0000   0.0000   0.0000   0.3488
  -1.900  -0.1344   0.01424   0.00750   0.0154  0.6664  0.0512  -1.2654   0.0000   0.0000   0.0000   0.3578
  -1.800  -0.1226   0.01329   0.00648   0.0155  0.6635  0.0480  -1.2773   0.0000   0.0000   0.0000   0.3697
  -1.700  -0.1118   0.01282   0.00595   0.0157  0.6604  0.0470  -1.2620   0.0000   0.0000   0.0000   0.3832
  -1.600  -0.1011   0.01246   0.00555   0.0159  0.6572  0.0462  -1.2420   0.0000   0.0000   0.0000   0.3995
  -1.500  -0.0906   0.01217   0.00521   0.0161  0.6537  0.0454  -1.2199   0.0000   0.0000   0.0000   0.4197
  -1.400  -0.0801   0.01192   0.00491   0.0163  0.6501  0.0447  -1.1963   0.0000   0.0000   0.0000   0.4450
  -1.300  -0.0698   0.01171   0.00464   0.0166  0.6463  0.0440  -1.1717   0.0000   0.0000   0.0000   0.4778
  -1.200  -0.0595   0.01151   0.00440   0.0168  0.6423  0.0433  -1.1461   0.0000   0.0000   0.0000   0.5218
  -1.100  -0.0492   0.01134   0.00418   0.0170  0.6379  0.0427  -1.1198   0.0000   0.0000   0.0000   0.5840
  -1.000  -0.0389   0.01120   0.00398   0.0172  0.6330  0.0421  -1.0928   0.0000   0.0000   0.0000   0.6788
  -0.900  -0.0286   0.01107   0.00380   0.0174  0.6277  0.0415  -1.0654   0.0000   0.0000   0.0000   0.8419
  -0.800  -0.0182   0.01096   0.00364   0.0176  0.6220  0.0410  -1.0374   0.0000   0.0000   0.0000   1.1920
  -0.700  -0.0077   0.01086   0.00351   0.0177  0.6163  0.0405  -1.0088   0.0000   0.0000   0.0000   2.4959
  -0.600   0.0029   0.01079   0.00341   0.0178  0.6107  0.0400  -0.9798   0.0000   0.0000   0.0000  -5.8606
  -0.500   0.0135   0.01073   0.00332   0.0179  0.6052  0.0395  -0.9503   0.0000   0.0000   0.0000  -1.0526
  -0.400   0.0242   0.01068   0.00326   0.0180  0.6001  0.0391  -0.9202   0.0000   0.0000   0.0000  -0.4802
  -0.300   0.0349   0.01060   0.00316   0.0181  0.5996  0.0386  -0.8893   0.0000   0.0000   0.0000  -0.2585
  -0.200   0.0457   0.01051   0.00306   0.0181  0.5992  0.0382  -0.8577   0.0000   0.0000   0.0000  -0.1407
  -0.100   0.0565   0.01044   0.00298   0.0182  0.5986  0.0378  -0.8255   0.0000   0.0000   0.0000  -0.0675
   0.000   0.0674   0.01038   0.00290   0.0182  0.5980  0.0375  -0.7928   0.0000   0.0000   0.0000  -0.0176
   0.100   0.0782   0.01032   0.00283   0.0182  0.5972  0.0371  -0.7597   0.0000   0.0000   0.0000   0.0185
   0.200   0.0891   0.01026   0.00276   0.0183  0.5962  0.0368  -0.7266   0.0000   0.0000   0.0000   0.0459
   0.300   0.0999   0.01021   0.00270   0.0183  0.5951  0.0365  -0.6933   0.0000   0.0000   0.0000   0.0674
   0.400   0.1108   0.01016   0.00264   0.0183  0.5938  0.0362  -0.6739   0.0000   0.0000   0.0000   0.0847
   0.500   0.1216   0.01011   0.00258   0.0183  0.5922  0.0359  -0.6838   0.0000   0.0000   0.0000   0.0989
   0.600   0.1325   0.01007   0.00253   0.0184  0.5902  0.0356  -0.6938   0.0000   0.0000   0.0000   0.1108
   0.700   0.1433   0.01003   0.00247   0.0184  0.5876  0.0353  -0.7038   0.0000   0.0000   0.0000   0.1208
   0.800   0.1541   0.01000   0.00242   0.0184  0.5845  0.0351  -0.7138   0.0000   0.0000   0.0000   0.1293
   0.900   0.1648   0.00996   0.00237   0.0185  0.5805  0.0348  -0.7238   0.0000   0.0000   0.0000   0.1367
   1.000   0.1756   0.00994   0.00232   0.0185  0.5756  0.0346  -0.7338   0.0000   0.0000   0.0000   0.1431
   1.100   0.1862   0.00991   0.00226   0.0186  0.5696  0.0345  -0.7438   0.0000   0.0000   0.0000   0.1486
   1.200   0.1969   0.00990   0.00231   0.0186  0.5646  0.0349  -0.7538   0.0000   0.0000   0.0000   0.1535
   1.300   0.2075   0.00989   0.00226   0.0187  0.5579  0.0348  -0.7637   0.0000   0.0000   0.0000   0.1578
   1.400   0.2179   0.00988   0.00220   0.0188  0.5502  0.0348  -0.7736   0.0000   0.0000   0.0000   0.1615
   1.500   0.2283   0.00988   0.00214   0.0190  0.5415  0.0348  -0.7834   0.0000   0.0000   0.0000   0.1648
   1.600   0.2385   0.00990   0.00209   0.0191  0.5313  0.0349  -0.7932   0.0000   0.0000   0.0000   0.1677
   1.700   0.2489   0.00991   0.00205   0.0192  0.5196  0.0350  -0.8029   0.0000   0.0000   0.0000   0.1705
   1.800   0.2594   0.00993   0.00203   0.0192  0.5082  0.0351  -0.8126   0.0000   0.0000   0.0000   0.1733
   1.900   0.2700   0.00994   0.00201   0.0193  0.4998  0.0355  -0.8224   0.0000   0.0000   0.0000   0.1760
   2.000   0.2808   0.00993   0.00200   0.0193  0.4985  0.0360  -0.8325   0.0000   0.0000   0.0000   0.1786
   2.100   0.2916   0.00992   0.00198   0.0193  0.4968  0.0370  -0.8425   0.0000   0.0000   0.0000   0.1810
   2.200   0.3027   0.00995   0.00194   0.0193  0.4942  0.0408  -0.8528   0.0000   0.0000   0.0000   0.1835
   2.300   0.3132   0.00991   0.00202   0.0193  0.4907  0.0462  -0.8626   0.0000   0.0000   0.0000   0.1852
   2.400   0.3237   0.00990   0.00209   0.0194  0.4855  0.0500  -0.8724   0.0000   0.0000   0.0000   0.1870
   2.500   0.3260   0.00910   0.00208   0.0208  0.4799  0.2968  -0.8771   0.0000   0.0000   0.0000   0.1831
   2.600   0.3318   0.00882   0.00207   0.0217  0.4707  0.3987  -0.8842   0.0000   0.0000   0.0000   0.1814
   2.700   0.3244   0.00798   0.00194   0.0253  0.4639  0.6224  -0.8833   0.0000   0.0000   0.0000   0.1686
   2.800   0.3334   0.00766   0.00228   0.0261  0.4481  0.8710  -0.8929   0.0000   0.0000   0.0000   0.1682
   2.900   0.3416   0.00781   0.00233   0.0267  0.4293  0.8782  -0.9012   0.0000   0.0000   0.0000   0.1683
   3.000   0.3499   0.00794   0.00239   0.0272  0.4061  0.8830  -0.9092   0.0000   0.0000   0.0000   0.1686
   3.100   0.3589   0.00803   0.00244   0.0276  0.3965  0.8864  -0.9180   0.0000   0.0000   0.0000   0.1694
   3.200   0.3678   0.00811   0.00248   0.0280  0.3904  0.8890  -0.9314   0.0000   0.0000   0.0000   0.1700
   3.300   0.3762   0.00821   0.00252   0.0285  0.3832  0.8910  -0.9509   0.0000   0.0000   0.0000   0.1703
   3.400   0.3844   0.00833   0.00257   0.0291  0.3753  0.8930  -0.9709   0.0000   0.0000   0.0000   0.1703
   3.500   0.3921   0.00847   0.00263   0.0297  0.3665  0.8947  -0.9906   0.0000   0.0000   0.0000   0.1701
   3.600   0.3996   0.00866   0.00272   0.0304  0.3555  0.8961  -1.0098   0.0000   0.0000   0.0000   0.1697
   3.700   0.4064   0.00892   0.00285   0.0312  0.3308  0.8971  -1.0277   0.0000   0.0000   0.0000   0.1690
   3.800   0.4139   0.00924   0.00312   0.0319  0.3097  0.8979  -1.0449   0.0000   0.0000   0.0000   0.1686
   3.900   0.4231   0.00942   0.00332   0.0323  0.3058  0.8985  -1.0656   0.0000   0.0000   0.0000   0.1692
   4.000   0.4329   0.00958   0.00352   0.0325  0.3038  0.8990  -1.0874   0.0000   0.0000   0.0000   0.1702
   4.100   0.4431   0.00974   0.00370   0.0327  0.3023  0.8994  -1.1096   0.0000   0.0000   0.0000   0.1715
   4.200   0.4535   0.00988   0.00387   0.0328  0.3011  0.8996  -1.1322   0.0000   0.0000   0.0000   0.1728
   4.300   0.4640   0.01001   0.00404   0.0329  0.3001  0.8998  -1.1551   0.0000   0.0000   0.0000   0.1742
   4.400   0.4747   0.01012   0.00416   0.0330  0.2999  0.9000  -1.1788   0.0000   0.0000   0.0000   0.1756
   4.500   0.6678   0.01235   0.00643  -0.0024  0.2995  0.9709  -1.4208   0.0000   0.0000   0.0000   0.2486
   4.600   0.6517   0.01252   0.00662   0.0032  0.2995  0.9637  -1.4134   0.0000   0.0000   0.0000   0.2399
   4.700   0.6360   0.01278   0.00689   0.0088  0.2995  0.9578  -1.4065   0.0000   0.0000   0.0000   0.2309
   4.900   0.7919   0.01155   0.00561  -0.0197  0.2988  1.0000  -1.6229   0.0000   0.0000   0.0000   0.2695
   5.000   0.8024   0.01156   0.00563  -0.0197  0.2987  1.0000  -1.6485   0.0000   0.0000   0.0000   0.2690
   5.100   0.8128   0.01156   0.00563  -0.0196  0.2985  1.0000  -1.6744   0.0000   0.0000   0.0000   0.2686
   5.200   0.8231   0.01154   0.00560  -0.0196  0.2982  1.0000  -1.7005   0.0000   0.0000   0.0000   0.2681
   5.300   0.8333   0.01147   0.00551  -0.0195  0.2977  1.0000  -1.7272   0.0000   0.0000   0.0000   0.2676
   5.400   0.8434   0.01139   0.00542  -0.0194  0.2969  1.0000  -1.7541   0.0000   0.0000   0.0000   0.2671
   5.500   0.8536   0.01134   0.00537  -0.0194  0.2956  1.0000  -1.7810   0.0000   0.0000   0.0000   0.2667
   5.600   0.8638   0.01132   0.00535  -0.0193  0.2937  1.0000  -1.8078   0.0000   0.0000   0.0000   0.2662
   5.700   0.8742   0.01133   0.00536  -0.0193  0.2914  1.0000  -1.8343   0.0000   0.0000   0.0000   0.2659
   5.800   0.8846   0.01135   0.00538  -0.0193  0.2891  1.0000  -1.8607   0.0000   0.0000   0.0000   0.2655
   5.900   0.8950   0.01139   0.00542  -0.0193  0.2871  1.0000  -1.8871   0.0000   0.0000   0.0000   0.2651
   6.000   0.9055   0.01143   0.00546  -0.0193  0.2847  1.0000  -1.9134   0.0000   0.0000   0.0000   0.2648
   6.100   0.9159   0.01147   0.00550  -0.0193  0.2818  1.0000  -1.9398   0.0000   0.0000   0.0000   0.2644
   6.300   0.8487   0.01223   0.00631  -0.0008  0.2859  0.9695  -1.8774   0.0000   0.0000   0.0000   0.2441
   6.400   0.8520   0.01229   0.00637   0.0006  0.2841  0.9677  -1.8944   0.0000   0.0000   0.0000   0.2422
   6.500   0.8548   0.01235   0.00643   0.0022  0.2820  0.9658  -1.9107   0.0000   0.0000   0.0000   0.2402
   6.600   0.8569   0.01241   0.00649   0.0040  0.2797  0.9640  -1.9282   0.0000   0.0000   0.0000   0.2381
   6.700   0.8582   0.01248   0.00656   0.0059  0.2769  0.9622  -1.9478   0.0000   0.0000   0.0000   0.2358
   6.800   0.8591   0.01256   0.00663   0.0078  0.2736  0.9605  -1.9667   0.0000   0.0000   0.0000   0.2334
   6.900   0.8599   0.01266   0.00672   0.0098  0.2691  0.9589  -1.9856   0.0000   0.0000   0.0000   0.2310
   7.000   0.8617   0.01279   0.00682   0.0115  0.2617  0.9575  -2.0061   0.0000   0.0000   0.0000   0.2289
   7.100   0.8643   0.01300   0.00694   0.0130  0.2483  0.9564  -2.0280   0.0000   0.0000   0.0000   0.2271
   7.200   0.8673   0.01329   0.00711   0.0143  0.2300  0.9554  -2.0504   0.0000   0.0000   0.0000   0.2256
   7.300   0.8714   0.01360   0.00728   0.0153  0.2059  0.9545  -2.0743   0.0000   0.0000   0.0000   0.2243
   7.400   0.8777   0.01380   0.00742   0.0160  0.1933  0.9539  -2.1023   0.0000   0.0000   0.0000   0.2236
   7.500   0.8838   0.01407   0.00757   0.0166  0.1825  0.9533  -2.1301   0.0000   0.0000   0.0000   0.2229
   7.600   0.8891   0.01443   0.00775   0.0173  0.1702  0.9527  -2.1564   0.0000   0.0000   0.0000   0.2221
   7.700   0.8946   0.01481   0.00798   0.0179  0.1560  0.9521  -2.1828   0.0000   0.0000   0.0000   0.2214
   7.800   0.9025   0.01501   0.00815   0.0182  0.1473  0.9517  -2.2137   0.0000   0.0000   0.0000   0.2211
   7.900   0.9105   0.01522   0.00831   0.0185  0.1413  0.9513  -2.2450   0.0000   0.0000   0.0000   0.2208
   8.000   0.9178   0.01547   0.00851   0.0188  0.1332  0.9508  -2.2752   0.0000   0.0000   0.0000   0.2205
   8.100   0.9245   0.01577   0.00872   0.0192  0.1236  0.9505  -2.3041   0.0000   0.0000   0.0000   0.2201
   8.200   0.9315   0.01606   0.00891   0.0196  0.1128  0.9501  -2.3338   0.0000   0.0000   0.0000   0.2197
   8.300   0.9361   0.01611   0.00892   0.0206  0.1028  0.9499  -2.3593   0.0000   0.0000   0.0000   0.2186
   8.400   0.9398   0.01609   0.00890   0.0218  0.0981  0.9498  -2.3836   0.0000   0.0000   0.0000   0.2173
   8.500   0.9435   0.01611   0.00890   0.0229  0.0950  0.9497  -2.4078   0.0000   0.0000   0.0000   0.2161
   8.600   0.9470   0.01617   0.00893   0.0241  0.0917  0.9497  -2.4318   0.0000   0.0000   0.0000   0.2148
   8.700   0.9503   0.01627   0.00898   0.0252  0.0883  0.9496  -2.4554   0.0000   0.0000   0.0000   0.2135
   8.800   0.9533   0.01640   0.00906   0.0264  0.0846  0.9497  -2.4958   0.0000   0.0000   0.0000   0.2123
   8.900   0.9566   0.01654   0.00914   0.0275  0.0805  0.9498  -2.5568   0.0000   0.0000   0.0000   0.2111
   9.000   0.9611   0.01664   0.00921   0.0284  0.0761  0.9498  -2.6237   0.0000   0.0000   0.0000   0.2102
   9.100   0.9670   0.01670   0.00926   0.0291  0.0741  0.9499  -2.6971   0.0000   0.0000   0.0000   0.2095
   9.200   0.9675   0.01655   0.00911   0.0308  0.0729  0.9512  -2.7477   0.0000   0.0000   0.0000   0.2075
   9.300   0.9701   0.01644   0.00899   0.0321  0.0708  0.9533  -2.8072   0.0000   0.0000   0.0000   0.2062
   9.400   0.9762   0.01652   0.00903   0.0325  0.0659  0.9552  -2.8820   0.0000   0.0000   0.0000   0.2058
   9.500   0.9811   0.01692   0.00929   0.0327  0.0530  0.9574  -2.9502   0.0000   0.0000   0.0000   0.2056
   9.700   0.9925   0.01815   0.01020   0.0324  0.0233  0.9619  -3.0874   0.0000   0.0000   0.0000   0.2060
   9.800   1.0010   0.01859   0.01052   0.0321  0.0191  0.9636  -3.1645   0.0000   0.0000   0.0000   0.2064
   9.900   1.0108   0.01902   0.01100   0.0318  0.0138  0.9652  -3.2052   0.0000   0.0000   0.0000   0.2068
  10.100   1.0240   0.02099   0.01396   0.0312  0.0139  0.9720  -3.5242   0.0000   0.0000   0.0000   0.2073
  10.200   1.0310   0.02193   0.01500   0.0300  0.0145  0.9757  -3.6209   0.0000   0.0000   0.0000   0.2084
  10.300   1.0387   0.02275   0.01590   0.0290  0.0150  0.9791  -3.7053   0.0000   0.0000   0.0000   0.2094
  10.400   1.0467   0.02348   0.01669   0.0282  0.0155  0.9822  -3.7839   0.0000   0.0000   0.0000   0.2102
  10.500   1.0546   0.02419   0.01745   0.0275  0.0161  0.9851  -3.8567   0.0000   0.0000   0.0000   0.2109
  10.600   1.0622   0.02491   0.01824   0.0268  0.0168  0.9880  -3.9229   0.0000   0.0000   0.0000   0.2115
  10.700   1.0695   0.02566   0.01907   0.0263  0.0176  0.9906  -3.9790   0.0000   0.0000   0.0000   0.2120
  10.800   1.0764   0.02645   0.01997   0.0259  0.0188  0.9930  -4.0136   0.0000   0.0000   0.0000   0.2123
  10.900   1.0817   0.02736   0.02100   0.0260  0.0203  0.9950  -4.0196   0.0000   0.0000   0.0000   0.2121
  11.000   1.0849   0.02848   0.02227   0.0263  0.0218  0.9966  -4.0131   0.0000   0.0000   0.0000   0.2117
  11.100   1.0857   0.02988   0.02385   0.0269  0.0233  0.9979  -3.9907   0.0000   0.0000   0.0000   0.2109
  11.200   1.0818   0.03196   0.02614   0.0282  0.0245  0.9988  -3.9305   0.0000   0.0000   0.0000   0.2095
  11.300   1.0906   0.03256   0.02678   0.0286  0.0268  0.9993  -3.9670   0.0000   0.0000   0.0000   0.2092
  11.400   1.1057   0.03222   0.02639   0.0279  0.0293  0.9998  -4.0790   0.0000   0.0000   0.0000   0.2100
  11.500   1.1126   0.03303   0.02741   0.0292  0.0350  1.0000  -4.0838   0.0000   0.0000   0.0000   0.2088
  19.500   0.7846   0.21391   0.21081  -0.0299  0.0154  1.0000  -2.4092   0.0000   0.0000   0.0000   0.2613
  19.600   0.7876   0.21470   0.21160  -0.0305  0.0149  1.0000  -2.4685   0.0000   0.0000   0.0000   0.2617
  19.700   0.7902   0.21555   0.21244  -0.0310  0.0145  1.0000  -2.5254   0.0000   0.0000   0.0000   0.2620
  19.800   0.7912   0.21701   0.21390  -0.0317  0.0139  1.0000  -2.5501   0.0000   0.0000   0.0000   0.2626
  19.900   0.7697   0.22930   0.22617  -0.0345  0.0125  1.0000  -2.0319   0.0000   0.0000   0.0000   0.2681
  20.000   0.7709   0.23168   0.22854  -0.0353  0.0125  1.0000  -2.0083   0.0000   0.0000   0.0000   0.2690
  20.100   0.7722   0.23403   0.23089  -0.0361  0.0125  1.0000  -1.9861   0.0000   0.0000   0.0000   0.2699
  20.200   0.7735   0.23636   0.23322  -0.0370  0.0124  1.0000  -1.9651   0.0000   0.0000   0.0000   0.2708
  20.300   0.7748   0.23866   0.23553  -0.0378  0.0124  1.0000  -1.9453   0.0000   0.0000   0.0000   0.2716
  20.400   0.7762   0.24096   0.23782  -0.0386  0.0124  1.0000  -1.9265   0.0000   0.0000   0.0000   0.2724
  20.500   0.7776   0.24323   0.24010  -0.0393  0.0124  1.0000  -1.9087   0.0000   0.0000   0.0000   0.2732
  20.600   0.7791   0.24549   0.24236  -0.0401  0.0124  1.0000  -1.8917   0.0000   0.0000   0.0000   0.2740
  20.700   0.7806   0.24774   0.24461  -0.0409  0.0123  1.0000  -1.8756   0.0000   0.0000   0.0000   0.2748
  20.800   0.7821   0.24998   0.24685  -0.0416  0.0123  1.0000  -1.8602   0.0000   0.0000   0.0000   0.2756
  20.900   0.7836   0.25221   0.24908  -0.0424  0.0123  1.0000  -1.8455   0.0000   0.0000   0.0000   0.2763
  21.000   0.7851   0.25443   0.25130  -0.0431  0.0123  1.0000  -1.8315   0.0000   0.0000   0.0000   0.2770
  21.100   0.7867   0.25664   0.25351  -0.0439  0.0123  1.0000  -1.8180   0.0000   0.0000   0.0000   0.2777
  21.200   0.7883   0.25885   0.25572  -0.0446  0.0122  1.0000  -1.8051   0.0000   0.0000   0.0000   0.2784
  21.300   0.7898   0.26105   0.25792  -0.0454  0.0122  1.0000  -1.7927   0.0000   0.0000   0.0000   0.2791
  21.400   0.7914   0.26324   0.26011  -0.0461  0.0122  1.0000  -1.7807   0.0000   0.0000   0.0000   0.2798
  21.500   0.7930   0.26543   0.26230  -0.0468  0.0122  1.0000  -1.7691   0.0000   0.0000   0.0000   0.2805
  21.600   0.7946   0.26761   0.26448  -0.0475  0.0122  1.0000  -1.7580   0.0000   0.0000   0.0000   0.2811
  21.700   0.7962   0.26979   0.26666  -0.0482  0.0121  1.0000  -1.7472   0.0000   0.0000   0.0000   0.2818
  21.800   0.7977   0.27197   0.26884  -0.0489  0.0121  1.0000  -1.7368   0.0000   0.0000   0.0000   0.2824
  21.900   0.7993   0.27414   0.27101  -0.0496  0.0121  1.0000  -1.7268   0.0000   0.0000   0.0000   0.2830
  22.000   0.8009   0.27631   0.27318  -0.0503  0.0121  1.0000  -1.7170   0.0000   0.0000   0.0000   0.2836
  22.100   0.8024   0.27848   0.27535  -0.0510  0.0121  1.0000  -1.7074   0.0000   0.0000   0.0000   0.2842
  22.200   0.8039   0.28064   0.27752  -0.0517  0.0120  1.0000  -1.6980   0.0000   0.0000   0.0000   0.2848
  22.300   0.8055   0.28280   0.27968  -0.0524  0.0120  1.0000  -1.6889   0.0000   0.0000   0.0000   0.2854
  22.400   0.8070   0.28496   0.28185  -0.0530  0.0120  1.0000  -1.6800   0.0000   0.0000   0.0000   0.2860
  22.500   0.8084   0.28712   0.28401  -0.0537  0.0120  1.0000  -1.6714   0.0000   0.0000   0.0000   0.2865
  22.600   0.8099   0.28928   0.28616  -0.0544  0.0120  1.0000  -1.6629   0.0000   0.0000   0.0000   0.2871
  22.700   0.8114   0.29143   0.28832  -0.0550  0.0119  1.0000  -1.6547   0.0000   0.0000   0.0000   0.2876
  22.800   0.8128   0.29359   0.29047  -0.0557  0.0119  1.0000  -1.6466   0.0000   0.0000   0.0000   0.2882
  22.900   0.8142   0.29574   0.29263  -0.0563  0.0119  1.0000  -1.6387   0.0000   0.0000   0.0000   0.2887
  23.000   0.8156   0.29788   0.29478  -0.0570  0.0119  1.0000  -1.6309   0.0000   0.0000   0.0000   0.2892
  23.100   0.8169   0.30003   0.29693  -0.0576  0.0118  1.0000  -1.6233   0.0000   0.0000   0.0000   0.2898
  23.200   0.8182   0.30218   0.29908  -0.0582  0.0118  1.0000  -1.6152   0.0000   0.0000   0.0000   0.2903
  23.300   0.8194   0.30433   0.30123  -0.0589  0.0118  1.0000  -1.6073   0.0000   0.0000   0.0000   0.2908
  23.400   0.8207   0.30647   0.30338  -0.0595  0.0118  1.0000  -1.5995   0.0000   0.0000   0.0000   0.2913
  23.500   0.8218   0.30861   0.30552  -0.0601  0.0118  1.0000  -1.5918   0.0000   0.0000   0.0000   0.2918
  23.600   0.8230   0.31075   0.30766  -0.0607  0.0117  1.0000  -1.5843   0.0000   0.0000   0.0000   0.2923
  23.700   0.8241   0.31289   0.30980  -0.0613  0.0117  1.0000  -1.5768   0.0000   0.0000   0.0000   0.2928
  23.800   0.8251   0.31503   0.31195  -0.0619  0.0117  1.0000  -1.5684   0.0000   0.0000   0.0000   0.2933
  23.900   0.8261   0.31717   0.31409  -0.0625  0.0117  1.0000  -1.5601   0.0000   0.0000   0.0000   0.2938
  24.000   0.8271   0.31931   0.31623  -0.0631  0.0116  1.0000  -1.5518   0.0000   0.0000   0.0000   0.2943
  24.100   0.8279   0.32144   0.31836  -0.0637  0.0116  1.0000  -1.5436   0.0000   0.0000   0.0000   0.2948
  24.200   0.8288   0.32356   0.32048  -0.0643  0.0116  1.0000  -1.5356   0.0000   0.0000   0.0000   0.2952
  24.300   0.8296   0.32567   0.32260  -0.0648  0.0116  1.0000  -1.5276   0.0000   0.0000   0.0000   0.2957
  24.400   0.8303   0.32777   0.32471  -0.0654  0.0116  1.0000  -1.5196   0.0000   0.0000   0.0000   0.2961
  24.500   0.8310   0.32986   0.32680  -0.0659  0.0115  1.0000  -1.5118   0.0000   0.0000   0.0000   0.2966
  24.600   0.8316   0.33194   0.32888  -0.0664  0.0115  1.0000  -1.5039   0.0000   0.0000   0.0000   0.2970
  24.700   0.8321   0.33401   0.33096  -0.0669  0.0115  1.0000  -1.4961   0.0000   0.0000   0.0000   0.2974
  24.800   0.8327   0.33595   0.33298  -0.0674  0.0115  1.0000  -1.4890   0.0000   0.0000   0.0000   0.2978
  24.900   0.8331   0.33795   0.33499  -0.0679  0.0115  1.0000  -1.4822   0.0000   0.0000   0.0000   0.2982
  25.000   0.8334   0.33996   0.33701  -0.0684  0.0114  1.0000  -1.4749   0.0000   0.0000   0.0000   0.2986
  25.100   0.8335   0.34195   0.33901  -0.0688  0.0114  1.0000  -1.4674   0.0000   0.0000   0.0000   0.2990
  25.200   0.8336   0.34393   0.34099  -0.0692  0.0114  1.0000  -1.4596   0.0000   0.0000   0.0000   0.2994
  25.300   0.8336   0.34588   0.34295  -0.0697  0.0114  1.0000  -1.4518   0.0000   0.0000   0.0000   0.2997
  25.400   0.8334   0.34780   0.34488  -0.0700  0.0114  1.0000  -1.4437   0.0000   0.0000   0.0000   0.3001
  25.500   0.8331   0.34970   0.34678  -0.0704  0.0114  1.0000  -1.4355   0.0000   0.0000   0.0000   0.3004
  25.600   0.8326   0.35155   0.34864  -0.0708  0.0113  1.0000  -1.4270   0.0000   0.0000   0.0000   0.3008
  25.700   0.8319   0.35336   0.35046  -0.0711  0.0113  1.0000  -1.4182   0.0000   0.0000   0.0000   0.3011
  25.800   0.8311   0.35512   0.35222  -0.0713  0.0113  1.0000  -1.4092   0.0000   0.0000   0.0000   0.3014
  25.900   0.8300   0.35682   0.35393  -0.0716  0.0113  1.0000  -1.3998   0.0000   0.0000   0.0000   0.3017
  26.000   0.8286   0.35845   0.35556  -0.0718  0.0113  1.0000  -1.3899   0.0000   0.0000   0.0000   0.3020
  26.100   0.8269   0.35998   0.35710  -0.0719  0.0113  1.0000  -1.3794   0.0000   0.0000   0.0000   0.3023
  26.200   0.8248   0.36139   0.35852  -0.0720  0.0112  1.0000  -1.3682   0.0000   0.0000   0.0000   0.3025
  26.300   0.8222   0.36264   0.35978  -0.0720  0.0112  1.0000  -1.3560   0.0000   0.0000   0.0000   0.3027
  26.400   0.7650   0.34816   0.34538  -0.0632  0.0112  1.0000  -1.2328   0.0000   0.0000   0.0000   0.2996
  26.500   0.7580   0.34726   0.34450  -0.0625  0.0112  1.0000  -1.2121   0.0000   0.0000   0.0000   0.2996
  26.600   0.7526   0.34675   0.34400  -0.0620  0.0112  1.0000  -1.1946   0.0000   0.0000   0.0000   0.2996
  26.700   0.7480   0.34646   0.34372  -0.0617  0.0112  1.0000  -1.1790   0.0000   0.0000   0.0000   0.2997
  26.800   0.7441   0.34631   0.34357  -0.0614  0.0112  1.0000  -1.1650   0.0000   0.0000   0.0000   0.2998
  26.900   0.7405   0.34625   0.34353  -0.0612  0.0111  1.0000  -1.1523   0.0000   0.0000   0.0000   0.3000
  27.000   0.7374   0.34627   0.34356  -0.0611  0.0111  1.0000  -1.1403   0.0000   0.0000   0.0000   0.3002
  27.100   0.7345   0.34635   0.34365  -0.0610  0.0111  1.0000  -1.1290   0.0000   0.0000   0.0000   0.3004
  27.200   0.7318   0.34646   0.34377  -0.0609  0.0111  1.0000  -1.1182   0.0000   0.0000   0.0000   0.3006
  27.300   0.7293   0.34661   0.34393  -0.0609  0.0111  1.0000  -1.1079   0.0000   0.0000   0.0000   0.3008
  27.400   0.7269   0.34679   0.34412  -0.0609  0.0111  1.0000  -1.0980   0.0000   0.0000   0.0000   0.3010
  27.500   0.7248   0.34701   0.34434  -0.0609  0.0110  1.0000  -1.0885   0.0000   0.0000   0.0000   0.3013
  27.600   0.7228   0.34725   0.34459  -0.0609  0.0110  1.0000  -1.0794   0.0000   0.0000   0.0000   0.3015
  27.700   0.7209   0.34751   0.34486  -0.0610  0.0110  1.0000  -1.0706   0.0000   0.0000   0.0000   0.3018
  27.800   0.7191   0.34780   0.34516  -0.0611  0.0110  1.0000  -1.0620   0.0000   0.0000   0.0000   0.3021
  27.900   0.7174   0.34810   0.34547  -0.0612  0.0110  1.0000  -1.0538   0.0000   0.0000   0.0000   0.3024
  28.000   0.7158   0.34841   0.34579  -0.0613  0.0109  1.0000  -1.0458   0.0000   0.0000   0.0000   0.3027
  28.100   0.7143   0.34875   0.34613  -0.0614  0.0109  1.0000  -1.0380   0.0000   0.0000   0.0000   0.3030
  28.200   0.7129   0.34909   0.34648  -0.0615  0.0109  1.0000  -1.0305   0.0000   0.0000   0.0000   0.3033
  28.300   0.7116   0.34945   0.34685  -0.0617  0.0109  1.0000  -1.0232   0.0000   0.0000   0.0000   0.3036
  28.400   0.7103   0.34982   0.34722  -0.0618  0.0109  1.0000  -1.0161   0.0000   0.0000   0.0000   0.3039
  28.500   0.7091   0.35019   0.34761  -0.0620  0.0109  1.0000  -1.0091   0.0000   0.0000   0.0000   0.3042
  28.600   0.7080   0.35058   0.34801  -0.0622  0.0108  1.0000  -1.0024   0.0000   0.0000   0.0000   0.3045
  28.700   0.7069   0.35098   0.34841  -0.0623  0.0108  1.0000  -0.9958   0.0000   0.0000   0.0000   0.3048
  28.800   0.7058   0.35138   0.34882  -0.0625  0.0108  1.0000  -0.9893   0.0000   0.0000   0.0000   0.3052
  28.900   0.7048   0.35180   0.34924  -0.0627  0.0108  1.0000  -0.9831   0.0000   0.0000   0.0000   0.3055
  29.000   0.7039   0.35222   0.34967  -0.0629  0.0108  1.0000  -0.9769   0.0000   0.0000   0.0000   0.3058
  29.100   0.7030   0.35264   0.35010  -0.0632  0.0108  1.0000  -0.9709   0.0000   0.0000   0.0000   0.3062
  29.200   0.7021   0.35308   0.35054  -0.0634  0.0107  1.0000  -0.9651   0.0000   0.0000   0.0000   0.3065
  29.300   0.7013   0.35351   0.35099  -0.0636  0.0107  1.0000  -0.9593   0.0000   0.0000   0.0000   0.3069
  29.400   0.7005   0.35396   0.35144  -0.0638  0.0107  1.0000  -0.9537   0.0000   0.0000   0.0000   0.3072
  29.500   0.6997   0.35441   0.35189  -0.0641  0.0107  1.0000  -0.9483   0.0000   0.0000   0.0000   0.3076
  29.600   0.6990   0.35486   0.35236  -0.0643  0.0107  1.0000  -0.9429   0.0000   0.0000   0.0000   0.3079
  29.700   0.6983   0.35532   0.35282  -0.0646  0.0107  1.0000  -0.9376   0.0000   0.0000   0.0000   0.3083
  29.800   0.6977   0.35578   0.35329  -0.0648  0.0106  1.0000  -0.9325   0.0000   0.0000   0.0000   0.3086
  29.900   0.6970   0.35625   0.35377  -0.0651  0.0106  1.0000  -0.9274   0.0000   0.0000   0.0000   0.3090
  30.000   0.6964   0.35672   0.35424  -0.0654  0.0106  1.0000  -0.9225   0.0000   0.0000   0.0000   0.3094


