xflr5 v6.61

 Calculated polar for: E178

 1 1 Reynolds number fixed          Mach number fixed         

 xtrf =   1.000 (top)        1.000 (bottom)
 Mach =   0.000     Re =     0.160 e 6     Ncrit =   9.000

  alpha     CL        CD       CDp       Cm    Top Xtr Bot Xtr   Cpmin    Chinge    XCp    
 ------- -------- --------- --------- -------- ------- ------- -------- --------- ---------
 -10.000  -0.4691   0.11967   0.11565   0.0031  1.0000  0.0293  -1.5719   0.0000   0.0000   0.0000   0.2521
  -9.900  -0.4664   0.11822   0.11421   0.0027  1.0000  0.0296  -1.5614   0.0000   0.0000   0.0000   0.2512
  -9.800  -0.4638   0.11678   0.11278   0.0022  1.0000  0.0299  -1.5524   0.0000   0.0000   0.0000   0.2503
  -9.700  -0.4613   0.11536   0.11137   0.0017  1.0000  0.0301  -1.5448   0.0000   0.0000   0.0000   0.2493
  -9.600  -0.4588   0.11394   0.10996   0.0012  1.0000  0.0304  -1.5383   0.0000   0.0000   0.0000   0.2482
  -9.500  -0.4565   0.11253   0.10856   0.0006  1.0000  0.0307  -1.5329   0.0000   0.0000   0.0000   0.2471
  -9.400  -0.4542   0.11112   0.10716   0.0001  1.0000  0.0310  -1.5286   0.0000   0.0000   0.0000   0.2459
  -9.300  -0.4519   0.10971   0.10577  -0.0005  1.0000  0.0314  -1.5252   0.0000   0.0000   0.0000   0.2446
  -9.200  -0.4498   0.10830   0.10438  -0.0011  1.0000  0.0317  -1.5227   0.0000   0.0000   0.0000   0.2433
  -9.100  -0.4477   0.10690   0.10299  -0.0018  1.0000  0.0320  -1.5211   0.0000   0.0000   0.0000   0.2419
  -9.000  -0.4456   0.10550   0.10160  -0.0024  1.0000  0.0323  -1.5204   0.0000   0.0000   0.0000   0.2405
  -8.900  -0.4437   0.10410   0.10021  -0.0031  1.0000  0.0327  -1.5206   0.0000   0.0000   0.0000   0.2391
  -8.800  -0.4418   0.10270   0.09883  -0.0037  1.0000  0.0330  -1.5215   0.0000   0.0000   0.0000   0.2375
  -8.700  -0.4400   0.10130   0.09745  -0.0044  1.0000  0.0334  -1.5233   0.0000   0.0000   0.0000   0.2360
  -8.600  -0.4383   0.09990   0.09606  -0.0052  1.0000  0.0338  -1.5259   0.0000   0.0000   0.0000   0.2344
  -8.500  -0.4366   0.09851   0.09468  -0.0059  1.0000  0.0341  -1.5292   0.0000   0.0000   0.0000   0.2327
  -8.400  -0.4349   0.09710   0.09329  -0.0066  1.0000  0.0345  -1.5333   0.0000   0.0000   0.0000   0.2310
  -8.300  -0.4332   0.09568   0.09189  -0.0074  1.0000  0.0349  -1.5382   0.0000   0.0000   0.0000   0.2291
  -8.200  -0.4316   0.09425   0.09048  -0.0083  1.0000  0.0353  -1.5439   0.0000   0.0000   0.0000   0.2272
  -8.100  -0.4301   0.09282   0.08907  -0.0091  1.0000  0.0357  -1.5504   0.0000   0.0000   0.0000   0.2252
  -8.000  -0.4286   0.09139   0.08766  -0.0100  1.0000  0.0361  -1.5579   0.0000   0.0000   0.0000   0.2231
  -7.900  -0.4273   0.08995   0.08624  -0.0109  1.0000  0.0365  -1.5663   0.0000   0.0000   0.0000   0.2209
  -7.800  -0.4260   0.08851   0.08482  -0.0119  1.0000  0.0369  -1.5758   0.0000   0.0000   0.0000   0.2187
  -7.700  -0.4248   0.08706   0.08340  -0.0129  1.0000  0.0373  -1.5864   0.0000   0.0000   0.0000   0.2163
  -7.600  -0.4238   0.08560   0.08196  -0.0140  1.0000  0.0377  -1.5981   0.0000   0.0000   0.0000   0.2137
  -7.500  -0.4228   0.08414   0.08052  -0.0151  1.0000  0.0381  -1.6109   0.0000   0.0000   0.0000   0.2111
  -7.400  -0.4220   0.08266   0.07908  -0.0163  1.0000  0.0385  -1.6250   0.0000   0.0000   0.0000   0.2083
  -7.300  -0.4214   0.08118   0.07762  -0.0176  1.0000  0.0388  -1.6406   0.0000   0.0000   0.0000   0.2053
  -7.200  -0.4207   0.07965   0.07612  -0.0191  1.0000  0.0392  -1.6578   0.0000   0.0000   0.0000   0.2017
  -7.100  -0.4186   0.07796   0.07445  -0.0211  1.0000  0.0396  -1.6767   0.0000   0.0000   0.0000   0.1968
  -7.000  -0.4159   0.07617   0.07267  -0.0233  1.0000  0.0400  -1.6971   0.0000   0.0000   0.0000   0.1911
  -6.900  -0.4125   0.07432   0.07084  -0.0256  1.0000  0.0404  -1.7184   0.0000   0.0000   0.0000   0.1851
  -6.800  -0.4085   0.07242   0.06895  -0.0281  1.0000  0.0409  -1.7417   0.0000   0.0000   0.0000   0.1785
  -6.700  -0.4038   0.07049   0.06701  -0.0306  1.0000  0.0415  -1.7678   0.0000   0.0000   0.0000   0.1714
  -6.600  -0.3883   0.06996   0.06639  -0.0361  1.0000  0.0445  -1.8108   0.0000   0.0000   0.0000   0.1544
  -6.500  -0.3827   0.06832   0.06473  -0.0378  1.0000  0.0447  -1.8269   0.0000   0.0000   0.0000   0.1484
  -6.400  -0.3775   0.06663   0.06300  -0.0393  1.0000  0.0448  -1.8414   0.0000   0.0000   0.0000   0.1431
  -6.300  -0.3725   0.06493   0.06127  -0.0406  1.0000  0.0449  -1.8545   0.0000   0.0000   0.0000   0.1383
  -6.200  -0.3680   0.06328   0.05959  -0.0416  1.0000  0.0449  -1.8661   0.0000   0.0000   0.0000   0.1341
  -6.100  -0.3647   0.06177   0.05806  -0.0423  1.0000  0.0450  -1.8767   0.0000   0.0000   0.0000   0.1312
  -6.000  -0.3668   0.06087   0.05717  -0.0418  1.0000  0.0450  -1.8866   0.0000   0.0000   0.0000   0.1334
  -5.900  -0.3589   0.05898   0.05521  -0.0436  0.9946  0.0451  -1.8944   0.0000   0.0000   0.0000   0.1258
  -5.700  -0.3437   0.04586   0.04183  -0.0499  0.9830  0.0243  -2.3368   0.0000   0.0000   0.0000   0.1017
  -5.600  -0.3319   0.04265   0.03846  -0.0526  0.9769  0.0235  -2.3825   0.0000   0.0000   0.0000   0.0882
  -5.500  -0.3179   0.03973   0.03535  -0.0552  0.9723  0.0229  -2.4203   0.0000   0.0000   0.0000   0.0730
  -5.400  -0.3060   0.03733   0.03275  -0.0568  0.9653  0.0226  -2.4501   0.0000   0.0000   0.0000   0.0608
  -5.300  -0.2935   0.03507   0.03029  -0.0582  0.9591  0.0223  -2.4751   0.0000   0.0000   0.0000   0.0480
  -5.200  -0.2800   0.03294   0.02793  -0.0595  0.9540  0.0223  -2.4932   0.0000   0.0000   0.0000   0.0335
  -5.100  -0.2665   0.03104   0.02580  -0.0606  0.9494  0.0224  -2.5018   0.0000   0.0000   0.0000   0.0185
  -5.000  -0.2568   0.02962   0.02419  -0.0607  0.9417  0.0226  -2.5015   0.0000   0.0000   0.0000   0.0093
  -4.900  -0.2458   0.02831   0.02267  -0.0609  0.9352  0.0230  -2.4910   0.0000   0.0000   0.0000  -0.0022
  -4.800  -0.2341   0.02716   0.02133  -0.0611  0.9297  0.0235  -2.4688   0.0000   0.0000   0.0000  -0.0156
  -4.700  -0.2223   0.02626   0.02024  -0.0613  0.9248  0.0241  -2.4333   0.0000   0.0000   0.0000  -0.0303
  -4.600  -0.2121   0.02568   0.01952  -0.0610  0.9188  0.0247  -2.3871   0.0000   0.0000   0.0000  -0.0426
  -4.500  -0.2020   0.02548   0.01921  -0.0607  0.9122  0.0255  -2.3205   0.0000   0.0000   0.0000  -0.0555
  -4.400  -0.1921   0.02506   0.01867  -0.0604  0.9062  0.0262  -2.2679   0.0000   0.0000   0.0000  -0.0694
  -4.300  -0.1840   0.02334   0.01670  -0.0600  0.9010  0.0268  -2.2902   0.0000   0.0000   0.0000  -0.0815
  -4.200  -0.1753   0.02195   0.01508  -0.0596  0.8964  0.0275  -2.2942   0.0000   0.0000   0.0000  -0.0955
  -4.100  -0.1662   0.02090   0.01387  -0.0592  0.8920  0.0283  -2.2769   0.0000   0.0000   0.0000  -0.1117
  -4.000  -0.1575   0.02050   0.01352  -0.0592  0.8870  0.0316  -2.1751   0.0000   0.0000   0.0000  -0.1319
  -3.800  -0.1373   0.02287   0.01611  -0.0592  0.8757  0.0462  -1.8315   0.0000   0.0000   0.0000  -0.1872
  -3.700  -0.1289   0.02119   0.01423  -0.0588  0.8710  0.0477  -1.8406   0.0000   0.0000   0.0000  -0.2126
  -3.600  -0.1193   0.02044   0.01335  -0.0583  0.8665  0.0478  -1.8209   0.0000   0.0000   0.0000  -0.2451
  -3.500  -0.1093   0.02007   0.01287  -0.0577  0.8622  0.0470  -1.7923   0.0000   0.0000   0.0000  -0.2846
  -3.400  -0.0994   0.01972   0.01242  -0.0571  0.8579  0.0464  -1.7611   0.0000   0.0000   0.0000  -0.3317
  -3.300  -0.0889   0.01934   0.01196  -0.0567  0.8537  0.0459  -1.7285   0.0000   0.0000   0.0000  -0.3954
  -3.100  -0.0677   0.01796   0.01036  -0.0561  0.8454  0.0450  -1.6826   0.0000   0.0000   0.0000  -0.5875
  -3.000  -0.0578   0.01661   0.00859  -0.0555  0.8414  0.0427  -1.6348   0.0000   0.0000   0.0000  -0.7210
  -2.900  -0.0477   0.01614   0.00805  -0.0551  0.8374  0.0428  -1.6126   0.0000   0.0000   0.0000  -0.9184
  -2.800  -0.0377   0.01572   0.00756  -0.0547  0.8337  0.0431  -1.5893   0.0000   0.0000   0.0000  -1.2171
  -2.700  -0.0278   0.01534   0.00712  -0.0542  0.8301  0.0436  -1.5654   0.0000   0.0000   0.0000  -1.7218
  -2.600  -0.0180   0.01501   0.00673  -0.0538  0.8266  0.0442  -1.5410   0.0000   0.0000   0.0000  -2.7688
  -2.500  -0.0082   0.01476   0.00639  -0.0533  0.8233  0.0451  -1.5157   0.0000   0.0000   0.0000  -6.3594
  -2.400   0.0011   0.01419   0.00569  -0.0527  0.8200  0.0501  -1.5348   0.0000   0.0000   0.0000  48.7871
  -2.300   0.0098   0.01330   0.00512  -0.0521  0.8165  0.1188  -1.6164   0.0000   0.0000   0.0000   5.6447
  -2.200   0.0181   0.01262   0.00502  -0.0520  0.8136  0.2552  -1.5958   0.0000   0.0000   0.0000   3.1578
  -2.100   0.0271   0.01223   0.00498  -0.0519  0.8107  0.3377  -1.5410   0.0000   0.0000   0.0000   2.1832
  -2.000   0.0353   0.01183   0.00498  -0.0515  0.8076  0.4344  -1.4829   0.0000   0.0000   0.0000   1.7225
  -1.900   0.0434   0.01151   0.00498  -0.0510  0.8043  0.5205  -1.4230   0.0000   0.0000   0.0000   1.4335
  -1.800   0.0508   0.01119   0.00500  -0.0501  0.8010  0.6087  -1.3641   0.0000   0.0000   0.0000   1.2443
  -1.700   0.0573   0.01084   0.00504  -0.0487  0.7978  0.7168  -1.3066   0.0000   0.0000   0.0000   1.1067
  -1.600   0.1213   0.01020   0.00483  -0.0578  0.7972  1.0000  -1.0615   0.0000   0.0000   0.0000   0.7297
  -1.500   0.1309   0.01024   0.00478  -0.0576  0.7938  1.0000  -0.9984   0.0000   0.0000   0.0000   0.6923
  -1.400   0.1405   0.01027   0.00473  -0.0573  0.7904  1.0000  -0.9361   0.0000   0.0000   0.0000   0.6601
  -1.300   0.1499   0.01030   0.00468  -0.0570  0.7871  1.0000  -0.8746   0.0000   0.0000   0.0000   0.6318
  -1.200   0.1593   0.01034   0.00464  -0.0566  0.7837  1.0000  -0.8140   0.0000   0.0000   0.0000   0.6069
  -1.100   0.1686   0.01040   0.00461  -0.0562  0.7803  1.0000  -0.7543   0.0000   0.0000   0.0000   0.5846
  -1.000   0.1780   0.01049   0.00462  -0.0558  0.7767  1.0000  -0.6954   0.0000   0.0000   0.0000   0.5648
  -0.900   0.1875   0.01065   0.00470  -0.0556  0.7726  1.0000  -0.6370   0.0000   0.0000   0.0000   0.5472
  -0.800   0.1978   0.01067   0.00467  -0.0555  0.7701  1.0000  -0.5774   0.0000   0.0000   0.0000   0.5312
  -0.700   0.2081   0.01069   0.00466  -0.0554  0.7673  1.0000  -0.5189   0.0000   0.0000   0.0000   0.5168
  -0.600   0.2183   0.01073   0.00466  -0.0553  0.7644  1.0000  -0.4770   0.0000   0.0000   0.0000   0.5037
  -0.500   0.2286   0.01078   0.00467  -0.0552  0.7614  1.0000  -0.4833   0.0000   0.0000   0.0000   0.4918
  -0.400   0.2388   0.01083   0.00468  -0.0551  0.7584  1.0000  -0.4896   0.0000   0.0000   0.0000   0.4808
  -0.300   0.2490   0.01088   0.00469  -0.0550  0.7554  1.0000  -0.4960   0.0000   0.0000   0.0000   0.4707
  -0.200   0.2591   0.01094   0.00470  -0.0548  0.7524  1.0000  -0.5024   0.0000   0.0000   0.0000   0.4614
  -0.100   0.2693   0.01099   0.00471  -0.0546  0.7495  1.0000  -0.5087   0.0000   0.0000   0.0000   0.4526
   0.000   0.2794   0.01104   0.00472  -0.0544  0.7467  1.0000  -0.5152   0.0000   0.0000   0.0000   0.4445
   0.100   0.2894   0.01109   0.00473  -0.0542  0.7439  1.0000  -0.5216   0.0000   0.0000   0.0000   0.4369
   0.200   0.2995   0.01115   0.00475  -0.0540  0.7413  1.0000  -0.5280   0.0000   0.0000   0.0000   0.4298
   0.300   0.3095   0.01121   0.00477  -0.0538  0.7386  1.0000  -0.5345   0.0000   0.0000   0.0000   0.4231
   0.400   0.3195   0.01129   0.00480  -0.0535  0.7360  1.0000  -0.5409   0.0000   0.0000   0.0000   0.4168
   0.500   0.3295   0.01140   0.00487  -0.0533  0.7333  1.0000  -0.5473   0.0000   0.0000   0.0000   0.4109
   0.600   0.3395   0.01156   0.00499  -0.0531  0.7302  1.0000  -0.5536   0.0000   0.0000   0.0000   0.4055
   0.700   0.3496   0.01179   0.00519  -0.0530  0.7269  1.0000  -0.5596   0.0000   0.0000   0.0000   0.4007
   0.800   0.3603   0.01183   0.00524  -0.0530  0.7251  1.0000  -0.5675   0.0000   0.0000   0.0000   0.3962
   0.900   0.3709   0.01188   0.00534  -0.0530  0.7230  1.0000  -0.5761   0.0000   0.0000   0.0000   0.3919
   1.000   0.3815   0.01194   0.00538  -0.0530  0.7204  1.0000  -0.5847   0.0000   0.0000   0.0000   0.3878
   1.100   0.3919   0.01199   0.00543  -0.0529  0.7175  1.0000  -0.5933   0.0000   0.0000   0.0000   0.3838
   1.200   0.4024   0.01204   0.00547  -0.0528  0.7144  1.0000  -0.6019   0.0000   0.0000   0.0000   0.3800
   1.300   0.4127   0.01209   0.00551  -0.0527  0.7113  1.0000  -0.6105   0.0000   0.0000   0.0000   0.3764
   1.400   0.4231   0.01215   0.00554  -0.0526  0.7081  1.0000  -0.6201   0.0000   0.0000   0.0000   0.3728
   1.500   0.4334   0.01220   0.00558  -0.0524  0.7051  1.0000  -0.6300   0.0000   0.0000   0.0000   0.3695
   1.600   0.4438   0.01226   0.00563  -0.0523  0.7022  1.0000  -0.6411   0.0000   0.0000   0.0000   0.3662
   1.700   0.4542   0.01233   0.00568  -0.0522  0.6996  1.0000  -0.6526   0.0000   0.0000   0.0000   0.3632
   1.800   0.4646   0.01240   0.00573  -0.0520  0.6971  1.0000  -0.6642   0.0000   0.0000   0.0000   0.3602
   1.900   0.4750   0.01246   0.00578  -0.0518  0.6946  1.0000  -0.6762   0.0000   0.0000   0.0000   0.3573
   2.000   0.4853   0.01254   0.00584  -0.0517  0.6921  1.0000  -0.6897   0.0000   0.0000   0.0000   0.3546
   2.100   0.4956   0.01262   0.00589  -0.0514  0.6895  1.0000  -0.7032   0.0000   0.0000   0.0000   0.3519
   2.200   0.5057   0.01273   0.00598  -0.0512  0.6866  1.0000  -0.7177   0.0000   0.0000   0.0000   0.3493
   2.300   0.5158   0.01292   0.00614  -0.0510  0.6832  1.0000  -0.7333   0.0000   0.0000   0.0000   0.3468
   2.400   0.5256   0.01321   0.00642  -0.0509  0.6792  1.0000  -0.7486   0.0000   0.0000   0.0000   0.3447
   2.500   0.5363   0.01320   0.00644  -0.0508  0.6769  1.0000  -0.7650   0.0000   0.0000   0.0000   0.3425
   2.600   0.5468   0.01322   0.00647  -0.0508  0.6741  1.0000  -0.7813   0.0000   0.0000   0.0000   0.3405
   2.700   0.5574   0.01325   0.00652  -0.0507  0.6710  1.0000  -0.7996   0.0000   0.0000   0.0000   0.3385
   2.800   0.5678   0.01330   0.00658  -0.0506  0.6677  1.0000  -0.8193   0.0000   0.0000   0.0000   0.3366
   2.900   0.5783   0.01334   0.00665  -0.0505  0.6644  1.0000  -0.8390   0.0000   0.0000   0.0000   0.3347
   3.000   0.5888   0.01339   0.00670  -0.0503  0.6609  1.0000  -0.8588   0.0000   0.0000   0.0000   0.3329
   3.100   0.5992   0.01343   0.00675  -0.0502  0.6576  1.0000  -0.8818   0.0000   0.0000   0.0000   0.3311
   3.200   0.6096   0.01346   0.00678  -0.0500  0.6542  1.0000  -0.9064   0.0000   0.0000   0.0000   0.3292
   3.300   0.6200   0.01347   0.00679  -0.0497  0.6506  1.0000  -0.9312   0.0000   0.0000   0.0000   0.3274
   3.400   0.6304   0.01346   0.00678  -0.0494  0.6470  1.0000  -0.9563   0.0000   0.0000   0.0000   0.3255
   3.500   0.6407   0.01346   0.00676  -0.0491  0.6434  1.0000  -0.9831   0.0000   0.0000   0.0000   0.3236
   3.600   0.6510   0.01350   0.00678  -0.0488  0.6398  1.0000  -1.0153   0.0000   0.0000   0.0000   0.3218
   3.700   0.6611   0.01362   0.00688  -0.0485  0.6358  1.0000  -1.0473   0.0000   0.0000   0.0000   0.3202
   3.800   0.6709   0.01394   0.00718  -0.0483  0.6307  1.0000  -1.0784   0.0000   0.0000   0.0000   0.3187
   3.900   0.6815   0.01390   0.00719  -0.0482  0.6281  1.0000  -1.1113   0.0000   0.0000   0.0000   0.3174
   4.000   0.6920   0.01388   0.00722  -0.0481  0.6247  1.0000  -1.1442   0.0000   0.0000   0.0000   0.3160
   4.100   0.7025   0.01386   0.00724  -0.0479  0.6207  1.0000  -1.1772   0.0000   0.0000   0.0000   0.3147
   4.200   0.7129   0.01384   0.00725  -0.0477  0.6161  1.0000  -1.2105   0.0000   0.0000   0.0000   0.3133
   4.300   0.7233   0.01381   0.00724  -0.0474  0.6114  1.0000  -1.2528   0.0000   0.0000   0.0000   0.3119
   4.400   0.7338   0.01378   0.00723  -0.0472  0.6068  1.0000  -1.3206   0.0000   0.0000   0.0000   0.3105
   4.500   0.7445   0.01375   0.00748  -0.0469  0.6030  1.0000  -1.4591   0.0000   0.0000   0.0000   0.3091
   4.600   0.7518   0.01237   0.00579  -0.0441  0.5621  1.0000  -1.6274   0.0000   0.0000   0.0000   0.3046
   4.700   0.7596   0.01193   0.00505  -0.0427  0.5224  1.0000  -1.7320   0.0000   0.0000   0.0000   0.3021
   4.800   0.7695   0.01191   0.00500  -0.0424  0.5052  1.0000  -1.8303   0.0000   0.0000   0.0000   0.3008
   4.900   0.7789   0.01196   0.00491  -0.0419  0.4878  1.0000  -1.9234   0.0000   0.0000   0.0000   0.2994
   5.000   0.7890   0.01202   0.00497  -0.0417  0.4720  1.0000  -2.0169   0.0000   0.0000   0.0000   0.2983
   5.100   0.7986   0.01210   0.00499  -0.0414  0.4501  1.0000  -2.1081   0.0000   0.0000   0.0000   0.2972
   5.200   0.8077   0.01225   0.00503  -0.0410  0.4273  1.0000  -2.1970   0.0000   0.0000   0.0000   0.2960
   5.300   0.8138   0.01268   0.00505  -0.0402  0.3554  1.0000  -2.2735   0.0000   0.0000   0.0000   0.2946
   5.400   0.8158   0.01377   0.00541  -0.0394  0.2485  1.0000  -2.3293   0.0000   0.0000   0.0000   0.2934
   5.500   0.8210   0.01457   0.00582  -0.0389  0.1845  1.0000  -2.3966   0.0000   0.0000   0.0000   0.2924
   5.600   0.8275   0.01521   0.00621  -0.0386  0.1419  1.0000  -2.4668   0.0000   0.0000   0.0000   0.2915
   5.700   0.8346   0.01578   0.00657  -0.0382  0.1064  1.0000  -2.5361   0.0000   0.0000   0.0000   0.2906
   5.800   0.8394   0.01666   0.00709  -0.0377  0.0529  1.0000  -2.5921   0.0000   0.0000   0.0000   0.2896
   5.900   0.8449   0.01744   0.00761  -0.0371  0.0212  1.0000  -2.6501   0.0000   0.0000   0.0000   0.2885
   6.000   0.8540   0.01773   0.00792  -0.0368  0.0190  1.0000  -2.7242   0.0000   0.0000   0.0000   0.2876
   6.100   0.8631   0.01802   0.00825  -0.0365  0.0175  1.0000  -2.7995   0.0000   0.0000   0.0000   0.2867
   6.200   0.8721   0.01832   0.00861  -0.0362  0.0165  1.0000  -2.8760   0.0000   0.0000   0.0000   0.2857
   6.300   0.8809   0.01863   0.00898  -0.0358  0.0156  1.0000  -2.9529   0.0000   0.0000   0.0000   0.2848
   6.400   0.8897   0.01896   0.00937  -0.0354  0.0150  1.0000  -3.0296   0.0000   0.0000   0.0000   0.2839
   6.500   0.8982   0.01932   0.00979  -0.0350  0.0145  1.0000  -3.1056   0.0000   0.0000   0.0000   0.2830
   6.600   0.9065   0.01969   0.01024  -0.0346  0.0141  1.0000  -3.1807   0.0000   0.0000   0.0000   0.2820
   6.700   0.9147   0.02008   0.01071  -0.0342  0.0138  1.0000  -3.2545   0.0000   0.0000   0.0000   0.2811
   6.800   0.9225   0.02051   0.01121  -0.0337  0.0136  1.0000  -3.3267   0.0000   0.0000   0.0000   0.2802
   6.900   0.9300   0.02096   0.01174  -0.0332  0.0134  1.0000  -3.3969   0.0000   0.0000   0.0000   0.2792
   7.000   0.9372   0.02145   0.01230  -0.0327  0.0133  1.0000  -3.4649   0.0000   0.0000   0.0000   0.2783
   7.100   0.9441   0.02196   0.01289  -0.0321  0.0132  1.0000  -3.5304   0.0000   0.0000   0.0000   0.2773
   7.200   0.9506   0.02251   0.01350  -0.0315  0.0132  1.0000  -3.5933   0.0000   0.0000   0.0000   0.2763
   7.300   0.9569   0.02309   0.01414  -0.0309  0.0132  1.0000  -3.6537   0.0000   0.0000   0.0000   0.2753
   7.400   0.9628   0.02370   0.01482  -0.0302  0.0132  1.0000  -3.7110   0.0000   0.0000   0.0000   0.2743
   7.500   0.9688   0.02434   0.01551  -0.0295  0.0133  1.0000  -3.7659   0.0000   0.0000   0.0000   0.2733
   7.600   0.9748   0.02502   0.01625  -0.0288  0.0134  1.0000  -3.8179   0.0000   0.0000   0.0000   0.2722
   7.700   0.9809   0.02574   0.01703  -0.0281  0.0135  1.0000  -3.8670   0.0000   0.0000   0.0000   0.2712
   7.800   0.9873   0.02652   0.01787  -0.0274  0.0137  1.0000  -3.9127   0.0000   0.0000   0.0000   0.2702
   7.900   0.9941   0.02736   0.01877  -0.0267  0.0140  1.0000  -3.9551   0.0000   0.0000   0.0000   0.2691
   8.000   1.0015   0.02829   0.01977  -0.0260  0.0143  1.0000  -3.9936   0.0000   0.0000   0.0000   0.2682
   8.100   1.0094   0.02932   0.02089  -0.0253  0.0146  1.0000  -4.0279   0.0000   0.0000   0.0000   0.2672
   8.200   1.0178   0.03046   0.02212  -0.0247  0.0150  1.0000  -4.0574   0.0000   0.0000   0.0000   0.2663
   8.300   1.0263   0.03172   0.02350  -0.0241  0.0155  1.0000  -4.0809   0.0000   0.0000   0.0000   0.2654
   8.400   1.0345   0.03309   0.02501  -0.0235  0.0161  1.0000  -4.0966   0.0000   0.0000   0.0000   0.2645
   8.500   1.0421   0.03456   0.02664  -0.0229  0.0166  1.0000  -4.1076   0.0000   0.0000   0.0000   0.2636
   8.600   1.0489   0.03612   0.02835  -0.0223  0.0172  1.0000  -4.1148   0.0000   0.0000   0.0000   0.2628
   8.700   1.0549   0.03775   0.03015  -0.0216  0.0178  1.0000  -4.1179   0.0000   0.0000   0.0000   0.2619
   8.800   1.0597   0.03948   0.03204  -0.0209  0.0184  1.0000  -4.1166   0.0000   0.0000   0.0000   0.2611
   8.900   1.0642   0.04090   0.03388  -0.0203  0.0188  1.0000  -4.1185   0.0000   0.0000   0.0000   0.2603
   9.000   1.0670   0.04273   0.03589  -0.0196  0.0193  1.0000  -4.1097   0.0000   0.0000   0.0000   0.2595
   9.100   1.0683   0.04473   0.03806  -0.0188  0.0199  1.0000  -4.0925   0.0000   0.0000   0.0000   0.2587
   9.200   1.0680   0.04700   0.04049  -0.0181  0.0204  1.0000  -4.0621   0.0000   0.0000   0.0000   0.2579
   9.400   1.0879   0.04831   0.04193  -0.0170  0.0235  1.0000  -4.1702   0.0000   0.0000   0.0000   0.2564
   9.500   1.0842   0.05117   0.04533  -0.0151  0.0272  1.0000  -3.9534   0.0000   0.0000   0.0000   0.2546
   9.600   1.0776   0.05386   0.04829  -0.0139  0.0290  1.0000  -3.8420   0.0000   0.0000   0.0000   0.2535
   9.700   1.0720   0.05619   0.05080  -0.0130  0.0305  1.0000  -3.7745   0.0000   0.0000   0.0000   0.2526
   9.800   1.0664   0.05832   0.05307  -0.0122  0.0317  1.0000  -3.7270   0.0000   0.0000   0.0000   0.2519
   9.900   1.0598   0.06016   0.05500  -0.0113  0.0325  1.0000  -3.6921   0.0000   0.0000   0.0000   0.2510
  10.000   1.0527   0.06189   0.05682  -0.0105  0.0332  1.0000  -3.6621   0.0000   0.0000   0.0000   0.2502
  10.100   1.0451   0.06362   0.05863  -0.0099  0.0337  1.0000  -3.6338   0.0000   0.0000   0.0000   0.2496
  10.200   1.0374   0.06536   0.06045  -0.0095  0.0341  1.0000  -3.6061   0.0000   0.0000   0.0000   0.2492
  10.300   1.0294   0.06717   0.06232  -0.0093  0.0345  1.0000  -3.5780   0.0000   0.0000   0.0000   0.2490
  10.400   1.0213   0.06904   0.06426  -0.0093  0.0348  1.0000  -3.5491   0.0000   0.0000   0.0000   0.2489
  10.500   1.0130   0.07094   0.06622  -0.0095  0.0351  1.0000  -3.5199   0.0000   0.0000   0.0000   0.2491
  10.600   1.0046   0.07292   0.06826  -0.0098  0.0353  1.0000  -3.4894   0.0000   0.0000   0.0000   0.2493
  10.700   0.9962   0.07500   0.07040  -0.0104  0.0355  1.0000  -3.4574   0.0000   0.0000   0.0000   0.2498
  10.800   0.9875   0.07724   0.07269  -0.0111  0.0357  1.0000  -3.4220   0.0000   0.0000   0.0000   0.2505
  11.100   0.9478   0.08744   0.08319  -0.0173  0.0474  1.0000  -2.9985   0.0000   0.0000   0.0000   0.2573
  11.200   0.9407   0.08974   0.08552  -0.0188  0.0467  1.0000  -2.9770   0.0000   0.0000   0.0000   0.2590
  11.300   0.9338   0.09218   0.08799  -0.0205  0.0461  1.0000  -2.9530   0.0000   0.0000   0.0000   0.2608
  11.400   0.9273   0.09473   0.09056  -0.0222  0.0455  1.0000  -2.9285   0.0000   0.0000   0.0000   0.2628
  11.500   0.9210   0.09744   0.09329  -0.0241  0.0450  1.0000  -2.8999   0.0000   0.0000   0.0000   0.2649
  11.600   0.9150   0.10026   0.09613  -0.0260  0.0445  1.0000  -2.8693   0.0000   0.0000   0.0000   0.2671
  11.700   0.9091   0.10325   0.09914  -0.0281  0.0441  1.0000  -2.8331   0.0000   0.0000   0.0000   0.2694
  11.800   0.9034   0.10641   0.10231  -0.0302  0.0437  1.0000  -2.7919   0.0000   0.0000   0.0000   0.2719
  11.900   0.8979   0.10982   0.10573  -0.0325  0.0435  1.0000  -2.7421   0.0000   0.0000   0.0000   0.2746
  12.000   0.8925   0.11355   0.10947  -0.0349  0.0432  1.0000  -2.6814   0.0000   0.0000   0.0000   0.2776
  12.100   0.8870   0.11757   0.11348  -0.0375  0.0432  1.0000  -2.6069   0.0000   0.0000   0.0000   0.2807
  12.200   0.8813   0.12164   0.11755  -0.0400  0.0434  1.0000  -2.5221   0.0000   0.0000   0.0000   0.2839
  12.300   0.8755   0.12571   0.12160  -0.0425  0.0439  1.0000  -2.4311   0.0000   0.0000   0.0000   0.2870
  12.400   0.8700   0.12968   0.12556  -0.0448  0.0448  1.0000  -2.3383   0.0000   0.0000   0.0000   0.2901
  12.500   0.8651   0.13345   0.12932  -0.0470  0.0461  1.0000  -2.2506   0.0000   0.0000   0.0000   0.2928
  12.600   0.8612   0.13687   0.13272  -0.0488  0.0477  1.0000  -2.1771   0.0000   0.0000   0.0000   0.2952
  12.700   0.8585   0.13992   0.13576  -0.0502  0.0496  1.0000  -2.1204   0.0000   0.0000   0.0000   0.2970
  13.100   0.8562   0.15187   0.14769  -0.0501  0.0573  1.0000  -2.0633   0.0000   0.0000   0.0000   0.2966
  13.200   0.8559   0.15422   0.15004  -0.0513  0.0573  1.0000  -2.0402   0.0000   0.0000   0.0000   0.2980
  13.300   0.8558   0.15650   0.15231  -0.0525  0.0573  1.0000  -2.0184   0.0000   0.0000   0.0000   0.2993
  13.400   0.8559   0.15867   0.15447  -0.0537  0.0572  1.0000  -1.9976   0.0000   0.0000   0.0000   0.3007
  13.500   0.8560   0.16072   0.15652  -0.0549  0.0571  1.0000  -1.9779   0.0000   0.0000   0.0000   0.3019
  13.600   0.8562   0.16268   0.15847  -0.0560  0.0571  1.0000  -1.9589   0.0000   0.0000   0.0000   0.3032
  13.700   0.8566   0.16457   0.16035  -0.0572  0.0570  1.0000  -1.9407   0.0000   0.0000   0.0000   0.3045
  13.800   0.8571   0.16635   0.16213  -0.0584  0.0568  1.0000  -1.9229   0.0000   0.0000   0.0000   0.3058
  13.900   0.8578   0.16793   0.16370  -0.0598  0.0565  1.0000  -1.9050   0.0000   0.0000   0.0000   0.3072
  14.000   0.8586   0.16851   0.16427  -0.0621  0.0549  1.0000  -1.8732   0.0000   0.0000   0.0000   0.3098
  14.100   0.8578   0.17015   0.16590  -0.0643  0.0533  1.0000  -1.8311   0.0000   0.0000   0.0000   0.3124
  14.200   0.8581   0.17204   0.16779  -0.0657  0.0524  1.0000  -1.8074   0.0000   0.0000   0.0000   0.3138
  14.300   0.8585   0.17396   0.16969  -0.0669  0.0517  1.0000  -1.7879   0.0000   0.0000   0.0000   0.3151
  14.400   0.8592   0.17587   0.17160  -0.0680  0.0510  1.0000  -1.7717   0.0000   0.0000   0.0000   0.3163
  14.500   0.8600   0.17778   0.17350  -0.0690  0.0504  1.0000  -1.7575   0.0000   0.0000   0.0000   0.3173
  14.600   0.8609   0.17968   0.17540  -0.0700  0.0498  1.0000  -1.7451   0.0000   0.0000   0.0000   0.3183
  14.700   0.8620   0.18156   0.17728  -0.0710  0.0492  1.0000  -1.7341   0.0000   0.0000   0.0000   0.3192
  14.800   0.8630   0.18344   0.17915  -0.0719  0.0487  1.0000  -1.7244   0.0000   0.0000   0.0000   0.3201
  14.900   0.8642   0.18530   0.18101  -0.0728  0.0481  1.0000  -1.7160   0.0000   0.0000   0.0000   0.3210
  15.000   0.8655   0.18717   0.18287  -0.0737  0.0476  1.0000  -1.7088   0.0000   0.0000   0.0000   0.3217
  15.100   0.8669   0.18903   0.18473  -0.0746  0.0471  1.0000  -1.7029   0.0000   0.0000   0.0000   0.3225
  15.200   0.8684   0.19088   0.18659  -0.0754  0.0466  1.0000  -1.6982   0.0000   0.0000   0.0000   0.3232
  15.300   0.8699   0.19274   0.18844  -0.0762  0.0460  1.0000  -1.6947   0.0000   0.0000   0.0000   0.3238
  15.400   0.8716   0.19458   0.19028  -0.0770  0.0455  1.0000  -1.6925   0.0000   0.0000   0.0000   0.3244
  15.500   0.8733   0.19643   0.19212  -0.0777  0.0450  1.0000  -1.6917   0.0000   0.0000   0.0000   0.3250
  15.600   0.8751   0.19826   0.19396  -0.0784  0.0445  1.0000  -1.6922   0.0000   0.0000   0.0000   0.3255
  15.700   0.8770   0.20009   0.19578  -0.0791  0.0440  1.0000  -1.6942   0.0000   0.0000   0.0000   0.3260
  15.800   0.8790   0.20191   0.19761  -0.0798  0.0436  1.0000  -1.6979   0.0000   0.0000   0.0000   0.3264
  15.900   0.8811   0.20373   0.19942  -0.0804  0.0431  1.0000  -1.7033   0.0000   0.0000   0.0000   0.3268
  16.000   0.8834   0.20555   0.20124  -0.0810  0.0426  1.0000  -1.7107   0.0000   0.0000   0.0000   0.3271
  16.100   0.8857   0.20736   0.20305  -0.0815  0.0422  1.0000  -1.7203   0.0000   0.0000   0.0000   0.3273
  16.200   0.8882   0.20918   0.20487  -0.0820  0.0417  1.0000  -1.7323   0.0000   0.0000   0.0000   0.3275
  16.300   0.8909   0.21100   0.20669  -0.0824  0.0413  1.0000  -1.7472   0.0000   0.0000   0.0000   0.3275
  16.400   0.8961   0.21261   0.20852  -0.0820  0.0403  1.0000  -1.8015   0.0000   0.0000   0.0000   0.3263
  16.500   0.8999   0.21451   0.21044  -0.0820  0.0399  1.0000  -1.8343   0.0000   0.0000   0.0000   0.3258
  16.600   0.9035   0.21655   0.21248  -0.0819  0.0394  1.0000  -1.8674   0.0000   0.0000   0.0000   0.3252
  16.700   0.9070   0.21887   0.21482  -0.0818  0.0389  1.0000  -1.9004   0.0000   0.0000   0.0000   0.3246
  16.800   0.9085   0.22233   0.21829  -0.0818  0.0382  1.0000  -1.9122   0.0000   0.0000   0.0000   0.3243
  16.900   0.9025   0.22975   0.22565  -0.0831  0.0373  1.0000  -1.8061   0.0000   0.0000   0.0000   0.3264
  17.000   0.9040   0.23187   0.22777  -0.0839  0.0373  1.0000  -1.7964   0.0000   0.0000   0.0000   0.3271
  17.100   0.9055   0.23399   0.22989  -0.0848  0.0372  1.0000  -1.7868   0.0000   0.0000   0.0000   0.3278
  17.200   0.9070   0.23610   0.23200  -0.0857  0.0372  1.0000  -1.7774   0.0000   0.0000   0.0000   0.3284
  17.300   0.9086   0.23819   0.23409  -0.0866  0.0372  1.0000  -1.7681   0.0000   0.0000   0.0000   0.3291
  17.400   0.9101   0.24026   0.23616  -0.0874  0.0372  1.0000  -1.7590   0.0000   0.0000   0.0000   0.3298
  17.500   0.9116   0.24232   0.23822  -0.0883  0.0371  1.0000  -1.7500   0.0000   0.0000   0.0000   0.3305
  17.600   0.9130   0.24436   0.24026  -0.0892  0.0371  1.0000  -1.7411   0.0000   0.0000   0.0000   0.3312
  17.700   0.9145   0.24638   0.24228  -0.0900  0.0370  1.0000  -1.7322   0.0000   0.0000   0.0000   0.3319
  17.800   0.9160   0.24836   0.24427  -0.0909  0.0370  1.0000  -1.7235   0.0000   0.0000   0.0000   0.3325
  17.900   0.9174   0.25032   0.24622  -0.0918  0.0369  1.0000  -1.7147   0.0000   0.0000   0.0000   0.3332
  18.000   0.9188   0.25223   0.24814  -0.0927  0.0368  1.0000  -1.7059   0.0000   0.0000   0.0000   0.3339
  18.100   0.9202   0.25409   0.25000  -0.0935  0.0367  1.0000  -1.6970   0.0000   0.0000   0.0000   0.3346
  18.200   0.9215   0.25589   0.25180  -0.0945  0.0366  1.0000  -1.6879   0.0000   0.0000   0.0000   0.3353
  18.300   0.9224   0.25758   0.25349  -0.0955  0.0365  1.0000  -1.6742   0.0000   0.0000   0.0000   0.3362
  18.400   0.9230   0.25917   0.25508  -0.0966  0.0363  1.0000  -1.6568   0.0000   0.0000   0.0000   0.3372
  18.500   0.9229   0.26064   0.25655  -0.0979  0.0361  1.0000  -1.6346   0.0000   0.0000   0.0000   0.3385
  18.600   0.9228   0.26210   0.25801  -0.0992  0.0358  1.0000  -1.6103   0.0000   0.0000   0.0000   0.3398
  18.700   0.9230   0.26365   0.25955  -0.1005  0.0354  1.0000  -1.5862   0.0000   0.0000   0.0000   0.3411
  18.800   0.9236   0.26535   0.26126  -0.1017  0.0349  1.0000  -1.5643   0.0000   0.0000   0.0000   0.3422
  18.900   0.9245   0.26723   0.26314  -0.1028  0.0344  1.0000  -1.5460   0.0000   0.0000   0.0000   0.3431
  19.000   0.9255   0.26923   0.26514  -0.1037  0.0339  1.0000  -1.5314   0.0000   0.0000   0.0000   0.3439
  19.100   0.9265   0.27129   0.26721  -0.1046  0.0334  1.0000  -1.5196   0.0000   0.0000   0.0000   0.3446
  19.200   0.9276   0.27339   0.26931  -0.1054  0.0329  1.0000  -1.5099   0.0000   0.0000   0.0000   0.3452
  19.300   0.9286   0.27551   0.27144  -0.1062  0.0324  1.0000  -1.5017   0.0000   0.0000   0.0000   0.3458
  19.400   0.9296   0.27764   0.27357  -0.1069  0.0320  1.0000  -1.4946   0.0000   0.0000   0.0000   0.3463
  19.500   0.9306   0.27978   0.27571  -0.1076  0.0315  1.0000  -1.4884   0.0000   0.0000   0.0000   0.3468
  19.600   0.9315   0.28191   0.27785  -0.1082  0.0311  1.0000  -1.4828   0.0000   0.0000   0.0000   0.3473
  19.700   0.9323   0.28404   0.27998  -0.1089  0.0307  1.0000  -1.4779   0.0000   0.0000   0.0000   0.3478
  19.800   0.9330   0.28616   0.28211  -0.1095  0.0303  1.0000  -1.4734   0.0000   0.0000   0.0000   0.3482
  19.900   0.9337   0.28827   0.28423  -0.1101  0.0299  1.0000  -1.4693   0.0000   0.0000   0.0000   0.3487
  20.000   0.9343   0.29036   0.28633  -0.1107  0.0295  1.0000  -1.4655   0.0000   0.0000   0.0000   0.3491
  20.100   0.9348   0.29245   0.28843  -0.1113  0.0291  1.0000  -1.4621   0.0000   0.0000   0.0000   0.3495
  20.200   0.9352   0.29452   0.29050  -0.1118  0.0287  1.0000  -1.4590   0.0000   0.0000   0.0000   0.3499
  20.300   0.9355   0.29656   0.29256  -0.1124  0.0284  1.0000  -1.4562   0.0000   0.0000   0.0000   0.3503
  20.400   0.9357   0.29859   0.29459  -0.1129  0.0280  1.0000  -1.4536   0.0000   0.0000   0.0000   0.3507
  20.500   0.9357   0.30058   0.29660  -0.1134  0.0277  1.0000  -1.4512   0.0000   0.0000   0.0000   0.3511
  20.600   0.9356   0.30255   0.29857  -0.1138  0.0273  1.0000  -1.4490   0.0000   0.0000   0.0000   0.3515
  20.700   0.9353   0.30447   0.30051  -0.1143  0.0270  1.0000  -1.4469   0.0000   0.0000   0.0000   0.3519
  20.800   0.9349   0.30636   0.30240  -0.1147  0.0267  1.0000  -1.4450   0.0000   0.0000   0.0000   0.3522
  20.900   0.9342   0.30819   0.30425  -0.1150  0.0264  1.0000  -1.4431   0.0000   0.0000   0.0000   0.3526
  21.000   0.9333   0.30995   0.30603  -0.1154  0.0261  1.0000  -1.4412   0.0000   0.0000   0.0000   0.3529
  21.100   0.9320   0.31164   0.30773  -0.1156  0.0258  1.0000  -1.4392   0.0000   0.0000   0.0000   0.3533
  21.200   0.9304   0.31323   0.30933  -0.1159  0.0255  1.0000  -1.4369   0.0000   0.0000   0.0000   0.3536
  21.300   0.9283   0.31468   0.31080  -0.1160  0.0253  1.0000  -1.4339   0.0000   0.0000   0.0000   0.3540
  21.400   0.9253   0.31593   0.31206  -0.1161  0.0250  1.0000  -1.4295   0.0000   0.0000   0.0000   0.3543
  21.500   0.8939   0.31038   0.30661  -0.1129  0.0251  1.0000  -1.3483   0.0000   0.0000   0.0000   0.3556
  21.600   0.8841   0.30919   0.30545  -0.1121  0.0249  1.0000  -1.3255   0.0000   0.0000   0.0000   0.3561
  21.700   0.8776   0.30869   0.30499  -0.1117  0.0247  1.0000  -1.3119   0.0000   0.0000   0.0000   0.3566
  21.800   0.8724   0.30848   0.30479  -0.1115  0.0245  1.0000  -1.3027   0.0000   0.0000   0.0000   0.3570
  21.900   0.8682   0.30841   0.30475  -0.1113  0.0243  1.0000  -1.2966   0.0000   0.0000   0.0000   0.3574
  22.000   0.8645   0.30845   0.30481  -0.1111  0.0241  1.0000  -1.2929   0.0000   0.0000   0.0000   0.3577
  22.100   0.8613   0.30856   0.30495  -0.1110  0.0239  1.0000  -1.2915   0.0000   0.0000   0.0000   0.3580
  22.200   0.8585   0.30874   0.30514  -0.1109  0.0236  1.0000  -1.2923   0.0000   0.0000   0.0000   0.3582
  22.300   0.8560   0.30897   0.30539  -0.1108  0.0234  1.0000  -1.2954   0.0000   0.0000   0.0000   0.3583
  22.400   0.8538   0.30927   0.30571  -0.1107  0.0232  1.0000  -1.3011   0.0000   0.0000   0.0000   0.3584
  22.500   0.8520   0.30967   0.30613  -0.1105  0.0230  1.0000  -1.3096   0.0000   0.0000   0.0000   0.3584
  22.600   0.8506   0.31023   0.30671  -0.1103  0.0227  1.0000  -1.3216   0.0000   0.0000   0.0000   0.3583
  22.700   0.8498   0.31110   0.30760  -0.1100  0.0225  1.0000  -1.3383   0.0000   0.0000   0.0000   0.3579
  22.800   0.8505   0.31289   0.30941  -0.1095  0.0222  1.0000  -1.3636   0.0000   0.0000   0.0000   0.3571
  23.200   0.8425   0.31995   0.31648  -0.1097  0.0214  1.0000  -1.2742   0.0000   0.0000   0.0000   0.3584
  23.300   0.8407   0.32022   0.31677  -0.1101  0.0214  1.0000  -1.2616   0.0000   0.0000   0.0000   0.3590
  23.400   0.8389   0.32048   0.31704  -0.1104  0.0214  1.0000  -1.2492   0.0000   0.0000   0.0000   0.3596
  23.500   0.8372   0.32074   0.31732  -0.1108  0.0213  1.0000  -1.2371   0.0000   0.0000   0.0000   0.3602
  23.600   0.8356   0.32102   0.31761  -0.1111  0.0213  1.0000  -1.2252   0.0000   0.0000   0.0000   0.3608
  23.700   0.8341   0.32130   0.31791  -0.1115  0.0213  1.0000  -1.2137   0.0000   0.0000   0.0000   0.3613
  23.800   0.8326   0.32156   0.31818  -0.1119  0.0213  1.0000  -1.2021   0.0000   0.0000   0.0000   0.3619
  23.900   0.8311   0.32182   0.31845  -0.1123  0.0213  1.0000  -1.1906   0.0000   0.0000   0.0000   0.3625
  24.000   0.8298   0.32209   0.31873  -0.1127  0.0212  1.0000  -1.1794   0.0000   0.0000   0.0000   0.3631
  24.100   0.8284   0.32234   0.31900  -0.1131  0.0212  1.0000  -1.1682   0.0000   0.0000   0.0000   0.3637
  24.200   0.8270   0.32254   0.31921  -0.1135  0.0212  1.0000  -1.1557   0.0000   0.0000   0.0000   0.3644
  24.300   0.8253   0.32267   0.31935  -0.1140  0.0211  1.0000  -1.1414   0.0000   0.0000   0.0000   0.3651
  24.400   0.8238   0.32282   0.31951  -0.1145  0.0211  1.0000  -1.1273   0.0000   0.0000   0.0000   0.3658
  24.500   0.8224   0.32299   0.31969  -0.1150  0.0210  1.0000  -1.1134   0.0000   0.0000   0.0000   0.3665
  24.600   0.8211   0.32318   0.31990  -0.1155  0.0210  1.0000  -1.0997   0.0000   0.0000   0.0000   0.3672
  24.700   0.8199   0.32340   0.32012  -0.1160  0.0209  1.0000  -1.0862   0.0000   0.0000   0.0000   0.3680
  24.800   0.8189   0.32364   0.32037  -0.1166  0.0209  1.0000  -1.0726   0.0000   0.0000   0.0000   0.3687
  24.900   0.8179   0.32391   0.32066  -0.1171  0.0208  1.0000  -1.0591   0.0000   0.0000   0.0000   0.3694
  25.000   0.8172   0.32423   0.32105  -0.1177  0.0207  1.0000  -1.0458   0.0000   0.0000   0.0000   0.3701
  25.100   0.8166   0.32460   0.32143  -0.1183  0.0206  1.0000  -1.0324   0.0000   0.0000   0.0000   0.3708
  25.200   0.8161   0.32504   0.32188  -0.1190  0.0204  1.0000  -1.0188   0.0000   0.0000   0.0000   0.3715
  25.300   0.8159   0.32556   0.32241  -0.1196  0.0202  1.0000  -1.0052   0.0000   0.0000   0.0000   0.3722
  25.400   0.8158   0.32616   0.32303  -0.1203  0.0200  1.0000  -0.9920   0.0000   0.0000   0.0000   0.3729
  25.500   0.8159   0.32684   0.32371  -0.1209  0.0197  1.0000  -0.9796   0.0000   0.0000   0.0000   0.3735
  25.600   0.8160   0.32756   0.32444  -0.1215  0.0195  1.0000  -0.9685   0.0000   0.0000   0.0000   0.3740
  25.700   0.8161   0.32828   0.32518  -0.1220  0.0191  1.0000  -0.9590   0.0000   0.0000   0.0000   0.3745
  25.800   0.8161   0.32900   0.32591  -0.1225  0.0188  1.0000  -0.9508   0.0000   0.0000   0.0000   0.3749
  25.900   0.8160   0.32972   0.32664  -0.1229  0.0185  1.0000  -0.9436   0.0000   0.0000   0.0000   0.3753
  26.000   0.8160   0.33042   0.32735  -0.1234  0.0182  1.0000  -0.9373   0.0000   0.0000   0.0000   0.3757
  26.100   0.8158   0.33111   0.32805  -0.1238  0.0179  1.0000  -0.9316   0.0000   0.0000   0.0000   0.3761
  26.200   0.8157   0.33180   0.32875  -0.1242  0.0176  1.0000  -0.9265   0.0000   0.0000   0.0000   0.3765
  26.300   0.8156   0.33248   0.32944  -0.1246  0.0173  1.0000  -0.9219   0.0000   0.0000   0.0000   0.3769
  26.400   0.8155   0.33315   0.33013  -0.1250  0.0171  1.0000  -0.9176   0.0000   0.0000   0.0000   0.3772
  26.500   0.8153   0.33383   0.33082  -0.1254  0.0168  1.0000  -0.9136   0.0000   0.0000   0.0000   0.3776
  26.600   0.8152   0.33450   0.33150  -0.1258  0.0166  1.0000  -0.9100   0.0000   0.0000   0.0000   0.3780
  26.700   0.8151   0.33516   0.33218  -0.1262  0.0163  1.0000  -0.9066   0.0000   0.0000   0.0000   0.3783
  26.800   0.8150   0.33583   0.33286  -0.1266  0.0161  1.0000  -0.9035   0.0000   0.0000   0.0000   0.3787
  26.900   0.8148   0.33649   0.33353  -0.1271  0.0158  1.0000  -0.9006   0.0000   0.0000   0.0000   0.3790
  27.000   0.8147   0.33715   0.33420  -0.1275  0.0156  1.0000  -0.8979   0.0000   0.0000   0.0000   0.3794
  27.100   0.8146   0.33782   0.33488  -0.1279  0.0154  1.0000  -0.8955   0.0000   0.0000   0.0000   0.3797
  27.200   0.8145   0.33847   0.33555  -0.1283  0.0152  1.0000  -0.8932   0.0000   0.0000   0.0000   0.3800
  27.300   0.8144   0.33913   0.33622  -0.1287  0.0150  1.0000  -0.8912   0.0000   0.0000   0.0000   0.3804
  27.400   0.8143   0.33979   0.33689  -0.1291  0.0147  1.0000  -0.8893   0.0000   0.0000   0.0000   0.3807
  27.500   0.8143   0.34044   0.33755  -0.1295  0.0146  1.0000  -0.8877   0.0000   0.0000   0.0000   0.3810
  27.600   0.8142   0.34110   0.33822  -0.1299  0.0144  1.0000  -0.8862   0.0000   0.0000   0.0000   0.3814
  27.700   0.8141   0.34175   0.33888  -0.1303  0.0142  1.0000  -0.8849   0.0000   0.0000   0.0000   0.3817
  27.800   0.8141   0.34240   0.33955  -0.1307  0.0140  1.0000  -0.8838   0.0000   0.0000   0.0000   0.3820
  27.900   0.8140   0.34305   0.34021  -0.1311  0.0138  1.0000  -0.8829   0.0000   0.0000   0.0000   0.3824
  28.000   0.8139   0.34370   0.34087  -0.1315  0.0136  1.0000  -0.8822   0.0000   0.0000   0.0000   0.3827
  28.100   0.8139   0.34434   0.34152  -0.1319  0.0135  1.0000  -0.8818   0.0000   0.0000   0.0000   0.3830
  28.200   0.8138   0.34499   0.34218  -0.1323  0.0133  1.0000  -0.8815   0.0000   0.0000   0.0000   0.3833
  28.300   0.8138   0.34563   0.34283  -0.1328  0.0132  1.0000  -0.8814   0.0000   0.0000   0.0000   0.3836
  28.400   0.8137   0.34627   0.34348  -0.1332  0.0130  1.0000  -0.8815   0.0000   0.0000   0.0000   0.3839
  28.500   0.8137   0.34690   0.34413  -0.1336  0.0129  1.0000  -0.8819   0.0000   0.0000   0.0000   0.3842
  28.600   0.8137   0.34754   0.34478  -0.1340  0.0127  1.0000  -0.8825   0.0000   0.0000   0.0000   0.3845
  28.700   0.8136   0.34817   0.34542  -0.1344  0.0126  1.0000  -0.8833   0.0000   0.0000   0.0000   0.3848
  28.800   0.8136   0.34880   0.34606  -0.1348  0.0124  1.0000  -0.8843   0.0000   0.0000   0.0000   0.3851
  28.900   0.8135   0.34942   0.34670  -0.1352  0.0123  1.0000  -0.8856   0.0000   0.0000   0.0000   0.3854
  29.000   0.8135   0.35004   0.34733  -0.1356  0.0122  1.0000  -0.8872   0.0000   0.0000   0.0000   0.3857
  29.100   0.8134   0.35066   0.34796  -0.1360  0.0121  1.0000  -0.8890   0.0000   0.0000   0.0000   0.3860
  29.200   0.8134   0.35127   0.34858  -0.1364  0.0119  1.0000  -0.8912   0.0000   0.0000   0.0000   0.3863
  29.300   0.8133   0.35188   0.34920  -0.1368  0.0118  1.0000  -0.8936   0.0000   0.0000   0.0000   0.3866
  29.400   0.8133   0.35248   0.34981  -0.1372  0.0117  1.0000  -0.8963   0.0000   0.0000   0.0000   0.3868
  29.500   0.8132   0.35308   0.35042  -0.1376  0.0116  1.0000  -0.8994   0.0000   0.0000   0.0000   0.3871
  29.600   0.8132   0.35367   0.35103  -0.1380  0.0115  1.0000  -0.9028   0.0000   0.0000   0.0000   0.3874
  29.700   0.8131   0.35426   0.35163  -0.1383  0.0114  1.0000  -0.9065   0.0000   0.0000   0.0000   0.3876
  29.800   0.8130   0.35485   0.35223  -0.1387  0.0113  1.0000  -0.9107   0.0000   0.0000   0.0000   0.3879
  29.900   0.8130   0.35543   0.35282  -0.1391  0.0112  1.0000  -0.9153   0.0000   0.0000   0.0000   0.3881
  30.000   0.8129   0.35601   0.35342  -0.1394  0.0111  1.0000  -0.9203   0.0000   0.0000   0.0000   0.3883


