xflr5 v6.61

 Calculated polar for: E178

 1 1 Reynolds number fixed          Mach number fixed         

 xtrf =   1.000 (top)        1.000 (bottom)
 Mach =   0.000     Re =     0.688 e 6     Ncrit =   9.000

  alpha     CL        CD       CDp       Cm    Top Xtr Bot Xtr   Cpmin    Chinge    XCp    
 ------- -------- --------- --------- -------- ------- ------- -------- --------- ---------
 -10.000  -0.4603   0.11940   0.11740   0.0052  1.0000  0.0118  -1.6400   0.0000   0.0000   0.0000   0.2567
  -9.900  -0.4580   0.11788   0.11589   0.0045  1.0000  0.0118  -1.6468   0.0000   0.0000   0.0000   0.2552
  -9.800  -0.4558   0.11637   0.11438   0.0038  1.0000  0.0118  -1.6540   0.0000   0.0000   0.0000   0.2538
  -9.700  -0.4536   0.11485   0.11286   0.0031  1.0000  0.0118  -1.6614   0.0000   0.0000   0.0000   0.2523
  -9.600  -0.4514   0.11330   0.11132   0.0024  1.0000  0.0118  -1.6694   0.0000   0.0000   0.0000   0.2508
  -9.500  -0.4493   0.11174   0.10976   0.0017  1.0000  0.0118  -1.6780   0.0000   0.0000   0.0000   0.2493
  -9.400  -0.4473   0.11017   0.10820   0.0010  1.0000  0.0118  -1.6868   0.0000   0.0000   0.0000   0.2478
  -9.300  -0.4453   0.10861   0.10665   0.0003  1.0000  0.0118  -1.6960   0.0000   0.0000   0.0000   0.2463
  -9.200  -0.4433   0.10704   0.10509  -0.0004  1.0000  0.0118  -1.7055   0.0000   0.0000   0.0000   0.2448
  -9.100  -0.4414   0.10548   0.10353  -0.0011  1.0000  0.0118  -1.7154   0.0000   0.0000   0.0000   0.2432
  -9.000  -0.4395   0.10392   0.10198  -0.0018  1.0000  0.0118  -1.7256   0.0000   0.0000   0.0000   0.2417
  -8.900  -0.4378   0.10236   0.10043  -0.0025  1.0000  0.0118  -1.7362   0.0000   0.0000   0.0000   0.2401
  -8.800  -0.4361   0.10082   0.09889  -0.0032  1.0000  0.0118  -1.7473   0.0000   0.0000   0.0000   0.2385
  -8.700  -0.4345   0.09928   0.09736  -0.0039  1.0000  0.0118  -1.7587   0.0000   0.0000   0.0000   0.2369
  -8.600  -0.4330   0.09774   0.09583  -0.0046  1.0000  0.0118  -1.7707   0.0000   0.0000   0.0000   0.2353
  -8.500  -0.4314   0.09618   0.09428  -0.0054  1.0000  0.0118  -1.7830   0.0000   0.0000   0.0000   0.2336
  -8.400  -0.4298   0.09460   0.09271  -0.0061  1.0000  0.0118  -1.7958   0.0000   0.0000   0.0000   0.2317
  -8.300  -0.4283   0.09302   0.09114  -0.0069  1.0000  0.0118  -1.8091   0.0000   0.0000   0.0000   0.2299
  -8.200  -0.4268   0.09144   0.08957  -0.0077  1.0000  0.0118  -1.8231   0.0000   0.0000   0.0000   0.2280
  -8.100  -0.4255   0.08986   0.08800  -0.0086  1.0000  0.0118  -1.8377   0.0000   0.0000   0.0000   0.2261
  -8.000  -0.4243   0.08829   0.08644  -0.0094  1.0000  0.0118  -1.8529   0.0000   0.0000   0.0000   0.2241
  -7.900  -0.4232   0.08671   0.08487  -0.0102  1.0000  0.0118  -1.8690   0.0000   0.0000   0.0000   0.2221
  -7.800  -0.4222   0.08513   0.08330  -0.0111  1.0000  0.0118  -1.8858   0.0000   0.0000   0.0000   0.2200
  -7.700  -0.4212   0.08353   0.08171  -0.0121  1.0000  0.0117  -1.9036   0.0000   0.0000   0.0000   0.2178
  -7.600  -0.4205   0.08193   0.08013  -0.0130  1.0000  0.0117  -1.9224   0.0000   0.0000   0.0000   0.2155
  -7.500  -0.4200   0.08033   0.07854  -0.0140  1.0000  0.0117  -1.9423   0.0000   0.0000   0.0000   0.2131
  -7.400  -0.4198   0.07872   0.07696  -0.0151  1.0000  0.0117  -1.9636   0.0000   0.0000   0.0000   0.2106
  -7.300  -0.4141   0.07636   0.07459  -0.0184  0.9598  0.0117  -1.9903   0.0000   0.0000   0.0000   0.2021
  -7.200  -0.4082   0.07395   0.07212  -0.0219  0.9299  0.0117  -2.0204   0.0000   0.0000   0.0000   0.1930
  -7.100  -0.4069   0.07210   0.07021  -0.0236  0.9069  0.0117  -2.0494   0.0000   0.0000   0.0000   0.1887
  -7.000  -0.4062   0.07029   0.06833  -0.0251  0.8890  0.0117  -2.0800   0.0000   0.0000   0.0000   0.1851
  -6.900  -0.4047   0.06826   0.06627  -0.0268  0.8758  0.0116  -2.1152   0.0000   0.0000   0.0000   0.1806
  -6.800  -0.4032   0.06616   0.06410  -0.0285  0.8629  0.0116  -2.1555   0.0000   0.0000   0.0000   0.1762
  -6.700  -0.4015   0.06380   0.06168  -0.0305  0.8526  0.0115  -2.2082   0.0000   0.0000   0.0000   0.1712
  -6.600  -0.4013   0.06065   0.05848  -0.0329  0.8446  0.0113  -2.3102   0.0000   0.0000   0.0000   0.1650
  -6.500  -0.4042   0.05612   0.05387  -0.0363  0.8363  0.0107  -2.5104   0.0000   0.0000   0.0000   0.1572
  -6.400  -0.4033   0.05245   0.05009  -0.0387  0.8283  0.0102  -2.6518   0.0000   0.0000   0.0000   0.1509
  -6.200  -0.3971   0.04576   0.04315  -0.0423  0.8141  0.0092  -2.8972   0.0000   0.0000   0.0000   0.1403
  -6.100  -0.3925   0.04237   0.03964  -0.0437  0.8101  0.0088  -3.0299   0.0000   0.0000   0.0000   0.1355
  -6.000  -0.3876   0.03891   0.03601  -0.0447  0.8057  0.0083  -3.1808   0.0000   0.0000   0.0000   0.1314
  -5.900  -0.3826   0.03525   0.03215  -0.0454  0.8011  0.0078  -3.3634   0.0000   0.0000   0.0000   0.1279
  -5.800  -0.3775   0.03127   0.02791  -0.0457  0.7966  0.0073  -3.5971   0.0000   0.0000   0.0000   0.1253
  -5.700  -0.3728   0.02689   0.02316  -0.0456  0.7921  0.0067  -3.9054   0.0000   0.0000   0.0000   0.1238
  -5.600  -0.3676   0.02263   0.01844  -0.0451  0.7876  0.0062  -4.2436   0.0000   0.0000   0.0000   0.1233
  -5.500  -0.3607   0.01959   0.01499  -0.0444  0.7823  0.0059  -4.4667   0.0000   0.0000   0.0000   0.1226
  -5.300  -0.3431   0.01619   0.01105  -0.0435  0.7718  0.0057  -4.5915   0.0000   0.0000   0.0000   0.1188
  -5.200  -0.3332   0.01513   0.00982  -0.0432  0.7693  0.0057  -4.5686   0.0000   0.0000   0.0000   0.1159
  -5.100  -0.3231   0.01432   0.00888  -0.0430  0.7663  0.0057  -4.5116   0.0000   0.0000   0.0000   0.1125
  -5.000  -0.3128   0.01368   0.00814  -0.0428  0.7628  0.0058  -4.4323   0.0000   0.0000   0.0000   0.1089
  -4.900  -0.3024   0.01317   0.00753  -0.0426  0.7589  0.0060  -4.3379   0.0000   0.0000   0.0000   0.1048
  -4.800  -0.2919   0.01274   0.00702  -0.0424  0.7548  0.0061  -4.2332   0.0000   0.0000   0.0000   0.1004
  -4.700  -0.2814   0.01238   0.00658  -0.0422  0.7507  0.0064  -4.1218   0.0000   0.0000   0.0000   0.0956
  -4.600  -0.2709   0.01207   0.00620  -0.0420  0.7465  0.0066  -4.0054   0.0000   0.0000   0.0000   0.0904
  -4.500  -0.2603   0.01181   0.00588  -0.0419  0.7422  0.0070  -3.8859   0.0000   0.0000   0.0000   0.0846
  -4.400  -0.2496   0.01160   0.00561  -0.0418  0.7374  0.0074  -3.7648   0.0000   0.0000   0.0000   0.0781
  -4.300  -0.2389   0.01144   0.00540  -0.0417  0.7321  0.0078  -3.6430   0.0000   0.0000   0.0000   0.0710
  -4.200  -0.2281   0.01131   0.00523  -0.0416  0.7271  0.0082  -3.5207   0.0000   0.0000   0.0000   0.0629
  -4.100  -0.2170   0.01118   0.00509  -0.0416  0.7258  0.0087  -3.3968   0.0000   0.0000   0.0000   0.0536
  -4.000  -0.2060   0.01107   0.00499  -0.0416  0.7243  0.0092  -3.2712   0.0000   0.0000   0.0000   0.0433
  -3.900  -0.1949   0.01101   0.00492  -0.0416  0.7226  0.0097  -3.1425   0.0000   0.0000   0.0000   0.0316
  -3.800  -0.1837   0.01099   0.00491  -0.0417  0.7206  0.0102  -3.0072   0.0000   0.0000   0.0000   0.0183
  -3.700  -0.1725   0.01105   0.00499  -0.0417  0.7183  0.0106  -2.8616   0.0000   0.0000   0.0000   0.0030
  -3.600  -0.1611   0.01119   0.00516  -0.0419  0.7158  0.0110  -2.7028   0.0000   0.0000   0.0000  -0.0149
  -3.500  -0.1496   0.01149   0.00550  -0.0420  0.7132  0.0114  -2.5260   0.0000   0.0000   0.0000  -0.0362
  -2.700  -0.0632   0.01051   0.00420  -0.0420  0.6863  0.0224  -1.6759   0.0000   0.0000   0.0000  -0.4224
  -2.600  -0.0526   0.01015   0.00375  -0.0418  0.6816  0.0217  -1.6504   0.0000   0.0000   0.0000  -0.5542
  -2.500  -0.0417   0.00983   0.00336  -0.0416  0.6792  0.0212  -1.6198   0.0000   0.0000   0.0000  -0.7577
  -2.400  -0.0308   0.00955   0.00303  -0.0414  0.6783  0.0207  -1.5849   0.0000   0.0000   0.0000  -1.1103
  -2.300  -0.0197   0.00932   0.00274  -0.0413  0.6771  0.0203  -1.5468   0.0000   0.0000   0.0000  -1.8630
  -2.200  -0.0086   0.00913   0.00249  -0.0412  0.6758  0.0200  -1.5058   0.0000   0.0000   0.0000  -4.5709
  -2.100   0.0026   0.00897   0.00228  -0.0411  0.6743  0.0198  -1.4623   0.0000   0.0000   0.0000  16.4943
  -2.000   0.0138   0.00883   0.00210  -0.0410  0.6727  0.0196  -1.4165   0.0000   0.0000   0.0000   3.2527
  -1.900   0.0250   0.00873   0.00195  -0.0410  0.6711  0.0195  -1.3677   0.0000   0.0000   0.0000   1.8997
  -1.800   0.0363   0.00864   0.00181  -0.0409  0.6693  0.0195  -1.3165   0.0000   0.0000   0.0000   1.3857
  -1.700   0.0476   0.00857   0.00169  -0.0409  0.6674  0.0197  -1.2645   0.0000   0.0000   0.0000   1.1151
  -1.600   0.0589   0.00851   0.00158  -0.0408  0.6654  0.0201  -1.2135   0.0000   0.0000   0.0000   0.9483
  -1.500   0.0701   0.00844   0.00147  -0.0408  0.6633  0.0214  -1.1686   0.0000   0.0000   0.0000   0.8350
  -1.400   0.0808   0.00814   0.00135  -0.0407  0.6611  0.0653  -1.1499   0.0000   0.0000   0.0000   0.7564
  -1.300   0.0913   0.00789   0.00130  -0.0407  0.6588  0.1179  -1.0883   0.0000   0.0000   0.0000   0.6981
  -1.200   0.1022   0.00780   0.00128  -0.0407  0.6565  0.1411  -1.0208   0.0000   0.0000   0.0000   0.6500
  -1.100   0.1131   0.00769   0.00125  -0.0407  0.6540  0.1650  -0.9534   0.0000   0.0000   0.0000   0.6115
  -1.000   0.1240   0.00761   0.00123  -0.0407  0.6514  0.1884  -0.8863   0.0000   0.0000   0.0000   0.5795
  -0.900   0.1349   0.00754   0.00120  -0.0407  0.6486  0.2091  -0.8199   0.0000   0.0000   0.0000   0.5527
  -0.800   0.1457   0.00746   0.00119  -0.0408  0.6455  0.2357  -0.7547   0.0000   0.0000   0.0000   0.5301
  -0.700   0.1567   0.00741   0.00118  -0.0408  0.6420  0.2563  -0.6900   0.0000   0.0000   0.0000   0.5105
  -0.600   0.1675   0.00734   0.00118  -0.0408  0.6383  0.2845  -0.6269   0.0000   0.0000   0.0000   0.4936
  -0.500   0.1785   0.00730   0.00118  -0.0408  0.6344  0.3055  -0.5643   0.0000   0.0000   0.0000   0.4786
  -0.400   0.1893   0.00723   0.00120  -0.0408  0.6310  0.3375  -0.5035   0.0000   0.0000   0.0000   0.4655
  -0.300   0.2002   0.00711   0.00119  -0.0409  0.6304  0.3736  -0.4899   0.0000   0.0000   0.0000   0.4538
  -0.200   0.2109   0.00695   0.00119  -0.0409  0.6297  0.4205  -0.4961   0.0000   0.0000   0.0000   0.4433
  -0.100   0.2214   0.00679   0.00119  -0.0408  0.6289  0.4714  -0.5023   0.0000   0.0000   0.0000   0.4338
   0.000   0.2320   0.00664   0.00119  -0.0408  0.6279  0.5187  -0.5085   0.0000   0.0000   0.0000   0.4251
   0.100   0.2424   0.00649   0.00119  -0.0407  0.6267  0.5670  -0.5149   0.0000   0.0000   0.0000   0.4171
   0.200   0.2527   0.00634   0.00119  -0.0406  0.6254  0.6150  -0.5218   0.0000   0.0000   0.0000   0.4097
   0.300   0.2627   0.00618   0.00120  -0.0404  0.6238  0.6678  -0.5285   0.0000   0.0000   0.0000   0.4027
   0.400   0.2723   0.00601   0.00121  -0.0400  0.6221  0.7242  -0.5351   0.0000   0.0000   0.0000   0.3960
   0.500   0.2815   0.00584   0.00122  -0.0396  0.6202  0.7794  -0.5415   0.0000   0.0000   0.0000   0.3894
   0.600   0.2904   0.00569   0.00124  -0.0390  0.6183  0.8306  -0.5478   0.0000   0.0000   0.0000   0.3830
   0.700   0.2994   0.00555   0.00126  -0.0383  0.6164  0.8865  -0.5542   0.0000   0.0000   0.0000   0.3767
   0.800   0.3204   0.00546   0.00128  -0.0403  0.6143  0.9571  -0.5664   0.0000   0.0000   0.0000   0.3743
   0.900   0.3535   0.00544   0.00128  -0.0451  0.6119  1.0000  -0.5844   0.0000   0.0000   0.0000   0.3763
   1.000   0.3642   0.00546   0.00128  -0.0450  0.6095  1.0000  -0.5914   0.0000   0.0000   0.0000   0.3722
   1.100   0.3748   0.00549   0.00128  -0.0449  0.6069  1.0000  -0.5985   0.0000   0.0000   0.0000   0.3684
   1.200   0.3854   0.00551   0.00128  -0.0448  0.6038  1.0000  -0.6070   0.0000   0.0000   0.0000   0.3647
   1.300   0.3960   0.00554   0.00128  -0.0447  0.6002  1.0000  -0.6160   0.0000   0.0000   0.0000   0.3613
   1.400   0.4066   0.00558   0.00128  -0.0446  0.5958  1.0000  -0.6250   0.0000   0.0000   0.0000   0.3580
   1.500   0.4171   0.00564   0.00130  -0.0445  0.5908  1.0000  -0.6340   0.0000   0.0000   0.0000   0.3549
   1.600   0.4278   0.00570   0.00133  -0.0444  0.5858  1.0000  -0.6437   0.0000   0.0000   0.0000   0.3520
   1.700   0.4385   0.00576   0.00137  -0.0444  0.5817  1.0000  -0.6550   0.0000   0.0000   0.0000   0.3493
   1.800   0.4493   0.00576   0.00138  -0.0443  0.5810  1.0000  -0.6671   0.0000   0.0000   0.0000   0.3467
   1.900   0.4602   0.00576   0.00138  -0.0443  0.5801  1.0000  -0.6791   0.0000   0.0000   0.0000   0.3441
   2.000   0.4710   0.00577   0.00139  -0.0442  0.5789  1.0000  -0.6921   0.0000   0.0000   0.0000   0.3417
   2.100   0.4819   0.00577   0.00139  -0.0441  0.5772  1.0000  -0.7061   0.0000   0.0000   0.0000   0.3394
   2.200   0.4928   0.00577   0.00140  -0.0441  0.5753  1.0000  -0.7211   0.0000   0.0000   0.0000   0.3372
   2.300   0.5037   0.00578   0.00141  -0.0440  0.5730  1.0000  -0.7377   0.0000   0.0000   0.0000   0.3351
   2.400   0.5145   0.00579   0.00142  -0.0440  0.5706  1.0000  -0.7543   0.0000   0.0000   0.0000   0.3331
   2.500   0.5254   0.00581   0.00143  -0.0439  0.5679  1.0000  -0.7710   0.0000   0.0000   0.0000   0.3312
   2.600   0.5362   0.00583   0.00144  -0.0439  0.5649  1.0000  -0.7877   0.0000   0.0000   0.0000   0.3293
   2.700   0.5471   0.00585   0.00145  -0.0438  0.5615  1.0000  -0.8060   0.0000   0.0000   0.0000   0.3275
   2.800   0.5578   0.00588   0.00146  -0.0437  0.5575  1.0000  -0.8262   0.0000   0.0000   0.0000   0.3258
   2.900   0.5685   0.00592   0.00147  -0.0437  0.5530  1.0000  -0.8465   0.0000   0.0000   0.0000   0.3241
   3.000   0.5792   0.00596   0.00149  -0.0436  0.5481  1.0000  -0.8668   0.0000   0.0000   0.0000   0.3224
   3.100   0.5899   0.00602   0.00151  -0.0435  0.5426  1.0000  -0.8914   0.0000   0.0000   0.0000   0.3209
   3.200   0.6006   0.00608   0.00155  -0.0435  0.5370  1.0000  -0.9163   0.0000   0.0000   0.0000   0.3194
   3.300   0.6114   0.00614   0.00160  -0.0434  0.5326  1.0000  -0.9414   0.0000   0.0000   0.0000   0.3180
   3.400   0.6224   0.00615   0.00163  -0.0434  0.5316  1.0000  -0.9670   0.0000   0.0000   0.0000   0.3166
   3.500   0.6334   0.00616   0.00165  -0.0434  0.5300  1.0000  -0.9948   0.0000   0.0000   0.0000   0.3153
   3.600   0.6444   0.00617   0.00167  -0.0434  0.5279  1.0000  -1.0280   0.0000   0.0000   0.0000   0.3140
   3.700   0.6554   0.00618   0.00170  -0.0433  0.5247  1.0000  -1.0613   0.0000   0.0000   0.0000   0.3128
   3.800   0.6663   0.00620   0.00172  -0.0433  0.5206  1.0000  -1.0948   0.0000   0.0000   0.0000   0.3116
   3.900   0.6772   0.00623   0.00174  -0.0433  0.5159  1.0000  -1.1284   0.0000   0.0000   0.0000   0.3104
   4.000   0.6879   0.00627   0.00177  -0.0432  0.5103  1.0000  -1.1621   0.0000   0.0000   0.0000   0.3092
   4.100   0.6986   0.00632   0.00180  -0.0431  0.5046  1.0000  -1.1959   0.0000   0.0000   0.0000   0.3081
   4.200   0.7093   0.00638   0.00183  -0.0431  0.4990  1.0000  -1.2298   0.0000   0.0000   0.0000   0.3070
   4.300   0.7200   0.00645   0.00187  -0.0430  0.4925  1.0000  -1.2696   0.0000   0.0000   0.0000   0.3059
   4.400   0.7307   0.00652   0.00192  -0.0430  0.4856  1.0000  -1.3361   0.0000   0.0000   0.0000   0.3049
   4.500   0.7300   0.00823   0.00244  -0.0419  0.2363  1.0000  -1.4212   0.0000   0.0000   0.0000   0.3033
   4.600   0.7326   0.00967   0.00305  -0.0413  0.0915  1.0000  -1.5033   0.0000   0.0000   0.0000   0.3022
   4.700   0.7378   0.01069   0.00359  -0.0408  0.0095  1.0000  -1.5805   0.0000   0.0000   0.0000   0.3010
   4.800   0.7481   0.01082   0.00368  -0.0407  0.0080  1.0000  -1.6907   0.0000   0.0000   0.0000   0.3001
   4.900   0.7586   0.01092   0.00377  -0.0406  0.0070  1.0000  -1.7991   0.0000   0.0000   0.0000   0.2991
   5.000   0.7690   0.01103   0.00388  -0.0405  0.0064  1.0000  -1.9045   0.0000   0.0000   0.0000   0.2981
   5.100   0.7795   0.01114   0.00400  -0.0404  0.0060  1.0000  -2.0081   0.0000   0.0000   0.0000   0.2972
   5.200   0.7899   0.01124   0.00411  -0.0403  0.0058  1.0000  -2.1108   0.0000   0.0000   0.0000   0.2963
   5.300   0.8004   0.01135   0.00424  -0.0402  0.0056  1.0000  -2.2132   0.0000   0.0000   0.0000   0.2955
   5.400   0.8108   0.01146   0.00437  -0.0401  0.0054  1.0000  -2.3160   0.0000   0.0000   0.0000   0.2946
   5.500   0.8212   0.01157   0.00451  -0.0400  0.0054  1.0000  -2.4193   0.0000   0.0000   0.0000   0.2937
   5.600   0.8315   0.01169   0.00466  -0.0399  0.0053  1.0000  -2.5232   0.0000   0.0000   0.0000   0.2929
   5.700   0.8418   0.01182   0.00483  -0.0398  0.0053  1.0000  -2.6276   0.0000   0.0000   0.0000   0.2921
   5.800   0.8520   0.01197   0.00500  -0.0396  0.0053  1.0000  -2.7324   0.0000   0.0000   0.0000   0.2912
   5.900   0.8622   0.01212   0.00519  -0.0395  0.0053  1.0000  -2.8372   0.0000   0.0000   0.0000   0.2904
   6.000   0.8723   0.01228   0.00539  -0.0393  0.0053  1.0000  -2.9417   0.0000   0.0000   0.0000   0.2896
   6.100   0.8823   0.01246   0.00560  -0.0392  0.0054  1.0000  -3.0450   0.0000   0.0000   0.0000   0.2888
   6.200   0.8922   0.01266   0.00585  -0.0390  0.0055  1.0000  -3.1454   0.0000   0.0000   0.0000   0.2879
   6.300   0.9019   0.01289   0.00612  -0.0387  0.0057  1.0000  -3.2410   0.0000   0.0000   0.0000   0.2871
   6.400   0.9115   0.01315   0.00644  -0.0384  0.0058  1.0000  -3.3286   0.0000   0.0000   0.0000   0.2862
   6.500   0.9208   0.01345   0.00680  -0.0381  0.0061  1.0000  -3.4055   0.0000   0.0000   0.0000   0.2853
   6.600   0.9297   0.01381   0.00724  -0.0377  0.0063  1.0000  -3.4723   0.0000   0.0000   0.0000   0.2844
   6.700   0.9381   0.01425   0.00776  -0.0372  0.0067  1.0000  -3.5286   0.0000   0.0000   0.0000   0.2834
   6.800   0.9458   0.01478   0.00837  -0.0366  0.0071  1.0000  -3.5739   0.0000   0.0000   0.0000   0.2823
   6.900   0.9529   0.01541   0.00910  -0.0359  0.0076  1.0000  -3.6058   0.0000   0.0000   0.0000   0.2811
   7.000   0.9589   0.01618   0.00998  -0.0350  0.0082  1.0000  -3.6206   0.0000   0.0000   0.0000   0.2799
   7.100   0.9635   0.01722   0.01113  -0.0339  0.0090  1.0000  -3.6057   0.0000   0.0000   0.0000   0.2784
   7.200   0.9677   0.01854   0.01253  -0.0326  0.0106  1.0000  -3.5456   0.0000   0.0000   0.0000   0.2768
   7.300   0.9816   0.01805   0.01203  -0.0327  0.0126  1.0000  -3.6880   0.0000   0.0000   0.0000   0.2763
   8.700   1.0548   0.04459   0.04039  -0.0219  0.0214  1.0000  -3.5593   0.0000   0.0000   0.0000   0.2624
   8.800   1.0592   0.04496   0.04086  -0.0212  0.0213  1.0000  -3.6213   0.0000   0.0000   0.0000   0.2616
   8.900   1.0892   0.03853   0.03435  -0.0215  0.0184  1.0000  -4.0507   0.0000   0.0000   0.0000   0.2611
   9.000   1.0975   0.03836   0.03420  -0.0212  0.0166  1.0000  -4.1920   0.0000   0.0000   0.0000   0.2605
   9.100   1.1038   0.03850   0.03435  -0.0210  0.0152  1.0000  -4.3305   0.0000   0.0000   0.0000   0.2600
   9.200   1.1100   0.03859   0.03442  -0.0208  0.0140  1.0000  -4.4897   0.0000   0.0000   0.0000   0.2596
   9.300   1.1166   0.03860   0.03437  -0.0207  0.0130  1.0000  -4.6774   0.0000   0.0000   0.0000   0.2593
   9.400   1.1203   0.03894   0.03471  -0.0204  0.0122  1.0000  -4.8289   0.0000   0.0000   0.0000   0.2588
   9.500   1.1218   0.03990   0.03569  -0.0200  0.0115  1.0000  -4.9399   0.0000   0.0000   0.0000   0.2583
   9.600   1.1169   0.04258   0.03848  -0.0192  0.0108  1.0000  -4.9109   0.0000   0.0000   0.0000   0.2576
   9.700   1.1063   0.04599   0.04208  -0.0179  0.0104  1.0000  -4.7836   0.0000   0.0000   0.0000   0.2566
   9.800   1.0946   0.04907   0.04535  -0.0167  0.0102  1.0000  -4.6589   0.0000   0.0000   0.0000   0.2555
   9.900   1.0832   0.05174   0.04817  -0.0155  0.0101  1.0000  -4.5539   0.0000   0.0000   0.0000   0.2545
  10.000   1.0724   0.05368   0.05022  -0.0141  0.0100  1.0000  -4.4829   0.0000   0.0000   0.0000   0.2532
  10.100   1.0621   0.05534   0.05198  -0.0128  0.0100  1.0000  -4.4288   0.0000   0.0000   0.0000   0.2520
  10.200   1.0524   0.05696   0.05368  -0.0119  0.0099  1.0000  -4.3821   0.0000   0.0000   0.0000   0.2512
  10.300   1.0432   0.05857   0.05536  -0.0112  0.0099  1.0000  -4.3413   0.0000   0.0000   0.0000   0.2505
  10.400   1.0344   0.06023   0.05709  -0.0109  0.0099  1.0000  -4.3033   0.0000   0.0000   0.0000   0.2501
  10.500   1.0263   0.06182   0.05873  -0.0107  0.0099  1.0000  -4.2748   0.0000   0.0000   0.0000   0.2499
  10.600   1.0197   0.06320   0.06016  -0.0107  0.0099  1.0000  -4.2655   0.0000   0.0000   0.0000   0.2498
  10.700   1.0133   0.06467   0.06169  -0.0108  0.0099  1.0000  -4.2554   0.0000   0.0000   0.0000   0.2499
  10.800   1.0068   0.06626   0.06334  -0.0111  0.0099  1.0000  -4.2427   0.0000   0.0000   0.0000   0.2501
  10.900   1.0004   0.06794   0.06507  -0.0116  0.0099  1.0000  -4.2285   0.0000   0.0000   0.0000   0.2505
  11.000   0.9937   0.06974   0.06693  -0.0122  0.0098  1.0000  -4.2106   0.0000   0.0000   0.0000   0.2511
  11.100   0.9873   0.07160   0.06885  -0.0129  0.0098  1.0000  -4.1918   0.0000   0.0000   0.0000   0.2517
  11.200   0.9803   0.07361   0.07091  -0.0138  0.0098  1.0000  -4.1671   0.0000   0.0000   0.0000   0.2526
  11.300   0.9735   0.07562   0.07296  -0.0147  0.0099  1.0000  -4.1420   0.0000   0.0000   0.0000   0.2535
  11.400   0.9661   0.07774   0.07513  -0.0157  0.0099  1.0000  -4.1111   0.0000   0.0000   0.0000   0.2545
  11.500   0.9590   0.07997   0.07740  -0.0169  0.0099  1.0000  -4.0795   0.0000   0.0000   0.0000   0.2557
  11.600   0.9523   0.08228   0.07976  -0.0181  0.0099  1.0000  -4.0475   0.0000   0.0000   0.0000   0.2570
  11.700   0.9462   0.08454   0.08209  -0.0195  0.0099  1.0000  -4.0249   0.0000   0.0000   0.0000   0.2584
  11.800   0.9412   0.08674   0.08432  -0.0208  0.0099  1.0000  -4.0100   0.0000   0.0000   0.0000   0.2598
  11.900   0.9365   0.08895   0.08657  -0.0222  0.0099  1.0000  -3.9977   0.0000   0.0000   0.0000   0.2613
  12.000   0.9322   0.09118   0.08883  -0.0238  0.0099  1.0000  -3.9882   0.0000   0.0000   0.0000   0.2629
  12.100   0.9279   0.09350   0.09120  -0.0253  0.0099  1.0000  -3.9737   0.0000   0.0000   0.0000   0.2646
  12.200   0.9241   0.09581   0.09353  -0.0269  0.0100  1.0000  -3.9650   0.0000   0.0000   0.0000   0.2663
  12.300   0.9205   0.09817   0.09593  -0.0286  0.0100  1.0000  -3.9544   0.0000   0.0000   0.0000   0.2681
  12.400   0.9170   0.10060   0.09839  -0.0302  0.0100  1.0000  -3.9407   0.0000   0.0000   0.0000   0.2700
  12.500   0.9140   0.10302   0.10084  -0.0320  0.0100  1.0000  -3.9320   0.0000   0.0000   0.0000   0.2719
  12.600   0.9111   0.10553   0.10338  -0.0338  0.0101  1.0000  -3.9172   0.0000   0.0000   0.0000   0.2738
  12.700   0.9085   0.10809   0.10596  -0.0356  0.0101  1.0000  -3.9044   0.0000   0.0000   0.0000   0.2759
  12.800   0.9062   0.11072   0.10861  -0.0374  0.0102  1.0000  -3.8882   0.0000   0.0000   0.0000   0.2779
  12.900   0.9041   0.11341   0.11133  -0.0393  0.0102  1.0000  -3.8701   0.0000   0.0000   0.0000   0.2800
  13.000   0.9022   0.11617   0.11412  -0.0412  0.0102  1.0000  -3.8487   0.0000   0.0000   0.0000   0.2821
  13.100   0.9006   0.11901   0.11698  -0.0431  0.0103  1.0000  -3.8239   0.0000   0.0000   0.0000   0.2842
  13.200   0.8991   0.12192   0.11991  -0.0450  0.0104  1.0000  -3.7923   0.0000   0.0000   0.0000   0.2863
  13.300   0.8978   0.12495   0.12295  -0.0468  0.0104  1.0000  -3.7552   0.0000   0.0000   0.0000   0.2885
  13.400   0.8965   0.12808   0.12611  -0.0487  0.0105  1.0000  -3.7072   0.0000   0.0000   0.0000   0.2906
  13.500   0.8952   0.13137   0.12941  -0.0505  0.0106  1.0000  -3.6459   0.0000   0.0000   0.0000   0.2926
  13.600   0.8936   0.13489   0.13294  -0.0522  0.0107  1.0000  -3.5629   0.0000   0.0000   0.0000   0.2947
  13.700   0.8914   0.13853   0.13658  -0.0539  0.0107  1.0000  -3.4628   0.0000   0.0000   0.0000   0.2968
  13.800   0.8888   0.14193   0.13997  -0.0556  0.0107  1.0000  -3.3687   0.0000   0.0000   0.0000   0.2988
  13.900   0.8858   0.14506   0.14310  -0.0572  0.0106  1.0000  -3.2763   0.0000   0.0000   0.0000   0.3008
  14.000   0.8824   0.14817   0.14621  -0.0588  0.0105  1.0000  -3.1762   0.0000   0.0000   0.0000   0.3029
  14.100   0.8781   0.15160   0.14963  -0.0606  0.0104  1.0000  -3.0527   0.0000   0.0000   0.0000   0.3052
  14.200   0.8598   0.16006   0.15792  -0.0646  0.0098  1.0000  -2.5797   0.0000   0.0000   0.0000   0.3117
  14.300   0.8606   0.16230   0.16016  -0.0657  0.0098  1.0000  -2.5510   0.0000   0.0000   0.0000   0.3128
  14.400   0.8617   0.16448   0.16234  -0.0668  0.0098  1.0000  -2.5278   0.0000   0.0000   0.0000   0.3140
  14.500   0.8633   0.16653   0.16439  -0.0679  0.0097  1.0000  -2.5148   0.0000   0.0000   0.0000   0.3150
  14.600   0.8681   0.16778   0.16564  -0.0688  0.0095  1.0000  -2.5660   0.0000   0.0000   0.0000   0.3155
  14.700   0.8747   0.16858   0.16644  -0.0693  0.0088  1.0000  -2.6522   0.0000   0.0000   0.0000   0.3153
  15.100   0.8770   0.17766   0.17562  -0.0735  0.0089  1.0000  -2.5170   0.0000   0.0000   0.0000   0.3196
  15.200   0.8791   0.17962   0.17758  -0.0744  0.0087  1.0000  -2.5090   0.0000   0.0000   0.0000   0.3203
  15.300   0.8813   0.18157   0.17954  -0.0753  0.0085  1.0000  -2.5029   0.0000   0.0000   0.0000   0.3210
  15.400   0.8834   0.18360   0.18156  -0.0762  0.0082  1.0000  -2.4922   0.0000   0.0000   0.0000   0.3217
  15.500   0.8852   0.18569   0.18366  -0.0772  0.0079  1.0000  -2.4774   0.0000   0.0000   0.0000   0.3225
  15.600   0.8869   0.18785   0.18582  -0.0781  0.0077  1.0000  -2.4588   0.0000   0.0000   0.0000   0.3234
  15.700   0.8884   0.19006   0.18802  -0.0791  0.0074  1.0000  -2.4379   0.0000   0.0000   0.0000   0.3242
  15.800   0.8899   0.19225   0.19021  -0.0801  0.0072  1.0000  -2.4188   0.0000   0.0000   0.0000   0.3251
  15.900   0.8913   0.19443   0.19240  -0.0811  0.0070  1.0000  -2.4012   0.0000   0.0000   0.0000   0.3259
  16.000   0.8927   0.19661   0.19457  -0.0821  0.0068  1.0000  -2.3849   0.0000   0.0000   0.0000   0.3268
  16.100   0.8942   0.19877   0.19673  -0.0830  0.0065  1.0000  -2.3710   0.0000   0.0000   0.0000   0.3276
  16.200   0.8957   0.20091   0.19887  -0.0840  0.0063  1.0000  -2.3598   0.0000   0.0000   0.0000   0.3284
  16.300   0.8973   0.20302   0.20099  -0.0849  0.0061  1.0000  -2.3509   0.0000   0.0000   0.0000   0.3292
  16.400   0.8989   0.20512   0.20309  -0.0858  0.0060  1.0000  -2.3445   0.0000   0.0000   0.0000   0.3299
  16.500   0.9005   0.20721   0.20517  -0.0867  0.0058  1.0000  -2.3405   0.0000   0.0000   0.0000   0.3306
  16.600   0.9022   0.20927   0.20723  -0.0876  0.0056  1.0000  -2.3387   0.0000   0.0000   0.0000   0.3313
  16.700   0.9039   0.21132   0.20928  -0.0885  0.0054  1.0000  -2.3392   0.0000   0.0000   0.0000   0.3320
  16.800   0.9056   0.21335   0.21132  -0.0893  0.0053  1.0000  -2.3421   0.0000   0.0000   0.0000   0.3326
  16.900   0.9074   0.21537   0.21333  -0.0902  0.0051  1.0000  -2.3474   0.0000   0.0000   0.0000   0.3333
  17.000   0.9092   0.21736   0.21532  -0.0910  0.0050  1.0000  -2.3553   0.0000   0.0000   0.0000   0.3339
  17.100   0.9110   0.21934   0.21730  -0.0918  0.0048  1.0000  -2.3658   0.0000   0.0000   0.0000   0.3344
  17.200   0.9128   0.22129   0.21926  -0.0927  0.0047  1.0000  -2.3789   0.0000   0.0000   0.0000   0.3350
  17.300   0.9147   0.22323   0.22119  -0.0935  0.0046  1.0000  -2.3947   0.0000   0.0000   0.0000   0.3355
  17.400   0.9166   0.22514   0.22310  -0.0943  0.0044  1.0000  -2.4134   0.0000   0.0000   0.0000   0.3360
  17.500   0.9185   0.22703   0.22499  -0.0950  0.0043  1.0000  -2.4352   0.0000   0.0000   0.0000   0.3365
  17.600   0.9205   0.22889   0.22686  -0.0958  0.0042  1.0000  -2.4603   0.0000   0.0000   0.0000   0.3370
  17.700   0.9224   0.23072   0.22869  -0.0965  0.0041  1.0000  -2.4889   0.0000   0.0000   0.0000   0.3374
  17.800   0.9244   0.23252   0.23049  -0.0973  0.0040  1.0000  -2.5212   0.0000   0.0000   0.0000   0.3378
  17.900   0.9265   0.23429   0.23226  -0.0980  0.0039  1.0000  -2.5576   0.0000   0.0000   0.0000   0.3382
  18.000   0.9285   0.23605   0.23403  -0.0987  0.0038  1.0000  -2.5956   0.0000   0.0000   0.0000   0.3386
  18.100   0.9304   0.23785   0.23582  -0.0994  0.0037  1.0000  -2.6318   0.0000   0.0000   0.0000   0.3390
  18.200   0.9322   0.23979   0.23777  -0.1002  0.0036  1.0000  -2.6566   0.0000   0.0000   0.0000   0.3395
  18.300   0.9338   0.24175   0.23972  -0.1010  0.0035  1.0000  -2.6808   0.0000   0.0000   0.0000   0.3399
  18.400   0.9354   0.24373   0.24171  -0.1017  0.0034  1.0000  -2.7036   0.0000   0.0000   0.0000   0.3404
  18.500   0.9369   0.24576   0.24374  -0.1025  0.0033  1.0000  -2.7228   0.0000   0.0000   0.0000   0.3409
  18.600   0.9382   0.24788   0.24587  -0.1033  0.0033  1.0000  -2.7346   0.0000   0.0000   0.0000   0.3415
  18.700   0.9392   0.25019   0.24817  -0.1041  0.0032  1.0000  -2.7311   0.0000   0.0000   0.0000   0.3421
  18.800   0.9394   0.25294   0.25093  -0.1049  0.0030  1.0000  -2.6890   0.0000   0.0000   0.0000   0.3428


