xflr5 v6.61

 Calculated polar for: E178

 1 1 Reynolds number fixed          Mach number fixed         

 xtrf =   1.000 (top)        1.000 (bottom)
 Mach =   0.000     Re =     0.563 e 6     Ncrit =   9.000

  alpha     CL        CD       CDp       Cm    Top Xtr Bot Xtr   Cpmin    Chinge    XCp    
 ------- -------- --------- --------- -------- ------- ------- -------- --------- ---------
 -10.000  -0.4606   0.11974   0.11753   0.0047  1.0000  0.0118  -1.6664   0.0000   0.0000   0.0000   0.2554
  -9.900  -0.4584   0.11817   0.11597   0.0040  1.0000  0.0118  -1.6741   0.0000   0.0000   0.0000   0.2540
  -9.800  -0.4562   0.11660   0.11440   0.0033  1.0000  0.0118  -1.6821   0.0000   0.0000   0.0000   0.2526
  -9.700  -0.4540   0.11503   0.11284   0.0026  1.0000  0.0118  -1.6903   0.0000   0.0000   0.0000   0.2512
  -9.600  -0.4519   0.11345   0.11127   0.0020  1.0000  0.0118  -1.6987   0.0000   0.0000   0.0000   0.2498
  -9.500  -0.4498   0.11188   0.10970   0.0013  1.0000  0.0118  -1.7075   0.0000   0.0000   0.0000   0.2483
  -9.400  -0.4477   0.11031   0.10813   0.0006  1.0000  0.0118  -1.7165   0.0000   0.0000   0.0000   0.2468
  -9.300  -0.4457   0.10873   0.10657  -0.0001  1.0000  0.0118  -1.7259   0.0000   0.0000   0.0000   0.2453
  -9.200  -0.4437   0.10716   0.10500  -0.0008  1.0000  0.0118  -1.7355   0.0000   0.0000   0.0000   0.2438
  -9.100  -0.4418   0.10559   0.10344  -0.0015  1.0000  0.0118  -1.7456   0.0000   0.0000   0.0000   0.2422
  -9.000  -0.4399   0.10403   0.10188  -0.0022  1.0000  0.0118  -1.7560   0.0000   0.0000   0.0000   0.2406
  -8.900  -0.4381   0.10247   0.10033  -0.0029  1.0000  0.0118  -1.7668   0.0000   0.0000   0.0000   0.2390
  -8.800  -0.4365   0.10091   0.09878  -0.0037  1.0000  0.0118  -1.7780   0.0000   0.0000   0.0000   0.2374
  -8.700  -0.4348   0.09936   0.09724  -0.0044  1.0000  0.0118  -1.7896   0.0000   0.0000   0.0000   0.2358
  -8.600  -0.4333   0.09781   0.09570  -0.0051  1.0000  0.0118  -1.8017   0.0000   0.0000   0.0000   0.2342
  -8.500  -0.4317   0.09624   0.09414  -0.0058  1.0000  0.0118  -1.8142   0.0000   0.0000   0.0000   0.2324
  -8.400  -0.4301   0.09465   0.09257  -0.0066  1.0000  0.0118  -1.8271   0.0000   0.0000   0.0000   0.2306
  -8.300  -0.4285   0.09307   0.09099  -0.0074  1.0000  0.0118  -1.8406   0.0000   0.0000   0.0000   0.2287
  -8.200  -0.4270   0.09148   0.08941  -0.0082  1.0000  0.0118  -1.8547   0.0000   0.0000   0.0000   0.2268
  -8.100  -0.4257   0.08989   0.08783  -0.0091  1.0000  0.0118  -1.8695   0.0000   0.0000   0.0000   0.2248
  -8.000  -0.4244   0.08830   0.08626  -0.0099  1.0000  0.0118  -1.8850   0.0000   0.0000   0.0000   0.2228
  -7.900  -0.4233   0.08672   0.08469  -0.0108  1.0000  0.0118  -1.9012   0.0000   0.0000   0.0000   0.2208
  -7.800  -0.4223   0.08512   0.08310  -0.0117  1.0000  0.0118  -1.9183   0.0000   0.0000   0.0000   0.2187
  -7.700  -0.4213   0.08350   0.08150  -0.0126  1.0000  0.0118  -1.9364   0.0000   0.0000   0.0000   0.2164
  -7.600  -0.4206   0.08189   0.07990  -0.0136  1.0000  0.0118  -1.9555   0.0000   0.0000   0.0000   0.2141
  -7.500  -0.4201   0.08027   0.07830  -0.0146  1.0000  0.0118  -1.9759   0.0000   0.0000   0.0000   0.2117
  -7.400  -0.4198   0.07865   0.07669  -0.0158  1.0000  0.0118  -1.9978   0.0000   0.0000   0.0000   0.2091
  -7.300  -0.4197   0.07699   0.07506  -0.0170  1.0000  0.0118  -2.0215   0.0000   0.0000   0.0000   0.2061
  -7.200  -0.4186   0.07516   0.07324  -0.0188  1.0000  0.0117  -2.0478   0.0000   0.0000   0.0000   0.2018
  -7.100  -0.4125   0.07260   0.07067  -0.0224  0.9695  0.0117  -2.0815   0.0000   0.0000   0.0000   0.1924
  -7.000  -0.4038   0.06953   0.06756  -0.0270  0.9437  0.0117  -2.1267   0.0000   0.0000   0.0000   0.1799
  -6.900  -0.4011   0.06706   0.06503  -0.0295  0.9202  0.0116  -2.1774   0.0000   0.0000   0.0000   0.1733
  -6.800  -0.4018   0.06442   0.06232  -0.0314  0.9014  0.0114  -2.2578   0.0000   0.0000   0.0000   0.1687
  -6.700  -0.4054   0.06078   0.05860  -0.0341  0.8867  0.0110  -2.4102   0.0000   0.0000   0.0000   0.1629
  -6.600  -0.4055   0.05748   0.05522  -0.0366  0.8747  0.0106  -2.5299   0.0000   0.0000   0.0000   0.1568
  -6.500  -0.4042   0.05447   0.05211  -0.0385  0.8638  0.0102  -2.6304   0.0000   0.0000   0.0000   0.1516
  -6.400  -0.4018   0.05151   0.04904  -0.0403  0.8543  0.0099  -2.7267   0.0000   0.0000   0.0000   0.1466
  -6.300  -0.3980   0.04844   0.04588  -0.0420  0.8477  0.0095  -2.8263   0.0000   0.0000   0.0000   0.1413
  -6.200  -0.3937   0.04539   0.04271  -0.0434  0.8408  0.0092  -2.9295   0.0000   0.0000   0.0000   0.1365
  -6.100  -0.3891   0.04235   0.03953  -0.0445  0.8340  0.0089  -3.0398   0.0000   0.0000   0.0000   0.1323
  -6.000  -0.3842   0.03928   0.03629  -0.0453  0.8273  0.0085  -3.1606   0.0000   0.0000   0.0000   0.1287
  -5.900  -0.3791   0.03615   0.03296  -0.0459  0.8206  0.0082  -3.2964   0.0000   0.0000   0.0000   0.1255
  -5.800  -0.3734   0.03291   0.02949  -0.0462  0.8148  0.0078  -3.4523   0.0000   0.0000   0.0000   0.1226
  -5.700  -0.3672   0.02958   0.02590  -0.0464  0.8114  0.0075  -3.6287   0.0000   0.0000   0.0000   0.1200
  -5.600  -0.3607   0.02640   0.02243  -0.0462  0.8076  0.0072  -3.8097   0.0000   0.0000   0.0000   0.1179
  -5.500  -0.3536   0.02362   0.01934  -0.0459  0.8035  0.0069  -3.9650   0.0000   0.0000   0.0000   0.1161
  -5.400  -0.3456   0.02136   0.01678  -0.0455  0.7991  0.0068  -4.0733   0.0000   0.0000   0.0000   0.1142
  -5.300  -0.3370   0.01959   0.01475  -0.0451  0.7945  0.0067  -4.1312   0.0000   0.0000   0.0000   0.1119
  -5.200  -0.3278   0.01820   0.01312  -0.0447  0.7897  0.0066  -4.1483   0.0000   0.0000   0.0000   0.1094
  -5.100  -0.3184   0.01708   0.01181  -0.0443  0.7845  0.0067  -4.1334   0.0000   0.0000   0.0000   0.1064
  -5.000  -0.3086   0.01618   0.01074  -0.0440  0.7787  0.0067  -4.0930   0.0000   0.0000   0.0000   0.1030
  -4.900  -0.2986   0.01543   0.00983  -0.0437  0.7726  0.0069  -4.0344   0.0000   0.0000   0.0000   0.0991
  -4.800  -0.2881   0.01476   0.00906  -0.0435  0.7703  0.0071  -3.9609   0.0000   0.0000   0.0000   0.0945
  -4.700  -0.2776   0.01418   0.00839  -0.0434  0.7675  0.0073  -3.8766   0.0000   0.0000   0.0000   0.0894
  -4.600  -0.2671   0.01369   0.00782  -0.0432  0.7642  0.0076  -3.7836   0.0000   0.0000   0.0000   0.0838
  -4.500  -0.2565   0.01329   0.00735  -0.0430  0.7607  0.0080  -3.6827   0.0000   0.0000   0.0000   0.0777
  -4.400  -0.2458   0.01297   0.00697  -0.0429  0.7570  0.0084  -3.5754   0.0000   0.0000   0.0000   0.0710
  -4.300  -0.2351   0.01273   0.00668  -0.0428  0.7534  0.0089  -3.4620   0.0000   0.0000   0.0000   0.0635
  -4.200  -0.2244   0.01256   0.00647  -0.0427  0.7497  0.0093  -3.3423   0.0000   0.0000   0.0000   0.0551
  -4.100  -0.2136   0.01246   0.00635  -0.0426  0.7459  0.0098  -3.2157   0.0000   0.0000   0.0000   0.0457
  -4.000  -0.2027   0.01245   0.00631  -0.0426  0.7419  0.0103  -3.0806   0.0000   0.0000   0.0000   0.0351
  -3.900  -0.1917   0.01252   0.00637  -0.0426  0.7376  0.0107  -2.9346   0.0000   0.0000   0.0000   0.0229
  -3.800  -0.1806   0.01271   0.00656  -0.0427  0.7327  0.0111  -2.7754   0.0000   0.0000   0.0000   0.0088
  -3.600  -0.1571   0.01413   0.00812  -0.0432  0.7259  0.0119  -2.3414   0.0000   0.0000   0.0000  -0.0299
  -3.500  -0.1474   0.01278   0.00663  -0.0429  0.7245  0.0126  -2.3671   0.0000   0.0000   0.0000  -0.0461
  -3.400  -0.1373   0.01199   0.00574  -0.0426  0.7229  0.0133  -2.3487   0.0000   0.0000   0.0000  -0.0660
  -3.300  -0.1269   0.01147   0.00516  -0.0425  0.7210  0.0140  -2.3055   0.0000   0.0000   0.0000  -0.0904
  -3.200  -0.1162   0.01111   0.00476  -0.0423  0.7189  0.0148  -2.2475   0.0000   0.0000   0.0000  -0.1202
  -3.100  -0.1055   0.01084   0.00446  -0.0422  0.7167  0.0156  -2.1784   0.0000   0.0000   0.0000  -0.1568
  -3.000  -0.0946   0.01065   0.00425  -0.0422  0.7142  0.0166  -2.0985   0.0000   0.0000   0.0000  -0.2025
  -2.900  -0.0835   0.01079   0.00445  -0.0424  0.7116  0.0194  -1.9431   0.0000   0.0000   0.0000  -0.2648
  -2.800  -0.0717   0.01138   0.00495  -0.0428  0.7087  0.0236  -1.6937   0.0000   0.0000   0.0000  -0.3543
  -2.700  -0.0611   0.01093   0.00443  -0.0425  0.7061  0.0231  -1.6694   0.0000   0.0000   0.0000  -0.4549
  -2.600  -0.0505   0.01056   0.00398  -0.0423  0.7032  0.0227  -1.6405   0.0000   0.0000   0.0000  -0.5984
  -2.500  -0.0398   0.01025   0.00360  -0.0421  0.7002  0.0223  -1.6079   0.0000   0.0000   0.0000  -0.8203
  -2.400  -0.0291   0.00999   0.00326  -0.0419  0.6969  0.0220  -1.5719   0.0000   0.0000   0.0000  -1.2084
  -2.300  -0.0182   0.00978   0.00297  -0.0417  0.6933  0.0217  -1.5332   0.0000   0.0000   0.0000  -2.0618
  -2.200  -0.0074   0.00961   0.00272  -0.0416  0.6891  0.0215  -1.4921   0.0000   0.0000   0.0000  -5.4617
  -2.100   0.0036   0.00948   0.00251  -0.0415  0.6846  0.0214  -1.4491   0.0000   0.0000   0.0000  11.7718
  -2.000   0.0147   0.00938   0.00234  -0.0414  0.6800  0.0213  -1.4046   0.0000   0.0000   0.0000   3.0850
  -1.900   0.0260   0.00926   0.00217  -0.0413  0.6789  0.0214  -1.3588   0.0000   0.0000   0.0000   1.8545
  -1.800   0.0373   0.00915   0.00202  -0.0413  0.6778  0.0216  -1.3125   0.0000   0.0000   0.0000   1.3668
  -1.700   0.0486   0.00906   0.00189  -0.0412  0.6767  0.0222  -1.2666   0.0000   0.0000   0.0000   1.1053
  -1.600   0.0599   0.00897   0.00177  -0.0412  0.6754  0.0236  -1.2252   0.0000   0.0000   0.0000   0.9424
  -1.500   0.0704   0.00860   0.00161  -0.0411  0.6740  0.0810  -1.2120   0.0000   0.0000   0.0000   0.8371
  -1.400   0.0809   0.00832   0.00156  -0.0411  0.6724  0.1403  -1.1522   0.0000   0.0000   0.0000   0.7613
  -1.300   0.0917   0.00818   0.00153  -0.0412  0.6707  0.1711  -1.0851   0.0000   0.0000   0.0000   0.7009
  -1.200   0.1025   0.00804   0.00150  -0.0412  0.6688  0.2016  -1.0174   0.0000   0.0000   0.0000   0.6532
  -1.100   0.1135   0.00793   0.00148  -0.0412  0.6669  0.2287  -0.9496   0.0000   0.0000   0.0000   0.6144
  -1.000   0.1244   0.00783   0.00145  -0.0412  0.6649  0.2552  -0.8824   0.0000   0.0000   0.0000   0.5823
  -0.900   0.1352   0.00771   0.00144  -0.0412  0.6628  0.2870  -0.8165   0.0000   0.0000   0.0000   0.5557
  -0.800   0.1461   0.00763   0.00142  -0.0412  0.6605  0.3135  -0.7510   0.0000   0.0000   0.0000   0.5327
  -0.700   0.1568   0.00751   0.00140  -0.0412  0.6583  0.3483  -0.6872   0.0000   0.0000   0.0000   0.5132
  -0.600   0.1674   0.00738   0.00139  -0.0412  0.6559  0.3875  -0.6247   0.0000   0.0000   0.0000   0.4962
  -0.500   0.1780   0.00726   0.00138  -0.0412  0.6535  0.4287  -0.5633   0.0000   0.0000   0.0000   0.4812
  -0.400   0.1883   0.00711   0.00137  -0.0411  0.6510  0.4796  -0.5037   0.0000   0.0000   0.0000   0.4680
  -0.300   0.1982   0.00692   0.00138  -0.0409  0.6483  0.5433  -0.4883   0.0000   0.0000   0.0000   0.4561
  -0.200   0.2079   0.00674   0.00139  -0.0407  0.6453  0.6095  -0.4940   0.0000   0.0000   0.0000   0.4453
  -0.100   0.2175   0.00659   0.00141  -0.0404  0.6421  0.6684  -0.4997   0.0000   0.0000   0.0000   0.4352
   0.000   0.2270   0.00646   0.00143  -0.0401  0.6385  0.7200  -0.5053   0.0000   0.0000   0.0000   0.4258
   0.100   0.2363   0.00636   0.00147  -0.0396  0.6347  0.7699  -0.5112   0.0000   0.0000   0.0000   0.4169
   0.200   0.2450   0.00625   0.00153  -0.0390  0.6310  0.8228  -0.5172   0.0000   0.0000   0.0000   0.4083
   0.300   0.2541   0.00610   0.00155  -0.0383  0.6303  0.8799  -0.5236   0.0000   0.0000   0.0000   0.3999
   0.400   0.2744   0.00599   0.00155  -0.0401  0.6294  0.9484  -0.5354   0.0000   0.0000   0.0000   0.3950
   0.500   0.2994   0.00596   0.00153  -0.0431  0.6281  0.9870  -0.5494   0.0000   0.0000   0.0000   0.3928
   0.600   0.3217   0.00594   0.00150  -0.0456  0.6267  1.0000  -0.5621   0.0000   0.0000   0.0000   0.3905
   0.700   0.3323   0.00595   0.00150  -0.0455  0.6252  1.0000  -0.5691   0.0000   0.0000   0.0000   0.3856
   0.800   0.3430   0.00596   0.00150  -0.0454  0.6236  1.0000  -0.5762   0.0000   0.0000   0.0000   0.3810
   0.900   0.3538   0.00598   0.00154  -0.0453  0.6220  1.0000  -0.5833   0.0000   0.0000   0.0000   0.3767
   1.000   0.3645   0.00599   0.00154  -0.0452  0.6203  1.0000  -0.5903   0.0000   0.0000   0.0000   0.3727
   1.100   0.3752   0.00601   0.00155  -0.0451  0.6184  1.0000  -0.5974   0.0000   0.0000   0.0000   0.3688
   1.200   0.3859   0.00602   0.00155  -0.0451  0.6165  1.0000  -0.6065   0.0000   0.0000   0.0000   0.3652
   1.300   0.3966   0.00604   0.00156  -0.0450  0.6142  1.0000  -0.6155   0.0000   0.0000   0.0000   0.3618
   1.400   0.4073   0.00605   0.00155  -0.0449  0.6115  1.0000  -0.6247   0.0000   0.0000   0.0000   0.3585
   1.500   0.4180   0.00607   0.00155  -0.0448  0.6085  1.0000  -0.6338   0.0000   0.0000   0.0000   0.3554
   1.600   0.4286   0.00610   0.00155  -0.0447  0.6052  1.0000  -0.6438   0.0000   0.0000   0.0000   0.3524
   1.700   0.4392   0.00612   0.00155  -0.0446  0.6018  1.0000  -0.6553   0.0000   0.0000   0.0000   0.3496
   1.800   0.4499   0.00616   0.00156  -0.0445  0.5982  1.0000  -0.6672   0.0000   0.0000   0.0000   0.3469
   1.900   0.4605   0.00621   0.00157  -0.0444  0.5944  1.0000  -0.6790   0.0000   0.0000   0.0000   0.3443
   2.000   0.4712   0.00627   0.00160  -0.0443  0.5902  1.0000  -0.6918   0.0000   0.0000   0.0000   0.3419
   2.100   0.4819   0.00634   0.00165  -0.0442  0.5853  1.0000  -0.7055   0.0000   0.0000   0.0000   0.3397
   2.200   0.4926   0.00640   0.00170  -0.0442  0.5815  1.0000  -0.7202   0.0000   0.0000   0.0000   0.3375
   2.300   0.5035   0.00640   0.00170  -0.0441  0.5804  1.0000  -0.7368   0.0000   0.0000   0.0000   0.3354
   2.400   0.5144   0.00639   0.00170  -0.0441  0.5790  1.0000  -0.7534   0.0000   0.0000   0.0000   0.3333
   2.500   0.5253   0.00640   0.00171  -0.0440  0.5774  1.0000  -0.7702   0.0000   0.0000   0.0000   0.3314
   2.600   0.5362   0.00640   0.00172  -0.0440  0.5754  1.0000  -0.7870   0.0000   0.0000   0.0000   0.3295
   2.700   0.5471   0.00641   0.00174  -0.0439  0.5732  1.0000  -0.8053   0.0000   0.0000   0.0000   0.3277
   2.800   0.5580   0.00642   0.00175  -0.0439  0.5707  1.0000  -0.8257   0.0000   0.0000   0.0000   0.3260
   2.900   0.5689   0.00644   0.00177  -0.0439  0.5677  1.0000  -0.8461   0.0000   0.0000   0.0000   0.3244
   3.000   0.5797   0.00645   0.00178  -0.0438  0.5641  1.0000  -0.8665   0.0000   0.0000   0.0000   0.3227
   3.100   0.5905   0.00647   0.00179  -0.0437  0.5602  1.0000  -0.8913   0.0000   0.0000   0.0000   0.3212
   3.200   0.6013   0.00650   0.00180  -0.0437  0.5563  1.0000  -0.9163   0.0000   0.0000   0.0000   0.3196
   3.300   0.6120   0.00654   0.00181  -0.0436  0.5521  1.0000  -0.9415   0.0000   0.0000   0.0000   0.3182
   3.400   0.6228   0.00658   0.00184  -0.0435  0.5479  1.0000  -0.9668   0.0000   0.0000   0.0000   0.3168
   3.500   0.6335   0.00664   0.00187  -0.0434  0.5435  1.0000  -0.9942   0.0000   0.0000   0.0000   0.3154
   3.600   0.6441   0.00671   0.00192  -0.0434  0.5379  1.0000  -1.0267   0.0000   0.0000   0.0000   0.3141
   3.700   0.6549   0.00678   0.00197  -0.0433  0.5324  1.0000  -1.0595   0.0000   0.0000   0.0000   0.3128
   3.800   0.6659   0.00678   0.00200  -0.0433  0.5308  1.0000  -1.0932   0.0000   0.0000   0.0000   0.3116
   3.900   0.6769   0.00678   0.00202  -0.0433  0.5283  1.0000  -1.1270   0.0000   0.0000   0.0000   0.3104
   4.000   0.6879   0.00679   0.00205  -0.0433  0.5251  1.0000  -1.1610   0.0000   0.0000   0.0000   0.3093
   4.100   0.6988   0.00681   0.00208  -0.0432  0.5210  1.0000  -1.1951   0.0000   0.0000   0.0000   0.3082
   4.200   0.7096   0.00684   0.00210  -0.0432  0.5161  1.0000  -1.2293   0.0000   0.0000   0.0000   0.3071
   4.300   0.7204   0.00688   0.00213  -0.0431  0.5111  1.0000  -1.2709   0.0000   0.0000   0.0000   0.3060
   4.400   0.7312   0.00692   0.00217  -0.0431  0.5063  1.0000  -1.3381   0.0000   0.0000   0.0000   0.3050
   4.500   0.7314   0.00829   0.00245  -0.0419  0.2868  1.0000  -1.4399   0.0000   0.0000   0.0000   0.3032
   4.600   0.7344   0.00966   0.00302  -0.0413  0.1466  1.0000  -1.5222   0.0000   0.0000   0.0000   0.3021
   4.700   0.7404   0.01052   0.00342  -0.0409  0.0679  1.0000  -1.6061   0.0000   0.0000   0.0000   0.3011
   4.800   0.7467   0.01132   0.00387  -0.0405  0.0095  1.0000  -1.6866   0.0000   0.0000   0.0000   0.2999
   4.900   0.7571   0.01145   0.00398  -0.0404  0.0085  1.0000  -1.7934   0.0000   0.0000   0.0000   0.2990
   5.000   0.7674   0.01157   0.00410  -0.0403  0.0078  1.0000  -1.8991   0.0000   0.0000   0.0000   0.2980
   5.100   0.7778   0.01169   0.00421  -0.0402  0.0073  1.0000  -2.0033   0.0000   0.0000   0.0000   0.2971
   5.200   0.7881   0.01180   0.00434  -0.0401  0.0069  1.0000  -2.1062   0.0000   0.0000   0.0000   0.2962
   5.300   0.7985   0.01192   0.00447  -0.0400  0.0066  1.0000  -2.2086   0.0000   0.0000   0.0000   0.2953
   5.400   0.8088   0.01203   0.00461  -0.0399  0.0064  1.0000  -2.3110   0.0000   0.0000   0.0000   0.2944
   5.500   0.8192   0.01215   0.00476  -0.0398  0.0062  1.0000  -2.4134   0.0000   0.0000   0.0000   0.2936
   5.600   0.8295   0.01228   0.00492  -0.0396  0.0061  1.0000  -2.5160   0.0000   0.0000   0.0000   0.2927
   5.700   0.8397   0.01241   0.00508  -0.0395  0.0061  1.0000  -2.6188   0.0000   0.0000   0.0000   0.2919
   5.800   0.8499   0.01255   0.00526  -0.0394  0.0060  1.0000  -2.7213   0.0000   0.0000   0.0000   0.2910
   5.900   0.8600   0.01271   0.00545  -0.0392  0.0060  1.0000  -2.8233   0.0000   0.0000   0.0000   0.2902
   6.000   0.8701   0.01287   0.00566  -0.0391  0.0060  1.0000  -2.9240   0.0000   0.0000   0.0000   0.2894
   6.100   0.8800   0.01306   0.00590  -0.0389  0.0060  1.0000  -3.0223   0.0000   0.0000   0.0000   0.2886
   6.200   0.8898   0.01327   0.00615  -0.0386  0.0061  1.0000  -3.1172   0.0000   0.0000   0.0000   0.2877
   6.300   0.8995   0.01351   0.00644  -0.0384  0.0062  1.0000  -3.2073   0.0000   0.0000   0.0000   0.2869
   6.400   0.9090   0.01378   0.00676  -0.0381  0.0063  1.0000  -3.2923   0.0000   0.0000   0.0000   0.2860
   6.500   0.9181   0.01409   0.00713  -0.0378  0.0065  1.0000  -3.3719   0.0000   0.0000   0.0000   0.2851
   6.600   0.9269   0.01446   0.00757  -0.0374  0.0066  1.0000  -3.4453   0.0000   0.0000   0.0000   0.2841
   6.700   0.9353   0.01488   0.00806  -0.0369  0.0069  1.0000  -3.5118   0.0000   0.0000   0.0000   0.2832
   6.800   0.9432   0.01536   0.00862  -0.0364  0.0071  1.0000  -3.5707   0.0000   0.0000   0.0000   0.2822
   6.900   0.9505   0.01591   0.00925  -0.0357  0.0075  1.0000  -3.6212   0.0000   0.0000   0.0000   0.2811
   7.000   0.9573   0.01654   0.00998  -0.0350  0.0078  1.0000  -3.6614   0.0000   0.0000   0.0000   0.2800
   7.100   0.9634   0.01728   0.01080  -0.0342  0.0083  1.0000  -3.6900   0.0000   0.0000   0.0000   0.2788
   7.200   0.9688   0.01819   0.01179  -0.0332  0.0088  1.0000  -3.7015   0.0000   0.0000   0.0000   0.2775
   7.300   0.9726   0.01952   0.01323  -0.0320  0.0094  1.0000  -3.6710   0.0000   0.0000   0.0000   0.2760
   7.400   0.9804   0.02024   0.01398  -0.0313  0.0106  1.0000  -3.6941   0.0000   0.0000   0.0000   0.2749
   7.500   0.9930   0.01988   0.01362  -0.0313  0.0121  1.0000  -3.8306   0.0000   0.0000   0.0000   0.2743
   8.400   1.0403   0.04468   0.04031  -0.0222  0.0371  1.0000  -3.1515   0.0000   0.0000   0.0000   0.2634
   8.500   1.0496   0.04376   0.03945  -0.0215  0.0366  1.0000  -3.2498   0.0000   0.0000   0.0000   0.2624
   8.600   1.0727   0.03938   0.03495  -0.0213  0.0321  1.0000  -3.5136   0.0000   0.0000   0.0000   0.2616
   8.700   1.0796   0.03956   0.03515  -0.0209  0.0297  1.0000  -3.6152   0.0000   0.0000   0.0000   0.2609
   8.800   1.0859   0.03991   0.03550  -0.0206  0.0279  1.0000  -3.7251   0.0000   0.0000   0.0000   0.2604
   8.900   1.0911   0.04074   0.03650  -0.0202  0.0270  1.0000  -3.7953   0.0000   0.0000   0.0000   0.2599
   9.000   1.0976   0.04136   0.03711  -0.0201  0.0259  1.0000  -3.9054   0.0000   0.0000   0.0000   0.2595
   9.100   1.1026   0.04215   0.03787  -0.0199  0.0248  1.0000  -4.0119   0.0000   0.0000   0.0000   0.2591
   9.200   1.1049   0.04351   0.03926  -0.0195  0.0238  1.0000  -4.0864   0.0000   0.0000   0.0000   0.2586
   9.300   1.1012   0.04644   0.04229  -0.0190  0.0228  1.0000  -4.0733   0.0000   0.0000   0.0000   0.2581
   9.400   1.0891   0.05081   0.04686  -0.0180  0.0221  1.0000  -3.9506   0.0000   0.0000   0.0000   0.2574
   9.500   1.0740   0.05506   0.05133  -0.0170  0.0218  1.0000  -3.8086   0.0000   0.0000   0.0000   0.2566
   9.600   1.0581   0.05896   0.05541  -0.0160  0.0215  1.0000  -3.6737   0.0000   0.0000   0.0000   0.2559
   9.700   1.0521   0.06075   0.05728  -0.0153  0.0214  1.0000  -3.6488   0.0000   0.0000   0.0000   0.2552
   9.800   1.0486   0.06195   0.05856  -0.0145  0.0214  1.0000  -3.6525   0.0000   0.0000   0.0000   0.2544
   9.900   1.0438   0.06307   0.05975  -0.0136  0.0214  1.0000  -3.6529   0.0000   0.0000   0.0000   0.2535
  10.000   1.0376   0.06410   0.06084  -0.0126  0.0214  1.0000  -3.6495   0.0000   0.0000   0.0000   0.2524
  10.100   1.0311   0.06517   0.06197  -0.0117  0.0214  1.0000  -3.6436   0.0000   0.0000   0.0000   0.2516
  10.200   1.0243   0.06632   0.06317  -0.0111  0.0214  1.0000  -3.6355   0.0000   0.0000   0.0000   0.2509
  10.300   1.0174   0.06755   0.06446  -0.0107  0.0214  1.0000  -3.6257   0.0000   0.0000   0.0000   0.2505
  10.400   1.0105   0.06890   0.06586  -0.0106  0.0214  1.0000  -3.6140   0.0000   0.0000   0.0000   0.2503
  10.500   1.0033   0.07030   0.06732  -0.0106  0.0214  1.0000  -3.6001   0.0000   0.0000   0.0000   0.2502
  10.600   0.9962   0.07181   0.06887  -0.0107  0.0214  1.0000  -3.5846   0.0000   0.0000   0.0000   0.2503
  10.700   0.9889   0.07344   0.07055  -0.0111  0.0214  1.0000  -3.5667   0.0000   0.0000   0.0000   0.2506
  10.800   0.9819   0.07517   0.07233  -0.0116  0.0213  1.0000  -3.5477   0.0000   0.0000   0.0000   0.2511
  10.900   0.9745   0.07702   0.07423  -0.0123  0.0213  1.0000  -3.5256   0.0000   0.0000   0.0000   0.2518
  11.000   0.9674   0.07894   0.07620  -0.0132  0.0213  1.0000  -3.5027   0.0000   0.0000   0.0000   0.2526
  11.100   0.9600   0.08099   0.07829  -0.0142  0.0214  1.0000  -3.4763   0.0000   0.0000   0.0000   0.2536
  11.200   0.9525   0.08304   0.08038  -0.0152  0.0214  1.0000  -3.4489   0.0000   0.0000   0.0000   0.2547
  11.300   0.9448   0.08519   0.08258  -0.0164  0.0214  1.0000  -3.4185   0.0000   0.0000   0.0000   0.2560
  11.400   0.9373   0.08745   0.08487  -0.0177  0.0214  1.0000  -3.3878   0.0000   0.0000   0.0000   0.2574
  11.500   0.9300   0.08961   0.08695  -0.0192  0.0213  1.0000  -3.3654   0.0000   0.0000   0.0000   0.2591
  11.600   0.9227   0.09222   0.08960  -0.0208  0.0213  1.0000  -3.3259   0.0000   0.0000   0.0000   0.2609
  11.700   0.9157   0.09491   0.09232  -0.0225  0.0214  1.0000  -3.2855   0.0000   0.0000   0.0000   0.2628
  11.800   0.9086   0.09774   0.09519  -0.0244  0.0214  1.0000  -3.2410   0.0000   0.0000   0.0000   0.2649
  11.900   0.9021   0.10061   0.09809  -0.0263  0.0214  1.0000  -3.1966   0.0000   0.0000   0.0000   0.2672
  12.000   0.8955   0.10364   0.10116  -0.0284  0.0214  1.0000  -3.1472   0.0000   0.0000   0.0000   0.2696
  12.100   0.8894   0.10669   0.10424  -0.0305  0.0214  1.0000  -3.0976   0.0000   0.0000   0.0000   0.2721
  12.200   0.8833   0.10991   0.10749  -0.0327  0.0214  1.0000  -3.0431   0.0000   0.0000   0.0000   0.2748
  12.300   0.8779   0.11315   0.11075  -0.0349  0.0214  1.0000  -2.9878   0.0000   0.0000   0.0000   0.2775
  12.400   0.8726   0.11653   0.11415  -0.0372  0.0214  1.0000  -2.9280   0.0000   0.0000   0.0000   0.2804
  12.500   0.8679   0.11995   0.11760  -0.0395  0.0214  1.0000  -2.8661   0.0000   0.0000   0.0000   0.2832
  12.600   0.8637   0.12344   0.12111  -0.0418  0.0214  1.0000  -2.8019   0.0000   0.0000   0.0000   0.2860
  12.700   0.8602   0.12697   0.12466  -0.0440  0.0214  1.0000  -2.7353   0.0000   0.0000   0.0000   0.2888
  12.800   0.8573   0.13053   0.12822  -0.0461  0.0214  1.0000  -2.6669   0.0000   0.0000   0.0000   0.2914
  12.900   0.8550   0.13413   0.13183  -0.0482  0.0214  1.0000  -2.5953   0.0000   0.0000   0.0000   0.2939
  13.000   0.8534   0.13750   0.13520  -0.0499  0.0214  1.0000  -2.5312   0.0000   0.0000   0.0000   0.2961
  13.100   0.8523   0.14054   0.13824  -0.0515  0.0214  1.0000  -2.4786   0.0000   0.0000   0.0000   0.2980
  13.200   0.8515   0.14336   0.14106  -0.0530  0.0214  1.0000  -2.4336   0.0000   0.0000   0.0000   0.2998
  13.300   0.8511   0.14602   0.14371  -0.0544  0.0214  1.0000  -2.3939   0.0000   0.0000   0.0000   0.3014
  13.400   0.8508   0.14845   0.14614  -0.0557  0.0214  1.0000  -2.3585   0.0000   0.0000   0.0000   0.3029
  13.500   0.8508   0.15073   0.14842  -0.0570  0.0214  1.0000  -2.3266   0.0000   0.0000   0.0000   0.3043
  13.600   0.8510   0.15292   0.15061  -0.0582  0.0213  1.0000  -2.2976   0.0000   0.0000   0.0000   0.3057
  13.700   0.8514   0.15507   0.15275  -0.0594  0.0213  1.0000  -2.2716   0.0000   0.0000   0.0000   0.3070
  13.800   0.8520   0.15716   0.15485  -0.0606  0.0213  1.0000  -2.2485   0.0000   0.0000   0.0000   0.3082
  13.900   0.8530   0.15920   0.15688  -0.0617  0.0212  1.0000  -2.2288   0.0000   0.0000   0.0000   0.3094
  14.000   0.8543   0.16115   0.15882  -0.0628  0.0211  1.0000  -2.2142   0.0000   0.0000   0.0000   0.3105
  14.100   0.8566   0.16286   0.16054  -0.0639  0.0209  1.0000  -2.2113   0.0000   0.0000   0.0000   0.3115
  14.200   0.8663   0.16306   0.16073  -0.0646  0.0193  1.0000  -2.2896   0.0000   0.0000   0.0000   0.3114
  14.300   0.8688   0.16494   0.16261  -0.0657  0.0184  1.0000  -2.2799   0.0000   0.0000   0.0000   0.3124
  14.400   0.8700   0.16701   0.16468  -0.0669  0.0176  1.0000  -2.2606   0.0000   0.0000   0.0000   0.3135
  14.500   0.8712   0.16904   0.16671  -0.0680  0.0169  1.0000  -2.2465   0.0000   0.0000   0.0000   0.3146
  14.600   0.8723   0.17099   0.16866  -0.0690  0.0162  1.0000  -2.2387   0.0000   0.0000   0.0000   0.3156
  14.700   0.8736   0.17286   0.17052  -0.0700  0.0155  1.0000  -2.2381   0.0000   0.0000   0.0000   0.3165
  14.800   0.8750   0.17462   0.17228  -0.0709  0.0149  1.0000  -2.2463   0.0000   0.0000   0.0000   0.3173
  14.900   0.8767   0.17622   0.17388  -0.0718  0.0142  1.0000  -2.2665   0.0000   0.0000   0.0000   0.3180
  15.000   0.8787   0.17763   0.17529  -0.0725  0.0136  1.0000  -2.3024   0.0000   0.0000   0.0000   0.3185
  15.100   0.8813   0.17869   0.17635  -0.0731  0.0129  1.0000  -2.3652   0.0000   0.0000   0.0000   0.3187
  15.300   0.8836   0.18280   0.18057  -0.0749  0.0128  1.0000  -2.3360   0.0000   0.0000   0.0000   0.3204
  15.400   0.8856   0.18435   0.18212  -0.0756  0.0125  1.0000  -2.3616   0.0000   0.0000   0.0000   0.3209
  15.500   0.8880   0.18559   0.18337  -0.0762  0.0121  1.0000  -2.4129   0.0000   0.0000   0.0000   0.3212
  15.600   0.8909   0.18646   0.18424  -0.0766  0.0117  1.0000  -2.4945   0.0000   0.0000   0.0000   0.3211
  15.700   0.8933   0.18748   0.18527  -0.0770  0.0113  1.0000  -2.5691   0.0000   0.0000   0.0000   0.3212
  15.800   0.8943   0.18906   0.18685  -0.0777  0.0110  1.0000  -2.6060   0.0000   0.0000   0.0000   0.3217
  15.900   0.8933   0.19155   0.18934  -0.0787  0.0106  1.0000  -2.5834   0.0000   0.0000   0.0000   0.3228
  16.300   0.8862   0.20611   0.20385  -0.0842  0.0098  1.0000  -2.1577   0.0000   0.0000   0.0000   0.3296
  16.400   0.8880   0.20824   0.20598  -0.0851  0.0098  1.0000  -2.1460   0.0000   0.0000   0.0000   0.3303
  16.500   0.8899   0.21033   0.20807  -0.0861  0.0098  1.0000  -2.1364   0.0000   0.0000   0.0000   0.3311
  16.600   0.8920   0.21237   0.21011  -0.0870  0.0097  1.0000  -2.1299   0.0000   0.0000   0.0000   0.3318
  16.700   0.8943   0.21430   0.21204  -0.0879  0.0096  1.0000  -2.1290   0.0000   0.0000   0.0000   0.3325
  16.800   0.8971   0.21601   0.21375  -0.0888  0.0095  1.0000  -2.1401   0.0000   0.0000   0.0000   0.3330
  16.900   0.9009   0.21747   0.21521  -0.0897  0.0092  1.0000  -2.1649   0.0000   0.0000   0.0000   0.3335
  17.000   0.9043   0.21916   0.21690  -0.0905  0.0088  1.0000  -2.1762   0.0000   0.0000   0.0000   0.3339
  17.100   0.9068   0.22119   0.21894  -0.0915  0.0084  1.0000  -2.1671   0.0000   0.0000   0.0000   0.3345
  17.200   0.9087   0.22344   0.22119  -0.0925  0.0081  1.0000  -2.1453   0.0000   0.0000   0.0000   0.3353
  17.300   0.9106   0.22570   0.22345  -0.0934  0.0078  1.0000  -2.1255   0.0000   0.0000   0.0000   0.3361
  17.400   0.9124   0.22796   0.22571  -0.0943  0.0076  1.0000  -2.1086   0.0000   0.0000   0.0000   0.3367
  17.500   0.9141   0.23020   0.22795  -0.0952  0.0073  1.0000  -2.0945   0.0000   0.0000   0.0000   0.3374
  17.600   0.9159   0.23243   0.23018  -0.0961  0.0071  1.0000  -2.0831   0.0000   0.0000   0.0000   0.3380
  17.700   0.9176   0.23465   0.23240  -0.0969  0.0068  1.0000  -2.0740   0.0000   0.0000   0.0000   0.3387
  17.800   0.9193   0.23685   0.23460  -0.0978  0.0066  1.0000  -2.0670   0.0000   0.0000   0.0000   0.3393
  17.900   0.9210   0.23904   0.23679  -0.0986  0.0064  1.0000  -2.0618   0.0000   0.0000   0.0000   0.3398
  18.000   0.9227   0.24122   0.23898  -0.0994  0.0062  1.0000  -2.0582   0.0000   0.0000   0.0000   0.3404
  18.100   0.9244   0.24339   0.24115  -0.1002  0.0060  1.0000  -2.0561   0.0000   0.0000   0.0000   0.3410
  18.200   0.9260   0.24556   0.24332  -0.1010  0.0058  1.0000  -2.0554   0.0000   0.0000   0.0000   0.3415
  18.300   0.9277   0.24771   0.24547  -0.1018  0.0056  1.0000  -2.0562   0.0000   0.0000   0.0000   0.3420
  18.400   0.9293   0.24986   0.24762  -0.1026  0.0055  1.0000  -2.0582   0.0000   0.0000   0.0000   0.3426
  18.500   0.9309   0.25200   0.24977  -0.1034  0.0053  1.0000  -2.0616   0.0000   0.0000   0.0000   0.3431
  18.600   0.9326   0.25414   0.25190  -0.1041  0.0052  1.0000  -2.0663   0.0000   0.0000   0.0000   0.3436
  18.700   0.9341   0.25626   0.25403  -0.1049  0.0050  1.0000  -2.0723   0.0000   0.0000   0.0000   0.3440
  18.800   0.9357   0.25838   0.25615  -0.1056  0.0049  1.0000  -2.0797   0.0000   0.0000   0.0000   0.3445
  18.900   0.9373   0.26048   0.25825  -0.1064  0.0048  1.0000  -2.0885   0.0000   0.0000   0.0000   0.3450
  19.000   0.9388   0.26258   0.26035  -0.1071  0.0046  1.0000  -2.0987   0.0000   0.0000   0.0000   0.3454
  19.100   0.9403   0.26466   0.26244  -0.1079  0.0045  1.0000  -2.1106   0.0000   0.0000   0.0000   0.3459
  19.200   0.9418   0.26673   0.26451  -0.1086  0.0044  1.0000  -2.1241   0.0000   0.0000   0.0000   0.3463
  19.300   0.9433   0.26879   0.26657  -0.1093  0.0043  1.0000  -2.1391   0.0000   0.0000   0.0000   0.3467
  19.400   0.9447   0.27083   0.26861  -0.1100  0.0042  1.0000  -2.1559   0.0000   0.0000   0.0000   0.3472
  19.500   0.9461   0.27285   0.27064  -0.1107  0.0041  1.0000  -2.1744   0.0000   0.0000   0.0000   0.3476
  19.600   0.9475   0.27486   0.27265  -0.1113  0.0040  1.0000  -2.1947   0.0000   0.0000   0.0000   0.3479
  19.700   0.9488   0.27685   0.27465  -0.1120  0.0039  1.0000  -2.2170   0.0000   0.0000   0.0000   0.3483
  19.800   0.9501   0.27883   0.27662  -0.1126  0.0038  1.0000  -2.2412   0.0000   0.0000   0.0000   0.3487
  19.900   0.9514   0.28078   0.27858  -0.1133  0.0037  1.0000  -2.2674   0.0000   0.0000   0.0000   0.3490
  20.000   0.9526   0.28271   0.28052  -0.1139  0.0037  1.0000  -2.2957   0.0000   0.0000   0.0000   0.3494
  20.100   0.9538   0.28463   0.28244  -0.1145  0.0036  1.0000  -2.3259   0.0000   0.0000   0.0000   0.3497
  20.200   0.9550   0.28652   0.28434  -0.1151  0.0035  1.0000  -2.3580   0.0000   0.0000   0.0000   0.3500
  20.300   0.9559   0.28850   0.28632  -0.1157  0.0034  1.0000  -2.3833   0.0000   0.0000   0.0000   0.3503
  20.400   0.9566   0.29056   0.28838  -0.1163  0.0034  1.0000  -2.4011   0.0000   0.0000   0.0000   0.3507
  20.500   0.9572   0.29267   0.29050  -0.1169  0.0033  1.0000  -2.4148   0.0000   0.0000   0.0000   0.3511
  20.600   0.9575   0.29482   0.29265  -0.1175  0.0032  1.0000  -2.4240   0.0000   0.0000   0.0000   0.3516
  20.700   0.9575   0.29706   0.29489  -0.1181  0.0031  1.0000  -2.4251   0.0000   0.0000   0.0000   0.3520
  20.800   0.9570   0.29946   0.29730  -0.1187  0.0031  1.0000  -2.4107   0.0000   0.0000   0.0000   0.3526
  20.900   0.9554   0.30230   0.30015  -0.1192  0.0029  1.0000  -2.3566   0.0000   0.0000   0.0000   0.3533
  21.000   0.9437   0.30973   0.30756  -0.1198  0.0026  1.0000  -1.9005   0.0000   0.0000   0.0000   0.3557
  21.100   0.9429   0.31181   0.30965  -0.1203  0.0026  1.0000  -1.8854   0.0000   0.0000   0.0000   0.3562
  21.200   0.9419   0.31383   0.31167  -0.1208  0.0026  1.0000  -1.8697   0.0000   0.0000   0.0000   0.3567
  21.300   0.9404   0.31576   0.31361  -0.1212  0.0026  1.0000  -1.8533   0.0000   0.0000   0.0000   0.3573
  21.400   0.9384   0.31757   0.31543  -0.1216  0.0026  1.0000  -1.8359   0.0000   0.0000   0.0000   0.3578
  21.500   0.9358   0.31921   0.31708  -0.1219  0.0026  1.0000  -1.8170   0.0000   0.0000   0.0000   0.3584
  22.200   0.8616   0.30982   0.30787  -0.1173  0.0026  1.0000  -1.5523   0.0000   0.0000   0.0000   0.3647
  22.300   0.8588   0.31016   0.30822  -0.1175  0.0026  1.0000  -1.5350   0.0000   0.0000   0.0000   0.3653
  22.400   0.8563   0.31054   0.30861  -0.1177  0.0026  1.0000  -1.5185   0.0000   0.0000   0.0000   0.3658
  22.500   0.8540   0.31096   0.30903  -0.1179  0.0026  1.0000  -1.5027   0.0000   0.0000   0.0000   0.3664
  22.600   0.8518   0.31140   0.30948  -0.1181  0.0026  1.0000  -1.4875   0.0000   0.0000   0.0000   0.3669
  22.700   0.8498   0.31186   0.30995  -0.1183  0.0026  1.0000  -1.4727   0.0000   0.0000   0.0000   0.3674
  22.800   0.8480   0.31234   0.31045  -0.1186  0.0026  1.0000  -1.4585   0.0000   0.0000   0.0000   0.3679
  22.900   0.8463   0.31284   0.31095  -0.1189  0.0026  1.0000  -1.4447   0.0000   0.0000   0.0000   0.3684
  23.000   0.8447   0.31336   0.31148  -0.1191  0.0026  1.0000  -1.4314   0.0000   0.0000   0.0000   0.3689
  23.100   0.8432   0.31389   0.31202  -0.1194  0.0026  1.0000  -1.4184   0.0000   0.0000   0.0000   0.3694
  23.200   0.8418   0.31443   0.31257  -0.1197  0.0026  1.0000  -1.4059   0.0000   0.0000   0.0000   0.3699
  23.300   0.8405   0.31498   0.31313  -0.1200  0.0026  1.0000  -1.3937   0.0000   0.0000   0.0000   0.3703
  23.400   0.8393   0.31554   0.31370  -0.1203  0.0026  1.0000  -1.3819   0.0000   0.0000   0.0000   0.3708
  23.500   0.8381   0.31611   0.31428  -0.1206  0.0026  1.0000  -1.3704   0.0000   0.0000   0.0000   0.3713
  23.600   0.8370   0.31669   0.31486  -0.1209  0.0026  1.0000  -1.3592   0.0000   0.0000   0.0000   0.3717
  23.700   0.8360   0.31728   0.31546  -0.1213  0.0026  1.0000  -1.3483   0.0000   0.0000   0.0000   0.3722
  23.800   0.8350   0.31787   0.31606  -0.1216  0.0026  1.0000  -1.3377   0.0000   0.0000   0.0000   0.3726
  23.900   0.8341   0.31847   0.31666  -0.1219  0.0026  1.0000  -1.3273   0.0000   0.0000   0.0000   0.3731
  24.000   0.8333   0.31908   0.31728  -0.1223  0.0026  1.0000  -1.3172   0.0000   0.0000   0.0000   0.3735
  24.100   0.8325   0.31969   0.31789  -0.1226  0.0026  1.0000  -1.3073   0.0000   0.0000   0.0000   0.3739
  24.200   0.8317   0.32030   0.31852  -0.1230  0.0026  1.0000  -1.2977   0.0000   0.0000   0.0000   0.3743
  24.300   0.8310   0.32092   0.31914  -0.1233  0.0026  1.0000  -1.2882   0.0000   0.0000   0.0000   0.3748
  24.400   0.8303   0.32155   0.31978  -0.1236  0.0026  1.0000  -1.2790   0.0000   0.0000   0.0000   0.3752
  24.500   0.8297   0.32218   0.32041  -0.1240  0.0026  1.0000  -1.2700   0.0000   0.0000   0.0000   0.3756
  24.600   0.8291   0.32281   0.32105  -0.1244  0.0026  1.0000  -1.2612   0.0000   0.0000   0.0000   0.3760
  24.700   0.8285   0.32345   0.32170  -0.1247  0.0026  1.0000  -1.2526   0.0000   0.0000   0.0000   0.3764
  24.800   0.8279   0.32410   0.32239  -0.1251  0.0026  1.0000  -1.2428   0.0000   0.0000   0.0000   0.3768
  24.900   0.8274   0.32474   0.32304  -0.1255  0.0026  1.0000  -1.2343   0.0000   0.0000   0.0000   0.3772
  25.000   0.8269   0.32539   0.32369  -0.1258  0.0026  1.0000  -1.2261   0.0000   0.0000   0.0000   0.3776
  25.100   0.8265   0.32604   0.32434  -0.1262  0.0026  1.0000  -1.2181   0.0000   0.0000   0.0000   0.3780
  25.200   0.8260   0.32669   0.32500  -0.1266  0.0026  1.0000  -1.2103   0.0000   0.0000   0.0000   0.3784
  25.300   0.8256   0.32734   0.32566  -0.1269  0.0026  1.0000  -1.2028   0.0000   0.0000   0.0000   0.3788
  25.400   0.8252   0.32799   0.32632  -0.1273  0.0026  1.0000  -1.1953   0.0000   0.0000   0.0000   0.3791
  25.500   0.8249   0.32865   0.32699  -0.1277  0.0026  1.0000  -1.1881   0.0000   0.0000   0.0000   0.3795
  25.600   0.8245   0.32931   0.32765  -0.1281  0.0026  1.0000  -1.1809   0.0000   0.0000   0.0000   0.3799
  25.700   0.8242   0.32997   0.32832  -0.1285  0.0026  1.0000  -1.1740   0.0000   0.0000   0.0000   0.3803
  25.800   0.8239   0.33064   0.32899  -0.1288  0.0026  1.0000  -1.1671   0.0000   0.0000   0.0000   0.3806
  25.900   0.8236   0.33130   0.32966  -0.1292  0.0026  1.0000  -1.1604   0.0000   0.0000   0.0000   0.3810
  26.000   0.8233   0.33197   0.33034  -0.1296  0.0026  1.0000  -1.1536   0.0000   0.0000   0.0000   0.3814
  26.100   0.8231   0.33264   0.33102  -0.1300  0.0026  1.0000  -1.1470   0.0000   0.0000   0.0000   0.3817
  26.200   0.8228   0.33331   0.33169  -0.1304  0.0026  1.0000  -1.1405   0.0000   0.0000   0.0000   0.3821
  26.300   0.8226   0.33398   0.33237  -0.1308  0.0026  1.0000  -1.1341   0.0000   0.0000   0.0000   0.3825
  26.400   0.8224   0.33466   0.33305  -0.1312  0.0026  1.0000  -1.1278   0.0000   0.0000   0.0000   0.3828
  26.500   0.8222   0.33533   0.33373  -0.1316  0.0026  1.0000  -1.1216   0.0000   0.0000   0.0000   0.3832
  26.600   0.8220   0.33601   0.33441  -0.1320  0.0026  1.0000  -1.1156   0.0000   0.0000   0.0000   0.3835
  26.700   0.8218   0.33668   0.33510  -0.1324  0.0026  1.0000  -1.1096   0.0000   0.0000   0.0000   0.3839
  26.800   0.8216   0.33736   0.33578  -0.1328  0.0026  1.0000  -1.1038   0.0000   0.0000   0.0000   0.3842
  26.900   0.8214   0.33804   0.33647  -0.1332  0.0026  1.0000  -1.0980   0.0000   0.0000   0.0000   0.3846
  27.000   0.8213   0.33872   0.33715  -0.1336  0.0026  1.0000  -1.0924   0.0000   0.0000   0.0000   0.3849
  27.100   0.8212   0.33940   0.33784  -0.1340  0.0026  1.0000  -1.0869   0.0000   0.0000   0.0000   0.3852
  27.200   0.8210   0.34008   0.33853  -0.1344  0.0026  1.0000  -1.0814   0.0000   0.0000   0.0000   0.3856
  27.300   0.8209   0.34077   0.33922  -0.1348  0.0026  1.0000  -1.0760   0.0000   0.0000   0.0000   0.3859
  27.400   0.8208   0.34145   0.33991  -0.1352  0.0026  1.0000  -1.0708   0.0000   0.0000   0.0000   0.3862
  27.500   0.8207   0.34213   0.34060  -0.1356  0.0026  1.0000  -1.0656   0.0000   0.0000   0.0000   0.3866
  27.600   0.8206   0.34282   0.34129  -0.1360  0.0026  1.0000  -1.0605   0.0000   0.0000   0.0000   0.3869
  27.700   0.8205   0.34350   0.34198  -0.1364  0.0025  1.0000  -1.0555   0.0000   0.0000   0.0000   0.3872
  27.800   0.8204   0.34419   0.34267  -0.1368  0.0025  1.0000  -1.0505   0.0000   0.0000   0.0000   0.3876
  27.900   0.8203   0.34487   0.34336  -0.1372  0.0025  1.0000  -1.0457   0.0000   0.0000   0.0000   0.3879
  28.000   0.8202   0.34556   0.34405  -0.1376  0.0025  1.0000  -1.0409   0.0000   0.0000   0.0000   0.3882
  28.100   0.8201   0.34625   0.34475  -0.1380  0.0025  1.0000  -1.0362   0.0000   0.0000   0.0000   0.3885
  28.200   0.8200   0.34693   0.34544  -0.1384  0.0025  1.0000  -1.0316   0.0000   0.0000   0.0000   0.3889
  28.300   0.8200   0.34762   0.34613  -0.1388  0.0025  1.0000  -1.0270   0.0000   0.0000   0.0000   0.3892
  28.400   0.8199   0.34831   0.34683  -0.1393  0.0025  1.0000  -1.0226   0.0000   0.0000   0.0000   0.3895
  28.500   0.8198   0.34900   0.34752  -0.1397  0.0025  1.0000  -1.0181   0.0000   0.0000   0.0000   0.3898
  28.600   0.8198   0.34968   0.34822  -0.1401  0.0025  1.0000  -1.0138   0.0000   0.0000   0.0000   0.3901
  28.700   0.8197   0.35037   0.34891  -0.1405  0.0025  1.0000  -1.0095   0.0000   0.0000   0.0000   0.3905
  28.800   0.8197   0.35106   0.34960  -0.1409  0.0025  1.0000  -1.0053   0.0000   0.0000   0.0000   0.3908
  28.900   0.8196   0.35174   0.35029  -0.1413  0.0025  1.0000  -1.0012   0.0000   0.0000   0.0000   0.3911
  29.000   0.8196   0.35243   0.35098  -0.1417  0.0025  1.0000  -0.9971   0.0000   0.0000   0.0000   0.3914
  29.100   0.8195   0.35311   0.35168  -0.1422  0.0025  1.0000  -0.9930   0.0000   0.0000   0.0000   0.3917
  29.200   0.8195   0.35380   0.35237  -0.1426  0.0025  1.0000  -0.9891   0.0000   0.0000   0.0000   0.3920
  29.300   0.8194   0.35448   0.35306  -0.1430  0.0025  1.0000  -0.9852   0.0000   0.0000   0.0000   0.3923
  29.400   0.8194   0.35517   0.35375  -0.1434  0.0025  1.0000  -0.9813   0.0000   0.0000   0.0000   0.3926
  29.500   0.8193   0.35585   0.35444  -0.1438  0.0025  1.0000  -0.9775   0.0000   0.0000   0.0000   0.3929


