xflr5 v6.61

 Calculated polar for: E178

 1 1 Reynolds number fixed          Mach number fixed         

 xtrf =   1.000 (top)        1.000 (bottom)
 Mach =   0.000     Re =     0.130 e 6     Ncrit =   9.000

  alpha     CL        CD       CDp       Cm    Top Xtr Bot Xtr   Cpmin    Chinge    XCp    
 ------- -------- --------- --------- -------- ------- ------- -------- --------- ---------
 -10.000  -0.4623   0.12212   0.11765   0.0038  1.0000  0.0408  -1.3986   0.0000   0.0000   0.0000   0.2538
  -9.900  -0.4608   0.12092   0.11647   0.0028  1.0000  0.0414  -1.4125   0.0000   0.0000   0.0000   0.2517
  -9.800  -0.4595   0.11980   0.11536   0.0017  1.0000  0.0420  -1.4295   0.0000   0.0000   0.0000   0.2493
  -9.700  -0.4583   0.11877   0.11435   0.0004  1.0000  0.0426  -1.4496   0.0000   0.0000   0.0000   0.2467
  -9.600  -0.4571   0.11784   0.11344  -0.0009  1.0000  0.0431  -1.4716   0.0000   0.0000   0.0000   0.2438
  -9.500  -0.4558   0.11697   0.11258  -0.0023  1.0000  0.0436  -1.4923   0.0000   0.0000   0.0000   0.2408
  -9.400  -0.4544   0.11605   0.11168  -0.0036  1.0000  0.0439  -1.5113   0.0000   0.0000   0.0000   0.2380
  -9.300  -0.4526   0.11504   0.11070  -0.0048  1.0000  0.0442  -1.5245   0.0000   0.0000   0.0000   0.2355
  -9.200  -0.4505   0.11394   0.10961  -0.0058  1.0000  0.0444  -1.5344   0.0000   0.0000   0.0000   0.2332
  -9.100  -0.4485   0.11275   0.10843  -0.0068  1.0000  0.0445  -1.5442   0.0000   0.0000   0.0000   0.2310
  -9.000  -0.4466   0.11150   0.10720  -0.0077  1.0000  0.0447  -1.5539   0.0000   0.0000   0.0000   0.2288
  -8.900  -0.4447   0.11019   0.10591  -0.0087  1.0000  0.0447  -1.5638   0.0000   0.0000   0.0000   0.2265
  -8.800  -0.4428   0.10883   0.10457  -0.0097  1.0000  0.0448  -1.5738   0.0000   0.0000   0.0000   0.2243
  -8.700  -0.4409   0.10744   0.10319  -0.0107  1.0000  0.0449  -1.5841   0.0000   0.0000   0.0000   0.2219
  -8.600  -0.4391   0.10602   0.10179  -0.0118  1.0000  0.0449  -1.5946   0.0000   0.0000   0.0000   0.2196
  -8.500  -0.4373   0.10458   0.10037  -0.0128  1.0000  0.0450  -1.6055   0.0000   0.0000   0.0000   0.2172
  -8.400  -0.4356   0.10311   0.09893  -0.0138  1.0000  0.0450  -1.6169   0.0000   0.0000   0.0000   0.2147
  -8.300  -0.4340   0.10163   0.09747  -0.0149  1.0000  0.0451  -1.6286   0.0000   0.0000   0.0000   0.2121
  -8.200  -0.4324   0.10012   0.09598  -0.0161  1.0000  0.0451  -1.6409   0.0000   0.0000   0.0000   0.2094
  -8.100  -0.4309   0.09860   0.09448  -0.0172  1.0000  0.0451  -1.6538   0.0000   0.0000   0.0000   0.2066
  -8.000  -0.4295   0.09706   0.09296  -0.0185  1.0000  0.0451  -1.6675   0.0000   0.0000   0.0000   0.2037
  -7.900  -0.4282   0.09549   0.09142  -0.0198  1.0000  0.0452  -1.6820   0.0000   0.0000   0.0000   0.2005
  -7.800  -0.4267   0.09389   0.08984  -0.0213  1.0000  0.0452  -1.6976   0.0000   0.0000   0.0000   0.1969
  -7.700  -0.4245   0.09216   0.08813  -0.0231  1.0000  0.0452  -1.7139   0.0000   0.0000   0.0000   0.1926
  -7.600  -0.4217   0.09036   0.08633  -0.0249  1.0000  0.0452  -1.7305   0.0000   0.0000   0.0000   0.1879
  -7.500  -0.4187   0.08852   0.08450  -0.0267  1.0000  0.0452  -1.7474   0.0000   0.0000   0.0000   0.1833
  -7.400  -0.4248   0.08385   0.07991  -0.0288  1.0000  0.0460  -1.8404   0.0000   0.0000   0.0000   0.1793
  -7.300  -0.4271   0.08058   0.07666  -0.0299  1.0000  0.0467  -1.8769   0.0000   0.0000   0.0000   0.1771
  -7.200  -0.4265   0.07822   0.07432  -0.0308  1.0000  0.0472  -1.8863   0.0000   0.0000   0.0000   0.1749
  -7.100  -0.4242   0.07628   0.07239  -0.0313  1.0000  0.0477  -1.8782   0.0000   0.0000   0.0000   0.1733
  -7.000  -0.4209   0.07464   0.07077  -0.0314  1.0000  0.0482  -1.8552   0.0000   0.0000   0.0000   0.1726
  -6.900  -0.4173   0.07306   0.06921  -0.0318  1.0000  0.0487  -1.8354   0.0000   0.0000   0.0000   0.1711
  -6.800  -0.4136   0.07149   0.06765  -0.0323  1.0000  0.0492  -1.8189   0.0000   0.0000   0.0000   0.1691
  -6.700  -0.4097   0.06993   0.06610  -0.0331  1.0000  0.0497  -1.8049   0.0000   0.0000   0.0000   0.1666
  -6.600  -0.4056   0.06836   0.06454  -0.0339  1.0000  0.0502  -1.7931   0.0000   0.0000   0.0000   0.1637
  -6.500  -0.4014   0.06679   0.06298  -0.0349  1.0000  0.0507  -1.7833   0.0000   0.0000   0.0000   0.1605
  -6.400  -0.3970   0.06523   0.06142  -0.0358  1.0000  0.0513  -1.7739   0.0000   0.0000   0.0000   0.1572
  -6.300  -0.3925   0.06366   0.05986  -0.0368  1.0000  0.0519  -1.7664   0.0000   0.0000   0.0000   0.1536
  -6.200  -0.3880   0.06210   0.05830  -0.0379  1.0000  0.0525  -1.7613   0.0000   0.0000   0.0000   0.1499
  -6.100  -0.3839   0.06056   0.05676  -0.0388  1.0000  0.0532  -1.7589   0.0000   0.0000   0.0000   0.1464
  -6.000  -0.3808   0.05912   0.05532  -0.0396  1.0000  0.0537  -1.7596   0.0000   0.0000   0.0000   0.1436
  -5.900  -0.3813   0.05802   0.05423  -0.0395  1.0000  0.0541  -1.7650   0.0000   0.0000   0.0000   0.1439
  -5.800  -0.3890   0.05765   0.05389  -0.0379  1.0000  0.0541  -1.7769   0.0000   0.0000   0.0000   0.1502
  -5.700  -0.3864   0.05634   0.05255  -0.0387  0.9972  0.0546  -1.7812   0.0000   0.0000   0.0000   0.1474
  -5.600  -0.3635   0.05152   0.04738  -0.0444  0.9913  0.0420  -1.9943   0.0000   0.0000   0.0000   0.1252
  -5.500  -0.3520   0.04786   0.04364  -0.0475  0.9874  0.0379  -2.0306   0.0000   0.0000   0.0000   0.1123
  -5.400  -0.3388   0.04419   0.03977  -0.0504  0.9819  0.0342  -2.1204   0.0000   0.0000   0.0000   0.0983
  -5.300  -0.3202   0.03832   0.03320  -0.0535  0.9771  0.0275  -2.4946   0.0000   0.0000   0.0000   0.0795
  -5.200  -0.3033   0.03661   0.03129  -0.0553  0.9739  0.0271  -2.4814   0.0000   0.0000   0.0000   0.0641
  -5.100  -0.2879   0.03475   0.02922  -0.0569  0.9704  0.0270  -2.4720   0.0000   0.0000   0.0000   0.0485
  -5.000  -0.2757   0.03293   0.02720  -0.0579  0.9647  0.0271  -2.4705   0.0000   0.0000   0.0000   0.0360
  -4.900  -0.2625   0.03096   0.02499  -0.0590  0.9599  0.0273  -2.4715   0.0000   0.0000   0.0000   0.0209
  -4.800  -0.2488   0.02901   0.02280  -0.0602  0.9559  0.0278  -2.4665   0.0000   0.0000   0.0000   0.0036
  -4.700  -0.2345   0.02734   0.02094  -0.0614  0.9524  0.0287  -2.4373   0.0000   0.0000   0.0000  -0.0164
  -4.600  -0.2210   0.02626   0.01975  -0.0623  0.9483  0.0299  -2.3753   0.0000   0.0000   0.0000  -0.0365
  -4.500  -0.2102   0.02560   0.01902  -0.0625  0.9421  0.0312  -2.3103   0.0000   0.0000   0.0000  -0.0522
  -4.400  -0.1977   0.02496   0.01827  -0.0630  0.9369  0.0326  -2.2467   0.0000   0.0000   0.0000  -0.0735
  -4.300  -0.1845   0.02451   0.01777  -0.0635  0.9323  0.0347  -2.1668   0.0000   0.0000   0.0000  -0.0994
  -4.200  -0.1690   0.02604   0.01940  -0.0643  0.9280  0.0435  -1.9725   0.0000   0.0000   0.0000  -0.1355
  -4.100  -0.1584   0.02432   0.01745  -0.0649  0.9242  0.0491  -1.9464   0.0000   0.0000   0.0000  -0.1650
  -4.000  -0.1498   0.02513   0.01859  -0.0653  0.9185  0.0599  -1.7641   0.0000   0.0000   0.0000  -0.1912
  -3.900  -0.1397   0.02425   0.01756  -0.0650  0.9130  0.0599  -1.7541   0.0000   0.0000   0.0000  -0.2209
  -3.800  -0.1289   0.02309   0.01619  -0.0647  0.9081  0.0580  -1.7645   0.0000   0.0000   0.0000  -0.2580
  -3.700  -0.1177   0.02202   0.01491  -0.0644  0.9035  0.0564  -1.7723   0.0000   0.0000   0.0000  -0.3038
  -3.600  -0.1063   0.02108   0.01377  -0.0640  0.8993  0.0552  -1.7750   0.0000   0.0000   0.0000  -0.3593
  -3.500  -0.0951   0.02025   0.01277  -0.0636  0.8954  0.0543  -1.7711   0.0000   0.0000   0.0000  -0.4262
  -3.300  -0.0739   0.01887   0.01112  -0.0627  0.8867  0.0534  -1.7519   0.0000   0.0000   0.0000  -0.6074
  -3.200  -0.0638   0.01823   0.01039  -0.0622  0.8817  0.0532  -1.7375   0.0000   0.0000   0.0000  -0.7351
  -3.100  -0.0537   0.01761   0.00966  -0.0616  0.8768  0.0528  -1.7184   0.0000   0.0000   0.0000  -0.9102
  -3.000  -0.0431   0.01718   0.00877  -0.0609  0.8722  0.0489  -1.6362   0.0000   0.0000   0.0000  -1.1803
  -2.900  -0.0336   0.01670   0.00823  -0.0604  0.8679  0.0499  -1.6189   0.0000   0.0000   0.0000  -1.5680
  -2.800  -0.0242   0.01627   0.00776  -0.0598  0.8640  0.0514  -1.6015   0.0000   0.0000   0.0000  -2.2433
  -2.700  -0.0149   0.01592   0.00736  -0.0592  0.8604  0.0539  -1.5832   0.0000   0.0000   0.0000  -3.7732
  -2.600  -0.0053   0.01566   0.00704  -0.0587  0.8569  0.0578  -1.5672   0.0000   0.0000   0.0000  -11.0290
  -2.500   0.0048   0.01538   0.00669  -0.0583  0.8535  0.0658  -1.5680   0.0000   0.0000   0.0000  12.4131
  -2.400   0.0113   0.01393   0.00606  -0.0577  0.8499  0.2252  -1.6690   0.0000   0.0000   0.0000   5.3905
  -2.300   0.0195   0.01349   0.00601  -0.0574  0.8460  0.3209  -1.6253   0.0000   0.0000   0.0000   3.2165
  -2.200   0.0271   0.01307   0.00601  -0.0569  0.8421  0.4226  -1.5721   0.0000   0.0000   0.0000   2.3714
  -2.100   0.0341   0.01268   0.00603  -0.0561  0.8384  0.5253  -1.5168   0.0000   0.0000   0.0000   1.9090
  -2.000   0.0402   0.01225   0.00608  -0.0547  0.8349  0.6468  -1.4618   0.0000   0.0000   0.0000   1.6238
  -1.900   0.1096   0.01131   0.00580  -0.0640  0.8366  1.0000  -1.1947   0.0000   0.0000   0.0000   0.8381
  -1.800   0.1186   0.01135   0.00574  -0.0637  0.8327  1.0000  -1.1332   0.0000   0.0000   0.0000   0.7904
  -1.700   0.1275   0.01140   0.00568  -0.0633  0.8290  1.0000  -1.0720   0.0000   0.0000   0.0000   0.7492
  -1.600   0.1364   0.01145   0.00564  -0.0628  0.8255  1.0000  -1.0113   0.0000   0.0000   0.0000   0.7133
  -1.500   0.1452   0.01151   0.00560  -0.0624  0.8221  1.0000  -0.9512   0.0000   0.0000   0.0000   0.6818
  -1.400   0.1541   0.01161   0.00561  -0.0619  0.8188  1.0000  -0.8916   0.0000   0.0000   0.0000   0.6538
  -1.300   0.1633   0.01176   0.00566  -0.0616  0.8153  1.0000  -0.8321   0.0000   0.0000   0.0000   0.6289
  -1.200   0.1734   0.01180   0.00565  -0.0616  0.8123  1.0000  -0.7706   0.0000   0.0000   0.0000   0.6065
  -1.100   0.1834   0.01185   0.00564  -0.0615  0.8088  1.0000  -0.7105   0.0000   0.0000   0.0000   0.5866
  -1.000   0.1932   0.01191   0.00564  -0.0613  0.8049  1.0000  -0.6517   0.0000   0.0000   0.0000   0.5686
  -0.900   0.2028   0.01196   0.00564  -0.0611  0.8010  1.0000  -0.5939   0.0000   0.0000   0.0000   0.5522
  -0.800   0.2123   0.01201   0.00563  -0.0608  0.7971  1.0000  -0.5373   0.0000   0.0000   0.0000   0.5372
  -0.700   0.2218   0.01207   0.00562  -0.0605  0.7933  1.0000  -0.4816   0.0000   0.0000   0.0000   0.5233
  -0.600   0.2312   0.01212   0.00561  -0.0601  0.7898  1.0000  -0.4780   0.0000   0.0000   0.0000   0.5105
  -0.500   0.2407   0.01217   0.00561  -0.0598  0.7865  1.0000  -0.4841   0.0000   0.0000   0.0000   0.4986
  -0.400   0.2501   0.01224   0.00561  -0.0594  0.7835  1.0000  -0.4903   0.0000   0.0000   0.0000   0.4876
  -0.300   0.2596   0.01232   0.00563  -0.0590  0.7807  1.0000  -0.4964   0.0000   0.0000   0.0000   0.4774
  -0.200   0.2691   0.01242   0.00568  -0.0587  0.7779  1.0000  -0.5025   0.0000   0.0000   0.0000   0.4680
  -0.100   0.2786   0.01259   0.00579  -0.0584  0.7748  1.0000  -0.5084   0.0000   0.0000   0.0000   0.4593
   0.000   0.2884   0.01277   0.00593  -0.0582  0.7719  1.0000  -0.5144   0.0000   0.0000   0.0000   0.4515
   0.100   0.2989   0.01283   0.00597  -0.0583  0.7695  1.0000  -0.5206   0.0000   0.0000   0.0000   0.4445
   0.200   0.3093   0.01291   0.00603  -0.0583  0.7668  1.0000  -0.5267   0.0000   0.0000   0.0000   0.4379
   0.300   0.3197   0.01299   0.00610  -0.0583  0.7639  1.0000  -0.5329   0.0000   0.0000   0.0000   0.4317
   0.400   0.3300   0.01308   0.00617  -0.0582  0.7609  1.0000  -0.5390   0.0000   0.0000   0.0000   0.4258
   0.500   0.3402   0.01317   0.00624  -0.0582  0.7578  1.0000  -0.5451   0.0000   0.0000   0.0000   0.4202
   0.600   0.3503   0.01326   0.00631  -0.0581  0.7548  1.0000  -0.5518   0.0000   0.0000   0.0000   0.4149
   0.700   0.3605   0.01335   0.00638  -0.0579  0.7518  1.0000  -0.5594   0.0000   0.0000   0.0000   0.4098
   0.800   0.3706   0.01343   0.00645  -0.0578  0.7488  1.0000  -0.5677   0.0000   0.0000   0.0000   0.4049
   0.900   0.3806   0.01352   0.00656  -0.0576  0.7459  1.0000  -0.5761   0.0000   0.0000   0.0000   0.4002
   1.000   0.3906   0.01359   0.00660  -0.0573  0.7431  1.0000  -0.5845   0.0000   0.0000   0.0000   0.3956
   1.100   0.4005   0.01365   0.00663  -0.0570  0.7402  1.0000  -0.5929   0.0000   0.0000   0.0000   0.3911
   1.200   0.4103   0.01372   0.00666  -0.0566  0.7373  1.0000  -0.6014   0.0000   0.0000   0.0000   0.3868
   1.300   0.4201   0.01382   0.00672  -0.0563  0.7344  1.0000  -0.6102   0.0000   0.0000   0.0000   0.3826
   1.400   0.4297   0.01397   0.00683  -0.0559  0.7313  1.0000  -0.6198   0.0000   0.0000   0.0000   0.3787
   1.500   0.4390   0.01427   0.00711  -0.0556  0.7277  1.0000  -0.6290   0.0000   0.0000   0.0000   0.3752
   1.600   0.4495   0.01438   0.00721  -0.0556  0.7253  1.0000  -0.6402   0.0000   0.0000   0.0000   0.3722
   1.700   0.4601   0.01446   0.00730  -0.0557  0.7229  1.0000  -0.6515   0.0000   0.0000   0.0000   0.3694
   1.800   0.4706   0.01456   0.00741  -0.0557  0.7204  1.0000  -0.6628   0.0000   0.0000   0.0000   0.3667
   1.900   0.4810   0.01467   0.00753  -0.0558  0.7176  1.0000  -0.6750   0.0000   0.0000   0.0000   0.3642
   2.000   0.4914   0.01479   0.00766  -0.0558  0.7147  1.0000  -0.6881   0.0000   0.0000   0.0000   0.3617
   2.100   0.5017   0.01490   0.00777  -0.0557  0.7116  1.0000  -0.7013   0.0000   0.0000   0.0000   0.3592
   2.200   0.5119   0.01499   0.00787  -0.0556  0.7083  1.0000  -0.7160   0.0000   0.0000   0.0000   0.3567
   2.300   0.5221   0.01507   0.00794  -0.0554  0.7049  1.0000  -0.7317   0.0000   0.0000   0.0000   0.3541
   2.400   0.5322   0.01513   0.00800  -0.0552  0.7016  1.0000  -0.7475   0.0000   0.0000   0.0000   0.3516
   2.500   0.5423   0.01517   0.00803  -0.0549  0.6982  1.0000  -0.7636   0.0000   0.0000   0.0000   0.3490
   2.600   0.5523   0.01520   0.00804  -0.0545  0.6949  1.0000  -0.7797   0.0000   0.0000   0.0000   0.3465
   2.700   0.5624   0.01523   0.00806  -0.0541  0.6917  1.0000  -0.7983   0.0000   0.0000   0.0000   0.3439
   2.800   0.5724   0.01528   0.00810  -0.0538  0.6887  1.0000  -0.8179   0.0000   0.0000   0.0000   0.3415
   2.900   0.5824   0.01540   0.00819  -0.0534  0.6855  1.0000  -0.8373   0.0000   0.0000   0.0000   0.3392
   3.000   0.5919   0.01566   0.00843  -0.0530  0.6819  1.0000  -0.8562   0.0000   0.0000   0.0000   0.3370
   3.100   0.6017   0.01592   0.00871  -0.0529  0.6784  1.0000  -0.8778   0.0000   0.0000   0.0000   0.3353
   3.200   0.6122   0.01595   0.00879  -0.0529  0.6757  1.0000  -0.9019   0.0000   0.0000   0.0000   0.3337
   3.300   0.6225   0.01602   0.00889  -0.0529  0.6724  1.0000  -0.9261   0.0000   0.0000   0.0000   0.3321
   3.400   0.6328   0.01609   0.00899  -0.0528  0.6687  1.0000  -0.9503   0.0000   0.0000   0.0000   0.3305
   3.500   0.6429   0.01614   0.00907  -0.0526  0.6645  1.0000  -0.9753   0.0000   0.0000   0.0000   0.3289
   3.600   0.6531   0.01616   0.00912  -0.0524  0.6601  1.0000  -1.0069   0.0000   0.0000   0.0000   0.3272
   3.700   0.6633   0.01616   0.00913  -0.0521  0.6559  1.0000  -1.0389   0.0000   0.0000   0.0000   0.3254
   3.800   0.6735   0.01615   0.00913  -0.0517  0.6518  1.0000  -1.0713   0.0000   0.0000   0.0000   0.3236
   3.900   0.6838   0.01613   0.00911  -0.0513  0.6479  1.0000  -1.1041   0.0000   0.0000   0.0000   0.3218
   4.000   0.6941   0.01609   0.00906  -0.0509  0.6441  1.0000  -1.1373   0.0000   0.0000   0.0000   0.3199
   4.100   0.7044   0.01606   0.00902  -0.0504  0.6403  1.0000  -1.1707   0.0000   0.0000   0.0000   0.3181
   4.200   0.7145   0.01612   0.00907  -0.0500  0.6364  1.0000  -1.2038   0.0000   0.0000   0.0000   0.3164
   4.300   0.7239   0.01648   0.00941  -0.0496  0.6310  1.0000  -1.2410   0.0000   0.0000   0.0000   0.3148
   4.400   0.7343   0.01640   0.00940  -0.0494  0.6276  1.0000  -1.3078   0.0000   0.0000   0.0000   0.3136
   4.500   0.7444   0.01637   0.00942  -0.0492  0.6230  1.0000  -1.3750   0.0000   0.0000   0.0000   0.3123
   4.600   0.7550   0.01636   0.00982  -0.0490  0.6192  1.0000  -1.5971   0.0000   0.0000   0.0000   0.3110
   4.700   0.7626   0.01418   0.00717  -0.0449  0.5773  1.0000  -1.7296   0.0000   0.0000   0.0000   0.3048
   4.800   0.7703   0.01340   0.00617  -0.0432  0.5400  1.0000  -1.8296   0.0000   0.0000   0.0000   0.3018
   4.900   0.7801   0.01337   0.00609  -0.0427  0.5275  1.0000  -1.9240   0.0000   0.0000   0.0000   0.3005
   5.000   0.7902   0.01336   0.00613  -0.0425  0.5141  1.0000  -2.0169   0.0000   0.0000   0.0000   0.2993
   5.100   0.8000   0.01335   0.00610  -0.0421  0.4996  1.0000  -2.1085   0.0000   0.0000   0.0000   0.2981
   5.200   0.8094   0.01339   0.00603  -0.0416  0.4854  1.0000  -2.1986   0.0000   0.0000   0.0000   0.2967
   5.300   0.8196   0.01345   0.00615  -0.0414  0.4711  1.0000  -2.2896   0.0000   0.0000   0.0000   0.2957
   5.400   0.8275   0.01356   0.00604  -0.0407  0.4334  1.0000  -2.3737   0.0000   0.0000   0.0000   0.2943
   5.500   0.8323   0.01404   0.00601  -0.0397  0.3480  1.0000  -2.4440   0.0000   0.0000   0.0000   0.2927
   5.600   0.8368   0.01478   0.00627  -0.0390  0.2747  1.0000  -2.5088   0.0000   0.0000   0.0000   0.2915
   5.700   0.8428   0.01543   0.00664  -0.0385  0.2254  1.0000  -2.5765   0.0000   0.0000   0.0000   0.2905
   5.800   0.8491   0.01608   0.00704  -0.0381  0.1823  1.0000  -2.6416   0.0000   0.0000   0.0000   0.2896
   5.900   0.8528   0.01708   0.00758  -0.0375  0.1157  1.0000  -2.6923   0.0000   0.0000   0.0000   0.2886
   6.000   0.8557   0.01818   0.00820  -0.0369  0.0520  1.0000  -2.7370   0.0000   0.0000   0.0000   0.2876
   6.100   0.8615   0.01891   0.00872  -0.0363  0.0280  1.0000  -2.7898   0.0000   0.0000   0.0000   0.2865
   6.200   0.8694   0.01938   0.00918  -0.0358  0.0223  1.0000  -2.8417   0.0000   0.0000   0.0000   0.2855
   6.300   0.8779   0.01975   0.00957  -0.0354  0.0205  1.0000  -2.9022   0.0000   0.0000   0.0000   0.2844
   6.400   0.8865   0.02011   0.01001  -0.0349  0.0195  1.0000  -2.9696   0.0000   0.0000   0.0000   0.2835
   6.500   0.8948   0.02049   0.01048  -0.0345  0.0188  1.0000  -3.0371   0.0000   0.0000   0.0000   0.2825
   6.600   0.9029   0.02090   0.01097  -0.0341  0.0182  1.0000  -3.1044   0.0000   0.0000   0.0000   0.2815
   6.700   0.9107   0.02133   0.01149  -0.0336  0.0177  1.0000  -3.1708   0.0000   0.0000   0.0000   0.2806
   6.800   0.9182   0.02179   0.01204  -0.0331  0.0173  1.0000  -3.2357   0.0000   0.0000   0.0000   0.2796
   6.900   0.9254   0.02228   0.01261  -0.0325  0.0170  1.0000  -3.2989   0.0000   0.0000   0.0000   0.2786
   7.000   0.9322   0.02280   0.01322  -0.0319  0.0167  1.0000  -3.3600   0.0000   0.0000   0.0000   0.2776
   7.100   0.9387   0.02336   0.01386  -0.0313  0.0165  1.0000  -3.4188   0.0000   0.0000   0.0000   0.2766
   7.200   0.9448   0.02395   0.01452  -0.0307  0.0164  1.0000  -3.4753   0.0000   0.0000   0.0000   0.2756
   7.300   0.9507   0.02457   0.01521  -0.0300  0.0163  1.0000  -3.5295   0.0000   0.0000   0.0000   0.2746
   7.400   0.9564   0.02522   0.01593  -0.0293  0.0162  1.0000  -3.5820   0.0000   0.0000   0.0000   0.2735
   7.500   0.9620   0.02591   0.01668  -0.0285  0.0162  1.0000  -3.6324   0.0000   0.0000   0.0000   0.2725
   7.600   0.9679   0.02664   0.01745  -0.0278  0.0162  1.0000  -3.6817   0.0000   0.0000   0.0000   0.2714
   7.700   0.9739   0.02740   0.01827  -0.0271  0.0163  1.0000  -3.7297   0.0000   0.0000   0.0000   0.2704
   7.800   0.9804   0.02822   0.01914  -0.0264  0.0163  1.0000  -3.7769   0.0000   0.0000   0.0000   0.2694
   7.900   0.9874   0.02909   0.02007  -0.0257  0.0165  1.0000  -3.8229   0.0000   0.0000   0.0000   0.2684
   8.000   0.9950   0.03003   0.02107  -0.0251  0.0166  1.0000  -3.8673   0.0000   0.0000   0.0000   0.2675
   8.100   1.0031   0.03105   0.02217  -0.0245  0.0168  1.0000  -3.9088   0.0000   0.0000   0.0000   0.2666
   8.200   1.0114   0.03216   0.02337  -0.0240  0.0171  1.0000  -3.9473   0.0000   0.0000   0.0000   0.2657
   8.300   1.0198   0.03336   0.02468  -0.0234  0.0174  1.0000  -3.9819   0.0000   0.0000   0.0000   0.2649
   8.400   1.0279   0.03466   0.02608  -0.0229  0.0177  1.0000  -4.0120   0.0000   0.0000   0.0000   0.2641
   8.500   1.0355   0.03603   0.02759  -0.0224  0.0181  1.0000  -4.0376   0.0000   0.0000   0.0000   0.2633
   8.600   1.0424   0.03749   0.02918  -0.0218  0.0185  1.0000  -4.0584   0.0000   0.0000   0.0000   0.2625
   8.700   1.0485   0.03903   0.03087  -0.0212  0.0189  1.0000  -4.0740   0.0000   0.0000   0.0000   0.2617
   8.800   1.0536   0.04066   0.03265  -0.0206  0.0193  1.0000  -4.0840   0.0000   0.0000   0.0000   0.2609
   8.900   1.0576   0.04237   0.03452  -0.0199  0.0197  1.0000  -4.0879   0.0000   0.0000   0.0000   0.2601
   9.000   1.0611   0.04396   0.03656  -0.0193  0.0200  1.0000  -4.0809   0.0000   0.0000   0.0000   0.2593
   9.100   1.0630   0.04590   0.03867  -0.0186  0.0204  1.0000  -4.0702   0.0000   0.0000   0.0000   0.2586
   9.200   1.0633   0.04812   0.04105  -0.0179  0.0208  1.0000  -4.0465   0.0000   0.0000   0.0000   0.2578
   9.300   1.0628   0.05158   0.04471  -0.0174  0.0216  1.0000  -3.9801   0.0000   0.0000   0.0000   0.2573
   9.400   1.0741   0.05097   0.04410  -0.0170  0.0222  1.0000  -4.1029   0.0000   0.0000   0.0000   0.2565
   9.500   1.0826   0.05076   0.04396  -0.0163  0.0229  1.0000  -4.1868   0.0000   0.0000   0.0000   0.2556
   9.600   1.0862   0.05143   0.04485  -0.0152  0.0241  1.0000  -4.1868   0.0000   0.0000   0.0000   0.2545
   9.700   1.0842   0.05361   0.04735  -0.0140  0.0258  1.0000  -4.0830   0.0000   0.0000   0.0000   0.2533
   9.800   1.0776   0.05578   0.04978  -0.0129  0.0269  1.0000  -3.9933   0.0000   0.0000   0.0000   0.2523
   9.900   1.0707   0.05770   0.05189  -0.0118  0.0277  1.0000  -3.9297   0.0000   0.0000   0.0000   0.2513
  10.000   1.0634   0.05940   0.05373  -0.0108  0.0283  1.0000  -3.8825   0.0000   0.0000   0.0000   0.2503
  10.100   1.0561   0.06105   0.05550  -0.0100  0.0288  1.0000  -3.8430   0.0000   0.0000   0.0000   0.2496
  10.200   1.0488   0.06272   0.05727  -0.0095  0.0293  1.0000  -3.8072   0.0000   0.0000   0.0000   0.2490
  10.300   1.0414   0.06442   0.05906  -0.0091  0.0297  1.0000  -3.7740   0.0000   0.0000   0.0000   0.2486
  10.400   1.0340   0.06615   0.06088  -0.0090  0.0300  1.0000  -3.7426   0.0000   0.0000   0.0000   0.2484
  10.500   1.0264   0.06791   0.06273  -0.0090  0.0303  1.0000  -3.7127   0.0000   0.0000   0.0000   0.2484
  10.600   1.0187   0.06971   0.06460  -0.0093  0.0305  1.0000  -3.6834   0.0000   0.0000   0.0000   0.2486
  10.700   1.0110   0.07158   0.06655  -0.0097  0.0307  1.0000  -3.6543   0.0000   0.0000   0.0000   0.2489
  10.800   1.0032   0.07354   0.06857  -0.0103  0.0308  1.0000  -3.6246   0.0000   0.0000   0.0000   0.2495
  10.900   0.9954   0.07557   0.07067  -0.0111  0.0309  1.0000  -3.5945   0.0000   0.0000   0.0000   0.2502
  11.000   0.9875   0.07769   0.07286  -0.0120  0.0310  1.0000  -3.5632   0.0000   0.0000   0.0000   0.2511
  11.100   0.9795   0.07989   0.07511  -0.0131  0.0310  1.0000  -3.5313   0.0000   0.0000   0.0000   0.2522
  11.200   0.9715   0.08215   0.07743  -0.0143  0.0309  1.0000  -3.4979   0.0000   0.0000   0.0000   0.2535
  11.300   0.9633   0.08448   0.07981  -0.0157  0.0309  1.0000  -3.4638   0.0000   0.0000   0.0000   0.2549
  11.400   0.9552   0.08694   0.08232  -0.0172  0.0308  1.0000  -3.4270   0.0000   0.0000   0.0000   0.2565
  11.500   0.9470   0.08956   0.08498  -0.0189  0.0306  1.0000  -3.3880   0.0000   0.0000   0.0000   0.2583
  11.600   0.9389   0.09236   0.08782  -0.0208  0.0305  1.0000  -3.3448   0.0000   0.0000   0.0000   0.2604
  11.700   0.9298   0.09552   0.09075  -0.0230  0.0303  1.0000  -3.2984   0.0000   0.0000   0.0000   0.2630
  11.800   0.9223   0.09859   0.09386  -0.0252  0.0301  1.0000  -3.2497   0.0000   0.0000   0.0000   0.2655
  11.900   0.9149   0.10185   0.09716  -0.0275  0.0299  1.0000  -3.1960   0.0000   0.0000   0.0000   0.2682
  12.000   0.9078   0.10532   0.10066  -0.0300  0.0297  1.0000  -3.1356   0.0000   0.0000   0.0000   0.2711
  12.100   0.9009   0.10901   0.10437  -0.0326  0.0295  1.0000  -3.0673   0.0000   0.0000   0.0000   0.2741
  12.200   0.8945   0.11293   0.10831  -0.0352  0.0294  1.0000  -2.9896   0.0000   0.0000   0.0000   0.2773
  12.300   0.8885   0.11717   0.11255  -0.0379  0.0295  1.0000  -2.8988   0.0000   0.0000   0.0000   0.2806
  12.400   0.8833   0.12134   0.11673  -0.0403  0.0297  1.0000  -2.8054   0.0000   0.0000   0.0000   0.2837
  12.500   0.8789   0.12510   0.12047  -0.0424  0.0301  1.0000  -2.7227   0.0000   0.0000   0.0000   0.2863
  12.600   0.8750   0.12853   0.12390  -0.0442  0.0307  1.0000  -2.6496   0.0000   0.0000   0.0000   0.2886
  12.700   0.8718   0.13170   0.12706  -0.0458  0.0314  1.0000  -2.5855   0.0000   0.0000   0.0000   0.2906
  12.800   0.8691   0.13464   0.12999  -0.0473  0.0322  1.0000  -2.5302   0.0000   0.0000   0.0000   0.2923
  12.900   0.8667   0.13739   0.13273  -0.0485  0.0331  1.0000  -2.4834   0.0000   0.0000   0.0000   0.2939
  13.000   0.8646   0.13998   0.13531  -0.0495  0.0342  1.0000  -2.4448   0.0000   0.0000   0.0000   0.2951
  13.500   0.8609   0.15826   0.15364  -0.0574  0.0624  1.0000  -1.9380   0.0000   0.0000   0.0000   0.3046
  13.600   0.8614   0.16020   0.15558  -0.0583  0.0623  1.0000  -1.9247   0.0000   0.0000   0.0000   0.3055
  13.700   0.8622   0.16210   0.15747  -0.0591  0.0621  1.0000  -1.9147   0.0000   0.0000   0.0000   0.3063
  13.800   0.8632   0.16397   0.15933  -0.0599  0.0619  1.0000  -1.9078   0.0000   0.0000   0.0000   0.3071
  13.900   0.8645   0.16580   0.16116  -0.0606  0.0617  1.0000  -1.9042   0.0000   0.0000   0.0000   0.3076
  14.000   0.8661   0.16762   0.16298  -0.0612  0.0614  1.0000  -1.9041   0.0000   0.0000   0.0000   0.3081
  14.100   0.8680   0.16943   0.16478  -0.0617  0.0611  1.0000  -1.9075   0.0000   0.0000   0.0000   0.3084
  14.200   0.8702   0.17125   0.16660  -0.0621  0.0608  1.0000  -1.9147   0.0000   0.0000   0.0000   0.3086
  14.300   0.8727   0.17310   0.16845  -0.0624  0.0604  1.0000  -1.9256   0.0000   0.0000   0.0000   0.3087
  14.400   0.8755   0.17503   0.17038  -0.0626  0.0600  1.0000  -1.9405   0.0000   0.0000   0.0000   0.3085
  14.500   0.8788   0.17713   0.17249  -0.0626  0.0595  1.0000  -1.9595   0.0000   0.0000   0.0000   0.3081
  14.600   0.8798   0.18002   0.17538  -0.0628  0.0588  1.0000  -1.9641   0.0000   0.0000   0.0000   0.3081
  14.700   0.8713   0.18713   0.18242  -0.0644  0.0574  1.0000  -1.8681   0.0000   0.0000   0.0000   0.3107
  14.800   0.8724   0.18917   0.18446  -0.0654  0.0574  1.0000  -1.8550   0.0000   0.0000   0.0000   0.3116
  14.900   0.8735   0.19119   0.18647  -0.0663  0.0573  1.0000  -1.8422   0.0000   0.0000   0.0000   0.3126
  15.000   0.8747   0.19318   0.18846  -0.0673  0.0573  1.0000  -1.8297   0.0000   0.0000   0.0000   0.3135
  15.100   0.8759   0.19515   0.19043  -0.0683  0.0572  1.0000  -1.8174   0.0000   0.0000   0.0000   0.3145
  15.200   0.8772   0.19709   0.19236  -0.0693  0.0572  1.0000  -1.8053   0.0000   0.0000   0.0000   0.3154
  15.300   0.8785   0.19898   0.19425  -0.0704  0.0571  1.0000  -1.7934   0.0000   0.0000   0.0000   0.3163
  15.400   0.8797   0.20083   0.19610  -0.0714  0.0570  1.0000  -1.7815   0.0000   0.0000   0.0000   0.3173
  15.500   0.8810   0.20262   0.19787  -0.0724  0.0569  1.0000  -1.7696   0.0000   0.0000   0.0000   0.3182
  15.600   0.8823   0.20431   0.19957  -0.0735  0.0568  1.0000  -1.7576   0.0000   0.0000   0.0000   0.3192
  15.700   0.8837   0.20588   0.20113  -0.0746  0.0566  1.0000  -1.7449   0.0000   0.0000   0.0000   0.3203
  15.800   0.8847   0.20725   0.20250  -0.0759  0.0562  1.0000  -1.7290   0.0000   0.0000   0.0000   0.3215
  15.900   0.8844   0.20834   0.20358  -0.0776  0.0557  1.0000  -1.6993   0.0000   0.0000   0.0000   0.3234
  16.000   0.8837   0.20938   0.20461  -0.0795  0.0548  1.0000  -1.6637   0.0000   0.0000   0.0000   0.3255
  16.100   0.8829   0.21068   0.20590  -0.0812  0.0539  1.0000  -1.6318   0.0000   0.0000   0.0000   0.3274
  16.200   0.8832   0.21232   0.20754  -0.0826  0.0530  1.0000  -1.6096   0.0000   0.0000   0.0000   0.3288
  16.300   0.8841   0.21412   0.20934  -0.0837  0.0521  1.0000  -1.5940   0.0000   0.0000   0.0000   0.3299
  16.400   0.8853   0.21600   0.21121  -0.0847  0.0513  1.0000  -1.5824   0.0000   0.0000   0.0000   0.3308
  16.500   0.8867   0.21792   0.21313  -0.0857  0.0505  1.0000  -1.5734   0.0000   0.0000   0.0000   0.3316
  16.600   0.8882   0.21985   0.21506  -0.0865  0.0498  1.0000  -1.5664   0.0000   0.0000   0.0000   0.3323
  16.700   0.8898   0.22180   0.21701  -0.0874  0.0491  1.0000  -1.5610   0.0000   0.0000   0.0000   0.3330
  16.800   0.8914   0.22375   0.21896  -0.0882  0.0484  1.0000  -1.5569   0.0000   0.0000   0.0000   0.3336
  16.900   0.8931   0.22571   0.22091  -0.0890  0.0478  1.0000  -1.5539   0.0000   0.0000   0.0000   0.3341
  17.000   0.8949   0.22762   0.22304  -0.0897  0.0467  1.0000  -1.5514   0.0000   0.0000   0.0000   0.3346
  17.100   0.8967   0.22956   0.22499  -0.0904  0.0461  1.0000  -1.5516   0.0000   0.0000   0.0000   0.3351
  17.200   0.8985   0.23149   0.22693  -0.0910  0.0454  1.0000  -1.5529   0.0000   0.0000   0.0000   0.3355
  17.300   0.9004   0.23343   0.22888  -0.0917  0.0448  1.0000  -1.5554   0.0000   0.0000   0.0000   0.3359
  17.400   0.9023   0.23537   0.23082  -0.0923  0.0442  1.0000  -1.5593   0.0000   0.0000   0.0000   0.3362
  17.500   0.9043   0.23731   0.23276  -0.0929  0.0437  1.0000  -1.5647   0.0000   0.0000   0.0000   0.3365
  17.600   0.9063   0.23925   0.23471  -0.0935  0.0431  1.0000  -1.5715   0.0000   0.0000   0.0000   0.3368
  17.700   0.9084   0.24119   0.23665  -0.0940  0.0426  1.0000  -1.5800   0.0000   0.0000   0.0000   0.3370
  17.800   0.9105   0.24313   0.23860  -0.0945  0.0421  1.0000  -1.5905   0.0000   0.0000   0.0000   0.3371
  17.900   0.9128   0.24509   0.24057  -0.0949  0.0416  1.0000  -1.6033   0.0000   0.0000   0.0000   0.3372
  18.000   0.9152   0.24708   0.24256  -0.0952  0.0411  1.0000  -1.6186   0.0000   0.0000   0.0000   0.3371
  18.100   0.9178   0.24911   0.24460  -0.0955  0.0406  1.0000  -1.6372   0.0000   0.0000   0.0000   0.3370
  18.200   0.9206   0.25121   0.24671  -0.0957  0.0402  1.0000  -1.6598   0.0000   0.0000   0.0000   0.3367
  18.300   0.9239   0.25346   0.24897  -0.0957  0.0397  1.0000  -1.6883   0.0000   0.0000   0.0000   0.3362
  18.400   0.9280   0.25601   0.25154  -0.0954  0.0392  1.0000  -1.7253   0.0000   0.0000   0.0000   0.3353
  18.500   0.9332   0.25924   0.25479  -0.0949  0.0387  1.0000  -1.7721   0.0000   0.0000   0.0000   0.3340
  18.600   0.9355   0.26460   0.26016  -0.0944  0.0379  1.0000  -1.7887   0.0000   0.0000   0.0000   0.3332
  18.700   0.9323   0.27114   0.26665  -0.0953  0.0373  1.0000  -1.7191   0.0000   0.0000   0.0000   0.3345
  18.800   0.9334   0.27326   0.26877  -0.0961  0.0373  1.0000  -1.7103   0.0000   0.0000   0.0000   0.3351
  18.900   0.9344   0.27537   0.27088  -0.0969  0.0373  1.0000  -1.7016   0.0000   0.0000   0.0000   0.3357
  19.000   0.9354   0.27746   0.27297  -0.0977  0.0372  1.0000  -1.6929   0.0000   0.0000   0.0000   0.3363
  19.100   0.9364   0.27952   0.27504  -0.0984  0.0372  1.0000  -1.6841   0.0000   0.0000   0.0000   0.3369
  19.200   0.9372   0.28157   0.27709  -0.0992  0.0372  1.0000  -1.6753   0.0000   0.0000   0.0000   0.3375
  19.300   0.9381   0.28360   0.27912  -0.1000  0.0371  1.0000  -1.6664   0.0000   0.0000   0.0000   0.3381
  19.400   0.9388   0.28559   0.28112  -0.1007  0.0371  1.0000  -1.6574   0.0000   0.0000   0.0000   0.3387
  19.500   0.9395   0.28756   0.28309  -0.1015  0.0370  1.0000  -1.6483   0.0000   0.0000   0.0000   0.3393
  19.600   0.9401   0.28949   0.28503  -0.1022  0.0370  1.0000  -1.6391   0.0000   0.0000   0.0000   0.3399
  19.700   0.9406   0.29138   0.28692  -0.1030  0.0369  1.0000  -1.6296   0.0000   0.0000   0.0000   0.3405
  19.800   0.9410   0.29322   0.28877  -0.1037  0.0369  1.0000  -1.6199   0.0000   0.0000   0.0000   0.3411
  19.900   0.9411   0.29499   0.29055  -0.1045  0.0368  1.0000  -1.6085   0.0000   0.0000   0.0000   0.3418
  20.000   0.9406   0.29664   0.29220  -0.1053  0.0367  1.0000  -1.5933   0.0000   0.0000   0.0000   0.3426
  20.100   0.9399   0.29821   0.29378  -0.1062  0.0366  1.0000  -1.5771   0.0000   0.0000   0.0000   0.3435
  20.200   0.9386   0.29965   0.29523  -0.1071  0.0365  1.0000  -1.5573   0.0000   0.0000   0.0000   0.3445
  20.300   0.9371   0.30104   0.29662  -0.1080  0.0364  1.0000  -1.5367   0.0000   0.0000   0.0000   0.3455
  20.400   0.9356   0.30239   0.29797  -0.1089  0.0362  1.0000  -1.5153   0.0000   0.0000   0.0000   0.3465
  20.500   0.9340   0.30370   0.29929  -0.1098  0.0360  1.0000  -1.4932   0.0000   0.0000   0.0000   0.3476
  20.600   0.9325   0.30502   0.30062  -0.1108  0.0358  1.0000  -1.4705   0.0000   0.0000   0.0000   0.3487
  20.700   0.9312   0.30638   0.30199  -0.1116  0.0355  1.0000  -1.4480   0.0000   0.0000   0.0000   0.3497
  20.800   0.9299   0.30782   0.30344  -0.1125  0.0351  1.0000  -1.4266   0.0000   0.0000   0.0000   0.3506
  20.900   0.9286   0.30935   0.30498  -0.1132  0.0347  1.0000  -1.4072   0.0000   0.0000   0.0000   0.3514
  21.000   0.9271   0.31091   0.30655  -0.1138  0.0343  1.0000  -1.3898   0.0000   0.0000   0.0000   0.3522
  21.100   0.9254   0.31245   0.30810  -0.1143  0.0338  1.0000  -1.3738   0.0000   0.0000   0.0000   0.3528
  21.200   0.9232   0.31390   0.30957  -0.1146  0.0334  1.0000  -1.3585   0.0000   0.0000   0.0000   0.3534
  21.300   0.9202   0.31518   0.31087  -0.1149  0.0330  1.0000  -1.3430   0.0000   0.0000   0.0000   0.3540
  21.400   0.8928   0.31057   0.30635  -0.1120  0.0331  1.0000  -1.2783   0.0000   0.0000   0.0000   0.3550
  21.500   0.8817   0.30915   0.30498  -0.1112  0.0329  1.0000  -1.2471   0.0000   0.0000   0.0000   0.3557
  21.600   0.8748   0.30865   0.30451  -0.1109  0.0326  1.0000  -1.2248   0.0000   0.0000   0.0000   0.3563
  21.700   0.8694   0.30847   0.30435  -0.1107  0.0323  1.0000  -1.2062   0.0000   0.0000   0.0000   0.3569
  21.800   0.8649   0.30847   0.30438  -0.1106  0.0319  1.0000  -1.1901   0.0000   0.0000   0.0000   0.3574
  21.900   0.8609   0.30858   0.30451  -0.1106  0.0316  1.0000  -1.1757   0.0000   0.0000   0.0000   0.3580
  22.000   0.8575   0.30876   0.30472  -0.1107  0.0312  1.0000  -1.1626   0.0000   0.0000   0.0000   0.3585
  22.100   0.8544   0.30901   0.30498  -0.1108  0.0309  1.0000  -1.1507   0.0000   0.0000   0.0000   0.3590
  22.200   0.8516   0.30929   0.30528  -0.1109  0.0305  1.0000  -1.1398   0.0000   0.0000   0.0000   0.3595
  22.300   0.8490   0.30960   0.30561  -0.1110  0.0302  1.0000  -1.1297   0.0000   0.0000   0.0000   0.3599
  22.400   0.8466   0.30995   0.30598  -0.1112  0.0298  1.0000  -1.1204   0.0000   0.0000   0.0000   0.3604
  22.500   0.8444   0.31032   0.30636  -0.1113  0.0295  1.0000  -1.1119   0.0000   0.0000   0.0000   0.3608
  22.600   0.8424   0.31071   0.30677  -0.1115  0.0292  1.0000  -1.1040   0.0000   0.0000   0.0000   0.3613
  22.700   0.8405   0.31112   0.30720  -0.1117  0.0288  1.0000  -1.0968   0.0000   0.0000   0.0000   0.3617
  22.800   0.8387   0.31154   0.30764  -0.1119  0.0285  1.0000  -1.0901   0.0000   0.0000   0.0000   0.3621
  22.900   0.8371   0.31197   0.30809  -0.1121  0.0282  1.0000  -1.0840   0.0000   0.0000   0.0000   0.3625
  23.000   0.8356   0.31242   0.30855  -0.1123  0.0278  1.0000  -1.0785   0.0000   0.0000   0.0000   0.3629
  23.100   0.8342   0.31287   0.30902  -0.1125  0.0275  1.0000  -1.0736   0.0000   0.0000   0.0000   0.3633
  23.200   0.8329   0.31334   0.30950  -0.1128  0.0272  1.0000  -1.0692   0.0000   0.0000   0.0000   0.3637
  23.300   0.8316   0.31381   0.30998  -0.1130  0.0269  1.0000  -1.0654   0.0000   0.0000   0.0000   0.3641
  23.400   0.8305   0.31428   0.31047  -0.1133  0.0266  1.0000  -1.0621   0.0000   0.0000   0.0000   0.3645
  23.500   0.8294   0.31476   0.31097  -0.1135  0.0263  1.0000  -1.0594   0.0000   0.0000   0.0000   0.3648
  23.600   0.8284   0.31524   0.31147  -0.1137  0.0260  1.0000  -1.0573   0.0000   0.0000   0.0000   0.3652
  23.700   0.8274   0.31573   0.31197  -0.1140  0.0257  1.0000  -1.0559   0.0000   0.0000   0.0000   0.3655
  23.800   0.8265   0.31621   0.31247  -0.1142  0.0254  1.0000  -1.0551   0.0000   0.0000   0.0000   0.3658
  23.900   0.8257   0.31670   0.31297  -0.1145  0.0252  1.0000  -1.0550   0.0000   0.0000   0.0000   0.3661
  24.000   0.8249   0.31719   0.31347  -0.1147  0.0249  1.0000  -1.0556   0.0000   0.0000   0.0000   0.3664
  24.100   0.8242   0.31768   0.31398  -0.1149  0.0246  1.0000  -1.0571   0.0000   0.0000   0.0000   0.3667
  24.200   0.8235   0.31817   0.31448  -0.1152  0.0244  1.0000  -1.0594   0.0000   0.0000   0.0000   0.3669
  24.300   0.8229   0.31866   0.31499  -0.1154  0.0241  1.0000  -1.0628   0.0000   0.0000   0.0000   0.3672
  24.400   0.8223   0.31916   0.31551  -0.1156  0.0239  1.0000  -1.0672   0.0000   0.0000   0.0000   0.3674
  24.500   0.8218   0.31968   0.31603  -0.1157  0.0236  1.0000  -1.0729   0.0000   0.0000   0.0000   0.3675
  24.600   0.8213   0.32021   0.31658  -0.1159  0.0234  1.0000  -1.0800   0.0000   0.0000   0.0000   0.3676
  24.700   0.8210   0.32079   0.31717  -0.1160  0.0231  1.0000  -1.0889   0.0000   0.0000   0.0000   0.3677
  24.800   0.8208   0.32144   0.31784  -0.1160  0.0229  1.0000  -1.0997   0.0000   0.0000   0.0000   0.3676
  24.900   0.8207   0.32219   0.31868  -0.1161  0.0227  1.0000  -1.1107   0.0000   0.0000   0.0000   0.3676
  25.000   0.8209   0.32318   0.31969  -0.1160  0.0225  1.0000  -1.1257   0.0000   0.0000   0.0000   0.3673
  25.100   0.8219   0.32475   0.32128  -0.1158  0.0222  1.0000  -1.1459   0.0000   0.0000   0.0000   0.3668
  25.200   0.8273   0.33073   0.32728  -0.1151  0.0217  1.0000  -1.1816   0.0000   0.0000   0.0000   0.3649
  25.600   0.8241   0.33544   0.33198  -0.1166  0.0214  1.0000  -1.1201   0.0000   0.0000   0.0000   0.3667
  25.700   0.8232   0.33572   0.33228  -0.1170  0.0214  1.0000  -1.1107   0.0000   0.0000   0.0000   0.3673
  25.800   0.8222   0.33600   0.33257  -0.1175  0.0214  1.0000  -1.1014   0.0000   0.0000   0.0000   0.3678
  25.900   0.8214   0.33629   0.33287  -0.1179  0.0213  1.0000  -1.0922   0.0000   0.0000   0.0000   0.3684
  26.000   0.8205   0.33658   0.33318  -0.1183  0.0213  1.0000  -1.0833   0.0000   0.0000   0.0000   0.3689
  26.100   0.8196   0.33682   0.33344  -0.1188  0.0213  1.0000  -1.0738   0.0000   0.0000   0.0000   0.3695
  26.200   0.8187   0.33707   0.33369  -0.1192  0.0213  1.0000  -1.0644   0.0000   0.0000   0.0000   0.3700
  26.300   0.8176   0.33720   0.33383  -0.1197  0.0213  1.0000  -1.0530   0.0000   0.0000   0.0000   0.3707
  26.400   0.8165   0.33733   0.33398  -0.1202  0.0212  1.0000  -1.0416   0.0000   0.0000   0.0000   0.3713
  26.500   0.8155   0.33748   0.33414  -0.1207  0.0212  1.0000  -1.0304   0.0000   0.0000   0.0000   0.3720
  26.600   0.8145   0.33765   0.33432  -0.1212  0.0212  1.0000  -1.0194   0.0000   0.0000   0.0000   0.3726
  26.700   0.8136   0.33783   0.33451  -0.1217  0.0211  1.0000  -1.0085   0.0000   0.0000   0.0000   0.3732
  26.800   0.8128   0.33802   0.33472  -0.1223  0.0211  1.0000  -0.9978   0.0000   0.0000   0.0000   0.3739
  26.900   0.8120   0.33823   0.33494  -0.1228  0.0211  1.0000  -0.9871   0.0000   0.0000   0.0000   0.3745
  27.000   0.8112   0.33847   0.33518  -0.1233  0.0210  1.0000  -0.9766   0.0000   0.0000   0.0000   0.3751
  27.100   0.8106   0.33872   0.33545  -0.1239  0.0210  1.0000  -0.9662   0.0000   0.0000   0.0000   0.3757
  27.200   0.8100   0.33899   0.33574  -0.1244  0.0209  1.0000  -0.9558   0.0000   0.0000   0.0000   0.3764
  27.300   0.8095   0.33929   0.33605  -0.1250  0.0209  1.0000  -0.9454   0.0000   0.0000   0.0000   0.3770
  27.400   0.8091   0.33962   0.33639  -0.1256  0.0208  1.0000  -0.9350   0.0000   0.0000   0.0000   0.3776
  27.500   0.8087   0.34000   0.33677  -0.1262  0.0207  1.0000  -0.9246   0.0000   0.0000   0.0000   0.3782
  27.600   0.8085   0.34042   0.33721  -0.1268  0.0206  1.0000  -0.9142   0.0000   0.0000   0.0000   0.3789
  27.700   0.8084   0.34089   0.33769  -0.1274  0.0205  1.0000  -0.9038   0.0000   0.0000   0.0000   0.3795
  27.800   0.8084   0.34143   0.33824  -0.1281  0.0203  1.0000  -0.8935   0.0000   0.0000   0.0000   0.3800
  27.900   0.8086   0.34203   0.33886  -0.1287  0.0202  1.0000  -0.8834   0.0000   0.0000   0.0000   0.3806
  28.000   0.8088   0.34269   0.33953  -0.1293  0.0200  1.0000  -0.8739   0.0000   0.0000   0.0000   0.3811
  28.100   0.8090   0.34340   0.34025  -0.1299  0.0198  1.0000  -0.8651   0.0000   0.0000   0.0000   0.3816
  28.200   0.8093   0.34413   0.34099  -0.1304  0.0195  1.0000  -0.8573   0.0000   0.0000   0.0000   0.3821
  28.300   0.8095   0.34487   0.34174  -0.1310  0.0193  1.0000  -0.8503   0.0000   0.0000   0.0000   0.3825
  28.400   0.8097   0.34561   0.34249  -0.1315  0.0191  1.0000  -0.8441   0.0000   0.0000   0.0000   0.3829
  28.500   0.8099   0.34634   0.34324  -0.1320  0.0188  1.0000  -0.8385   0.0000   0.0000   0.0000   0.3832
  28.600   0.8100   0.34707   0.34398  -0.1324  0.0186  1.0000  -0.8336   0.0000   0.0000   0.0000   0.3836
  28.700   0.8101   0.34779   0.34471  -0.1329  0.0183  1.0000  -0.8291   0.0000   0.0000   0.0000   0.3839
  28.800   0.8102   0.34850   0.34544  -0.1334  0.0181  1.0000  -0.8250   0.0000   0.0000   0.0000   0.3843
  28.900   0.8103   0.34921   0.34617  -0.1338  0.0179  1.0000  -0.8212   0.0000   0.0000   0.0000   0.3846
  29.000   0.8103   0.34992   0.34688  -0.1343  0.0176  1.0000  -0.8177   0.0000   0.0000   0.0000   0.3850
  29.100   0.8104   0.35062   0.34760  -0.1347  0.0174  1.0000  -0.8144   0.0000   0.0000   0.0000   0.3853
  29.200   0.8104   0.35132   0.34831  -0.1351  0.0172  1.0000  -0.8114   0.0000   0.0000   0.0000   0.3856
  29.300   0.8104   0.35201   0.34901  -0.1356  0.0170  1.0000  -0.8085   0.0000   0.0000   0.0000   0.3859
  29.400   0.8105   0.35270   0.34972  -0.1360  0.0168  1.0000  -0.8058   0.0000   0.0000   0.0000   0.3863
  29.500   0.8105   0.35339   0.35042  -0.1364  0.0166  1.0000  -0.8032   0.0000   0.0000   0.0000   0.3866
  29.600   0.8105   0.35407   0.35112  -0.1369  0.0164  1.0000  -0.8008   0.0000   0.0000   0.0000   0.3869
  29.700   0.8105   0.35476   0.35181  -0.1373  0.0162  1.0000  -0.7985   0.0000   0.0000   0.0000   0.3872
  29.800   0.8105   0.35544   0.35251  -0.1377  0.0160  1.0000  -0.7963   0.0000   0.0000   0.0000   0.3875
  29.900   0.8105   0.35612   0.35320  -0.1382  0.0158  1.0000  -0.7943   0.0000   0.0000   0.0000   0.3879
  30.000   0.8105   0.35680   0.35389  -0.1386  0.0157  1.0000  -0.7923   0.0000   0.0000   0.0000   0.3882


