xflr5 v6.61

 Calculated polar for: E178

 1 1 Reynolds number fixed          Mach number fixed         

 xtrf =   1.000 (top)        1.000 (bottom)
 Mach =   0.000     Re =     0.300 e 6     Ncrit =   9.000

  alpha     CL        CD       CDp       Cm    Top Xtr Bot Xtr   Cpmin    Chinge    XCp    
 ------- -------- --------- --------- -------- ------- ------- -------- --------- ---------
 -10.000  -0.4687   0.11785   0.11487   0.0059  1.0000  0.0166  -1.5968   0.0000   0.0000   0.0000   0.2580
  -9.900  -0.4667   0.11637   0.11339   0.0052  1.0000  0.0166  -1.6039   0.0000   0.0000   0.0000   0.2566
  -9.800  -0.4648   0.11488   0.11191   0.0045  1.0000  0.0167  -1.6113   0.0000   0.0000   0.0000   0.2552
  -9.700  -0.4629   0.11339   0.11043   0.0038  1.0000  0.0167  -1.6190   0.0000   0.0000   0.0000   0.2538
  -9.600  -0.4610   0.11189   0.10895   0.0031  1.0000  0.0168  -1.6271   0.0000   0.0000   0.0000   0.2523
  -9.500  -0.4592   0.11040   0.10746   0.0024  1.0000  0.0168  -1.6356   0.0000   0.0000   0.0000   0.2508
  -9.400  -0.4574   0.10889   0.10597   0.0017  1.0000  0.0169  -1.6445   0.0000   0.0000   0.0000   0.2493
  -9.300  -0.4556   0.10739   0.10447   0.0009  1.0000  0.0169  -1.6538   0.0000   0.0000   0.0000   0.2477
  -9.200  -0.4539   0.10589   0.10298   0.0002  1.0000  0.0169  -1.6635   0.0000   0.0000   0.0000   0.2462
  -9.100  -0.4522   0.10438   0.10149  -0.0006  1.0000  0.0170  -1.6737   0.0000   0.0000   0.0000   0.2446
  -9.000  -0.4506   0.10288   0.09999  -0.0013  1.0000  0.0170  -1.6843   0.0000   0.0000   0.0000   0.2429
  -8.900  -0.4491   0.10137   0.09850  -0.0021  1.0000  0.0170  -1.6955   0.0000   0.0000   0.0000   0.2413
  -8.800  -0.4476   0.09987   0.09701  -0.0028  1.0000  0.0170  -1.7072   0.0000   0.0000   0.0000   0.2396
  -8.700  -0.4462   0.09837   0.09552  -0.0036  1.0000  0.0171  -1.7194   0.0000   0.0000   0.0000   0.2379
  -8.600  -0.4449   0.09687   0.09404  -0.0044  1.0000  0.0171  -1.7323   0.0000   0.0000   0.0000   0.2362
  -8.500  -0.4436   0.09536   0.09254  -0.0052  1.0000  0.0171  -1.7457   0.0000   0.0000   0.0000   0.2344
  -8.400  -0.4423   0.09383   0.09102  -0.0060  1.0000  0.0171  -1.7597   0.0000   0.0000   0.0000   0.2325
  -8.300  -0.4410   0.09229   0.08949  -0.0069  1.0000  0.0171  -1.7744   0.0000   0.0000   0.0000   0.2305
  -8.200  -0.4398   0.09074   0.08796  -0.0078  1.0000  0.0171  -1.7898   0.0000   0.0000   0.0000   0.2285
  -8.100  -0.4387   0.08920   0.08643  -0.0087  1.0000  0.0171  -1.8062   0.0000   0.0000   0.0000   0.2265
  -8.000  -0.4377   0.08764   0.08490  -0.0096  1.0000  0.0171  -1.8234   0.0000   0.0000   0.0000   0.2244
  -7.900  -0.4369   0.08609   0.08336  -0.0106  1.0000  0.0171  -1.8416   0.0000   0.0000   0.0000   0.2222
  -7.800  -0.4361   0.08452   0.08180  -0.0116  1.0000  0.0171  -1.8610   0.0000   0.0000   0.0000   0.2199
  -7.700  -0.4354   0.08293   0.08023  -0.0126  1.0000  0.0170  -1.8816   0.0000   0.0000   0.0000   0.2175
  -7.600  -0.4350   0.08133   0.07866  -0.0137  1.0000  0.0170  -1.9038   0.0000   0.0000   0.0000   0.2151
  -7.500  -0.4347   0.07972   0.07707  -0.0149  1.0000  0.0169  -1.9277   0.0000   0.0000   0.0000   0.2124
  -7.400  -0.4348   0.07810   0.07547  -0.0161  1.0000  0.0169  -1.9534   0.0000   0.0000   0.0000   0.2097
  -7.300  -0.4348   0.07642   0.07382  -0.0176  1.0000  0.0168  -1.9817   0.0000   0.0000   0.0000   0.2064
  -7.200  -0.4335   0.07452   0.07193  -0.0197  1.0000  0.0167  -2.0138   0.0000   0.0000   0.0000   0.2015
  -7.100  -0.4313   0.07245   0.06987  -0.0220  1.0000  0.0166  -2.0500   0.0000   0.0000   0.0000   0.1959
  -7.000  -0.4286   0.07025   0.06768  -0.0246  1.0000  0.0165  -2.0912   0.0000   0.0000   0.0000   0.1897
  -6.900  -0.4254   0.06790   0.06534  -0.0273  1.0000  0.0163  -2.1388   0.0000   0.0000   0.0000   0.1830
  -6.800  -0.4218   0.06536   0.06280  -0.0301  1.0000  0.0160  -2.1974   0.0000   0.0000   0.0000   0.1757
  -6.700  -0.4178   0.06252   0.05994  -0.0332  1.0000  0.0157  -2.2766   0.0000   0.0000   0.0000   0.1676
  -6.600  -0.4135   0.05903   0.05641  -0.0367  1.0000  0.0151  -2.4050   0.0000   0.0000   0.0000   0.1582
  -6.200  -0.3615   0.04827   0.04531  -0.0479  0.9468  0.0114  -2.6660   0.0000   0.0000   0.0000   0.1142
  -6.100  -0.3574   0.04470   0.04159  -0.0498  0.9326  0.0111  -2.7967   0.0000   0.0000   0.0000   0.1072
  -6.000  -0.3530   0.04184   0.03856  -0.0508  0.9211  0.0110  -2.8925   0.0000   0.0000   0.0000   0.1027
  -5.900  -0.3489   0.03929   0.03586  -0.0512  0.9103  0.0108  -2.9746   0.0000   0.0000   0.0000   0.0996
  -5.800  -0.3444   0.03693   0.03332  -0.0513  0.9006  0.0107  -3.0485   0.0000   0.0000   0.0000   0.0973
  -5.600  -0.3334   0.03257   0.02856  -0.0513  0.8854  0.0105  -3.1744   0.0000   0.0000   0.0000   0.0923
  -5.500  -0.3268   0.03058   0.02638  -0.0512  0.8782  0.0104  -3.2222   0.0000   0.0000   0.0000   0.0895
  -5.400  -0.3199   0.02881   0.02440  -0.0509  0.8714  0.0104  -3.2558   0.0000   0.0000   0.0000   0.0869
  -5.300  -0.3127   0.02723   0.02261  -0.0505  0.8651  0.0104  -3.2754   0.0000   0.0000   0.0000   0.0843
  -5.200  -0.3051   0.02585   0.02101  -0.0501  0.8591  0.0105  -3.2797   0.0000   0.0000   0.0000   0.0817
  -5.100  -0.2966   0.02461   0.01957  -0.0498  0.8538  0.0106  -3.2672   0.0000   0.0000   0.0000   0.0779
  -5.000  -0.2872   0.02351   0.01830  -0.0496  0.8491  0.0107  -3.2362   0.0000   0.0000   0.0000   0.0730
  -4.900  -0.2777   0.02262   0.01726  -0.0494  0.8441  0.0109  -3.1863   0.0000   0.0000   0.0000   0.0679
  -4.800  -0.2680   0.02196   0.01648  -0.0491  0.8390  0.0111  -3.1150   0.0000   0.0000   0.0000   0.0623
  -4.700  -0.2581   0.02159   0.01600  -0.0489  0.8340  0.0114  -3.0173   0.0000   0.0000   0.0000   0.0563
  -4.600  -0.2477   0.02168   0.01605  -0.0486  0.8290  0.0117  -2.8767   0.0000   0.0000   0.0000   0.0493
  -4.500  -0.2384   0.02095   0.01516  -0.0483  0.8242  0.0121  -2.8115   0.0000   0.0000   0.0000   0.0428
  -4.400  -0.2305   0.01876   0.01261  -0.0479  0.8196  0.0128  -2.8810   0.0000   0.0000   0.0000   0.0378
  -4.300  -0.2213   0.01739   0.01101  -0.0475  0.8149  0.0136  -2.8807   0.0000   0.0000   0.0000   0.0305
  -4.200  -0.2112   0.01666   0.01020  -0.0474  0.8116  0.0146  -2.8162   0.0000   0.0000   0.0000   0.0207
  -4.100  -0.2009   0.01632   0.00984  -0.0474  0.8078  0.0155  -2.7156   0.0000   0.0000   0.0000   0.0093
  -4.000  -0.1904   0.01612   0.00963  -0.0473  0.8037  0.0165  -2.6090   0.0000   0.0000   0.0000  -0.0035
  -3.900  -0.1799   0.01592   0.00940  -0.0472  0.7994  0.0175  -2.5121   0.0000   0.0000   0.0000  -0.0175
  -3.800  -0.1694   0.01569   0.00913  -0.0471  0.7952  0.0185  -2.4269   0.0000   0.0000   0.0000  -0.0329
  -3.700  -0.1590   0.01543   0.00881  -0.0469  0.7911  0.0194  -2.3509   0.0000   0.0000   0.0000  -0.0502
  -3.600  -0.1486   0.01516   0.00847  -0.0467  0.7872  0.0202  -2.2807   0.0000   0.0000   0.0000  -0.0697
  -3.500  -0.1381   0.01487   0.00812  -0.0465  0.7834  0.0210  -2.2154   0.0000   0.0000   0.0000  -0.0922
  -3.400  -0.1276   0.01460   0.00778  -0.0463  0.7794  0.0217  -2.1528   0.0000   0.0000   0.0000  -0.1185
  -3.300  -0.1168   0.01478   0.00795  -0.0463  0.7749  0.0238  -2.0363   0.0000   0.0000   0.0000  -0.1524
  -3.200  -0.1059   0.01496   0.00812  -0.0464  0.7716  0.0275  -1.9023   0.0000   0.0000   0.0000  -0.1949
  -3.100  -0.0961   0.01405   0.00716  -0.0463  0.7695  0.0312  -1.8590   0.0000   0.0000   0.0000  -0.2391
  -3.000  -0.0852   0.01364   0.00671  -0.0462  0.7670  0.0318  -1.8111   0.0000   0.0000   0.0000  -0.2992
  -2.900  -0.0743   0.01317   0.00615  -0.0459  0.7644  0.0308  -1.7821   0.0000   0.0000   0.0000  -0.3755
  -2.800  -0.0629   0.01307   0.00576  -0.0457  0.7616  0.0282  -1.6725   0.0000   0.0000   0.0000  -0.4861
  -2.700  -0.0521   0.01279   0.00543  -0.0455  0.7587  0.0280  -1.6310   0.0000   0.0000   0.0000  -0.6348
  -2.600  -0.0414   0.01251   0.00511  -0.0453  0.7557  0.0277  -1.5909   0.0000   0.0000   0.0000  -0.8588
  -2.500  -0.0307   0.01223   0.00477  -0.0451  0.7528  0.0276  -1.5526   0.0000   0.0000   0.0000  -1.2361
  -2.400  -0.0201   0.01195   0.00443  -0.0449  0.7498  0.0276  -1.5163   0.0000   0.0000   0.0000  -2.0067
  -2.300  -0.0095   0.01168   0.00409  -0.0447  0.7469  0.0278  -1.4825   0.0000   0.0000   0.0000  -4.4985
  -2.200   0.0011   0.01143   0.00375  -0.0445  0.7440  0.0283  -1.4516   0.0000   0.0000   0.0000  39.6268
  -2.100   0.0119   0.01122   0.00343  -0.0443  0.7410  0.0294  -1.4252   0.0000   0.0000   0.0000   4.0006
  -2.000   0.0229   0.01103   0.00312  -0.0441  0.7379  0.0325  -1.4106   0.0000   0.0000   0.0000   2.1968
  -1.900   0.0332   0.01059   0.00285  -0.0438  0.7346  0.0770  -1.4308   0.0000   0.0000   0.0000   1.5835
  -1.800   0.0426   0.01011   0.00278  -0.0438  0.7306  0.1801  -1.3958   0.0000   0.0000   0.0000   1.2877
  -1.700   0.0526   0.00987   0.00279  -0.0438  0.7268  0.2471  -1.3354   0.0000   0.0000   0.0000   1.0899
  -1.600   0.0628   0.00962   0.00274  -0.0438  0.7252  0.3056  -1.2697   0.0000   0.0000   0.0000   0.9522
  -1.500   0.0732   0.00942   0.00271  -0.0438  0.7233  0.3527  -1.2026   0.0000   0.0000   0.0000   0.8520
  -1.400   0.0833   0.00921   0.00268  -0.0437  0.7211  0.4052  -1.1358   0.0000   0.0000   0.0000   0.7772
  -1.300   0.0933   0.00899   0.00265  -0.0435  0.7187  0.4628  -1.0698   0.0000   0.0000   0.0000   0.7193
  -1.200   0.1027   0.00875   0.00264  -0.0433  0.7161  0.5266  -1.0058   0.0000   0.0000   0.0000   0.6732
  -1.100   0.1118   0.00851   0.00264  -0.0429  0.7136  0.5947  -0.9435   0.0000   0.0000   0.0000   0.6351
  -1.000   0.1205   0.00828   0.00264  -0.0423  0.7111  0.6633  -0.8827   0.0000   0.0000   0.0000   0.6024
  -0.900   0.1289   0.00807   0.00265  -0.0416  0.7087  0.7286  -0.8235   0.0000   0.0000   0.0000   0.5737
  -0.800   0.1363   0.00782   0.00267  -0.0405  0.7063  0.8097  -0.7673   0.0000   0.0000   0.0000   0.5477
  -0.700   0.1709   0.00757   0.00266  -0.0447  0.7039  0.9699  -0.6317   0.0000   0.0000   0.0000   0.5121
  -0.600   0.2005   0.00754   0.00257  -0.0487  0.7014  1.0000  -0.5175   0.0000   0.0000   0.0000   0.4930
  -0.500   0.2108   0.00756   0.00255  -0.0485  0.6988  1.0000  -0.4866   0.0000   0.0000   0.0000   0.4802
  -0.400   0.2211   0.00759   0.00253  -0.0484  0.6961  1.0000  -0.4925   0.0000   0.0000   0.0000   0.4686
  -0.300   0.2314   0.00763   0.00251  -0.0482  0.6934  1.0000  -0.4984   0.0000   0.0000   0.0000   0.4581
  -0.200   0.2417   0.00768   0.00251  -0.0481  0.6905  1.0000  -0.5045   0.0000   0.0000   0.0000   0.4485
  -0.100   0.2521   0.00774   0.00253  -0.0479  0.6873  1.0000  -0.5112   0.0000   0.0000   0.0000   0.4397
   0.000   0.2625   0.00783   0.00257  -0.0478  0.6837  1.0000  -0.5178   0.0000   0.0000   0.0000   0.4316
   0.100   0.2730   0.00796   0.00267  -0.0478  0.6797  1.0000  -0.5242   0.0000   0.0000   0.0000   0.4244
   0.200   0.2836   0.00797   0.00266  -0.0477  0.6786  1.0000  -0.5311   0.0000   0.0000   0.0000   0.4174
   0.300   0.2943   0.00798   0.00266  -0.0476  0.6773  1.0000  -0.5379   0.0000   0.0000   0.0000   0.4110
   0.400   0.3049   0.00800   0.00266  -0.0475  0.6758  1.0000  -0.5448   0.0000   0.0000   0.0000   0.4050
   0.500   0.3155   0.00802   0.00267  -0.0475  0.6742  1.0000  -0.5516   0.0000   0.0000   0.0000   0.3994
   0.600   0.3261   0.00804   0.00268  -0.0474  0.6722  1.0000  -0.5585   0.0000   0.0000   0.0000   0.3942
   0.700   0.3367   0.00806   0.00269  -0.0473  0.6701  1.0000  -0.5654   0.0000   0.0000   0.0000   0.3893
   0.800   0.3473   0.00808   0.00270  -0.0472  0.6677  1.0000  -0.5723   0.0000   0.0000   0.0000   0.3847
   0.900   0.3580   0.00811   0.00275  -0.0471  0.6651  1.0000  -0.5792   0.0000   0.0000   0.0000   0.3803
   1.000   0.3685   0.00813   0.00275  -0.0470  0.6625  1.0000  -0.5868   0.0000   0.0000   0.0000   0.3761
   1.100   0.3791   0.00815   0.00276  -0.0469  0.6598  1.0000  -0.5958   0.0000   0.0000   0.0000   0.3722
   1.200   0.3897   0.00818   0.00276  -0.0468  0.6573  1.0000  -0.6047   0.0000   0.0000   0.0000   0.3685
   1.300   0.4004   0.00821   0.00277  -0.0467  0.6548  1.0000  -0.6137   0.0000   0.0000   0.0000   0.3650
   1.400   0.4110   0.00824   0.00279  -0.0466  0.6525  1.0000  -0.6227   0.0000   0.0000   0.0000   0.3617
   1.500   0.4216   0.00828   0.00280  -0.0465  0.6502  1.0000  -0.6321   0.0000   0.0000   0.0000   0.3585
   1.600   0.4322   0.00832   0.00282  -0.0463  0.6477  1.0000  -0.6424   0.0000   0.0000   0.0000   0.3555
   1.700   0.4428   0.00838   0.00285  -0.0462  0.6451  1.0000  -0.6541   0.0000   0.0000   0.0000   0.3526
   1.800   0.4534   0.00844   0.00288  -0.0461  0.6421  1.0000  -0.6659   0.0000   0.0000   0.0000   0.3499
   1.900   0.4640   0.00853   0.00294  -0.0460  0.6383  1.0000  -0.6777   0.0000   0.0000   0.0000   0.3473
   2.000   0.4745   0.00868   0.00306  -0.0460  0.6334  1.0000  -0.6905   0.0000   0.0000   0.0000   0.3449
   2.100   0.4852   0.00876   0.00314  -0.0459  0.6302  1.0000  -0.7043   0.0000   0.0000   0.0000   0.3426
   2.200   0.4959   0.00874   0.00313  -0.0458  0.6286  1.0000  -0.7190   0.0000   0.0000   0.0000   0.3403
   2.300   0.5067   0.00874   0.00313  -0.0458  0.6267  1.0000  -0.7355   0.0000   0.0000   0.0000   0.3381
   2.400   0.5175   0.00875   0.00315  -0.0457  0.6247  1.0000  -0.7520   0.0000   0.0000   0.0000   0.3360
   2.500   0.5283   0.00877   0.00317  -0.0456  0.6225  1.0000  -0.7686   0.0000   0.0000   0.0000   0.3340
   2.600   0.5391   0.00879   0.00320  -0.0456  0.6200  1.0000  -0.7852   0.0000   0.0000   0.0000   0.3321
   2.700   0.5499   0.00881   0.00322  -0.0455  0.6172  1.0000  -0.8036   0.0000   0.0000   0.0000   0.3302
   2.800   0.5606   0.00882   0.00323  -0.0454  0.6140  1.0000  -0.8237   0.0000   0.0000   0.0000   0.3284
   2.900   0.5713   0.00882   0.00323  -0.0453  0.6107  1.0000  -0.8440   0.0000   0.0000   0.0000   0.3266
   3.000   0.5820   0.00883   0.00323  -0.0452  0.6073  1.0000  -0.8643   0.0000   0.0000   0.0000   0.3249
   3.100   0.5927   0.00884   0.00324  -0.0450  0.6040  1.0000  -0.8883   0.0000   0.0000   0.0000   0.3232
   3.200   0.6033   0.00886   0.00324  -0.0449  0.6006  1.0000  -0.9132   0.0000   0.0000   0.0000   0.3216
   3.300   0.6139   0.00889   0.00325  -0.0448  0.5970  1.0000  -0.9383   0.0000   0.0000   0.0000   0.3200
   3.400   0.6245   0.00894   0.00328  -0.0447  0.5930  1.0000  -0.9635   0.0000   0.0000   0.0000   0.3185
   3.500   0.6351   0.00903   0.00334  -0.0445  0.5880  1.0000  -0.9907   0.0000   0.0000   0.0000   0.3170
   3.600   0.6456   0.00920   0.00348  -0.0445  0.5817  1.0000  -1.0228   0.0000   0.0000   0.0000   0.3157
   3.700   0.6564   0.00917   0.00348  -0.0444  0.5799  1.0000  -1.0560   0.0000   0.0000   0.0000   0.3143
   3.800   0.6673   0.00916   0.00350  -0.0443  0.5777  1.0000  -1.0893   0.0000   0.0000   0.0000   0.3131
   3.900   0.6781   0.00916   0.00352  -0.0443  0.5750  1.0000  -1.1228   0.0000   0.0000   0.0000   0.3118
   4.000   0.6889   0.00916   0.00355  -0.0442  0.5719  1.0000  -1.1565   0.0000   0.0000   0.0000   0.3106
   4.100   0.6997   0.00917   0.00358  -0.0441  0.5684  1.0000  -1.1903   0.0000   0.0000   0.0000   0.3094
   4.200   0.7105   0.00917   0.00360  -0.0440  0.5644  1.0000  -1.2243   0.0000   0.0000   0.0000   0.3082
   4.300   0.7212   0.00917   0.00361  -0.0439  0.5599  1.0000  -1.2685   0.0000   0.0000   0.0000   0.3071
   4.400   0.7319   0.00918   0.00361  -0.0438  0.5549  1.0000  -1.3363   0.0000   0.0000   0.0000   0.3059
   4.500   0.7378   0.00899   0.00307  -0.0423  0.4722  1.0000  -1.4936   0.0000   0.0000   0.0000   0.3032
   4.600   0.7457   0.00927   0.00302  -0.0418  0.4145  1.0000  -1.6056   0.0000   0.0000   0.0000   0.3019
   4.700   0.7524   0.00981   0.00314  -0.0413  0.3437  1.0000  -1.6940   0.0000   0.0000   0.0000   0.3006
   4.800   0.7587   0.01050   0.00342  -0.0409  0.2688  1.0000  -1.7753   0.0000   0.0000   0.0000   0.2995
   4.900   0.7656   0.01115   0.00374  -0.0406  0.2099  1.0000  -1.8565   0.0000   0.0000   0.0000   0.2986
   5.000   0.7730   0.01172   0.00404  -0.0403  0.1605  1.0000  -1.9395   0.0000   0.0000   0.0000   0.2976
   5.100   0.7779   0.01269   0.00453  -0.0399  0.0837  1.0000  -2.0081   0.0000   0.0000   0.0000   0.2967
   5.200   0.7828   0.01366   0.00508  -0.0394  0.0183  1.0000  -2.0744   0.0000   0.0000   0.0000   0.2957
   5.300   0.7925   0.01387   0.00527  -0.0392  0.0140  1.0000  -2.1651   0.0000   0.0000   0.0000   0.2947
   5.400   0.8025   0.01404   0.00545  -0.0391  0.0111  1.0000  -2.2541   0.0000   0.0000   0.0000   0.2938
   5.500   0.8126   0.01419   0.00561  -0.0389  0.0099  1.0000  -2.3381   0.0000   0.0000   0.0000   0.2929
   5.600   0.8227   0.01436   0.00580  -0.0387  0.0095  1.0000  -2.4284   0.0000   0.0000   0.0000   0.2920
   5.700   0.8326   0.01453   0.00602  -0.0385  0.0093  1.0000  -2.5189   0.0000   0.0000   0.0000   0.2911
   5.800   0.8424   0.01472   0.00625  -0.0383  0.0091  1.0000  -2.6095   0.0000   0.0000   0.0000   0.2902
   5.900   0.8522   0.01493   0.00650  -0.0381  0.0089  1.0000  -2.6997   0.0000   0.0000   0.0000   0.2893
   6.000   0.8618   0.01515   0.00678  -0.0378  0.0088  1.0000  -2.7895   0.0000   0.0000   0.0000   0.2884
   6.100   0.8713   0.01539   0.00707  -0.0376  0.0087  1.0000  -2.8783   0.0000   0.0000   0.0000   0.2875
   6.200   0.8807   0.01564   0.00739  -0.0373  0.0086  1.0000  -2.9659   0.0000   0.0000   0.0000   0.2866
   6.300   0.8899   0.01592   0.00774  -0.0370  0.0086  1.0000  -3.0518   0.0000   0.0000   0.0000   0.2858
   6.400   0.8989   0.01624   0.00812  -0.0367  0.0085  1.0000  -3.1351   0.0000   0.0000   0.0000   0.2849
   6.500   0.9075   0.01659   0.00854  -0.0363  0.0085  1.0000  -3.2158   0.0000   0.0000   0.0000   0.2840
   6.600   0.9159   0.01698   0.00900  -0.0359  0.0086  1.0000  -3.2931   0.0000   0.0000   0.0000   0.2830
   6.700   0.9238   0.01742   0.00951  -0.0354  0.0086  1.0000  -3.3663   0.0000   0.0000   0.0000   0.2821
   6.800   0.9313   0.01790   0.01005  -0.0349  0.0087  1.0000  -3.4356   0.0000   0.0000   0.0000   0.2811
   6.900   0.9385   0.01842   0.01064  -0.0344  0.0087  1.0000  -3.5004   0.0000   0.0000   0.0000   0.2801
   7.000   0.9452   0.01900   0.01129  -0.0337  0.0088  1.0000  -3.5604   0.0000   0.0000   0.0000   0.2791
   7.100   0.9516   0.01963   0.01198  -0.0331  0.0089  1.0000  -3.6155   0.0000   0.0000   0.0000   0.2780
   7.200   0.9576   0.02032   0.01272  -0.0324  0.0091  1.0000  -3.6653   0.0000   0.0000   0.0000   0.2769
   7.300   0.9635   0.02108   0.01354  -0.0316  0.0092  1.0000  -3.7090   0.0000   0.0000   0.0000   0.2758
   7.400   0.9691   0.02194   0.01446  -0.0308  0.0094  1.0000  -3.7445   0.0000   0.0000   0.0000   0.2747
   7.500   0.9746   0.02297   0.01557  -0.0299  0.0096  1.0000  -3.7666   0.0000   0.0000   0.0000   0.2735
   7.600   0.9792   0.02465   0.01734  -0.0289  0.0098  1.0000  -3.7376   0.0000   0.0000   0.0000   0.2723
   7.700   0.9883   0.02495   0.01768  -0.0286  0.0102  1.0000  -3.8362   0.0000   0.0000   0.0000   0.2715
   7.800   0.9978   0.02505   0.01779  -0.0283  0.0105  1.0000  -3.9506   0.0000   0.0000   0.0000   0.2708
   7.900   1.0073   0.02522   0.01797  -0.0280  0.0110  1.0000  -4.0588   0.0000   0.0000   0.0000   0.2701
   8.000   1.0167   0.02551   0.01831  -0.0276  0.0116  1.0000  -4.1496   0.0000   0.0000   0.0000   0.2693
   8.100   1.0265   0.02634   0.01928  -0.0269  0.0129  1.0000  -4.1680   0.0000   0.0000   0.0000   0.2683
   8.200   1.0367   0.02889   0.02214  -0.0257  0.0156  1.0000  -4.0234   0.0000   0.0000   0.0000   0.2668
   8.300   1.0443   0.03162   0.02511  -0.0247  0.0181  1.0000  -3.9254   0.0000   0.0000   0.0000   0.2656
   8.400   1.0471   0.03527   0.02903  -0.0238  0.0203  1.0000  -3.8107   0.0000   0.0000   0.0000   0.2645
  12.000   0.9045   0.10895   0.10594  -0.0317  0.0419  1.0000  -2.7924   0.0000   0.0000   0.0000   0.2734
  12.100   0.9012   0.11173   0.10873  -0.0334  0.0416  1.0000  -2.7683   0.0000   0.0000   0.0000   0.2752
  12.200   0.8989   0.11432   0.11131  -0.0347  0.0412  1.0000  -2.7520   0.0000   0.0000   0.0000   0.2768
  12.300   0.8974   0.11669   0.11369  -0.0359  0.0409  1.0000  -2.7433   0.0000   0.0000   0.0000   0.2780
  12.400   0.8953   0.11928   0.11627  -0.0372  0.0406  1.0000  -2.7264   0.0000   0.0000   0.0000   0.2795
  12.500   0.8926   0.12202   0.11901  -0.0387  0.0402  1.0000  -2.7026   0.0000   0.0000   0.0000   0.2812
  12.600   0.8901   0.12462   0.12161  -0.0399  0.0398  1.0000  -2.6828   0.0000   0.0000   0.0000   0.2827
  12.700   0.8873   0.12723   0.12421  -0.0411  0.0394  1.0000  -2.6619   0.0000   0.0000   0.0000   0.2841
  12.800   0.8823   0.13031   0.12728  -0.0424  0.0388  1.0000  -2.6235   0.0000   0.0000   0.0000   0.2857
  13.000   0.8523   0.14375   0.14066  -0.0497  0.0372  1.0000  -2.2440   0.0000   0.0000   0.0000   0.2962
  13.100   0.8516   0.14632   0.14323  -0.0511  0.0372  1.0000  -2.2115   0.0000   0.0000   0.0000   0.2979
  13.200   0.8513   0.14879   0.14569  -0.0525  0.0372  1.0000  -2.1820   0.0000   0.0000   0.0000   0.2994
  13.300   0.8511   0.15111   0.14801  -0.0537  0.0371  1.0000  -2.1551   0.0000   0.0000   0.0000   0.3009
  13.400   0.8512   0.15329   0.15018  -0.0550  0.0371  1.0000  -2.1304   0.0000   0.0000   0.0000   0.3023
  13.500   0.8514   0.15538   0.15226  -0.0562  0.0370  1.0000  -2.1078   0.0000   0.0000   0.0000   0.3036
  13.600   0.8519   0.15740   0.15428  -0.0574  0.0370  1.0000  -2.0869   0.0000   0.0000   0.0000   0.3049
  13.700   0.8525   0.15935   0.15623  -0.0586  0.0369  1.0000  -2.0681   0.0000   0.0000   0.0000   0.3061
  13.800   0.8535   0.16124   0.15811  -0.0597  0.0367  1.0000  -2.0514   0.0000   0.0000   0.0000   0.3074
  13.900   0.8549   0.16301   0.15988  -0.0609  0.0365  1.0000  -2.0376   0.0000   0.0000   0.0000   0.3086
  14.000   0.8569   0.16462   0.16148  -0.0621  0.0362  1.0000  -2.0277   0.0000   0.0000   0.0000   0.3097
  14.100   0.8594   0.16616   0.16303  -0.0633  0.0356  1.0000  -2.0186   0.0000   0.0000   0.0000   0.3108
  14.200   0.8615   0.16791   0.16476  -0.0646  0.0349  1.0000  -2.0032   0.0000   0.0000   0.0000   0.3120
  14.300   0.8625   0.16990   0.16675  -0.0660  0.0343  1.0000  -1.9771   0.0000   0.0000   0.0000   0.3135
  14.400   0.8635   0.17193   0.16878  -0.0672  0.0337  1.0000  -1.9538   0.0000   0.0000   0.0000   0.3148
  14.500   0.8645   0.17396   0.17080  -0.0684  0.0331  1.0000  -1.9334   0.0000   0.0000   0.0000   0.3159
  14.600   0.8654   0.17599   0.17283  -0.0695  0.0326  1.0000  -1.9139   0.0000   0.0000   0.0000   0.3171
  14.700   0.8664   0.17801   0.17485  -0.0706  0.0321  1.0000  -1.8969   0.0000   0.0000   0.0000   0.3181
  14.800   0.8675   0.18002   0.17686  -0.0716  0.0317  1.0000  -1.8816   0.0000   0.0000   0.0000   0.3191
  14.900   0.8686   0.18201   0.17885  -0.0726  0.0312  1.0000  -1.8679   0.0000   0.0000   0.0000   0.3201
  15.000   0.8698   0.18399   0.18082  -0.0736  0.0308  1.0000  -1.8556   0.0000   0.0000   0.0000   0.3210
  15.100   0.8710   0.18595   0.18278  -0.0746  0.0304  1.0000  -1.8445   0.0000   0.0000   0.0000   0.3219
  15.200   0.8723   0.18791   0.18474  -0.0755  0.0300  1.0000  -1.8348   0.0000   0.0000   0.0000   0.3227
  15.300   0.8736   0.18986   0.18668  -0.0764  0.0296  1.0000  -1.8264   0.0000   0.0000   0.0000   0.3236
  15.400   0.8750   0.19180   0.18862  -0.0773  0.0292  1.0000  -1.8192   0.0000   0.0000   0.0000   0.3243
  15.500   0.8765   0.19374   0.19056  -0.0782  0.0289  1.0000  -1.8134   0.0000   0.0000   0.0000   0.3251
  15.600   0.8781   0.19566   0.19248  -0.0790  0.0285  1.0000  -1.8088   0.0000   0.0000   0.0000   0.3258
  15.700   0.8797   0.19758   0.19440  -0.0799  0.0281  1.0000  -1.8057   0.0000   0.0000   0.0000   0.3264
  15.800   0.8814   0.19949   0.19631  -0.0807  0.0277  1.0000  -1.8039   0.0000   0.0000   0.0000   0.3271
  15.900   0.8832   0.20139   0.19820  -0.0815  0.0274  1.0000  -1.8037   0.0000   0.0000   0.0000   0.3277
  16.000   0.8850   0.20327   0.20008  -0.0822  0.0270  1.0000  -1.8051   0.0000   0.0000   0.0000   0.3282
  16.100   0.8868   0.20514   0.20195  -0.0830  0.0266  1.0000  -1.8084   0.0000   0.0000   0.0000   0.3288
  16.200   0.8888   0.20699   0.20380  -0.0837  0.0263  1.0000  -1.8138   0.0000   0.0000   0.0000   0.3292
  16.300   0.8908   0.20882   0.20563  -0.0844  0.0259  1.0000  -1.8215   0.0000   0.0000   0.0000   0.3296
  16.400   0.8952   0.20961   0.20659  -0.0842  0.0247  1.0000  -1.9056   0.0000   0.0000   0.0000   0.3287
  16.500   0.8979   0.21130   0.20828  -0.0846  0.0243  1.0000  -1.9303   0.0000   0.0000   0.0000   0.3288
  16.600   0.9007   0.21299   0.20998  -0.0849  0.0240  1.0000  -1.9588   0.0000   0.0000   0.0000   0.3287
  16.700   0.9036   0.21469   0.21168  -0.0852  0.0237  1.0000  -1.9903   0.0000   0.0000   0.0000   0.3286
  16.800   0.9064   0.21643   0.21343  -0.0855  0.0234  1.0000  -2.0213   0.0000   0.0000   0.0000   0.3285
  16.900   0.9090   0.21826   0.21526  -0.0858  0.0231  1.0000  -2.0532   0.0000   0.0000   0.0000   0.3283
  17.000   0.9112   0.22034   0.21735  -0.0861  0.0227  1.0000  -2.0782   0.0000   0.0000   0.0000   0.3283
  17.100   0.9097   0.22404   0.22105  -0.0867  0.0221  1.0000  -2.0501   0.0000   0.0000   0.0000   0.3290
  17.200   0.9028   0.23117   0.22813  -0.0884  0.0214  1.0000  -1.8747   0.0000   0.0000   0.0000   0.3316
  17.300   0.9044   0.23334   0.23030  -0.0892  0.0214  1.0000  -1.8636   0.0000   0.0000   0.0000   0.3323
  17.400   0.9060   0.23550   0.23246  -0.0901  0.0214  1.0000  -1.8528   0.0000   0.0000   0.0000   0.3330
  17.500   0.9076   0.23765   0.23461  -0.0910  0.0214  1.0000  -1.8424   0.0000   0.0000   0.0000   0.3337
  17.600   0.9092   0.23978   0.23675  -0.0919  0.0213  1.0000  -1.8323   0.0000   0.0000   0.0000   0.3344
  17.700   0.9108   0.24191   0.23887  -0.0928  0.0213  1.0000  -1.8226   0.0000   0.0000   0.0000   0.3350
  17.800   0.9124   0.24402   0.24099  -0.0936  0.0213  1.0000  -1.8132   0.0000   0.0000   0.0000   0.3357
  17.900   0.9139   0.24611   0.24308  -0.0945  0.0212  1.0000  -1.8043   0.0000   0.0000   0.0000   0.3364
  18.000   0.9155   0.24817   0.24514  -0.0954  0.0212  1.0000  -1.7957   0.0000   0.0000   0.0000   0.3370
  18.100   0.9171   0.25021   0.24718  -0.0962  0.0212  1.0000  -1.7876   0.0000   0.0000   0.0000   0.3377
  18.200   0.9188   0.25220   0.24918  -0.0971  0.0211  1.0000  -1.7800   0.0000   0.0000   0.0000   0.3383
  18.300   0.9204   0.25415   0.25112  -0.0980  0.0210  1.0000  -1.7730   0.0000   0.0000   0.0000   0.3389
  18.400   0.9221   0.25601   0.25299  -0.0989  0.0209  1.0000  -1.7666   0.0000   0.0000   0.0000   0.3396
  18.500   0.9239   0.25777   0.25475  -0.0998  0.0208  1.0000  -1.7607   0.0000   0.0000   0.0000   0.3403
  18.600   0.9255   0.25944   0.25642  -0.1009  0.0205  1.0000  -1.7503   0.0000   0.0000   0.0000   0.3411
  18.700   0.9264   0.26114   0.25812  -0.1021  0.0202  1.0000  -1.7279   0.0000   0.0000   0.0000   0.3422
  18.800   0.9276   0.26293   0.25991  -0.1034  0.0198  1.0000  -1.7036   0.0000   0.0000   0.0000   0.3434
  18.900   0.9292   0.26489   0.26187  -0.1046  0.0192  1.0000  -1.6811   0.0000   0.0000   0.0000   0.3443
  19.000   0.9307   0.26699   0.26398  -0.1056  0.0187  1.0000  -1.6638   0.0000   0.0000   0.0000   0.3451
  19.100   0.9322   0.26916   0.26615  -0.1064  0.0181  1.0000  -1.6514   0.0000   0.0000   0.0000   0.3457
  19.200   0.9336   0.27135   0.26834  -0.1072  0.0175  1.0000  -1.6426   0.0000   0.0000   0.0000   0.3463
  19.300   0.9349   0.27354   0.27054  -0.1080  0.0170  1.0000  -1.6365   0.0000   0.0000   0.0000   0.3468
  19.400   0.9361   0.27572   0.27272  -0.1087  0.0166  1.0000  -1.6323   0.0000   0.0000   0.0000   0.3473
  19.500   0.9373   0.27789   0.27490  -0.1094  0.0161  1.0000  -1.6297   0.0000   0.0000   0.0000   0.3478
  19.600   0.9384   0.28005   0.27706  -0.1101  0.0157  1.0000  -1.6285   0.0000   0.0000   0.0000   0.3482
  19.700   0.9394   0.28219   0.27920  -0.1108  0.0152  1.0000  -1.6285   0.0000   0.0000   0.0000   0.3487
  19.800   0.9404   0.28432   0.28133  -0.1114  0.0148  1.0000  -1.6298   0.0000   0.0000   0.0000   0.3491
  19.900   0.9414   0.28642   0.28344  -0.1121  0.0145  1.0000  -1.6324   0.0000   0.0000   0.0000   0.3495
  20.000   0.9422   0.28850   0.28553  -0.1127  0.0141  1.0000  -1.6362   0.0000   0.0000   0.0000   0.3499
  20.100   0.9430   0.29057   0.28760  -0.1133  0.0138  1.0000  -1.6415   0.0000   0.0000   0.0000   0.3503
  20.200   0.9438   0.29260   0.28964  -0.1139  0.0134  1.0000  -1.6482   0.0000   0.0000   0.0000   0.3507
  20.300   0.9444   0.29460   0.29165  -0.1144  0.0131  1.0000  -1.6565   0.0000   0.0000   0.0000   0.3511
  20.400   0.9450   0.29657   0.29362  -0.1150  0.0128  1.0000  -1.6666   0.0000   0.0000   0.0000   0.3514
  20.500   0.9455   0.29850   0.29556  -0.1155  0.0126  1.0000  -1.6787   0.0000   0.0000   0.0000   0.3517
  20.600   0.9459   0.30039   0.29746  -0.1159  0.0123  1.0000  -1.6932   0.0000   0.0000   0.0000   0.3520
  20.700   0.9462   0.30223   0.29931  -0.1164  0.0120  1.0000  -1.7105   0.0000   0.0000   0.0000   0.3523
  20.800   0.9465   0.30402   0.30110  -0.1167  0.0118  1.0000  -1.7308   0.0000   0.0000   0.0000   0.3525
  20.900   0.9466   0.30576   0.30285  -0.1171  0.0115  1.0000  -1.7546   0.0000   0.0000   0.0000   0.3527
  21.000   0.9466   0.30744   0.30454  -0.1173  0.0113  1.0000  -1.7827   0.0000   0.0000   0.0000   0.3527
  21.100   0.9466   0.30907   0.30618  -0.1174  0.0111  1.0000  -1.8159   0.0000   0.0000   0.0000   0.3527
  21.200   0.9464   0.31068   0.30781  -0.1174  0.0109  1.0000  -1.8558   0.0000   0.0000   0.0000   0.3526
  21.300   0.9463   0.31243   0.30956  -0.1171  0.0106  1.0000  -1.9050   0.0000   0.0000   0.0000   0.3521
  21.400   0.9426   0.31489   0.31204  -0.1171  0.0103  1.0000  -1.8887   0.0000   0.0000   0.0000   0.3525
  21.500   0.9231   0.31741   0.31460  -0.1159  0.0099  1.0000  -1.7205   0.0000   0.0000   0.0000   0.3540
  21.600   0.9075   0.31115   0.30840  -0.1143  0.0103  1.0000  -1.7746   0.0000   0.0000   0.0000   0.3545
  21.700   0.8920   0.30907   0.30635  -0.1131  0.0102  1.0000  -1.7165   0.0000   0.0000   0.0000   0.3555
  21.800   0.8717   0.30924   0.30653  -0.1118  0.0099  1.0000  -1.5289   0.0000   0.0000   0.0000   0.3572
  21.900   0.8674   0.30928   0.30659  -0.1118  0.0099  1.0000  -1.5087   0.0000   0.0000   0.0000   0.3579
  22.000   0.8637   0.30943   0.30675  -0.1119  0.0099  1.0000  -1.4900   0.0000   0.0000   0.0000   0.3585
  22.100   0.8604   0.30965   0.30699  -0.1120  0.0098  1.0000  -1.4725   0.0000   0.0000   0.0000   0.3591
  22.200   0.8574   0.30991   0.30726  -0.1122  0.0098  1.0000  -1.4557   0.0000   0.0000   0.0000   0.3597
  22.300   0.8547   0.31022   0.30759  -0.1124  0.0098  1.0000  -1.4398   0.0000   0.0000   0.0000   0.3603
  22.400   0.8521   0.31056   0.30794  -0.1127  0.0098  1.0000  -1.4245   0.0000   0.0000   0.0000   0.3609
  22.500   0.8498   0.31093   0.30832  -0.1129  0.0098  1.0000  -1.4099   0.0000   0.0000   0.0000   0.3614
  22.600   0.8477   0.31132   0.30872  -0.1132  0.0098  1.0000  -1.3959   0.0000   0.0000   0.0000   0.3620
  22.700   0.8457   0.31174   0.30915  -0.1135  0.0098  1.0000  -1.3824   0.0000   0.0000   0.0000   0.3625
  22.800   0.8439   0.31217   0.30960  -0.1138  0.0098  1.0000  -1.3694   0.0000   0.0000   0.0000   0.3631
  22.900   0.8422   0.31262   0.31006  -0.1141  0.0098  1.0000  -1.3569   0.0000   0.0000   0.0000   0.3636
  23.000   0.8406   0.31308   0.31053  -0.1144  0.0098  1.0000  -1.3445   0.0000   0.0000   0.0000   0.3642
  23.100   0.8391   0.31355   0.31101  -0.1147  0.0097  1.0000  -1.3325   0.0000   0.0000   0.0000   0.3647
  23.200   0.8377   0.31404   0.31150  -0.1151  0.0097  1.0000  -1.3209   0.0000   0.0000   0.0000   0.3653
  23.300   0.8365   0.31453   0.31201  -0.1154  0.0097  1.0000  -1.3096   0.0000   0.0000   0.0000   0.3658
  23.400   0.8352   0.31503   0.31252  -0.1158  0.0097  1.0000  -1.2987   0.0000   0.0000   0.0000   0.3663
  23.500   0.8341   0.31555   0.31305  -0.1162  0.0097  1.0000  -1.2882   0.0000   0.0000   0.0000   0.3669
  23.600   0.8331   0.31607   0.31358  -0.1166  0.0096  1.0000  -1.2780   0.0000   0.0000   0.0000   0.3674
  23.700   0.8321   0.31660   0.31411  -0.1170  0.0096  1.0000  -1.2677   0.0000   0.0000   0.0000   0.3679
  23.800   0.8312   0.31713   0.31466  -0.1174  0.0096  1.0000  -1.2573   0.0000   0.0000   0.0000   0.3684
  23.900   0.8304   0.31767   0.31521  -0.1178  0.0096  1.0000  -1.2472   0.0000   0.0000   0.0000   0.3690
  24.000   0.8296   0.31823   0.31577  -0.1182  0.0095  1.0000  -1.2374   0.0000   0.0000   0.0000   0.3695
  24.100   0.8289   0.31879   0.31634  -0.1187  0.0095  1.0000  -1.2276   0.0000   0.0000   0.0000   0.3700
  24.200   0.8282   0.31937   0.31694  -0.1192  0.0094  1.0000  -1.2151   0.0000   0.0000   0.0000   0.3706
  24.300   0.8276   0.31998   0.31755  -0.1197  0.0094  1.0000  -1.2028   0.0000   0.0000   0.0000   0.3712
  24.400   0.8271   0.32060   0.31818  -0.1202  0.0093  1.0000  -1.1905   0.0000   0.0000   0.0000   0.3718
  24.500   0.8267   0.32126   0.31885  -0.1207  0.0092  1.0000  -1.1781   0.0000   0.0000   0.0000   0.3723
  24.600   0.8264   0.32194   0.31954  -0.1212  0.0091  1.0000  -1.1657   0.0000   0.0000   0.0000   0.3729
  24.700   0.8263   0.32265   0.32026  -0.1217  0.0090  1.0000  -1.1533   0.0000   0.0000   0.0000   0.3734
  24.800   0.8261   0.32338   0.32100  -0.1222  0.0089  1.0000  -1.1409   0.0000   0.0000   0.0000   0.3739
  24.900   0.8263   0.32419   0.32186  -0.1228  0.0087  1.0000  -1.1263   0.0000   0.0000   0.0000   0.3744
  25.000   0.8263   0.32497   0.32265  -0.1233  0.0085  1.0000  -1.1135   0.0000   0.0000   0.0000   0.3749
  25.100   0.8262   0.32571   0.32339  -0.1237  0.0084  1.0000  -1.1026   0.0000   0.0000   0.0000   0.3753
  25.200   0.8260   0.32643   0.32412  -0.1242  0.0083  1.0000  -1.0928   0.0000   0.0000   0.0000   0.3757
  25.300   0.8258   0.32713   0.32484  -0.1246  0.0081  1.0000  -1.0838   0.0000   0.0000   0.0000   0.3761
  25.400   0.8255   0.32783   0.32554  -0.1250  0.0080  1.0000  -1.0755   0.0000   0.0000   0.0000   0.3765
  25.500   0.8253   0.32852   0.32624  -0.1254  0.0079  1.0000  -1.0677   0.0000   0.0000   0.0000   0.3769
  25.600   0.8250   0.32921   0.32694  -0.1258  0.0078  1.0000  -1.0605   0.0000   0.0000   0.0000   0.3772
  25.700   0.8247   0.32989   0.32763  -0.1261  0.0077  1.0000  -1.0536   0.0000   0.0000   0.0000   0.3776
  25.800   0.8245   0.33057   0.32831  -0.1265  0.0076  1.0000  -1.0471   0.0000   0.0000   0.0000   0.3780
  25.900   0.8242   0.33124   0.32900  -0.1269  0.0075  1.0000  -1.0409   0.0000   0.0000   0.0000   0.3784
  26.000   0.8240   0.33192   0.32968  -0.1273  0.0074  1.0000  -1.0350   0.0000   0.0000   0.0000   0.3787
  26.100   0.8238   0.33259   0.33037  -0.1277  0.0073  1.0000  -1.0293   0.0000   0.0000   0.0000   0.3791
  26.200   0.8235   0.33327   0.33105  -0.1281  0.0072  1.0000  -1.0239   0.0000   0.0000   0.0000   0.3794
  26.300   0.8233   0.33394   0.33173  -0.1285  0.0071  1.0000  -1.0186   0.0000   0.0000   0.0000   0.3798
  26.400   0.8231   0.33461   0.33241  -0.1289  0.0070  1.0000  -1.0135   0.0000   0.0000   0.0000   0.3802
  26.500   0.8229   0.33529   0.33310  -0.1293  0.0070  1.0000  -1.0086   0.0000   0.0000   0.0000   0.3805
  26.600   0.8228   0.33596   0.33378  -0.1297  0.0069  1.0000  -1.0038   0.0000   0.0000   0.0000   0.3809
  26.700   0.8226   0.33663   0.33446  -0.1301  0.0068  1.0000  -0.9992   0.0000   0.0000   0.0000   0.3812
  26.800   0.8224   0.33731   0.33515  -0.1305  0.0067  1.0000  -0.9947   0.0000   0.0000   0.0000   0.3816
  26.900   0.8223   0.33798   0.33583  -0.1309  0.0067  1.0000  -0.9903   0.0000   0.0000   0.0000   0.3819
  27.000   0.8221   0.33866   0.33651  -0.1313  0.0066  1.0000  -0.9860   0.0000   0.0000   0.0000   0.3823
  27.100   0.8220   0.33933   0.33720  -0.1317  0.0065  1.0000  -0.9818   0.0000   0.0000   0.0000   0.3826
  27.200   0.8219   0.34001   0.33788  -0.1321  0.0065  1.0000  -0.9777   0.0000   0.0000   0.0000   0.3829
  27.300   0.8217   0.34069   0.33857  -0.1325  0.0064  1.0000  -0.9737   0.0000   0.0000   0.0000   0.3833
  27.400   0.8216   0.34137   0.33926  -0.1329  0.0064  1.0000  -0.9697   0.0000   0.0000   0.0000   0.3836
  27.500   0.8215   0.34204   0.33994  -0.1333  0.0063  1.0000  -0.9659   0.0000   0.0000   0.0000   0.3840
  27.600   0.8214   0.34272   0.34063  -0.1337  0.0063  1.0000  -0.9621   0.0000   0.0000   0.0000   0.3843
  27.700   0.8213   0.34340   0.34132  -0.1341  0.0062  1.0000  -0.9584   0.0000   0.0000   0.0000   0.3846
  27.800   0.8212   0.34408   0.34201  -0.1345  0.0062  1.0000  -0.9547   0.0000   0.0000   0.0000   0.3850
  27.900   0.8211   0.34476   0.34269  -0.1350  0.0061  1.0000  -0.9511   0.0000   0.0000   0.0000   0.3853
  28.000   0.8211   0.34544   0.34338  -0.1354  0.0061  1.0000  -0.9476   0.0000   0.0000   0.0000   0.3856
  28.100   0.8210   0.34612   0.34407  -0.1358  0.0060  1.0000  -0.9441   0.0000   0.0000   0.0000   0.3859
  28.200   0.8209   0.34680   0.34476  -0.1362  0.0060  1.0000  -0.9406   0.0000   0.0000   0.0000   0.3863
  28.300   0.8208   0.34749   0.34545  -0.1366  0.0059  1.0000  -0.9372   0.0000   0.0000   0.0000   0.3866
  28.400   0.8208   0.34817   0.34614  -0.1370  0.0059  1.0000  -0.9339   0.0000   0.0000   0.0000   0.3869
  28.500   0.8207   0.34885   0.34683  -0.1374  0.0059  1.0000  -0.9305   0.0000   0.0000   0.0000   0.3872
  28.600   0.8206   0.34953   0.34753  -0.1379  0.0058  1.0000  -0.9272   0.0000   0.0000   0.0000   0.3876
  28.700   0.8206   0.35022   0.34822  -0.1383  0.0058  1.0000  -0.9240   0.0000   0.0000   0.0000   0.3879
  28.800   0.8205   0.35090   0.34891  -0.1387  0.0058  1.0000  -0.9207   0.0000   0.0000   0.0000   0.3882
  28.900   0.8205   0.35158   0.34960  -0.1391  0.0057  1.0000  -0.9175   0.0000   0.0000   0.0000   0.3885
  29.000   0.8204   0.35227   0.35030  -0.1395  0.0057  1.0000  -0.9144   0.0000   0.0000   0.0000   0.3888
  29.100   0.8204   0.35295   0.35099  -0.1400  0.0057  1.0000  -0.9112   0.0000   0.0000   0.0000   0.3891
  29.200   0.8203   0.35363   0.35168  -0.1404  0.0057  1.0000  -0.9080   0.0000   0.0000   0.0000   0.3895
  29.300   0.8203   0.35431   0.35237  -0.1408  0.0056  1.0000  -0.9049   0.0000   0.0000   0.0000   0.3898
  29.400   0.8202   0.35500   0.35306  -0.1412  0.0056  1.0000  -0.9018   0.0000   0.0000   0.0000   0.3901
  29.500   0.8202   0.35568   0.35375  -0.1417  0.0056  1.0000  -0.8987   0.0000   0.0000   0.0000   0.3904
  29.600   0.8202   0.35636   0.35444  -0.1421  0.0056  1.0000  -0.8956   0.0000   0.0000   0.0000   0.3907
  29.700   0.8201   0.35704   0.35513  -0.1425  0.0055  1.0000  -0.8926   0.0000   0.0000   0.0000   0.3910
  29.800   0.8201   0.35773   0.35582  -0.1429  0.0055  1.0000  -0.8895   0.0000   0.0000   0.0000   0.3913
  29.900   0.8200   0.35841   0.35652  -0.1434  0.0055  1.0000  -0.8865   0.0000   0.0000   0.0000   0.3916
  30.000   0.8200   0.35909   0.35721  -0.1438  0.0055  1.0000  -0.8834   0.0000   0.0000   0.0000   0.3919


