xflr5 v6.61

 Calculated polar for: E178

 1 1 Reynolds number fixed          Mach number fixed         

 xtrf =   1.000 (top)        1.000 (bottom)
 Mach =   0.000     Re =     0.625 e 6     Ncrit =   9.000

  alpha     CL        CD       CDp       Cm    Top Xtr Bot Xtr   Cpmin    Chinge    XCp    
 ------- -------- --------- --------- -------- ------- ------- -------- --------- ---------
 -10.000  -0.4603   0.11964   0.11754   0.0049  1.0000  0.0118  -1.6509   0.0000   0.0000   0.0000   0.2560
  -9.900  -0.4581   0.11808   0.11599   0.0043  1.0000  0.0118  -1.6585   0.0000   0.0000   0.0000   0.2546
  -9.800  -0.4559   0.11651   0.11443   0.0036  1.0000  0.0118  -1.6663   0.0000   0.0000   0.0000   0.2532
  -9.700  -0.4538   0.11495   0.11286   0.0029  1.0000  0.0118  -1.6744   0.0000   0.0000   0.0000   0.2518
  -9.600  -0.4516   0.11338   0.11130   0.0022  1.0000  0.0118  -1.6828   0.0000   0.0000   0.0000   0.2503
  -9.500  -0.4495   0.11181   0.10974   0.0015  1.0000  0.0118  -1.6914   0.0000   0.0000   0.0000   0.2489
  -9.400  -0.4475   0.11024   0.10817   0.0008  1.0000  0.0118  -1.7004   0.0000   0.0000   0.0000   0.2474
  -9.300  -0.4454   0.10867   0.10661   0.0001  1.0000  0.0118  -1.7097   0.0000   0.0000   0.0000   0.2459
  -9.200  -0.4435   0.10710   0.10505  -0.0006  1.0000  0.0118  -1.7192   0.0000   0.0000   0.0000   0.2443
  -9.100  -0.4416   0.10553   0.10349  -0.0013  1.0000  0.0118  -1.7292   0.0000   0.0000   0.0000   0.2428
  -9.000  -0.4397   0.10397   0.10194  -0.0020  1.0000  0.0118  -1.7395   0.0000   0.0000   0.0000   0.2412
  -8.900  -0.4379   0.10241   0.10039  -0.0027  1.0000  0.0118  -1.7502   0.0000   0.0000   0.0000   0.2396
  -8.800  -0.4363   0.10086   0.09884  -0.0034  1.0000  0.0118  -1.7614   0.0000   0.0000   0.0000   0.2380
  -8.700  -0.4347   0.09932   0.09731  -0.0041  1.0000  0.0118  -1.7729   0.0000   0.0000   0.0000   0.2364
  -8.600  -0.4331   0.09777   0.09577  -0.0048  1.0000  0.0118  -1.7849   0.0000   0.0000   0.0000   0.2348
  -8.500  -0.4316   0.09621   0.09422  -0.0056  1.0000  0.0118  -1.7974   0.0000   0.0000   0.0000   0.2330
  -8.400  -0.4299   0.09463   0.09264  -0.0064  1.0000  0.0118  -1.8103   0.0000   0.0000   0.0000   0.2312
  -8.300  -0.4284   0.09304   0.09107  -0.0072  1.0000  0.0118  -1.8237   0.0000   0.0000   0.0000   0.2294
  -8.200  -0.4269   0.09146   0.08950  -0.0080  1.0000  0.0118  -1.8377   0.0000   0.0000   0.0000   0.2275
  -8.100  -0.4256   0.08987   0.08792  -0.0088  1.0000  0.0118  -1.8524   0.0000   0.0000   0.0000   0.2255
  -8.000  -0.4244   0.08829   0.08635  -0.0096  1.0000  0.0118  -1.8678   0.0000   0.0000   0.0000   0.2235
  -7.900  -0.4233   0.08671   0.08478  -0.0105  1.0000  0.0118  -1.8840   0.0000   0.0000   0.0000   0.2215
  -7.800  -0.4222   0.08512   0.08320  -0.0114  1.0000  0.0118  -1.9010   0.0000   0.0000   0.0000   0.2194
  -7.700  -0.4213   0.08351   0.08161  -0.0123  1.0000  0.0118  -1.9190   0.0000   0.0000   0.0000   0.2172
  -7.600  -0.4206   0.08191   0.08002  -0.0133  1.0000  0.0118  -1.9380   0.0000   0.0000   0.0000   0.2149
  -7.500  -0.4201   0.08030   0.07843  -0.0143  1.0000  0.0118  -1.9582   0.0000   0.0000   0.0000   0.2125
  -7.400  -0.4199   0.07868   0.07683  -0.0154  1.0000  0.0117  -1.9798   0.0000   0.0000   0.0000   0.2099
  -7.300  -0.4198   0.07705   0.07521  -0.0167  1.0000  0.0117  -2.0032   0.0000   0.0000   0.0000   0.2070
  -7.200  -0.4135   0.07454   0.07270  -0.0204  0.9626  0.0117  -2.0335   0.0000   0.0000   0.0000   0.1974
  -6.700  -0.4026   0.06265   0.06051  -0.0319  0.8684  0.0114  -2.2832   0.0000   0.0000   0.0000   0.1678
  -6.600  -0.4059   0.05867   0.05643  -0.0348  0.8564  0.0108  -2.4547   0.0000   0.0000   0.0000   0.1613
  -6.500  -0.4053   0.05508   0.05277  -0.0375  0.8489  0.0104  -2.5876   0.0000   0.0000   0.0000   0.1545
  -6.400  -0.4029   0.05180   0.04940  -0.0396  0.8414  0.0100  -2.7005   0.0000   0.0000   0.0000   0.1486
  -6.300  -0.3997   0.04864   0.04613  -0.0414  0.8340  0.0096  -2.8086   0.0000   0.0000   0.0000   0.1434
  -6.200  -0.3959   0.04552   0.04288  -0.0428  0.8267  0.0092  -2.9193   0.0000   0.0000   0.0000   0.1387
  -6.000  -0.3865   0.03910   0.03614  -0.0449  0.8139  0.0084  -3.1750   0.0000   0.0000   0.0000   0.1305
  -5.900  -0.3811   0.03564   0.03250  -0.0456  0.8102  0.0079  -3.3354   0.0000   0.0000   0.0000   0.1268
  -5.800  -0.3755   0.03204   0.02865  -0.0460  0.8061  0.0075  -3.5276   0.0000   0.0000   0.0000   0.1239
  -5.700  -0.3699   0.02829   0.02461  -0.0460  0.8019  0.0071  -3.7561   0.0000   0.0000   0.0000   0.1219
  -5.600  -0.3640   0.02470   0.02065  -0.0457  0.7975  0.0067  -3.9970   0.0000   0.0000   0.0000   0.1205
  -5.500  -0.3571   0.02170   0.01729  -0.0452  0.7930  0.0064  -4.1945   0.0000   0.0000   0.0000   0.1193
  -5.400  -0.3491   0.01949   0.01476  -0.0447  0.7882  0.0062  -4.3109   0.0000   0.0000   0.0000   0.1177
  -5.300  -0.3403   0.01789   0.01290  -0.0443  0.7828  0.0061  -4.3561   0.0000   0.0000   0.0000   0.1156
  -5.200  -0.3309   0.01667   0.01147  -0.0439  0.7765  0.0061  -4.3552   0.0000   0.0000   0.0000   0.1131
  -5.100  -0.3211   0.01570   0.01033  -0.0436  0.7719  0.0062  -4.3221   0.0000   0.0000   0.0000   0.1099
  -5.000  -0.3108   0.01490   0.00940  -0.0434  0.7694  0.0062  -4.2635   0.0000   0.0000   0.0000   0.1061
  -4.900  -0.3005   0.01424   0.00863  -0.0431  0.7664  0.0064  -4.1875   0.0000   0.0000   0.0000   0.1020
  -4.800  -0.2900   0.01369   0.00799  -0.0429  0.7630  0.0066  -4.0991   0.0000   0.0000   0.0000   0.0975
  -4.700  -0.2795   0.01322   0.00744  -0.0428  0.7592  0.0068  -4.0019   0.0000   0.0000   0.0000   0.0926
  -4.600  -0.2690   0.01282   0.00696  -0.0426  0.7554  0.0071  -3.8977   0.0000   0.0000   0.0000   0.0872
  -4.500  -0.2584   0.01249   0.00657  -0.0424  0.7514  0.0074  -3.7880   0.0000   0.0000   0.0000   0.0813
  -4.400  -0.2478   0.01222   0.00624  -0.0423  0.7475  0.0078  -3.6746   0.0000   0.0000   0.0000   0.0748
  -4.300  -0.2371   0.01202   0.00598  -0.0422  0.7435  0.0083  -3.5581   0.0000   0.0000   0.0000   0.0676
  -4.200  -0.2264   0.01186   0.00578  -0.0421  0.7391  0.0088  -3.4389   0.0000   0.0000   0.0000   0.0595
  -4.100  -0.2156   0.01176   0.00564  -0.0420  0.7342  0.0092  -3.3165   0.0000   0.0000   0.0000   0.0505
  -4.000  -0.2047   0.01170   0.00555  -0.0420  0.7290  0.0097  -3.1890   0.0000   0.0000   0.0000   0.0401
  -3.900  -0.1936   0.01169   0.00554  -0.0420  0.7264  0.0102  -3.0531   0.0000   0.0000   0.0000   0.0281
  -3.800  -0.1824   0.01173   0.00560  -0.0421  0.7250  0.0106  -2.9074   0.0000   0.0000   0.0000   0.0142
  -3.700  -0.1710   0.01188   0.00578  -0.0422  0.7233  0.0111  -2.7481   0.0000   0.0000   0.0000  -0.0019
  -3.600  -0.1595   0.01218   0.00613  -0.0424  0.7213  0.0114  -2.5706   0.0000   0.0000   0.0000  -0.0210
  -3.400  -0.1371   0.01233   0.00631  -0.0426  0.7168  0.0124  -2.2863   0.0000   0.0000   0.0000  -0.0658
  -3.300  -0.1271   0.01153   0.00540  -0.0423  0.7145  0.0131  -2.2717   0.0000   0.0000   0.0000  -0.0885
  -3.200  -0.1168   0.01101   0.00480  -0.0421  0.7119  0.0138  -2.2327   0.0000   0.0000   0.0000  -0.1166
  -3.100  -0.1063   0.01064   0.00438  -0.0420  0.7093  0.0146  -2.1787   0.0000   0.0000   0.0000  -0.1512
  -3.000  -0.0956   0.01037   0.00407  -0.0419  0.7065  0.0154  -2.1132   0.0000   0.0000   0.0000  -0.1945
  -2.900  -0.0848   0.01020   0.00387  -0.0418  0.7037  0.0166  -2.0315   0.0000   0.0000   0.0000  -0.2500
  -2.800  -0.0728   0.01112   0.00481  -0.0425  0.7003  0.0232  -1.6972   0.0000   0.0000   0.0000  -0.3407
  -2.700  -0.0623   0.01067   0.00428  -0.0422  0.6971  0.0227  -1.6746   0.0000   0.0000   0.0000  -0.4364
  -2.600  -0.0517   0.01031   0.00383  -0.0420  0.6935  0.0221  -1.6470   0.0000   0.0000   0.0000  -0.5723
  -2.500  -0.0410   0.01002   0.00345  -0.0418  0.6893  0.0217  -1.6153   0.0000   0.0000   0.0000  -0.7811
  -2.400  -0.0302   0.00978   0.00313  -0.0416  0.6847  0.0213  -1.5796   0.0000   0.0000   0.0000  -1.1434
  -2.300  -0.0193   0.00959   0.00287  -0.0415  0.6800  0.0210  -1.5411   0.0000   0.0000   0.0000  -1.9254
  -2.200  -0.0082   0.00939   0.00261  -0.0414  0.6789  0.0207  -1.4997   0.0000   0.0000   0.0000  -4.8635
  -2.100   0.0030   0.00922   0.00239  -0.0413  0.6778  0.0205  -1.4563   0.0000   0.0000   0.0000  14.1601
  -2.000   0.0142   0.00908   0.00221  -0.0412  0.6766  0.0204  -1.4110   0.0000   0.0000   0.0000   3.1750
  -1.900   0.0255   0.00896   0.00204  -0.0411  0.6753  0.0204  -1.3641   0.0000   0.0000   0.0000   1.8787
  -1.800   0.0367   0.00887   0.00191  -0.0411  0.6738  0.0205  -1.3154   0.0000   0.0000   0.0000   1.3764
  -1.700   0.0480   0.00879   0.00178  -0.0410  0.6722  0.0208  -1.2660   0.0000   0.0000   0.0000   1.1103
  -1.600   0.0593   0.00872   0.00166  -0.0410  0.6705  0.0216  -1.2185   0.0000   0.0000   0.0000   0.9454
  -1.500   0.0706   0.00862   0.00155  -0.0409  0.6687  0.0247  -1.1851   0.0000   0.0000   0.0000   0.8329
  -1.400   0.0809   0.00821   0.00144  -0.0409  0.6669  0.1000  -1.1518   0.0000   0.0000   0.0000   0.7584
  -1.300   0.0915   0.00801   0.00141  -0.0409  0.6648  0.1426  -1.0868   0.0000   0.0000   0.0000   0.6991
  -1.200   0.1024   0.00790   0.00138  -0.0409  0.6627  0.1675  -1.0190   0.0000   0.0000   0.0000   0.6513
  -1.100   0.1133   0.00779   0.00135  -0.0409  0.6605  0.1945  -0.9516   0.0000   0.0000   0.0000   0.6127
  -1.000   0.1243   0.00772   0.00133  -0.0410  0.6582  0.2157  -0.8841   0.0000   0.0000   0.0000   0.5805
  -0.900   0.1350   0.00760   0.00130  -0.0410  0.6558  0.2455  -0.8182   0.0000   0.0000   0.0000   0.5540
  -0.800   0.1460   0.00753   0.00129  -0.0410  0.6534  0.2698  -0.7527   0.0000   0.0000   0.0000   0.5311
  -0.700   0.1568   0.00744   0.00127  -0.0410  0.6508  0.2979  -0.6886   0.0000   0.0000   0.0000   0.5116
  -0.600   0.1676   0.00736   0.00126  -0.0410  0.6479  0.3261  -0.6254   0.0000   0.0000   0.0000   0.4945
  -0.500   0.1784   0.00729   0.00125  -0.0410  0.6448  0.3559  -0.5634   0.0000   0.0000   0.0000   0.4796
  -0.400   0.1889   0.00717   0.00125  -0.0409  0.6413  0.3974  -0.5032   0.0000   0.0000   0.0000   0.4665
  -0.300   0.1994   0.00705   0.00127  -0.0409  0.6376  0.4475  -0.4892   0.0000   0.0000   0.0000   0.4549
  -0.200   0.2096   0.00691   0.00129  -0.0409  0.6338  0.5056  -0.4951   0.0000   0.0000   0.0000   0.4444
  -0.100   0.2198   0.00677   0.00132  -0.0408  0.6309  0.5623  -0.5009   0.0000   0.0000   0.0000   0.4348
   0.000   0.2300   0.00660   0.00133  -0.0406  0.6302  0.6142  -0.5069   0.0000   0.0000   0.0000   0.4258
   0.100   0.2401   0.00644   0.00133  -0.0404  0.6295  0.6636  -0.5133   0.0000   0.0000   0.0000   0.4175
   0.200   0.2498   0.00628   0.00134  -0.0401  0.6285  0.7147  -0.5200   0.0000   0.0000   0.0000   0.4096
   0.300   0.2591   0.00611   0.00135  -0.0396  0.6274  0.7704  -0.5264   0.0000   0.0000   0.0000   0.4020
   0.400   0.2678   0.00594   0.00136  -0.0390  0.6260  0.8249  -0.5326   0.0000   0.0000   0.0000   0.3946
   0.500   0.2768   0.00579   0.00138  -0.0383  0.6245  0.8790  -0.5390   0.0000   0.0000   0.0000   0.3874
   0.600   0.2932   0.00570   0.00139  -0.0393  0.6228  0.9386  -0.5489   0.0000   0.0000   0.0000   0.3827
   0.700   0.3203   0.00567   0.00138  -0.0427  0.6207  0.9860  -0.5640   0.0000   0.0000   0.0000   0.3821
   0.800   0.3429   0.00566   0.00136  -0.0453  0.6188  1.0000  -0.5768   0.0000   0.0000   0.0000   0.3808
   0.900   0.3536   0.00568   0.00140  -0.0452  0.6170  1.0000  -0.5839   0.0000   0.0000   0.0000   0.3765
   1.000   0.3643   0.00570   0.00140  -0.0451  0.6150  1.0000  -0.5910   0.0000   0.0000   0.0000   0.3724
   1.100   0.3750   0.00571   0.00140  -0.0450  0.6128  1.0000  -0.5981   0.0000   0.0000   0.0000   0.3686
   1.200   0.3857   0.00573   0.00140  -0.0449  0.6103  1.0000  -0.6068   0.0000   0.0000   0.0000   0.3649
   1.300   0.3963   0.00576   0.00140  -0.0448  0.6074  1.0000  -0.6158   0.0000   0.0000   0.0000   0.3615
   1.400   0.4070   0.00578   0.00140  -0.0447  0.6042  1.0000  -0.6249   0.0000   0.0000   0.0000   0.3582
   1.500   0.4175   0.00581   0.00140  -0.0446  0.6006  1.0000  -0.6340   0.0000   0.0000   0.0000   0.3551
   1.600   0.4281   0.00585   0.00140  -0.0445  0.5964  1.0000  -0.6438   0.0000   0.0000   0.0000   0.3521
   1.700   0.4387   0.00590   0.00142  -0.0444  0.5919  1.0000  -0.6552   0.0000   0.0000   0.0000   0.3493
   1.800   0.4494   0.00596   0.00145  -0.0444  0.5872  1.0000  -0.6670   0.0000   0.0000   0.0000   0.3467
   1.900   0.4601   0.00604   0.00151  -0.0443  0.5827  1.0000  -0.6788   0.0000   0.0000   0.0000   0.3442
   2.000   0.4709   0.00605   0.00152  -0.0442  0.5812  1.0000  -0.6917   0.0000   0.0000   0.0000   0.3418
   2.100   0.4818   0.00605   0.00152  -0.0442  0.5802  1.0000  -0.7058   0.0000   0.0000   0.0000   0.3395
   2.200   0.4927   0.00605   0.00153  -0.0441  0.5788  1.0000  -0.7207   0.0000   0.0000   0.0000   0.3373
   2.300   0.5036   0.00605   0.00153  -0.0441  0.5770  1.0000  -0.7373   0.0000   0.0000   0.0000   0.3352
   2.400   0.5145   0.00606   0.00154  -0.0440  0.5750  1.0000  -0.7539   0.0000   0.0000   0.0000   0.3332
   2.500   0.5254   0.00607   0.00155  -0.0440  0.5728  1.0000  -0.7706   0.0000   0.0000   0.0000   0.3313
   2.600   0.5362   0.00608   0.00157  -0.0439  0.5704  1.0000  -0.7874   0.0000   0.0000   0.0000   0.3294
   2.700   0.5471   0.00610   0.00158  -0.0439  0.5677  1.0000  -0.8058   0.0000   0.0000   0.0000   0.3276
   2.800   0.5580   0.00612   0.00159  -0.0438  0.5643  1.0000  -0.8261   0.0000   0.0000   0.0000   0.3259
   2.900   0.5688   0.00614   0.00160  -0.0438  0.5605  1.0000  -0.8464   0.0000   0.0000   0.0000   0.3242
   3.000   0.5795   0.00617   0.00161  -0.0437  0.5563  1.0000  -0.8668   0.0000   0.0000   0.0000   0.3226
   3.100   0.5902   0.00621   0.00162  -0.0436  0.5520  1.0000  -0.8915   0.0000   0.0000   0.0000   0.3210
   3.200   0.6009   0.00625   0.00164  -0.0435  0.5472  1.0000  -0.9164   0.0000   0.0000   0.0000   0.3195
   3.300   0.6116   0.00631   0.00167  -0.0435  0.5423  1.0000  -0.9414   0.0000   0.0000   0.0000   0.3180
   3.400   0.6224   0.00637   0.00172  -0.0434  0.5374  1.0000  -0.9667   0.0000   0.0000   0.0000   0.3166
   3.500   0.6331   0.00644   0.00177  -0.0434  0.5325  1.0000  -0.9939   0.0000   0.0000   0.0000   0.3153
   3.600   0.6441   0.00644   0.00180  -0.0434  0.5311  1.0000  -1.0271   0.0000   0.0000   0.0000   0.3140
   3.700   0.6552   0.00645   0.00182  -0.0433  0.5292  1.0000  -1.0605   0.0000   0.0000   0.0000   0.3128
   3.800   0.6661   0.00645   0.00184  -0.0433  0.5263  1.0000  -1.0942   0.0000   0.0000   0.0000   0.3116
   3.900   0.6771   0.00647   0.00187  -0.0433  0.5226  1.0000  -1.1279   0.0000   0.0000   0.0000   0.3104
   4.000   0.6880   0.00650   0.00189  -0.0432  0.5181  1.0000  -1.1618   0.0000   0.0000   0.0000   0.3093
   4.100   0.6988   0.00653   0.00192  -0.0432  0.5129  1.0000  -1.1957   0.0000   0.0000   0.0000   0.3081
   4.200   0.7095   0.00657   0.00195  -0.0431  0.5075  1.0000  -1.2297   0.0000   0.0000   0.0000   0.3070
   4.300   0.7202   0.00663   0.00198  -0.0431  0.5024  1.0000  -1.2705   0.0000   0.0000   0.0000   0.3059
   4.400   0.7309   0.00669   0.00202  -0.0430  0.4965  1.0000  -1.3372   0.0000   0.0000   0.0000   0.3049
   4.500   0.7305   0.00829   0.00245  -0.0419  0.2587  1.0000  -1.4283   0.0000   0.0000   0.0000   0.3032
   4.600   0.7334   0.00967   0.00304  -0.0413  0.1165  1.0000  -1.5118   0.0000   0.0000   0.0000   0.3022
   4.700   0.7390   0.01059   0.00349  -0.0409  0.0368  1.0000  -1.5931   0.0000   0.0000   0.0000   0.3011
   4.800   0.7475   0.01105   0.00377  -0.0406  0.0087  1.0000  -1.6888   0.0000   0.0000   0.0000   0.3000
   4.900   0.7578   0.01118   0.00387  -0.0405  0.0077  1.0000  -1.7966   0.0000   0.0000   0.0000   0.2990
   5.000   0.7682   0.01129   0.00398  -0.0404  0.0071  1.0000  -1.9024   0.0000   0.0000   0.0000   0.2981
   5.100   0.7786   0.01140   0.00410  -0.0403  0.0066  1.0000  -2.0063   0.0000   0.0000   0.0000   0.2972
   5.200   0.7891   0.01151   0.00422  -0.0402  0.0063  1.0000  -2.1092   0.0000   0.0000   0.0000   0.2963
   5.300   0.7995   0.01162   0.00435  -0.0401  0.0060  1.0000  -2.2117   0.0000   0.0000   0.0000   0.2954
   5.400   0.8099   0.01173   0.00449  -0.0400  0.0059  1.0000  -2.3142   0.0000   0.0000   0.0000   0.2945
   5.500   0.8202   0.01184   0.00463  -0.0399  0.0058  1.0000  -2.4172   0.0000   0.0000   0.0000   0.2937
   5.600   0.8306   0.01197   0.00478  -0.0398  0.0057  1.0000  -2.5207   0.0000   0.0000   0.0000   0.2928
   5.700   0.8408   0.01210   0.00494  -0.0397  0.0056  1.0000  -2.6245   0.0000   0.0000   0.0000   0.2920
   5.800   0.8511   0.01224   0.00512  -0.0395  0.0056  1.0000  -2.7285   0.0000   0.0000   0.0000   0.2911
   5.900   0.8612   0.01239   0.00531  -0.0394  0.0056  1.0000  -2.8322   0.0000   0.0000   0.0000   0.2903
   6.000   0.8712   0.01256   0.00552  -0.0392  0.0056  1.0000  -2.9350   0.0000   0.0000   0.0000   0.2895
   6.100   0.8812   0.01274   0.00574  -0.0390  0.0057  1.0000  -3.0362   0.0000   0.0000   0.0000   0.2887
   6.200   0.8911   0.01294   0.00599  -0.0388  0.0058  1.0000  -3.1342   0.0000   0.0000   0.0000   0.2878
   6.300   0.9008   0.01317   0.00626  -0.0386  0.0059  1.0000  -3.2272   0.0000   0.0000   0.0000   0.2870
   6.400   0.9103   0.01344   0.00658  -0.0383  0.0060  1.0000  -3.3128   0.0000   0.0000   0.0000   0.2861
   6.500   0.9195   0.01375   0.00695  -0.0379  0.0062  1.0000  -3.3910   0.0000   0.0000   0.0000   0.2852
   6.600   0.9284   0.01411   0.00738  -0.0375  0.0065  1.0000  -3.4614   0.0000   0.0000   0.0000   0.2843
   6.700   0.9368   0.01454   0.00789  -0.0371  0.0067  1.0000  -3.5233   0.0000   0.0000   0.0000   0.2833
   6.800   0.9447   0.01503   0.00847  -0.0365  0.0071  1.0000  -3.5762   0.0000   0.0000   0.0000   0.2822
   6.900   0.9519   0.01562   0.00915  -0.0358  0.0075  1.0000  -3.6186   0.0000   0.0000   0.0000   0.2811
   7.000   0.9584   0.01631   0.00993  -0.0351  0.0080  1.0000  -3.6481   0.0000   0.0000   0.0000   0.2800
   7.100   0.9640   0.01715   0.01086  -0.0341  0.0085  1.0000  -3.6607   0.0000   0.0000   0.0000   0.2787
   7.200   0.9681   0.01833   0.01215  -0.0330  0.0092  1.0000  -3.6379   0.0000   0.0000   0.0000   0.2772
   7.300   0.9745   0.01930   0.01317  -0.0320  0.0107  1.0000  -3.6253   0.0000   0.0000   0.0000   0.2759
   7.400   0.9876   0.01892   0.01279  -0.0320  0.0125  1.0000  -3.7572   0.0000   0.0000   0.0000   0.2753
  10.500   1.0901   0.05391   0.05041  -0.0108  0.0107  1.0000  -4.9836   0.0000   0.0000   0.0000   0.2493
  10.600   1.0816   0.05556   0.05213  -0.0102  0.0107  1.0000  -4.9491   0.0000   0.0000   0.0000   0.2487
  10.700   1.0732   0.05725   0.05390  -0.0099  0.0106  1.0000  -4.9148   0.0000   0.0000   0.0000   0.2483
  10.800   1.0649   0.05894   0.05566  -0.0097  0.0105  1.0000  -4.8824   0.0000   0.0000   0.0000   0.2481
  10.900   1.0569   0.06063   0.05742  -0.0097  0.0105  1.0000  -4.8526   0.0000   0.0000   0.0000   0.2480
  11.000   1.0490   0.06241   0.05926  -0.0098  0.0105  1.0000  -4.8230   0.0000   0.0000   0.0000   0.2481
  11.100   1.0414   0.06424   0.06116  -0.0101  0.0105  1.0000  -4.7947   0.0000   0.0000   0.0000   0.2483
  11.200   1.0340   0.06611   0.06310  -0.0106  0.0104  1.0000  -4.7676   0.0000   0.0000   0.0000   0.2487
  11.300   1.0269   0.06802   0.06506  -0.0112  0.0104  1.0000  -4.7424   0.0000   0.0000   0.0000   0.2492
  11.400   1.0199   0.06998   0.06708  -0.0119  0.0104  1.0000  -4.7171   0.0000   0.0000   0.0000   0.2498
  11.500   1.0132   0.07192   0.06908  -0.0127  0.0104  1.0000  -4.6961   0.0000   0.0000   0.0000   0.2506
  11.600   1.0066   0.07385   0.07106  -0.0136  0.0104  1.0000  -4.6743   0.0000   0.0000   0.0000   0.2513
  11.700   1.0002   0.07577   0.07303  -0.0145  0.0104  1.0000  -4.6567   0.0000   0.0000   0.0000   0.2522
  11.800   0.9940   0.07780   0.07510  -0.0155  0.0105  1.0000  -4.6381   0.0000   0.0000   0.0000   0.2532
  11.900   0.9880   0.07993   0.07729  -0.0167  0.0105  1.0000  -4.6167   0.0000   0.0000   0.0000   0.2543
  12.000   0.9824   0.08207   0.07947  -0.0179  0.0105  1.0000  -4.6003   0.0000   0.0000   0.0000   0.2555
  12.100   0.9769   0.08432   0.08176  -0.0193  0.0105  1.0000  -4.5807   0.0000   0.0000   0.0000   0.2569
  12.200   0.9716   0.08662   0.08411  -0.0207  0.0105  1.0000  -4.5603   0.0000   0.0000   0.0000   0.2583
  12.300   0.9667   0.08894   0.08647  -0.0222  0.0106  1.0000  -4.5432   0.0000   0.0000   0.0000   0.2599
  12.400   0.9618   0.09136   0.08893  -0.0238  0.0106  1.0000  -4.5214   0.0000   0.0000   0.0000   0.2615
  12.500   0.9572   0.09382   0.09143  -0.0255  0.0107  1.0000  -4.5004   0.0000   0.0000   0.0000   0.2632
  12.600   0.9528   0.09634   0.09400  -0.0272  0.0108  1.0000  -4.4775   0.0000   0.0000   0.0000   0.2651
  12.700   0.9485   0.09898   0.09667  -0.0291  0.0108  1.0000  -4.4487   0.0000   0.0000   0.0000   0.2670
  12.800   0.9443   0.10178   0.09951  -0.0311  0.0110  1.0000  -4.4133   0.0000   0.0000   0.0000   0.2692
  12.900   0.9390   0.10529   0.10310  -0.0337  0.0113  1.0000  -4.3299   0.0000   0.0000   0.0000   0.2721
  13.700   0.8729   0.15110   0.14890  -0.0589  0.0156  1.0000  -2.5418   0.0000   0.0000   0.0000   0.3046
  13.800   0.8732   0.15290   0.15070  -0.0600  0.0150  1.0000  -2.5392   0.0000   0.0000   0.0000   0.3057
  13.900   0.8740   0.15449   0.15230  -0.0609  0.0144  1.0000  -2.5510   0.0000   0.0000   0.0000   0.3066
  14.000   0.8752   0.15589   0.15369  -0.0618  0.0138  1.0000  -2.5791   0.0000   0.0000   0.0000   0.3074
  14.100   0.8774   0.15681   0.15461  -0.0624  0.0132  1.0000  -2.6445   0.0000   0.0000   0.0000   0.3077
  15.800   0.8797   0.19467   0.19252  -0.0803  0.0096  1.0000  -2.2525   0.0000   0.0000   0.0000   0.3264
  15.900   0.8826   0.19639   0.19424  -0.0812  0.0095  1.0000  -2.2639   0.0000   0.0000   0.0000   0.3270
  16.000   0.8865   0.19781   0.19567  -0.0820  0.0092  1.0000  -2.2948   0.0000   0.0000   0.0000   0.3274
  16.100   0.8902   0.19942   0.19728  -0.0828  0.0088  1.0000  -2.3137   0.0000   0.0000   0.0000   0.3278
  16.200   0.8931   0.20132   0.19918  -0.0837  0.0084  1.0000  -2.3136   0.0000   0.0000   0.0000   0.3284
  16.300   0.8953   0.20342   0.20128  -0.0846  0.0081  1.0000  -2.3007   0.0000   0.0000   0.0000   0.3290
  16.400   0.8971   0.20563   0.20349  -0.0856  0.0078  1.0000  -2.2809   0.0000   0.0000   0.0000   0.3298
  16.500   0.8988   0.20787   0.20573  -0.0865  0.0076  1.0000  -2.2606   0.0000   0.0000   0.0000   0.3307
  16.600   0.9005   0.21009   0.20795  -0.0875  0.0073  1.0000  -2.2431   0.0000   0.0000   0.0000   0.3314
  16.700   0.9021   0.21229   0.21015  -0.0884  0.0071  1.0000  -2.2283   0.0000   0.0000   0.0000   0.3322
  16.800   0.9038   0.21448   0.21234  -0.0893  0.0068  1.0000  -2.2162   0.0000   0.0000   0.0000   0.3329
  16.900   0.9055   0.21664   0.21450  -0.0902  0.0066  1.0000  -2.2066   0.0000   0.0000   0.0000   0.3336
  17.000   0.9072   0.21880   0.21666  -0.0911  0.0064  1.0000  -2.1991   0.0000   0.0000   0.0000   0.3343
  17.100   0.9089   0.22093   0.21880  -0.0920  0.0062  1.0000  -2.1937   0.0000   0.0000   0.0000   0.3349
  17.200   0.9106   0.22306   0.22092  -0.0928  0.0060  1.0000  -2.1904   0.0000   0.0000   0.0000   0.3355
  17.300   0.9124   0.22517   0.22303  -0.0937  0.0058  1.0000  -2.1889   0.0000   0.0000   0.0000   0.3362
  17.400   0.9141   0.22727   0.22513  -0.0945  0.0056  1.0000  -2.1892   0.0000   0.0000   0.0000   0.3368
  17.500   0.9159   0.22936   0.22722  -0.0954  0.0054  1.0000  -2.1914   0.0000   0.0000   0.0000   0.3373
  17.600   0.9176   0.23144   0.22930  -0.0962  0.0053  1.0000  -2.1954   0.0000   0.0000   0.0000   0.3379
  17.700   0.9194   0.23350   0.23137  -0.0970  0.0051  1.0000  -2.2012   0.0000   0.0000   0.0000   0.3385
  17.800   0.9212   0.23555   0.23342  -0.0978  0.0050  1.0000  -2.2089   0.0000   0.0000   0.0000   0.3390
  17.900   0.9229   0.23759   0.23546  -0.0986  0.0048  1.0000  -2.2186   0.0000   0.0000   0.0000   0.3395
  18.000   0.9247   0.23962   0.23749  -0.0994  0.0047  1.0000  -2.2305   0.0000   0.0000   0.0000   0.3400
  18.100   0.9265   0.24162   0.23949  -0.1001  0.0046  1.0000  -2.2444   0.0000   0.0000   0.0000   0.3405
  18.200   0.9283   0.24361   0.24149  -0.1009  0.0045  1.0000  -2.2606   0.0000   0.0000   0.0000   0.3410
  18.300   0.9301   0.24559   0.24346  -0.1017  0.0043  1.0000  -2.2790   0.0000   0.0000   0.0000   0.3414
  18.400   0.9319   0.24755   0.24542  -0.1024  0.0042  1.0000  -2.2999   0.0000   0.0000   0.0000   0.3419
  18.500   0.9337   0.24948   0.24736  -0.1031  0.0041  1.0000  -2.3233   0.0000   0.0000   0.0000   0.3423
  18.600   0.9355   0.25140   0.24928  -0.1038  0.0040  1.0000  -2.3494   0.0000   0.0000   0.0000   0.3427
  18.700   0.9373   0.25329   0.25117  -0.1045  0.0039  1.0000  -2.3784   0.0000   0.0000   0.0000   0.3431
  18.800   0.9391   0.25516   0.25304  -0.1052  0.0038  1.0000  -2.4104   0.0000   0.0000   0.0000   0.3434
  18.900   0.9409   0.25700   0.25489  -0.1059  0.0037  1.0000  -2.4455   0.0000   0.0000   0.0000   0.3438
  19.000   0.9427   0.25881   0.25671  -0.1065  0.0036  1.0000  -2.4838   0.0000   0.0000   0.0000   0.3441
  19.100   0.9443   0.26072   0.25861  -0.1072  0.0036  1.0000  -2.5158   0.0000   0.0000   0.0000   0.3444
  19.200   0.9458   0.26274   0.26063  -0.1079  0.0035  1.0000  -2.5383   0.0000   0.0000   0.0000   0.3448
  19.300   0.9471   0.26478   0.26268  -0.1086  0.0034  1.0000  -2.5596   0.0000   0.0000   0.0000   0.3453
  19.400   0.9484   0.26687   0.26477  -0.1094  0.0033  1.0000  -2.5779   0.0000   0.0000   0.0000   0.3457
  19.500   0.9494   0.26903   0.26694  -0.1101  0.0032  1.0000  -2.5898   0.0000   0.0000   0.0000   0.3462
  19.600   0.9502   0.27135   0.26926  -0.1108  0.0031  1.0000  -2.5893   0.0000   0.0000   0.0000   0.3467
  19.700   0.9503   0.27400   0.27191  -0.1115  0.0030  1.0000  -2.5612   0.0000   0.0000   0.0000   0.3474
  19.800   0.9404   0.28290   0.28078  -0.1129  0.0026  1.0000  -2.0201   0.0000   0.0000   0.0000   0.3503
  19.900   0.9413   0.28524   0.28313  -0.1136  0.0026  1.0000  -2.0073   0.0000   0.0000   0.0000   0.3508
  20.000   0.9422   0.28758   0.28547  -0.1143  0.0026  1.0000  -1.9945   0.0000   0.0000   0.0000   0.3512
  20.100   0.9429   0.28992   0.28781  -0.1149  0.0026  1.0000  -1.9818   0.0000   0.0000   0.0000   0.3517
  20.200   0.9436   0.29224   0.29014  -0.1156  0.0026  1.0000  -1.9689   0.0000   0.0000   0.0000   0.3522
  20.300   0.9442   0.29455   0.29245  -0.1163  0.0026  1.0000  -1.9561   0.0000   0.0000   0.0000   0.3527
  20.400   0.9446   0.29686   0.29476  -0.1169  0.0026  1.0000  -1.9432   0.0000   0.0000   0.0000   0.3532
  20.500   0.9450   0.29914   0.29705  -0.1175  0.0026  1.0000  -1.9303   0.0000   0.0000   0.0000   0.3537
  20.600   0.9452   0.30141   0.29933  -0.1182  0.0026  1.0000  -1.9173   0.0000   0.0000   0.0000   0.3542
  20.700   0.9453   0.30366   0.30158  -0.1188  0.0026  1.0000  -1.9041   0.0000   0.0000   0.0000   0.3547
  20.800   0.9452   0.30587   0.30380  -0.1193  0.0026  1.0000  -1.8907   0.0000   0.0000   0.0000   0.3552
  20.900   0.9449   0.30806   0.30599  -0.1199  0.0026  1.0000  -1.8770   0.0000   0.0000   0.0000   0.3557
  21.000   0.9444   0.31020   0.30814  -0.1204  0.0026  1.0000  -1.8630   0.0000   0.0000   0.0000   0.3563
  21.100   0.9437   0.31229   0.31024  -0.1209  0.0026  1.0000  -1.8486   0.0000   0.0000   0.0000   0.3568
  21.200   0.9426   0.31432   0.31227  -0.1214  0.0026  1.0000  -1.8336   0.0000   0.0000   0.0000   0.3573
  21.300   0.9412   0.31626   0.31422  -0.1218  0.0026  1.0000  -1.8179   0.0000   0.0000   0.0000   0.3579
  21.400   0.9394   0.31808   0.31605  -0.1222  0.0026  1.0000  -1.8011   0.0000   0.0000   0.0000   0.3584
  21.500   0.9368   0.31975   0.31773  -0.1225  0.0026  1.0000  -1.7829   0.0000   0.0000   0.0000   0.3590
  21.600   0.8896   0.31021   0.30827  -0.1180  0.0026  1.0000  -1.6525   0.0000   0.0000   0.0000   0.3615
  21.700   0.8823   0.30965   0.30774  -0.1177  0.0026  1.0000  -1.6231   0.0000   0.0000   0.0000   0.3623
  21.800   0.8768   0.30949   0.30759  -0.1176  0.0026  1.0000  -1.5985   0.0000   0.0000   0.0000   0.3630
  21.900   0.8723   0.30953   0.30765  -0.1176  0.0026  1.0000  -1.5766   0.0000   0.0000   0.0000   0.3636
  22.000   0.8685   0.30969   0.30782  -0.1177  0.0026  1.0000  -1.5563   0.0000   0.0000   0.0000   0.3643
  22.100   0.8651   0.30993   0.30807  -0.1178  0.0026  1.0000  -1.5373   0.0000   0.0000   0.0000   0.3649
  22.200   0.8620   0.31022   0.30837  -0.1180  0.0026  1.0000  -1.5194   0.0000   0.0000   0.0000   0.3654
  22.300   0.8592   0.31057   0.30872  -0.1181  0.0026  1.0000  -1.5025   0.0000   0.0000   0.0000   0.3660
  22.400   0.8567   0.31095   0.30911  -0.1183  0.0026  1.0000  -1.4863   0.0000   0.0000   0.0000   0.3666
  22.500   0.8544   0.31136   0.30954  -0.1185  0.0026  1.0000  -1.4708   0.0000   0.0000   0.0000   0.3671
  22.600   0.8523   0.31180   0.30999  -0.1188  0.0026  1.0000  -1.4560   0.0000   0.0000   0.0000   0.3676
  22.700   0.8503   0.31226   0.31046  -0.1190  0.0026  1.0000  -1.4417   0.0000   0.0000   0.0000   0.3681
  22.800   0.8485   0.31275   0.31095  -0.1193  0.0026  1.0000  -1.4279   0.0000   0.0000   0.0000   0.3686
  22.900   0.8468   0.31325   0.31146  -0.1195  0.0026  1.0000  -1.4146   0.0000   0.0000   0.0000   0.3691
  23.000   0.8453   0.31376   0.31198  -0.1198  0.0026  1.0000  -1.4017   0.0000   0.0000   0.0000   0.3696
  23.100   0.8438   0.31429   0.31252  -0.1201  0.0026  1.0000  -1.3893   0.0000   0.0000   0.0000   0.3701
  23.200   0.8424   0.31483   0.31307  -0.1204  0.0026  1.0000  -1.3772   0.0000   0.0000   0.0000   0.3706
  23.300   0.8411   0.31538   0.31362  -0.1207  0.0026  1.0000  -1.3654   0.0000   0.0000   0.0000   0.3711
  23.400   0.8399   0.31594   0.31419  -0.1210  0.0026  1.0000  -1.3540   0.0000   0.0000   0.0000   0.3715
  23.500   0.8388   0.31651   0.31477  -0.1213  0.0026  1.0000  -1.3429   0.0000   0.0000   0.0000   0.3720
  23.600   0.8377   0.31709   0.31536  -0.1216  0.0026  1.0000  -1.3321   0.0000   0.0000   0.0000   0.3724
  23.700   0.8367   0.31768   0.31595  -0.1219  0.0026  1.0000  -1.3216   0.0000   0.0000   0.0000   0.3729
  23.800   0.8357   0.31827   0.31655  -0.1223  0.0026  1.0000  -1.3113   0.0000   0.0000   0.0000   0.3733
  23.900   0.8348   0.31887   0.31716  -0.1226  0.0026  1.0000  -1.3013   0.0000   0.0000   0.0000   0.3737
  24.000   0.8340   0.31947   0.31777  -0.1229  0.0026  1.0000  -1.2915   0.0000   0.0000   0.0000   0.3742
  24.100   0.8332   0.32008   0.31838  -0.1233  0.0026  1.0000  -1.2820   0.0000   0.0000   0.0000   0.3746
  24.200   0.8324   0.32070   0.31900  -0.1236  0.0026  1.0000  -1.2726   0.0000   0.0000   0.0000   0.3750
  24.300   0.8317   0.32132   0.31963  -0.1240  0.0026  1.0000  -1.2635   0.0000   0.0000   0.0000   0.3754
  24.400   0.8311   0.32194   0.32026  -0.1243  0.0026  1.0000  -1.2546   0.0000   0.0000   0.0000   0.3758
  24.500   0.8304   0.32257   0.32089  -0.1247  0.0026  1.0000  -1.2459   0.0000   0.0000   0.0000   0.3762
  24.600   0.8298   0.32320   0.32153  -0.1250  0.0026  1.0000  -1.2374   0.0000   0.0000   0.0000   0.3766
  24.700   0.8293   0.32383   0.32218  -0.1254  0.0026  1.0000  -1.2291   0.0000   0.0000   0.0000   0.3770
  24.800   0.8287   0.32448   0.32286  -0.1257  0.0026  1.0000  -1.2198   0.0000   0.0000   0.0000   0.3775
  24.900   0.8282   0.32513   0.32351  -0.1261  0.0026  1.0000  -1.2116   0.0000   0.0000   0.0000   0.3778
  25.000   0.8277   0.32577   0.32416  -0.1265  0.0026  1.0000  -1.2035   0.0000   0.0000   0.0000   0.3782
  25.100   0.8273   0.32642   0.32482  -0.1268  0.0026  1.0000  -1.1956   0.0000   0.0000   0.0000   0.3786
  25.200   0.8268   0.32707   0.32548  -0.1272  0.0026  1.0000  -1.1879   0.0000   0.0000   0.0000   0.3790
  25.300   0.8264   0.32773   0.32614  -0.1276  0.0026  1.0000  -1.1804   0.0000   0.0000   0.0000   0.3794
  25.400   0.8260   0.32838   0.32680  -0.1280  0.0025  1.0000  -1.1730   0.0000   0.0000   0.0000   0.3798
  25.500   0.8257   0.32904   0.32746  -0.1283  0.0025  1.0000  -1.1658   0.0000   0.0000   0.0000   0.3802
  25.600   0.8253   0.32970   0.32813  -0.1287  0.0025  1.0000  -1.1587   0.0000   0.0000   0.0000   0.3805
  25.700   0.8250   0.33036   0.32880  -0.1291  0.0025  1.0000  -1.1518   0.0000   0.0000   0.0000   0.3809
  25.800   0.8247   0.33103   0.32947  -0.1295  0.0025  1.0000  -1.1450   0.0000   0.0000   0.0000   0.3813
  25.900   0.8244   0.33169   0.33014  -0.1299  0.0025  1.0000  -1.1383   0.0000   0.0000   0.0000   0.3816
  26.000   0.8241   0.33236   0.33081  -0.1303  0.0025  1.0000  -1.1318   0.0000   0.0000   0.0000   0.3820
  26.100   0.8239   0.33303   0.33149  -0.1306  0.0025  1.0000  -1.1254   0.0000   0.0000   0.0000   0.3824
  26.200   0.8236   0.33370   0.33216  -0.1310  0.0025  1.0000  -1.1191   0.0000   0.0000   0.0000   0.3827
  26.300   0.8234   0.33437   0.33284  -0.1314  0.0025  1.0000  -1.1129   0.0000   0.0000   0.0000   0.3831
  26.400   0.8232   0.33504   0.33352  -0.1318  0.0025  1.0000  -1.1068   0.0000   0.0000   0.0000   0.3834
  26.500   0.8230   0.33572   0.33420  -0.1322  0.0025  1.0000  -1.1009   0.0000   0.0000   0.0000   0.3838
  26.600   0.8228   0.33639   0.33488  -0.1326  0.0025  1.0000  -1.0950   0.0000   0.0000   0.0000   0.3841
  26.700   0.8226   0.33707   0.33556  -0.1330  0.0025  1.0000  -1.0893   0.0000   0.0000   0.0000   0.3845
  26.800   0.8224   0.33775   0.33625  -0.1334  0.0025  1.0000  -1.0836   0.0000   0.0000   0.0000   0.3848
  26.900   0.8223   0.33842   0.33693  -0.1338  0.0025  1.0000  -1.0780   0.0000   0.0000   0.0000   0.3851
  27.000   0.8221   0.33910   0.33762  -0.1342  0.0025  1.0000  -1.0726   0.0000   0.0000   0.0000   0.3855
  27.100   0.8220   0.33978   0.33830  -0.1346  0.0025  1.0000  -1.0672   0.0000   0.0000   0.0000   0.3858
  27.200   0.8219   0.34046   0.33899  -0.1350  0.0025  1.0000  -1.0619   0.0000   0.0000   0.0000   0.3861
  27.300   0.8217   0.34115   0.33968  -0.1354  0.0025  1.0000  -1.0567   0.0000   0.0000   0.0000   0.3865
  27.400   0.8216   0.34183   0.34037  -0.1358  0.0025  1.0000  -1.0516   0.0000   0.0000   0.0000   0.3868
  27.500   0.8215   0.34251   0.34106  -0.1362  0.0025  1.0000  -1.0466   0.0000   0.0000   0.0000   0.3871
  27.600   0.8214   0.34320   0.34175  -0.1366  0.0025  1.0000  -1.0416   0.0000   0.0000   0.0000   0.3875
  27.700   0.8213   0.34388   0.34244  -0.1370  0.0025  1.0000  -1.0367   0.0000   0.0000   0.0000   0.3878
  27.800   0.8212   0.34456   0.34313  -0.1374  0.0025  1.0000  -1.0320   0.0000   0.0000   0.0000   0.3881
  27.900   0.8211   0.34525   0.34382  -0.1378  0.0025  1.0000  -1.0272   0.0000   0.0000   0.0000   0.3884
  28.000   0.8211   0.34594   0.34451  -0.1382  0.0025  1.0000  -1.0226   0.0000   0.0000   0.0000   0.3888
  28.100   0.8210   0.34662   0.34520  -0.1386  0.0025  1.0000  -1.0180   0.0000   0.0000   0.0000   0.3891
  28.200   0.8209   0.34731   0.34589  -0.1390  0.0025  1.0000  -1.0135   0.0000   0.0000   0.0000   0.3894
  28.300   0.8208   0.34799   0.34659  -0.1394  0.0025  1.0000  -1.0091   0.0000   0.0000   0.0000   0.3897
  28.400   0.8208   0.34868   0.34728  -0.1399  0.0025  1.0000  -1.0047   0.0000   0.0000   0.0000   0.3900
  28.500   0.8207   0.34937   0.34797  -0.1403  0.0025  1.0000  -1.0004   0.0000   0.0000   0.0000   0.3904
  28.600   0.8206   0.35006   0.34867  -0.1407  0.0025  1.0000  -0.9962   0.0000   0.0000   0.0000   0.3907
  28.700   0.8206   0.35074   0.34936  -0.1411  0.0025  1.0000  -0.9920   0.0000   0.0000   0.0000   0.3910
  28.800   0.8205   0.35143   0.35005  -0.1415  0.0025  1.0000  -0.9879   0.0000   0.0000   0.0000   0.3913
  28.900   0.8205   0.35211   0.35074  -0.1419  0.0025  1.0000  -0.9838   0.0000   0.0000   0.0000   0.3916
  29.000   0.8204   0.35280   0.35143  -0.1423  0.0025  1.0000  -0.9798   0.0000   0.0000   0.0000   0.3919


