xflr5 v6.61

 Calculated polar for: E178

 1 1 Reynolds number fixed          Mach number fixed         

 xtrf =   1.000 (top)        1.000 (bottom)
 Mach =   0.000     Re =     0.400 e 6     Ncrit =   9.000

  alpha     CL        CD       CDp       Cm    Top Xtr Bot Xtr   Cpmin    Chinge    XCp    
 ------- -------- --------- --------- -------- ------- ------- -------- --------- ---------
 -10.000  -0.4733   0.11625   0.11367   0.0028  1.0000  0.0125  -1.9717   0.0000   0.0000   0.0000   0.2511
  -9.900  -0.4714   0.11461   0.11204   0.0021  1.0000  0.0125  -1.9847   0.0000   0.0000   0.0000   0.2496
  -9.800  -0.4696   0.11300   0.11043   0.0014  1.0000  0.0125  -1.9971   0.0000   0.0000   0.0000   0.2482
  -9.700  -0.4676   0.11140   0.10884   0.0007  1.0000  0.0125  -2.0087   0.0000   0.0000   0.0000   0.2467
  -9.600  -0.4657   0.10982   0.10727  -0.0001  1.0000  0.0125  -2.0196   0.0000   0.0000   0.0000   0.2452
  -9.500  -0.4637   0.10826   0.10572  -0.0008  1.0000  0.0125  -2.0297   0.0000   0.0000   0.0000   0.2437
  -9.400  -0.4617   0.10672   0.10419  -0.0015  1.0000  0.0125  -2.0389   0.0000   0.0000   0.0000   0.2422
  -9.300  -0.4596   0.10520   0.10268  -0.0022  1.0000  0.0125  -2.0468   0.0000   0.0000   0.0000   0.2406
  -9.200  -0.4575   0.10372   0.10121  -0.0029  1.0000  0.0124  -2.0530   0.0000   0.0000   0.0000   0.2391
  -9.100  -0.4553   0.10228   0.09978  -0.0036  1.0000  0.0124  -2.0570   0.0000   0.0000   0.0000   0.2375
  -9.000  -0.4529   0.10089   0.09840  -0.0043  1.0000  0.0124  -2.0578   0.0000   0.0000   0.0000   0.2360
  -8.900  -0.4504   0.09957   0.09708  -0.0050  1.0000  0.0123  -2.0543   0.0000   0.0000   0.0000   0.2345
  -8.800  -0.4475   0.09833   0.09586  -0.0057  1.0000  0.0123  -2.0442   0.0000   0.0000   0.0000   0.2330
  -8.700  -0.4442   0.09723   0.09477  -0.0063  1.0000  0.0122  -2.0237   0.0000   0.0000   0.0000   0.2316
  -8.600  -0.4398   0.09636   0.09390  -0.0068  1.0000  0.0121  -1.9847   0.0000   0.0000   0.0000   0.2303
  -8.500  -0.4342   0.09579   0.09334  -0.0073  1.0000  0.0120  -1.9216   0.0000   0.0000   0.0000   0.2291
  -8.400  -0.4304   0.09477   0.09230  -0.0079  1.0000  0.0119  -1.8917   0.0000   0.0000   0.0000   0.2276
  -8.300  -0.4288   0.09317   0.09071  -0.0087  1.0000  0.0119  -1.9052   0.0000   0.0000   0.0000   0.2257
  -8.200  -0.4273   0.09157   0.08912  -0.0096  1.0000  0.0119  -1.9193   0.0000   0.0000   0.0000   0.2237
  -8.100  -0.4258   0.08997   0.08754  -0.0104  1.0000  0.0119  -1.9340   0.0000   0.0000   0.0000   0.2217
  -8.000  -0.4245   0.08837   0.08595  -0.0113  1.0000  0.0119  -1.9493   0.0000   0.0000   0.0000   0.2196
  -7.900  -0.4233   0.08677   0.08436  -0.0122  1.0000  0.0119  -1.9654   0.0000   0.0000   0.0000   0.2175
  -7.800  -0.4221   0.08515   0.08276  -0.0131  1.0000  0.0119  -1.9822   0.0000   0.0000   0.0000   0.2152
  -7.700  -0.4210   0.08353   0.08115  -0.0141  1.0000  0.0119  -1.9999   0.0000   0.0000   0.0000   0.2128
  -7.600  -0.4201   0.08190   0.07954  -0.0151  1.0000  0.0119  -2.0187   0.0000   0.0000   0.0000   0.2104
  -7.500  -0.4194   0.08027   0.07793  -0.0162  1.0000  0.0119  -2.0386   0.0000   0.0000   0.0000   0.2078
  -7.400  -0.4189   0.07862   0.07630  -0.0174  1.0000  0.0119  -2.0599   0.0000   0.0000   0.0000   0.2049
  -7.300  -0.4183   0.07691   0.07461  -0.0189  1.0000  0.0119  -2.0831   0.0000   0.0000   0.0000   0.2015
  -7.200  -0.4163   0.07499   0.07271  -0.0208  1.0000  0.0119  -2.1083   0.0000   0.0000   0.0000   0.1966
  -7.100  -0.4136   0.07295   0.07068  -0.0230  1.0000  0.0119  -2.1354   0.0000   0.0000   0.0000   0.1912
  -7.000  -0.4105   0.07083   0.06856  -0.0252  1.0000  0.0118  -2.1649   0.0000   0.0000   0.0000   0.1855
  -6.900  -0.4072   0.06861   0.06634  -0.0274  1.0000  0.0118  -2.1976   0.0000   0.0000   0.0000   0.1796
  -6.700  -0.3988   0.06198   0.05967  -0.0344  0.9669  0.0115  -2.3594   0.0000   0.0000   0.0000   0.1606
  -6.600  -0.3944   0.05698   0.05458  -0.0398  0.9460  0.0109  -2.5416   0.0000   0.0000   0.0000   0.1459
  -6.500  -0.3905   0.05373   0.05123  -0.0424  0.9275  0.0106  -2.6420   0.0000   0.0000   0.0000   0.1381
  -6.400  -0.3878   0.05094   0.04835  -0.0440  0.9128  0.0104  -2.7271   0.0000   0.0000   0.0000   0.1333
  -6.300  -0.3851   0.04830   0.04559  -0.0451  0.8999  0.0102  -2.8086   0.0000   0.0000   0.0000   0.1297
  -6.200  -0.3818   0.04566   0.04281  -0.0460  0.8895  0.0100  -2.8913   0.0000   0.0000   0.0000   0.1263
  -6.100  -0.3773   0.04291   0.03993  -0.0469  0.8808  0.0097  -2.9791   0.0000   0.0000   0.0000   0.1223
  -6.000  -0.3727   0.04023   0.03709  -0.0475  0.8723  0.0095  -3.0683   0.0000   0.0000   0.0000   0.1191
  -5.900  -0.3678   0.03761   0.03429  -0.0479  0.8644  0.0093  -3.1594   0.0000   0.0000   0.0000   0.1163
  -5.700  -0.3561   0.03243   0.02870  -0.0483  0.8516  0.0089  -3.3490   0.0000   0.0000   0.0000   0.1107
  -5.600  -0.3493   0.02998   0.02603  -0.0483  0.8462  0.0088  -3.4385   0.0000   0.0000   0.0000   0.1078
  -5.500  -0.3421   0.02772   0.02355  -0.0482  0.8406  0.0087  -3.5178   0.0000   0.0000   0.0000   0.1052
  -5.400  -0.3345   0.02573   0.02131  -0.0479  0.8351  0.0086  -3.5790   0.0000   0.0000   0.0000   0.1027
  -5.300  -0.3265   0.02397   0.01930  -0.0476  0.8296  0.0085  -3.6218   0.0000   0.0000   0.0000   0.1002
  -5.200  -0.3181   0.02245   0.01755  -0.0472  0.8242  0.0085  -3.6433   0.0000   0.0000   0.0000   0.0975
  -5.100  -0.3093   0.02114   0.01601  -0.0468  0.8185  0.0086  -3.6452   0.0000   0.0000   0.0000   0.0944
  -5.000  -0.2997   0.01998   0.01466  -0.0465  0.8141  0.0087  -3.6285   0.0000   0.0000   0.0000   0.0905
  -4.900  -0.2898   0.01895   0.01347  -0.0463  0.8108  0.0088  -3.5947   0.0000   0.0000   0.0000   0.0859
  -4.800  -0.2797   0.01808   0.01245  -0.0461  0.8069  0.0091  -3.5458   0.0000   0.0000   0.0000   0.0809
  -4.700  -0.2695   0.01734   0.01158  -0.0458  0.8026  0.0093  -3.4827   0.0000   0.0000   0.0000   0.0756
  -4.600  -0.2592   0.01675   0.01088  -0.0456  0.7981  0.0097  -3.4046   0.0000   0.0000   0.0000   0.0697
  -4.500  -0.2489   0.01631   0.01035  -0.0454  0.7935  0.0101  -3.3108   0.0000   0.0000   0.0000   0.0632
  -4.400  -0.2385   0.01604   0.00999  -0.0452  0.7889  0.0105  -3.2003   0.0000   0.0000   0.0000   0.0560
  -4.300  -0.2280   0.01594   0.00985  -0.0450  0.7841  0.0109  -3.0714   0.0000   0.0000   0.0000   0.0479
  -4.200  -0.2173   0.01606   0.00994  -0.0450  0.7788  0.0113  -2.9219   0.0000   0.0000   0.0000   0.0386
  -4.000  -0.1953   0.01645   0.01033  -0.0450  0.7706  0.0122  -2.6067   0.0000   0.0000   0.0000   0.0149
  -3.900  -0.1859   0.01480   0.00846  -0.0447  0.7683  0.0130  -2.6458   0.0000   0.0000   0.0000   0.0047
  -3.800  -0.1758   0.01396   0.00751  -0.0445  0.7658  0.0139  -2.6160   0.0000   0.0000   0.0000  -0.0081
  -3.700  -0.1654   0.01348   0.00699  -0.0444  0.7629  0.0149  -2.5506   0.0000   0.0000   0.0000  -0.0235
  -3.600  -0.1547   0.01320   0.00669  -0.0443  0.7599  0.0158  -2.4658   0.0000   0.0000   0.0000  -0.0417
  -3.500  -0.1440   0.01301   0.00648  -0.0443  0.7567  0.0166  -2.3759   0.0000   0.0000   0.0000  -0.0628
  -3.400  -0.1333   0.01283   0.00627  -0.0442  0.7534  0.0175  -2.2897   0.0000   0.0000   0.0000  -0.0873
  -3.300  -0.1225   0.01264   0.00605  -0.0441  0.7502  0.0183  -2.2093   0.0000   0.0000   0.0000  -0.1158
  -3.200  -0.1118   0.01244   0.00582  -0.0440  0.7469  0.0191  -2.1334   0.0000   0.0000   0.0000  -0.1495
  -3.100  -0.1010   0.01246   0.00583  -0.0440  0.7435  0.0210  -2.0235   0.0000   0.0000   0.0000  -0.1922
  -2.900  -0.0786   0.01326   0.00664  -0.0443  0.7359  0.0269  -1.7168   0.0000   0.0000   0.0000  -0.3213
  -2.800  -0.0676   0.01293   0.00604  -0.0440  0.7318  0.0255  -1.6348   0.0000   0.0000   0.0000  -0.4103
  -2.600  -0.0465   0.01186   0.00482  -0.0436  0.7260  0.0250  -1.5952   0.0000   0.0000   0.0000  -0.6984
  -2.500  -0.0358   0.01146   0.00437  -0.0434  0.7245  0.0248  -1.5656   0.0000   0.0000   0.0000  -0.9755
  -2.400  -0.0251   0.01113   0.00398  -0.0432  0.7228  0.0247  -1.5326   0.0000   0.0000   0.0000  -1.4938
  -2.300  -0.0142   0.01085   0.00364  -0.0431  0.7208  0.0246  -1.4967   0.0000   0.0000   0.0000  -2.8123
  -2.200  -0.0033   0.01061   0.00335  -0.0430  0.7187  0.0246  -1.4585   0.0000   0.0000   0.0000  -12.9454
  -2.100   0.0077   0.01042   0.00308  -0.0429  0.7163  0.0246  -1.4184   0.0000   0.0000   0.0000   5.8673
  -2.000   0.0188   0.01025   0.00286  -0.0427  0.7138  0.0248  -1.3770   0.0000   0.0000   0.0000   2.5493
  -1.900   0.0298   0.01011   0.00265  -0.0426  0.7111  0.0252  -1.3353   0.0000   0.0000   0.0000   1.6907
  -1.800   0.0410   0.01000   0.00247  -0.0425  0.7084  0.0258  -1.2941   0.0000   0.0000   0.0000   1.2965
  -1.700   0.0512   0.00945   0.00215  -0.0423  0.7056  0.0964  -1.3291   0.0000   0.0000   0.0000   1.0819
  -1.600   0.0612   0.00911   0.00209  -0.0423  0.7027  0.1675  -1.2762   0.0000   0.0000   0.0000   0.9449
  -1.500   0.0714   0.00886   0.00205  -0.0422  0.6998  0.2251  -1.2121   0.0000   0.0000   0.0000   0.8450
  -1.400   0.0820   0.00874   0.00201  -0.0422  0.6969  0.2601  -1.1447   0.0000   0.0000   0.0000   0.7675
  -1.300   0.0925   0.00860   0.00198  -0.0422  0.6940  0.2985  -1.0774   0.0000   0.0000   0.0000   0.7082
  -1.200   0.1029   0.00847   0.00197  -0.0421  0.6909  0.3374  -1.0105   0.0000   0.0000   0.0000   0.6610
  -1.100   0.1133   0.00835   0.00196  -0.0421  0.6875  0.3802  -0.9444   0.0000   0.0000   0.0000   0.6227
  -1.000   0.1237   0.00823   0.00198  -0.0420  0.6837  0.4284  -0.8793   0.0000   0.0000   0.0000   0.5910
  -0.900   0.1338   0.00811   0.00202  -0.0420  0.6797  0.4822  -0.8155   0.0000   0.0000   0.0000   0.5644
  -0.800   0.1438   0.00790   0.00201  -0.0418  0.6787  0.5405  -0.7530   0.0000   0.0000   0.0000   0.5412
  -0.700   0.1534   0.00769   0.00201  -0.0415  0.6776  0.6010  -0.6920   0.0000   0.0000   0.0000   0.5210
  -0.600   0.1627   0.00748   0.00201  -0.0411  0.6763  0.6663  -0.6331   0.0000   0.0000   0.0000   0.5030
  -0.500   0.1711   0.00723   0.00203  -0.0404  0.6748  0.7373  -0.5774   0.0000   0.0000   0.0000   0.4865
  -0.400   0.1789   0.00701   0.00205  -0.0395  0.6733  0.8123  -0.5237   0.0000   0.0000   0.0000   0.4708
  -0.300   0.1897   0.00682   0.00208  -0.0390  0.6715  0.8957  -0.4820   0.0000   0.0000   0.0000   0.4556
  -0.200   0.2245   0.00673   0.00204  -0.0439  0.6695  0.9799  -0.4993   0.0000   0.0000   0.0000   0.4452
  -0.100   0.2496   0.00671   0.00200  -0.0470  0.6674  1.0000  -0.5123   0.0000   0.0000   0.0000   0.4378
   0.000   0.2602   0.00673   0.00199  -0.0469  0.6653  1.0000  -0.5192   0.0000   0.0000   0.0000   0.4296
   0.100   0.2707   0.00675   0.00198  -0.0468  0.6631  1.0000  -0.5261   0.0000   0.0000   0.0000   0.4221
   0.200   0.2813   0.00677   0.00197  -0.0467  0.6609  1.0000  -0.5330   0.0000   0.0000   0.0000   0.4151
   0.300   0.2918   0.00679   0.00197  -0.0466  0.6587  1.0000  -0.5399   0.0000   0.0000   0.0000   0.4087
   0.400   0.3023   0.00681   0.00197  -0.0464  0.6564  1.0000  -0.5468   0.0000   0.0000   0.0000   0.4026
   0.500   0.3129   0.00684   0.00196  -0.0463  0.6539  1.0000  -0.5537   0.0000   0.0000   0.0000   0.3970
   0.600   0.3234   0.00686   0.00196  -0.0462  0.6513  1.0000  -0.5607   0.0000   0.0000   0.0000   0.3917
   0.700   0.3339   0.00690   0.00196  -0.0461  0.6484  1.0000  -0.5676   0.0000   0.0000   0.0000   0.3868
   0.800   0.3444   0.00693   0.00197  -0.0459  0.6454  1.0000  -0.5745   0.0000   0.0000   0.0000   0.3821
   0.900   0.3549   0.00699   0.00202  -0.0458  0.6419  1.0000  -0.5814   0.0000   0.0000   0.0000   0.3778
   1.000   0.3654   0.00706   0.00206  -0.0457  0.6380  1.0000  -0.5883   0.0000   0.0000   0.0000   0.3737
   1.100   0.3761   0.00716   0.00213  -0.0457  0.6339  1.0000  -0.5962   0.0000   0.0000   0.0000   0.3700
   1.200   0.3868   0.00725   0.00220  -0.0456  0.6308  1.0000  -0.6050   0.0000   0.0000   0.0000   0.3664
   1.300   0.3976   0.00725   0.00220  -0.0456  0.6300  1.0000  -0.6141   0.0000   0.0000   0.0000   0.3630
   1.400   0.4084   0.00727   0.00221  -0.0455  0.6289  1.0000  -0.6232   0.0000   0.0000   0.0000   0.3598
   1.500   0.4191   0.00728   0.00222  -0.0454  0.6277  1.0000  -0.6323   0.0000   0.0000   0.0000   0.3567
   1.600   0.4299   0.00729   0.00223  -0.0454  0.6261  1.0000  -0.6427   0.0000   0.0000   0.0000   0.3538
   1.700   0.4407   0.00729   0.00223  -0.0453  0.6241  1.0000  -0.6545   0.0000   0.0000   0.0000   0.3509
   1.800   0.4514   0.00730   0.00223  -0.0452  0.6217  1.0000  -0.6664   0.0000   0.0000   0.0000   0.3482
   1.900   0.4622   0.00731   0.00224  -0.0451  0.6190  1.0000  -0.6784   0.0000   0.0000   0.0000   0.3456
   2.000   0.4729   0.00732   0.00224  -0.0450  0.6163  1.0000  -0.6915   0.0000   0.0000   0.0000   0.3432
   2.100   0.4837   0.00733   0.00224  -0.0450  0.6135  1.0000  -0.7055   0.0000   0.0000   0.0000   0.3408
   2.200   0.4944   0.00735   0.00225  -0.0449  0.6108  1.0000  -0.7202   0.0000   0.0000   0.0000   0.3386
   2.300   0.5052   0.00737   0.00227  -0.0448  0.6083  1.0000  -0.7367   0.0000   0.0000   0.0000   0.3364
   2.400   0.5159   0.00740   0.00228  -0.0447  0.6054  1.0000  -0.7532   0.0000   0.0000   0.0000   0.3343
   2.500   0.5266   0.00742   0.00228  -0.0446  0.6022  1.0000  -0.7697   0.0000   0.0000   0.0000   0.3323
   2.600   0.5372   0.00745   0.00229  -0.0445  0.5985  1.0000  -0.7863   0.0000   0.0000   0.0000   0.3303
   2.700   0.5479   0.00750   0.00230  -0.0444  0.5944  1.0000  -0.8045   0.0000   0.0000   0.0000   0.3285
   2.800   0.5585   0.00757   0.00234  -0.0443  0.5897  1.0000  -0.8244   0.0000   0.0000   0.0000   0.3267
   2.900   0.5691   0.00768   0.00243  -0.0442  0.5844  1.0000  -0.8444   0.0000   0.0000   0.0000   0.3250
   3.000   0.5800   0.00774   0.00249  -0.0442  0.5812  1.0000  -0.8647   0.0000   0.0000   0.0000   0.3235
   3.100   0.5909   0.00774   0.00250  -0.0442  0.5798  1.0000  -0.8890   0.0000   0.0000   0.0000   0.3219
   3.200   0.6017   0.00773   0.00251  -0.0441  0.5779  1.0000  -0.9142   0.0000   0.0000   0.0000   0.3204
   3.300   0.6126   0.00773   0.00252  -0.0440  0.5754  1.0000  -0.9396   0.0000   0.0000   0.0000   0.3189
   3.400   0.6235   0.00773   0.00253  -0.0440  0.5725  1.0000  -0.9651   0.0000   0.0000   0.0000   0.3175
   3.500   0.6344   0.00773   0.00255  -0.0439  0.5693  1.0000  -0.9930   0.0000   0.0000   0.0000   0.3161
   3.600   0.6452   0.00774   0.00257  -0.0439  0.5659  1.0000  -1.0259   0.0000   0.0000   0.0000   0.3147
   3.700   0.6561   0.00776   0.00260  -0.0438  0.5626  1.0000  -1.0591   0.0000   0.0000   0.0000   0.3134
   3.800   0.6669   0.00779   0.00262  -0.0437  0.5590  1.0000  -1.0923   0.0000   0.0000   0.0000   0.3122
   3.900   0.6776   0.00781   0.00264  -0.0436  0.5550  1.0000  -1.1258   0.0000   0.0000   0.0000   0.3109
   4.000   0.6883   0.00785   0.00265  -0.0435  0.5503  1.0000  -1.1593   0.0000   0.0000   0.0000   0.3097
   4.100   0.6988   0.00789   0.00267  -0.0434  0.5449  1.0000  -1.1928   0.0000   0.0000   0.0000   0.3085
   4.200   0.7093   0.00797   0.00271  -0.0433  0.5382  1.0000  -1.2263   0.0000   0.0000   0.0000   0.3073
   4.300   0.7200   0.00806   0.00279  -0.0432  0.5322  1.0000  -1.2680   0.0000   0.0000   0.0000   0.3062
   4.400   0.7309   0.00805   0.00281  -0.0432  0.5297  1.0000  -1.3362   0.0000   0.0000   0.0000   0.3052
   4.500   0.7355   0.00838   0.00258  -0.0420  0.4015  1.0000  -1.4770   0.0000   0.0000   0.0000   0.3030
   4.600   0.7399   0.00935   0.00286  -0.0414  0.2802  1.0000  -1.5669   0.0000   0.0000   0.0000   0.3018
   4.700   0.7454   0.01024   0.00326  -0.0410  0.1919  1.0000  -1.6485   0.0000   0.0000   0.0000   0.3008
   4.800   0.7522   0.01094   0.00360  -0.0408  0.1289  1.0000  -1.7320   0.0000   0.0000   0.0000   0.2999
   4.900   0.7596   0.01154   0.00392  -0.0405  0.0822  1.0000  -1.8165   0.0000   0.0000   0.0000   0.2989
   5.000   0.7654   0.01241   0.00441  -0.0400  0.0195  1.0000  -1.8897   0.0000   0.0000   0.0000   0.2978
   5.100   0.7749   0.01265   0.00461  -0.0398  0.0097  1.0000  -1.9843   0.0000   0.0000   0.0000   0.2968
   5.200   0.7852   0.01278   0.00475  -0.0397  0.0091  1.0000  -2.0847   0.0000   0.0000   0.0000   0.2959
   5.300   0.7955   0.01290   0.00489  -0.0396  0.0087  1.0000  -2.1844   0.0000   0.0000   0.0000   0.2950
   5.400   0.8057   0.01303   0.00504  -0.0395  0.0083  1.0000  -2.2832   0.0000   0.0000   0.0000   0.2941
   5.500   0.8159   0.01317   0.00520  -0.0393  0.0080  1.0000  -2.3812   0.0000   0.0000   0.0000   0.2932
   5.600   0.8261   0.01331   0.00537  -0.0392  0.0078  1.0000  -2.4785   0.0000   0.0000   0.0000   0.2924
   5.700   0.8362   0.01347   0.00556  -0.0390  0.0077  1.0000  -2.5747   0.0000   0.0000   0.0000   0.2915
   5.800   0.8462   0.01364   0.00576  -0.0389  0.0075  1.0000  -2.6700   0.0000   0.0000   0.0000   0.2906
   5.900   0.8561   0.01382   0.00598  -0.0387  0.0074  1.0000  -2.7643   0.0000   0.0000   0.0000   0.2898
   6.000   0.8660   0.01401   0.00621  -0.0385  0.0074  1.0000  -2.8576   0.0000   0.0000   0.0000   0.2889
   6.100   0.8757   0.01422   0.00647  -0.0382  0.0073  1.0000  -2.9496   0.0000   0.0000   0.0000   0.2880
   6.200   0.8854   0.01446   0.00675  -0.0380  0.0073  1.0000  -3.0399   0.0000   0.0000   0.0000   0.2872
   6.300   0.8947   0.01472   0.00708  -0.0377  0.0073  1.0000  -3.1277   0.0000   0.0000   0.0000   0.2863
   6.400   0.9039   0.01502   0.00744  -0.0374  0.0074  1.0000  -3.2129   0.0000   0.0000   0.0000   0.2854
   6.500   0.9128   0.01535   0.00783  -0.0370  0.0074  1.0000  -3.2950   0.0000   0.0000   0.0000   0.2845
   6.600   0.9214   0.01573   0.00827  -0.0366  0.0075  1.0000  -3.3728   0.0000   0.0000   0.0000   0.2836
   6.700   0.9296   0.01615   0.00876  -0.0362  0.0076  1.0000  -3.4463   0.0000   0.0000   0.0000   0.2827
   6.800   0.9374   0.01661   0.00929  -0.0357  0.0078  1.0000  -3.5150   0.0000   0.0000   0.0000   0.2817
   6.900   0.9448   0.01712   0.00987  -0.0351  0.0079  1.0000  -3.5780   0.0000   0.0000   0.0000   0.2807
   7.000   0.9518   0.01769   0.01051  -0.0345  0.0081  1.0000  -3.6349   0.0000   0.0000   0.0000   0.2796
   7.100   0.9583   0.01833   0.01121  -0.0338  0.0083  1.0000  -3.6856   0.0000   0.0000   0.0000   0.2785
   7.200   0.9645   0.01902   0.01198  -0.0331  0.0085  1.0000  -3.7297   0.0000   0.0000   0.0000   0.2774
   7.300   0.9703   0.01981   0.01284  -0.0322  0.0088  1.0000  -3.7652   0.0000   0.0000   0.0000   0.2763
   7.400   0.9758   0.02074   0.01385  -0.0314  0.0091  1.0000  -3.7881   0.0000   0.0000   0.0000   0.2751
   7.500   0.9807   0.02200   0.01519  -0.0304  0.0094  1.0000  -3.7841   0.0000   0.0000   0.0000   0.2738
   7.600   0.9865   0.02353   0.01680  -0.0295  0.0101  1.0000  -3.7598   0.0000   0.0000   0.0000   0.2726
   7.700   0.9974   0.02320   0.01646  -0.0293  0.0107  1.0000  -3.9051   0.0000   0.0000   0.0000   0.2720
   7.800   1.0081   0.02312   0.01639  -0.0291  0.0116  1.0000  -4.0254   0.0000   0.0000   0.0000   0.2713
   7.900   1.0190   0.02493   0.01848  -0.0278  0.0152  1.0000  -3.8951   0.0000   0.0000   0.0000   0.2696
   8.000   1.0258   0.02950   0.02340  -0.0264  0.0201  1.0000  -3.6559   0.0000   0.0000   0.0000   0.2680
   9.700   1.0404   0.06750   0.06374  -0.0146  0.0372  1.0000  -3.2504   0.0000   0.0000   0.0000   0.2548
   9.800   1.0364   0.06881   0.06512  -0.0139  0.0372  1.0000  -3.2488   0.0000   0.0000   0.0000   0.2541
   9.900   1.0313   0.07002   0.06641  -0.0132  0.0372  1.0000  -3.2449   0.0000   0.0000   0.0000   0.2534
  10.000   1.0248   0.07112   0.06756  -0.0123  0.0372  1.0000  -3.2379   0.0000   0.0000   0.0000   0.2525
  10.100   1.0178   0.07224   0.06873  -0.0116  0.0372  1.0000  -3.2286   0.0000   0.0000   0.0000   0.2518
  10.200   1.0105   0.07342   0.06997  -0.0111  0.0372  1.0000  -3.2173   0.0000   0.0000   0.0000   0.2513
  10.300   1.0030   0.07469   0.07129  -0.0109  0.0371  1.0000  -3.2043   0.0000   0.0000   0.0000   0.2510
  10.400   0.9956   0.07606   0.07271  -0.0109  0.0371  1.0000  -3.1897   0.0000   0.0000   0.0000   0.2509
  10.500   0.9878   0.07750   0.07420  -0.0111  0.0371  1.0000  -3.1728   0.0000   0.0000   0.0000   0.2511
  10.600   0.9801   0.07905   0.07580  -0.0114  0.0371  1.0000  -3.1545   0.0000   0.0000   0.0000   0.2514
  10.700   0.9724   0.08072   0.07751  -0.0120  0.0371  1.0000  -3.1344   0.0000   0.0000   0.0000   0.2520
  10.800   0.9646   0.08250   0.07935  -0.0128  0.0371  1.0000  -3.1122   0.0000   0.0000   0.0000   0.2527
  10.900   0.9570   0.08438   0.08128  -0.0137  0.0371  1.0000  -3.0885   0.0000   0.0000   0.0000   0.2537
  11.000   0.9491   0.08639   0.08333  -0.0148  0.0371  1.0000  -3.0619   0.0000   0.0000   0.0000   0.2548
  11.100   0.9413   0.08844   0.08542  -0.0160  0.0371  1.0000  -3.0340   0.0000   0.0000   0.0000   0.2561
  11.200   0.9331   0.09059   0.08762  -0.0173  0.0370  1.0000  -3.0025   0.0000   0.0000   0.0000   0.2575
  11.300   0.9253   0.09286   0.08992  -0.0188  0.0370  1.0000  -2.9701   0.0000   0.0000   0.0000   0.2592
  11.400   0.9174   0.09530   0.09240  -0.0204  0.0370  1.0000  -2.9340   0.0000   0.0000   0.0000   0.2611
  11.500   0.9099   0.09785   0.09499  -0.0222  0.0370  1.0000  -2.8967   0.0000   0.0000   0.0000   0.2631
  11.600   0.9023   0.10058   0.09775  -0.0243  0.0370  1.0000  -2.8551   0.0000   0.0000   0.0000   0.2655
  11.700   0.8953   0.10340   0.10061  -0.0264  0.0370  1.0000  -2.8121   0.0000   0.0000   0.0000   0.2680
  11.800   0.8882   0.10641   0.10366  -0.0287  0.0369  1.0000  -2.7641   0.0000   0.0000   0.0000   0.2707
  11.900   0.8819   0.10952   0.10679  -0.0311  0.0369  1.0000  -2.7148   0.0000   0.0000   0.0000   0.2736
  12.000   0.8762   0.11276   0.11006  -0.0336  0.0368  1.0000  -2.6621   0.0000   0.0000   0.0000   0.2767
  12.100   0.8714   0.11617   0.11349  -0.0363  0.0367  1.0000  -2.6060   0.0000   0.0000   0.0000   0.2800
  12.200   0.8688   0.11979   0.11714  -0.0393  0.0363  1.0000  -2.5471   0.0000   0.0000   0.0000   0.2835
  12.300   0.8696   0.12313   0.12048  -0.0418  0.0356  1.0000  -2.5013   0.0000   0.0000   0.0000   0.2864
  12.400   0.8698   0.12599   0.12334  -0.0436  0.0350  1.0000  -2.4662   0.0000   0.0000   0.0000   0.2885
  12.500   0.8694   0.12876   0.12611  -0.0453  0.0344  1.0000  -2.4308   0.0000   0.0000   0.0000   0.2904
  12.600   0.8685   0.13148   0.12883  -0.0469  0.0338  1.0000  -2.3954   0.0000   0.0000   0.0000   0.2922
  12.700   0.8675   0.13414   0.13148  -0.0484  0.0333  1.0000  -2.3608   0.0000   0.0000   0.0000   0.2940
  12.800   0.8664   0.13674   0.13408  -0.0499  0.0328  1.0000  -2.3268   0.0000   0.0000   0.0000   0.2957
  12.900   0.8651   0.13934   0.13667  -0.0513  0.0323  1.0000  -2.2919   0.0000   0.0000   0.0000   0.2974
  13.000   0.8641   0.14184   0.13916  -0.0527  0.0318  1.0000  -2.2604   0.0000   0.0000   0.0000   0.2990
  13.100   0.8633   0.14425   0.14157  -0.0540  0.0313  1.0000  -2.2320   0.0000   0.0000   0.0000   0.3005
  13.200   0.8626   0.14660   0.14391  -0.0553  0.0309  1.0000  -2.2062   0.0000   0.0000   0.0000   0.3020
  13.300   0.8622   0.14887   0.14618  -0.0565  0.0305  1.0000  -2.1829   0.0000   0.0000   0.0000   0.3033
  13.400   0.8619   0.15106   0.14836  -0.0577  0.0301  1.0000  -2.1619   0.0000   0.0000   0.0000   0.3046
  13.500   0.8618   0.15310   0.15040  -0.0588  0.0297  1.0000  -2.1432   0.0000   0.0000   0.0000   0.3058
  13.600   0.8619   0.15503   0.15233  -0.0598  0.0293  1.0000  -2.1266   0.0000   0.0000   0.0000   0.3070
  13.700   0.8621   0.15692   0.15421  -0.0609  0.0289  1.0000  -2.1121   0.0000   0.0000   0.0000   0.3081
  13.800   0.8625   0.15878   0.15606  -0.0619  0.0286  1.0000  -2.0996   0.0000   0.0000   0.0000   0.3091
  13.900   0.8630   0.16061   0.15790  -0.0628  0.0282  1.0000  -2.0893   0.0000   0.0000   0.0000   0.3101
  14.000   0.8638   0.16243   0.15971  -0.0638  0.0278  1.0000  -2.0813   0.0000   0.0000   0.0000   0.3111
  14.100   0.8646   0.16424   0.16151  -0.0647  0.0275  1.0000  -2.0755   0.0000   0.0000   0.0000   0.3119
  14.200   0.8656   0.16602   0.16329  -0.0656  0.0271  1.0000  -2.0722   0.0000   0.0000   0.0000   0.3128
  14.300   0.8668   0.16777   0.16504  -0.0664  0.0267  1.0000  -2.0716   0.0000   0.0000   0.0000   0.3135
  14.400   0.8681   0.16949   0.16676  -0.0672  0.0264  1.0000  -2.0740   0.0000   0.0000   0.0000   0.3142
  14.500   0.8696   0.17117   0.16844  -0.0680  0.0260  1.0000  -2.0798   0.0000   0.0000   0.0000   0.3149
  14.600   0.8713   0.17281   0.17008  -0.0687  0.0257  1.0000  -2.0893   0.0000   0.0000   0.0000   0.3154
  14.700   0.8731   0.17440   0.17166  -0.0693  0.0253  1.0000  -2.1032   0.0000   0.0000   0.0000   0.3159
  14.800   0.8761   0.17545   0.17272  -0.0696  0.0247  1.0000  -2.1534   0.0000   0.0000   0.0000   0.3157
  14.900   0.8797   0.17615   0.17342  -0.0695  0.0240  1.0000  -2.2299   0.0000   0.0000   0.0000   0.3151
  15.000   0.8833   0.17675   0.17402  -0.0692  0.0233  1.0000  -2.3214   0.0000   0.0000   0.0000   0.3142
  15.100   0.8837   0.17867   0.17607  -0.0698  0.0228  1.0000  -2.3300   0.0000   0.0000   0.0000   0.3147
  15.200   0.8777   0.18302   0.18028  -0.0712  0.0220  1.0000  -2.2373   0.0000   0.0000   0.0000   0.3168
  15.400   0.8708   0.19153   0.18875  -0.0744  0.0214  1.0000  -2.0192   0.0000   0.0000   0.0000   0.3212
  15.500   0.8723   0.19366   0.19088  -0.0754  0.0214  1.0000  -2.0037   0.0000   0.0000   0.0000   0.3221
  15.600   0.8739   0.19577   0.19299  -0.0764  0.0214  1.0000  -1.9891   0.0000   0.0000   0.0000   0.3230
  15.700   0.8755   0.19787   0.19509  -0.0774  0.0213  1.0000  -1.9753   0.0000   0.0000   0.0000   0.3238
  15.800   0.8771   0.19995   0.19717  -0.0784  0.0213  1.0000  -1.9625   0.0000   0.0000   0.0000   0.3247
  15.900   0.8789   0.20201   0.19922  -0.0794  0.0213  1.0000  -1.9505   0.0000   0.0000   0.0000   0.3255
  16.000   0.8807   0.20404   0.20125  -0.0803  0.0212  1.0000  -1.9396   0.0000   0.0000   0.0000   0.3263
  16.100   0.8825   0.20610   0.20343  -0.0813  0.0212  1.0000  -1.9261   0.0000   0.0000   0.0000   0.3271
  16.200   0.8844   0.20806   0.20540  -0.0822  0.0211  1.0000  -1.9169   0.0000   0.0000   0.0000   0.3279
  16.300   0.8865   0.20994   0.20729  -0.0832  0.0210  1.0000  -1.9101   0.0000   0.0000   0.0000   0.3286
  16.400   0.8889   0.21170   0.20905  -0.0841  0.0209  1.0000  -1.9063   0.0000   0.0000   0.0000   0.3293
  16.500   0.8918   0.21323   0.21058  -0.0851  0.0206  1.0000  -1.9075   0.0000   0.0000   0.0000   0.3300
  16.600   0.8951   0.21463   0.21198  -0.0863  0.0200  1.0000  -1.9060   0.0000   0.0000   0.0000   0.3308
  16.700   0.8970   0.21645   0.21380  -0.0876  0.0194  1.0000  -1.8825   0.0000   0.0000   0.0000   0.3320
  16.800   0.8988   0.21848   0.21583  -0.0888  0.0187  1.0000  -1.8593   0.0000   0.0000   0.0000   0.3331
  16.900   0.9006   0.22057   0.21792  -0.0899  0.0181  1.0000  -1.8425   0.0000   0.0000   0.0000   0.3340
  17.000   0.9024   0.22267   0.22002  -0.0908  0.0174  1.0000  -1.8312   0.0000   0.0000   0.0000   0.3347
  17.100   0.9042   0.22475   0.22210  -0.0917  0.0168  1.0000  -1.8242   0.0000   0.0000   0.0000   0.3354
  17.200   0.9060   0.22681   0.22417  -0.0926  0.0163  1.0000  -1.8208   0.0000   0.0000   0.0000   0.3360
  17.300   0.9078   0.22885   0.22621  -0.0934  0.0157  1.0000  -1.8204   0.0000   0.0000   0.0000   0.3366
  17.400   0.9096   0.23087   0.22822  -0.0942  0.0152  1.0000  -1.8230   0.0000   0.0000   0.0000   0.3372
  17.500   0.9114   0.23286   0.23021  -0.0950  0.0147  1.0000  -1.8286   0.0000   0.0000   0.0000   0.3377
  17.600   0.9132   0.23481   0.23217  -0.0958  0.0143  1.0000  -1.8373   0.0000   0.0000   0.0000   0.3382
  17.700   0.9151   0.23673   0.23409  -0.0965  0.0138  1.0000  -1.8495   0.0000   0.0000   0.0000   0.3386
  17.800   0.9170   0.23861   0.23597  -0.0972  0.0134  1.0000  -1.8658   0.0000   0.0000   0.0000   0.3390
  17.900   0.9190   0.24043   0.23779  -0.0979  0.0130  1.0000  -1.8871   0.0000   0.0000   0.0000   0.3394
  18.000   0.9211   0.24218   0.23955  -0.0985  0.0126  1.0000  -1.9143   0.0000   0.0000   0.0000   0.3397
  18.100   0.9232   0.24386   0.24123  -0.0990  0.0123  1.0000  -1.9489   0.0000   0.0000   0.0000   0.3398
  18.200   0.9255   0.24545   0.24282  -0.0995  0.0119  1.0000  -1.9934   0.0000   0.0000   0.0000   0.3399
  18.300   0.9281   0.24690   0.24428  -0.0998  0.0116  1.0000  -2.0521   0.0000   0.0000   0.0000   0.3398
  18.400   0.9311   0.24816   0.24555  -0.0999  0.0112  1.0000  -2.1348   0.0000   0.0000   0.0000   0.3393
  18.500   0.9334   0.24978   0.24717  -0.1001  0.0108  1.0000  -2.2016   0.0000   0.0000   0.0000   0.3390
  18.600   0.9331   0.25258   0.24997  -0.1007  0.0104  1.0000  -2.1982   0.0000   0.0000   0.0000   0.3396
  18.700   0.9257   0.25999   0.25735  -0.1020  0.0099  1.0000  -1.9477   0.0000   0.0000   0.0000   0.3420
  18.800   0.9270   0.26224   0.25960  -0.1028  0.0098  1.0000  -1.9375   0.0000   0.0000   0.0000   0.3425
  18.900   0.9284   0.26448   0.26185  -0.1036  0.0098  1.0000  -1.9275   0.0000   0.0000   0.0000   0.3431
  19.000   0.9297   0.26671   0.26408  -0.1044  0.0098  1.0000  -1.9177   0.0000   0.0000   0.0000   0.3437
  19.100   0.9310   0.26894   0.26631  -0.1052  0.0098  1.0000  -1.9083   0.0000   0.0000   0.0000   0.3443
  19.200   0.9322   0.27114   0.26851  -0.1060  0.0098  1.0000  -1.8994   0.0000   0.0000   0.0000   0.3448
  19.300   0.9335   0.27333   0.27070  -0.1068  0.0098  1.0000  -1.8909   0.0000   0.0000   0.0000   0.3454
  19.400   0.9347   0.27549   0.27287  -0.1076  0.0097  1.0000  -1.8829   0.0000   0.0000   0.0000   0.3460
  19.500   0.9359   0.27762   0.27500  -0.1084  0.0097  1.0000  -1.8756   0.0000   0.0000   0.0000   0.3465
  19.600   0.9371   0.27970   0.27709  -0.1092  0.0096  1.0000  -1.8695   0.0000   0.0000   0.0000   0.3471
  19.700   0.9384   0.28173   0.27912  -0.1100  0.0096  1.0000  -1.8643   0.0000   0.0000   0.0000   0.3477
  19.800   0.9397   0.28368   0.28107  -0.1108  0.0095  1.0000  -1.8610   0.0000   0.0000   0.0000   0.3483
  19.900   0.9412   0.28555   0.28295  -0.1116  0.0093  1.0000  -1.8582   0.0000   0.0000   0.0000   0.3488
  20.000   0.9428   0.28744   0.28484  -0.1125  0.0091  1.0000  -1.8522   0.0000   0.0000   0.0000   0.3495
  20.100   0.9438   0.28956   0.28696  -0.1135  0.0089  1.0000  -1.8319   0.0000   0.0000   0.0000   0.3502
  20.200   0.9449   0.29174   0.28915  -0.1144  0.0087  1.0000  -1.8111   0.0000   0.0000   0.0000   0.3509
  20.300   0.9459   0.29398   0.29139  -0.1152  0.0084  1.0000  -1.7912   0.0000   0.0000   0.0000   0.3515
  20.400   0.9467   0.29624   0.29366  -0.1159  0.0082  1.0000  -1.7731   0.0000   0.0000   0.0000   0.3521
  20.500   0.9473   0.29849   0.29591  -0.1166  0.0080  1.0000  -1.7572   0.0000   0.0000   0.0000   0.3526
  20.600   0.9477   0.30072   0.29815  -0.1172  0.0077  1.0000  -1.7431   0.0000   0.0000   0.0000   0.3531
  20.700   0.9480   0.30293   0.30037  -0.1178  0.0075  1.0000  -1.7305   0.0000   0.0000   0.0000   0.3536
  20.800   0.9480   0.30511   0.30255  -0.1184  0.0073  1.0000  -1.7190   0.0000   0.0000   0.0000   0.3541
  20.900   0.9479   0.30725   0.30470  -0.1190  0.0072  1.0000  -1.7082   0.0000   0.0000   0.0000   0.3546
  21.000   0.9476   0.30935   0.30681  -0.1195  0.0070  1.0000  -1.6979   0.0000   0.0000   0.0000   0.3551
  21.100   0.9470   0.31140   0.30887  -0.1200  0.0068  1.0000  -1.6879   0.0000   0.0000   0.0000   0.3556
  21.200   0.9461   0.31340   0.31087  -0.1205  0.0067  1.0000  -1.6778   0.0000   0.0000   0.0000   0.3561
  21.300   0.9450   0.31531   0.31280  -0.1209  0.0066  1.0000  -1.6675   0.0000   0.0000   0.0000   0.3566
  21.400   0.9434   0.31714   0.31463  -0.1213  0.0064  1.0000  -1.6567   0.0000   0.0000   0.0000   0.3571
  21.500   0.9414   0.31884   0.31635  -0.1216  0.0063  1.0000  -1.6449   0.0000   0.0000   0.0000   0.3576
  21.600   0.9387   0.32037   0.31789  -0.1219  0.0062  1.0000  -1.6317   0.0000   0.0000   0.0000   0.3582
  21.700   0.8956   0.31198   0.30958  -0.1177  0.0065  1.0000  -1.5078   0.0000   0.0000   0.0000   0.3602
  21.800   0.8879   0.31134   0.30897  -0.1173  0.0064  1.0000  -1.4811   0.0000   0.0000   0.0000   0.3610
  21.900   0.8822   0.31113   0.30878  -0.1172  0.0063  1.0000  -1.4601   0.0000   0.0000   0.0000   0.3616
  22.000   0.8776   0.31113   0.30880  -0.1171  0.0062  1.0000  -1.4423   0.0000   0.0000   0.0000   0.3623
  22.100   0.8736   0.31126   0.30894  -0.1172  0.0061  1.0000  -1.4266   0.0000   0.0000   0.0000   0.3629
  22.200   0.8701   0.31147   0.30916  -0.1172  0.0060  1.0000  -1.4125   0.0000   0.0000   0.0000   0.3634
  22.300   0.8670   0.31173   0.30943  -0.1174  0.0059  1.0000  -1.3996   0.0000   0.0000   0.0000   0.3640
  22.400   0.8642   0.31203   0.30975  -0.1175  0.0058  1.0000  -1.3878   0.0000   0.0000   0.0000   0.3645
  22.500   0.8616   0.31238   0.31011  -0.1177  0.0057  1.0000  -1.3770   0.0000   0.0000   0.0000   0.3650
  22.600   0.8593   0.31275   0.31050  -0.1179  0.0056  1.0000  -1.3671   0.0000   0.0000   0.0000   0.3655
  22.700   0.8571   0.31316   0.31091  -0.1181  0.0055  1.0000  -1.3580   0.0000   0.0000   0.0000   0.3660
  22.800   0.8551   0.31358   0.31135  -0.1183  0.0054  1.0000  -1.3495   0.0000   0.0000   0.0000   0.3665
  22.900   0.8533   0.31403   0.31180  -0.1186  0.0054  1.0000  -1.3418   0.0000   0.0000   0.0000   0.3670
  23.000   0.8516   0.31449   0.31227  -0.1188  0.0053  1.0000  -1.3346   0.0000   0.0000   0.0000   0.3675
  23.100   0.8500   0.31496   0.31275  -0.1191  0.0052  1.0000  -1.3280   0.0000   0.0000   0.0000   0.3680
  23.200   0.8485   0.31545   0.31325  -0.1194  0.0051  1.0000  -1.3219   0.0000   0.0000   0.0000   0.3684
  23.300   0.8471   0.31594   0.31376  -0.1196  0.0050  1.0000  -1.3164   0.0000   0.0000   0.0000   0.3689
  23.400   0.8458   0.31645   0.31428  -0.1199  0.0049  1.0000  -1.3114   0.0000   0.0000   0.0000   0.3693
  23.500   0.8446   0.31697   0.31480  -0.1202  0.0049  1.0000  -1.3068   0.0000   0.0000   0.0000   0.3698
  23.600   0.8434   0.31749   0.31533  -0.1205  0.0048  1.0000  -1.3026   0.0000   0.0000   0.0000   0.3702
  23.700   0.8424   0.31802   0.31587  -0.1208  0.0047  1.0000  -1.2990   0.0000   0.0000   0.0000   0.3706
  23.800   0.8413   0.31856   0.31642  -0.1211  0.0046  1.0000  -1.2957   0.0000   0.0000   0.0000   0.3711
  23.900   0.8404   0.31910   0.31697  -0.1215  0.0046  1.0000  -1.2929   0.0000   0.0000   0.0000   0.3715
  24.000   0.8395   0.31965   0.31752  -0.1218  0.0045  1.0000  -1.2905   0.0000   0.0000   0.0000   0.3719
  24.100   0.8386   0.32020   0.31808  -0.1221  0.0044  1.0000  -1.2884   0.0000   0.0000   0.0000   0.3723
  24.200   0.8378   0.32075   0.31865  -0.1225  0.0044  1.0000  -1.2868   0.0000   0.0000   0.0000   0.3727
  24.300   0.8371   0.32131   0.31921  -0.1228  0.0043  1.0000  -1.2856   0.0000   0.0000   0.0000   0.3731
  24.400   0.8364   0.32187   0.31978  -0.1231  0.0042  1.0000  -1.2848   0.0000   0.0000   0.0000   0.3735
  24.500   0.8357   0.32243   0.32035  -0.1235  0.0042  1.0000  -1.2843   0.0000   0.0000   0.0000   0.3739
  24.600   0.8350   0.32300   0.32092  -0.1238  0.0041  1.0000  -1.2842   0.0000   0.0000   0.0000   0.3743
  24.700   0.8344   0.32356   0.32150  -0.1242  0.0041  1.0000  -1.2846   0.0000   0.0000   0.0000   0.3746
  24.800   0.8340   0.32405   0.32203  -0.1245  0.0039  1.0000  -1.2984   0.0000   0.0000   0.0000   0.3750
  24.900   0.8334   0.32460   0.32259  -0.1249  0.0039  1.0000  -1.3024   0.0000   0.0000   0.0000   0.3753
  25.000   0.8329   0.32515   0.32315  -0.1252  0.0038  1.0000  -1.3061   0.0000   0.0000   0.0000   0.3757
  25.100   0.8325   0.32570   0.32371  -0.1256  0.0038  1.0000  -1.3099   0.0000   0.0000   0.0000   0.3761
  25.200   0.8320   0.32626   0.32427  -0.1259  0.0037  1.0000  -1.3140   0.0000   0.0000   0.0000   0.3764
  25.300   0.8316   0.32681   0.32483  -0.1263  0.0037  1.0000  -1.3182   0.0000   0.0000   0.0000   0.3768
  25.400   0.8311   0.32736   0.32539  -0.1266  0.0036  1.0000  -1.3228   0.0000   0.0000   0.0000   0.3771
  25.500   0.8308   0.32792   0.32595  -0.1270  0.0036  1.0000  -1.3278   0.0000   0.0000   0.0000   0.3774
  25.600   0.8304   0.32847   0.32651  -0.1273  0.0035  1.0000  -1.3330   0.0000   0.0000   0.0000   0.3778
  25.700   0.8300   0.32902   0.32707  -0.1277  0.0035  1.0000  -1.3386   0.0000   0.0000   0.0000   0.3781
  25.800   0.8297   0.32957   0.32763  -0.1280  0.0034  1.0000  -1.3445   0.0000   0.0000   0.0000   0.3784
  25.900   0.8293   0.33012   0.32818  -0.1284  0.0034  1.0000  -1.3507   0.0000   0.0000   0.0000   0.3787
  26.000   0.8290   0.33066   0.32874  -0.1287  0.0034  1.0000  -1.3572   0.0000   0.0000   0.0000   0.3790
  26.100   0.8287   0.33121   0.32929  -0.1291  0.0033  1.0000  -1.3640   0.0000   0.0000   0.0000   0.3793
  26.200   0.8284   0.33175   0.32984  -0.1294  0.0033  1.0000  -1.3710   0.0000   0.0000   0.0000   0.3796
  26.300   0.8281   0.33229   0.33039  -0.1298  0.0032  1.0000  -1.3781   0.0000   0.0000   0.0000   0.3799
  26.400   0.8278   0.33283   0.33094  -0.1301  0.0032  1.0000  -1.3852   0.0000   0.0000   0.0000   0.3802
  26.500   0.8275   0.33337   0.33149  -0.1304  0.0032  1.0000  -1.3922   0.0000   0.0000   0.0000   0.3805
  26.600   0.8272   0.33391   0.33204  -0.1308  0.0031  1.0000  -1.3989   0.0000   0.0000   0.0000   0.3807
  26.700   0.8269   0.33446   0.33259  -0.1311  0.0031  1.0000  -1.4051   0.0000   0.0000   0.0000   0.3810
  26.800   0.8265   0.33503   0.33317  -0.1314  0.0031  1.0000  -1.4090   0.0000   0.0000   0.0000   0.3813
  26.900   0.8261   0.33564   0.33379  -0.1317  0.0030  1.0000  -1.4069   0.0000   0.0000   0.0000   0.3816
  27.000   0.8256   0.33627   0.33443  -0.1321  0.0030  1.0000  -1.4026   0.0000   0.0000   0.0000   0.3819
  27.100   0.8251   0.33692   0.33509  -0.1324  0.0029  1.0000  -1.3952   0.0000   0.0000   0.0000   0.3822
  27.200   0.8245   0.33760   0.33577  -0.1327  0.0029  1.0000  -1.3837   0.0000   0.0000   0.0000   0.3826
  27.300   0.8238   0.33832   0.33650  -0.1330  0.0029  1.0000  -1.3664   0.0000   0.0000   0.0000   0.3829
  27.400   0.8230   0.33910   0.33728  -0.1333  0.0028  1.0000  -1.3410   0.0000   0.0000   0.0000   0.3833
  27.500   0.8219   0.33997   0.33816  -0.1336  0.0028  1.0000  -1.3028   0.0000   0.0000   0.0000   0.3837
  27.600   0.8205   0.34098   0.33918  -0.1339  0.0027  1.0000  -1.2442   0.0000   0.0000   0.0000   0.3842
  27.700   0.8188   0.34220   0.34041  -0.1341  0.0027  1.0000  -1.1620   0.0000   0.0000   0.0000   0.3847


