xflr5 v6.61

 Calculated polar for: E193  (10.22%)

 1 1 Reynolds number fixed          Mach number fixed         

 xtrf =   1.000 (top)        1.000 (bottom)
 Mach =   0.000     Re =     0.500 e 6     Ncrit =   9.000

  alpha     CL        CD       CDp       Cm    Top Xtr Bot Xtr   Cpmin    Chinge    XCp    
 ------- -------- --------- --------- -------- ------- ------- -------- --------- ---------
 -10.000  -0.3408   0.10877   0.10637  -0.0309  1.0000  0.0187  -1.5782   0.0000   0.0000   0.0000   0.1504
  -9.900  -0.3378   0.10777   0.10537  -0.0315  1.0000  0.0190  -1.5782   0.0000   0.0000   0.0000   0.1479
  -9.800  -0.3346   0.10681   0.10442  -0.0320  1.0000  0.0193  -1.5738   0.0000   0.0000   0.0000   0.1455
  -9.700  -0.3317   0.10580   0.10342  -0.0326  1.0000  0.0195  -1.5707   0.0000   0.0000   0.0000   0.1431
  -9.600  -0.3292   0.10473   0.10236  -0.0331  1.0000  0.0196  -1.5698   0.0000   0.0000   0.0000   0.1408
  -9.500  -0.3269   0.10362   0.10125  -0.0336  1.0000  0.0197  -1.5709   0.0000   0.0000   0.0000   0.1387
  -9.400  -0.3249   0.10246   0.10010  -0.0341  1.0000  0.0198  -1.5736   0.0000   0.0000   0.0000   0.1366
  -9.300  -0.3230   0.10128   0.09893  -0.0346  1.0000  0.0199  -1.5775   0.0000   0.0000   0.0000   0.1345
  -9.200  -0.3213   0.10009   0.09775  -0.0350  1.0000  0.0199  -1.5823   0.0000   0.0000   0.0000   0.1326
  -9.100  -0.3197   0.09889   0.09655  -0.0355  1.0000  0.0199  -1.5881   0.0000   0.0000   0.0000   0.1307
  -9.000  -0.3183   0.09768   0.09535  -0.0359  1.0000  0.0200  -1.5945   0.0000   0.0000   0.0000   0.1288
  -8.900  -0.3170   0.09646   0.09415  -0.0364  1.0000  0.0200  -1.6017   0.0000   0.0000   0.0000   0.1271
  -8.800  -0.3158   0.09524   0.09293  -0.0368  1.0000  0.0200  -1.6094   0.0000   0.0000   0.0000   0.1254
  -8.700  -0.3147   0.09399   0.09170  -0.0372  1.0000  0.0201  -1.6176   0.0000   0.0000   0.0000   0.1237
  -8.600  -0.3137   0.09275   0.09047  -0.0377  1.0000  0.0201  -1.6264   0.0000   0.0000   0.0000   0.1221
  -8.500  -0.3128   0.09150   0.08924  -0.0381  1.0000  0.0201  -1.6358   0.0000   0.0000   0.0000   0.1206
  -8.400  -0.3122   0.09026   0.08801  -0.0384  1.0000  0.0201  -1.6457   0.0000   0.0000   0.0000   0.1192
  -8.300  -0.3118   0.08903   0.08679  -0.0388  1.0000  0.0201  -1.6563   0.0000   0.0000   0.0000   0.1180
  -8.200  -0.3116   0.08780   0.08558  -0.0391  1.0000  0.0201  -1.6674   0.0000   0.0000   0.0000   0.1170
  -8.100  -0.3117   0.08659   0.08439  -0.0394  1.0000  0.0202  -1.6792   0.0000   0.0000   0.0000   0.1163
  -8.000  -0.3120   0.08540   0.08321  -0.0396  1.0000  0.0202  -1.6916   0.0000   0.0000   0.0000   0.1158
  -7.900  -0.3128   0.08422   0.08205  -0.0398  1.0000  0.0202  -1.7047   0.0000   0.0000   0.0000   0.1157
  -7.800  -0.3141   0.08308   0.08093  -0.0399  1.0000  0.0202  -1.7186   0.0000   0.0000   0.0000   0.1160
  -7.700  -0.3160   0.08200   0.07987  -0.0399  1.0000  0.0202  -1.7332   0.0000   0.0000   0.0000   0.1171
  -7.600  -0.3190   0.08100   0.07889  -0.0396  1.0000  0.0202  -1.7487   0.0000   0.0000   0.0000   0.1193
  -7.500  -0.3183   0.07958   0.07749  -0.0407  0.9989  0.0202  -1.7647   0.0000   0.0000   0.0000   0.1159
  -7.400  -0.3105   0.07732   0.07523  -0.0441  0.9945  0.0202  -1.7821   0.0000   0.0000   0.0000   0.1015
  -7.300  -0.3019   0.07488   0.07280  -0.0481  0.9900  0.0203  -1.8027   0.0000   0.0000   0.0000   0.0841
  -7.100  -0.2820   0.06947   0.06736  -0.0573  0.9806  0.0203  -1.8547   0.0000   0.0000   0.0000   0.0402
  -7.000  -0.2708   0.06648   0.06435  -0.0623  0.9757  0.0203  -1.8882   0.0000   0.0000   0.0000   0.0131
  -6.900  -0.2751   0.05617   0.05395  -0.0735  0.9654  0.0210  -2.2845   0.0000   0.0000   0.0000  -0.0241
  -6.800  -0.2741   0.05099   0.04867  -0.0784  0.9556  0.0218  -2.4272   0.0000   0.0000   0.0000  -0.0429
  -6.700  -0.2668   0.04852   0.04614  -0.0811  0.9486  0.0224  -2.4236   0.0000   0.0000   0.0000  -0.0609
  -6.600  -0.2598   0.04697   0.04454  -0.0825  0.9382  0.0229  -2.3886   0.0000   0.0000   0.0000  -0.0744
  -6.500  -0.2506   0.04577   0.04329  -0.0838  0.9288  0.0235  -2.3273   0.0000   0.0000   0.0000  -0.0916
  -6.400  -0.2419   0.04502   0.04250  -0.0845  0.9188  0.0240  -2.2510   0.0000   0.0000   0.0000  -0.1063
  -6.300  -0.2345   0.04416   0.04159  -0.0850  0.9068  0.0246  -2.1921   0.0000   0.0000   0.0000  -0.1194
  -6.100  -0.2211   0.04220   0.03947  -0.0857  0.8840  0.0259  -2.1060   0.0000   0.0000   0.0000  -0.1449
  -6.000  -0.2149   0.04114   0.03832  -0.0860  0.8725  0.0266  -2.0744   0.0000   0.0000   0.0000  -0.1573
  -5.800  -0.2020   0.03889   0.03587  -0.0864  0.8533  0.0283  -2.0254   0.0000   0.0000   0.0000  -0.1853
  -5.700  -0.1951   0.03771   0.03461  -0.0866  0.8447  0.0294  -2.0061   0.0000   0.0000   0.0000  -0.2016
  -5.600  -0.1879   0.03658   0.03336  -0.0868  0.8362  0.0307  -1.9892   0.0000   0.0000   0.0000  -0.2194
  -5.500  -0.1801   0.03556   0.03221  -0.0868  0.8281  0.0322  -1.9717   0.0000   0.0000   0.0000  -0.2397
  -5.400  -0.1706   0.03491   0.03145  -0.0866  0.8203  0.0340  -1.9439   0.0000   0.0000   0.0000  -0.2659
  -5.300  -0.1563   0.03585   0.03235  -0.0862  0.8152  0.0364  -1.8589   0.0000   0.0000   0.0000  -0.3100
  -5.200  -0.1430   0.03691   0.03331  -0.0858  0.8092  0.0374  -1.7772   0.0000   0.0000   0.0000  -0.3588
  -5.100  -0.1345   0.03630   0.03258  -0.0857  0.8030  0.0376  -1.7521   0.0000   0.0000   0.0000  -0.3964
  -5.000  -0.1268   0.03536   0.03150  -0.0856  0.7969  0.0377  -1.7365   0.0000   0.0000   0.0000  -0.4352
  -4.800  -0.1273   0.02660   0.02217  -0.0863  0.7856  0.0409  -1.9430   0.0000   0.0000   0.0000  -0.4384
  -4.700  -0.1194   0.02562   0.02112  -0.0863  0.7790  0.0421  -1.8973   0.0000   0.0000   0.0000  -0.4835
  -4.600  -0.1101   0.02533   0.02074  -0.0863  0.7760  0.0442  -1.8091   0.0000   0.0000   0.0000  -0.5451
  -4.500  -0.1009   0.02475   0.02013  -0.0863  0.7725  0.0454  -1.7537   0.0000   0.0000   0.0000  -0.6168
  -4.400  -0.0915   0.02418   0.01951  -0.0862  0.7685  0.0468  -1.7030   0.0000   0.0000   0.0000  -0.7041
  -4.300  -0.0820   0.02360   0.01886  -0.0860  0.7643  0.0484  -1.6571   0.0000   0.0000   0.0000  -0.8127
  -4.200  -0.0723   0.02301   0.01820  -0.0858  0.7601  0.0501  -1.6153   0.0000   0.0000   0.0000  -0.9523
  -4.100  -0.0624   0.02246   0.01755  -0.0856  0.7557  0.0519  -1.5765   0.0000   0.0000   0.0000  -1.1389
  -4.000  -0.0523   0.02196   0.01696  -0.0853  0.7513  0.0538  -1.5386   0.0000   0.0000   0.0000  -1.4030
  -3.900  -0.0418   0.02158   0.01649  -0.0850  0.7466  0.0556  -1.4994   0.0000   0.0000   0.0000  -1.8083
  -3.400   0.0105   0.01311   0.00663  -0.0814  0.7303  0.0238  -1.8510   0.0000   0.0000   0.0000   8.0691
  -3.300   0.0224   0.01323   0.00672  -0.0813  0.7277  0.0217  -1.7830   0.0000   0.0000   0.0000   3.9254
  -3.200   0.0342   0.01358   0.00710  -0.0812  0.7246  0.0207  -1.6888   0.0000   0.0000   0.0000   2.6488
  -3.100   0.0433   0.01210   0.00546  -0.0806  0.7217  0.0188  -1.7489   0.0000   0.0000   0.0000   2.1310
  -3.000   0.0533   0.01150   0.00477  -0.0802  0.7184  0.0179  -1.7353   0.0000   0.0000   0.0000   1.7695
  -2.900   0.0635   0.01106   0.00424  -0.0798  0.7150  0.0172  -1.7090   0.0000   0.0000   0.0000   1.5198
  -2.800   0.0738   0.01072   0.00381  -0.0795  0.7114  0.0167  -1.6751   0.0000   0.0000   0.0000   1.3378
  -2.700   0.0841   0.01045   0.00345  -0.0792  0.7078  0.0162  -1.6349   0.0000   0.0000   0.0000   1.1998
  -2.600   0.0946   0.01024   0.00315  -0.0789  0.7041  0.0158  -1.5898   0.0000   0.0000   0.0000   1.0913
  -2.500   0.1053   0.01007   0.00290  -0.0787  0.7003  0.0154  -1.5406   0.0000   0.0000   0.0000   1.0039
  -2.400   0.1161   0.00995   0.00270  -0.0785  0.6961  0.0152  -1.4877   0.0000   0.0000   0.0000   0.9319
  -2.300   0.1271   0.00987   0.00254  -0.0784  0.6916  0.0150  -1.4315   0.0000   0.0000   0.0000   0.8716
  -2.200   0.1382   0.00980   0.00242  -0.0783  0.6881  0.0149  -1.3719   0.0000   0.0000   0.0000   0.8206
  -2.100   0.1494   0.00971   0.00229  -0.0782  0.6869  0.0148  -1.3091   0.0000   0.0000   0.0000   0.7772
  -2.000   0.1605   0.00964   0.00218  -0.0782  0.6856  0.0148  -1.2440   0.0000   0.0000   0.0000   0.7399
  -1.900   0.1717   0.00959   0.00209  -0.0781  0.6841  0.0149  -1.1773   0.0000   0.0000   0.0000   0.7074
  -1.800   0.1829   0.00954   0.00200  -0.0780  0.6824  0.0151  -1.1097   0.0000   0.0000   0.0000   0.6790
  -1.700   0.1940   0.00950   0.00193  -0.0780  0.6805  0.0154  -1.0414   0.0000   0.0000   0.0000   0.6539
  -1.600   0.2052   0.00946   0.00187  -0.0779  0.6785  0.0159  -0.9728   0.0000   0.0000   0.0000   0.6315
  -1.500   0.2163   0.00943   0.00182  -0.0779  0.6764  0.0166  -0.9042   0.0000   0.0000   0.0000   0.6115
  -1.400   0.2274   0.00939   0.00178  -0.0779  0.6741  0.0175  -0.8362   0.0000   0.0000   0.0000   0.5935
  -1.300   0.2385   0.00936   0.00176  -0.0778  0.6717  0.0187  -0.7703   0.0000   0.0000   0.0000   0.5772
  -1.200   0.2495   0.00933   0.00174  -0.0778  0.6692  0.0200  -0.7086   0.0000   0.0000   0.0000   0.5623
  -1.100   0.2597   0.00908   0.00169  -0.0777  0.6668  0.0696  -0.6555   0.0000   0.0000   0.0000   0.5496
  -1.000   0.2701   0.00890   0.00166  -0.0776  0.6643  0.1103  -0.6047   0.0000   0.0000   0.0000   0.5378
  -0.900   0.2804   0.00874   0.00165  -0.0776  0.6617  0.1560  -0.5892   0.0000   0.0000   0.0000   0.5268
  -0.800   0.2907   0.00858   0.00166  -0.0775  0.6589  0.2051  -0.5960   0.0000   0.0000   0.0000   0.5168
  -0.700   0.3009   0.00842   0.00167  -0.0775  0.6560  0.2544  -0.6029   0.0000   0.0000   0.0000   0.5074
  -0.600   0.3111   0.00828   0.00169  -0.0774  0.6527  0.3057  -0.6097   0.0000   0.0000   0.0000   0.4986
  -0.500   0.3210   0.00811   0.00173  -0.0773  0.6489  0.3706  -0.6164   0.0000   0.0000   0.0000   0.4905
  -0.400   0.3300   0.00781   0.00181  -0.0771  0.6448  0.4838  -0.6226   0.0000   0.0000   0.0000   0.4832
  -0.300   0.3462   0.00663   0.00211  -0.0775  0.6408  0.9714  -0.6333   0.0000   0.0000   0.0000   0.4733
  -0.200   0.3661   0.00662   0.00209  -0.0794  0.6396  0.9835  -0.6451   0.0000   0.0000   0.0000   0.4661
  -0.100   0.3871   0.00661   0.00205  -0.0815  0.6385  0.9913  -0.6574   0.0000   0.0000   0.0000   0.4598
   0.000   0.4068   0.00660   0.00202  -0.0834  0.6373  0.9973  -0.6692   0.0000   0.0000   0.0000   0.4541
   0.100   0.4222   0.00660   0.00200  -0.0844  0.6359  1.0000  -0.6788   0.0000   0.0000   0.0000   0.4488
   0.200   0.4324   0.00661   0.00199  -0.0842  0.6345  1.0000  -0.6857   0.0000   0.0000   0.0000   0.4436
   0.300   0.4426   0.00662   0.00199  -0.0840  0.6329  1.0000  -0.6927   0.0000   0.0000   0.0000   0.4386
   0.400   0.4528   0.00664   0.00199  -0.0839  0.6313  1.0000  -0.6996   0.0000   0.0000   0.0000   0.4339
   0.500   0.4630   0.00666   0.00199  -0.0837  0.6295  1.0000  -0.7066   0.0000   0.0000   0.0000   0.4293
   0.600   0.4732   0.00668   0.00200  -0.0835  0.6276  1.0000  -0.7136   0.0000   0.0000   0.0000   0.4249
   0.700   0.4835   0.00670   0.00200  -0.0833  0.6257  1.0000  -0.7206   0.0000   0.0000   0.0000   0.4207
   0.800   0.4937   0.00672   0.00201  -0.0832  0.6237  1.0000  -0.7276   0.0000   0.0000   0.0000   0.4167
   0.900   0.5040   0.00674   0.00201  -0.0830  0.6216  1.0000  -0.7346   0.0000   0.0000   0.0000   0.4129
   1.000   0.5142   0.00677   0.00202  -0.0828  0.6194  1.0000  -0.7416   0.0000   0.0000   0.0000   0.4092
   1.100   0.5244   0.00680   0.00203  -0.0826  0.6172  1.0000  -0.7486   0.0000   0.0000   0.0000   0.4056
   1.200   0.5346   0.00684   0.00204  -0.0824  0.6150  1.0000  -0.7557   0.0000   0.0000   0.0000   0.4021
   1.300   0.5448   0.00687   0.00205  -0.0822  0.6126  1.0000  -0.7627   0.0000   0.0000   0.0000   0.3988
   1.400   0.5550   0.00691   0.00207  -0.0820  0.6101  1.0000  -0.7704   0.0000   0.0000   0.0000   0.3956
   1.500   0.5651   0.00696   0.00209  -0.0819  0.6072  1.0000  -0.7783   0.0000   0.0000   0.0000   0.3926
   1.600   0.5752   0.00702   0.00211  -0.0817  0.6039  1.0000  -0.7862   0.0000   0.0000   0.0000   0.3896
   1.700   0.5855   0.00709   0.00215  -0.0815  0.6000  1.0000  -0.7941   0.0000   0.0000   0.0000   0.3868
   1.800   0.5959   0.00718   0.00222  -0.0814  0.5957  1.0000  -0.8020   0.0000   0.0000   0.0000   0.3840
   1.900   0.6064   0.00728   0.00230  -0.0813  0.5917  1.0000  -0.8110   0.0000   0.0000   0.0000   0.3815
   2.000   0.6168   0.00728   0.00230  -0.0811  0.5910  1.0000  -0.8202   0.0000   0.0000   0.0000   0.3789
   2.100   0.6272   0.00729   0.00232  -0.0810  0.5901  1.0000  -0.8294   0.0000   0.0000   0.0000   0.3764
   2.200   0.6376   0.00730   0.00233  -0.0809  0.5890  1.0000  -0.8395   0.0000   0.0000   0.0000   0.3739
   2.300   0.6480   0.00731   0.00235  -0.0807  0.5877  1.0000  -0.8500   0.0000   0.0000   0.0000   0.3716
   2.400   0.6585   0.00733   0.00237  -0.0806  0.5862  1.0000  -0.8618   0.0000   0.0000   0.0000   0.3693
   2.500   0.6689   0.00734   0.00238  -0.0804  0.5845  1.0000  -0.8739   0.0000   0.0000   0.0000   0.3671
   2.600   0.6793   0.00736   0.00240  -0.0803  0.5825  1.0000  -0.8860   0.0000   0.0000   0.0000   0.3650
   2.700   0.6898   0.00737   0.00242  -0.0802  0.5803  1.0000  -0.8992   0.0000   0.0000   0.0000   0.3629
   2.800   0.7003   0.00739   0.00244  -0.0800  0.5780  1.0000  -0.9131   0.0000   0.0000   0.0000   0.3609
   2.900   0.7107   0.00741   0.00245  -0.0799  0.5754  1.0000  -0.9286   0.0000   0.0000   0.0000   0.3589
   3.000   0.7209   0.00740   0.00246  -0.0797  0.5704  1.0000  -0.9448   0.0000   0.0000   0.0000   0.3569
   3.100   0.7282   0.00749   0.00232  -0.0788  0.5442  1.0000  -0.9592   0.0000   0.0000   0.0000   0.3545
   3.200   0.7379   0.00740   0.00221  -0.0784  0.5311  1.0000  -0.9757   0.0000   0.0000   0.0000   0.3525
   3.300   0.7470   0.00747   0.00216  -0.0780  0.5141  1.0000  -0.9939   0.0000   0.0000   0.0000   0.3505
   3.400   0.7558   0.00757   0.00217  -0.0776  0.5007  1.0000  -1.0118   0.0000   0.0000   0.0000   0.3486
   3.500   0.7658   0.00764   0.00220  -0.0774  0.4937  1.0000  -1.0308   0.0000   0.0000   0.0000   0.3470
   3.600   0.7764   0.00767   0.00223  -0.0773  0.4904  1.0000  -1.0506   0.0000   0.0000   0.0000   0.3454
   3.700   0.7869   0.00771   0.00226  -0.0772  0.4856  1.0000  -1.0703   0.0000   0.0000   0.0000   0.3438
   3.800   0.7972   0.00776   0.00229  -0.0770  0.4786  1.0000  -1.0898   0.0000   0.0000   0.0000   0.3423
   3.900   0.8071   0.00783   0.00231  -0.0768  0.4696  1.0000  -1.1127   0.0000   0.0000   0.0000   0.3407
   4.000   0.8166   0.00793   0.00235  -0.0765  0.4597  1.0000  -1.1372   0.0000   0.0000   0.0000   0.3392
   4.100   0.8258   0.00804   0.00240  -0.0762  0.4489  1.0000  -1.1649   0.0000   0.0000   0.0000   0.3377
   4.200   0.8361   0.00810   0.00244  -0.0761  0.4427  1.0000  -1.1941   0.0000   0.0000   0.0000   0.3363
   4.300   0.8463   0.00817   0.00248  -0.0759  0.4350  1.0000  -1.2234   0.0000   0.0000   0.0000   0.3349
   4.400   0.8559   0.00827   0.00253  -0.0757  0.4231  1.0000  -1.2521   0.0000   0.0000   0.0000   0.3335
   4.500   0.8645   0.00844   0.00260  -0.0753  0.4065  1.0000  -1.2794   0.0000   0.0000   0.0000   0.3321
   4.600   0.8739   0.00857   0.00267  -0.0750  0.3932  1.0000  -1.3078   0.0000   0.0000   0.0000   0.3307
   4.700   0.8828   0.00874   0.00274  -0.0747  0.3743  1.0000  -1.3357   0.0000   0.0000   0.0000   0.3294
   4.800   0.8906   0.00899   0.00286  -0.0742  0.3508  1.0000  -1.3619   0.0000   0.0000   0.0000   0.3280
   4.900   0.8986   0.00924   0.00298  -0.0737  0.3255  1.0000  -1.4128   0.0000   0.0000   0.0000   0.3266
   5.000   0.9056   0.00959   0.00315  -0.0731  0.2938  1.0000  -1.4619   0.0000   0.0000   0.0000   0.3252
   5.100   0.9120   0.01000   0.00335  -0.0725  0.2592  1.0000  -1.5104   0.0000   0.0000   0.0000   0.3238
   5.200   0.9180   0.01045   0.00359  -0.0718  0.2236  1.0000  -1.5803   0.0000   0.0000   0.0000   0.3224
   5.300   0.9240   0.01090   0.00384  -0.0711  0.1889  1.0000  -1.6505   0.0000   0.0000   0.0000   0.3211
   5.400   0.9301   0.01135   0.00410  -0.0704  0.1561  1.0000  -1.7214   0.0000   0.0000   0.0000   0.3198
   5.500   0.9361   0.01180   0.00435  -0.0697  0.1240  1.0000  -1.7916   0.0000   0.0000   0.0000   0.3184
   5.600   0.9415   0.01231   0.00464  -0.0689  0.0903  1.0000  -1.8585   0.0000   0.0000   0.0000   0.3171
   5.700   0.9469   0.01280   0.00495  -0.0681  0.0588  1.0000  -1.9240   0.0000   0.0000   0.0000   0.3157
   5.800   0.9487   0.01362   0.00546  -0.0668  0.0131  1.0000  -1.9715   0.0000   0.0000   0.0000   0.3141
   5.900   0.9579   0.01377   0.00559  -0.0665  0.0121  1.0000  -2.0514   0.0000   0.0000   0.0000   0.3130
   6.000   0.9670   0.01393   0.00573  -0.0662  0.0112  1.0000  -2.1293   0.0000   0.0000   0.0000   0.3119
   6.100   0.9763   0.01408   0.00588  -0.0659  0.0105  1.0000  -2.2075   0.0000   0.0000   0.0000   0.3108
   6.200   0.9855   0.01422   0.00604  -0.0656  0.0100  1.0000  -2.2867   0.0000   0.0000   0.0000   0.3098
   6.300   0.9948   0.01437   0.00621  -0.0653  0.0096  1.0000  -2.3673   0.0000   0.0000   0.0000   0.3087
   6.400   1.0041   0.01451   0.00638  -0.0650  0.0094  1.0000  -2.4489   0.0000   0.0000   0.0000   0.3077
   6.500   1.0133   0.01465   0.00656  -0.0647  0.0092  1.0000  -2.5314   0.0000   0.0000   0.0000   0.3067
   6.600   1.0224   0.01480   0.00675  -0.0644  0.0091  1.0000  -2.6140   0.0000   0.0000   0.0000   0.3057
   6.700   1.0315   0.01495   0.00694  -0.0641  0.0091  1.0000  -2.6967   0.0000   0.0000   0.0000   0.3047
   6.800   1.0404   0.01511   0.00715  -0.0637  0.0091  1.0000  -2.7791   0.0000   0.0000   0.0000   0.3038
   6.900   1.0492   0.01528   0.00736  -0.0633  0.0091  1.0000  -2.8608   0.0000   0.0000   0.0000   0.3028
   7.000   1.0590   0.01535   0.00770  -0.0632  0.0097  1.0000  -3.0147   0.0000   0.0000   0.0000   0.3019
   7.100   1.0681   0.01548   0.00789  -0.0629  0.0099  1.0000  -3.1268   0.0000   0.0000   0.0000   0.3010
   7.200   1.0768   0.01566   0.00812  -0.0625  0.0099  1.0000  -3.2174   0.0000   0.0000   0.0000   0.3001
   7.300   1.0852   0.01586   0.00837  -0.0621  0.0099  1.0000  -3.3001   0.0000   0.0000   0.0000   0.2991
   7.400   1.0931   0.01609   0.00866  -0.0616  0.0099  1.0000  -3.3772   0.0000   0.0000   0.0000   0.2981
   7.500   1.1008   0.01634   0.00897  -0.0610  0.0099  1.0000  -3.4501   0.0000   0.0000   0.0000   0.2970
   7.600   1.1081   0.01661   0.00930  -0.0604  0.0100  1.0000  -3.5195   0.0000   0.0000   0.0000   0.2960
   7.700   1.1151   0.01691   0.00965  -0.0597  0.0100  1.0000  -3.5859   0.0000   0.0000   0.0000   0.2949
   7.800   1.1216   0.01724   0.01004  -0.0589  0.0101  1.0000  -3.6490   0.0000   0.0000   0.0000   0.2938
   7.900   1.1275   0.01759   0.01046  -0.0581  0.0101  1.0000  -3.7084   0.0000   0.0000   0.0000   0.2926
   8.000   1.1329   0.01798   0.01091  -0.0571  0.0102  1.0000  -3.7644   0.0000   0.0000   0.0000   0.2914
   8.100   1.1377   0.01839   0.01138  -0.0561  0.0103  1.0000  -3.8170   0.0000   0.0000   0.0000   0.2902
   8.200   1.1420   0.01882   0.01189  -0.0551  0.0104  1.0000  -3.8659   0.0000   0.0000   0.0000   0.2890
   8.300   1.1453   0.01928   0.01240  -0.0538  0.0105  1.0000  -3.9103   0.0000   0.0000   0.0000   0.2876
   8.400   1.1476   0.01974   0.01293  -0.0524  0.0107  1.0000  -3.9499   0.0000   0.0000   0.0000   0.2862
   8.500   1.1493   0.02023   0.01348  -0.0509  0.0108  1.0000  -3.9862   0.0000   0.0000   0.0000   0.2847
   8.600   1.1508   0.02076   0.01407  -0.0494  0.0109  1.0000  -4.0197   0.0000   0.0000   0.0000   0.2832
   8.700   1.1519   0.02132   0.01470  -0.0480  0.0111  1.0000  -4.0506   0.0000   0.0000   0.0000   0.2817
   8.800   1.1530   0.02192   0.01536  -0.0465  0.0112  1.0000  -4.0795   0.0000   0.0000   0.0000   0.2803
   8.900   1.1539   0.02256   0.01607  -0.0451  0.0114  1.0000  -4.1061   0.0000   0.0000   0.0000   0.2789
   9.000   1.1548   0.02325   0.01682  -0.0437  0.0115  1.0000  -4.1303   0.0000   0.0000   0.0000   0.2775
   9.100   1.1559   0.02400   0.01763  -0.0424  0.0117  1.0000  -4.1522   0.0000   0.0000   0.0000   0.2762
   9.200   1.1572   0.02481   0.01850  -0.0411  0.0119  1.0000  -4.1710   0.0000   0.0000   0.0000   0.2750
   9.300   1.1590   0.02571   0.01948  -0.0399  0.0122  1.0000  -4.1856   0.0000   0.0000   0.0000   0.2737
   9.400   1.1615   0.02679   0.02063  -0.0388  0.0124  1.0000  -4.1916   0.0000   0.0000   0.0000   0.2726
   9.600   1.1763   0.02932   0.02328  -0.0376  0.0140  1.0000  -4.1994   0.0000   0.0000   0.0000   0.2708
   9.700   1.1820   0.02935   0.02333  -0.0369  0.0144  1.0000  -4.2826   0.0000   0.0000   0.0000   0.2699
   9.800   1.1880   0.02945   0.02345  -0.0362  0.0149  1.0000  -4.3619   0.0000   0.0000   0.0000   0.2691
   9.900   1.1960   0.02971   0.02378  -0.0357  0.0161  1.0000  -4.4200   0.0000   0.0000   0.0000   0.2682
  12.600   1.1843   0.07087   0.06758  -0.0179  0.0291  1.0000  -4.3119   0.0000   0.0000   0.0000   0.2497
  12.700   1.1768   0.07262   0.06939  -0.0180  0.0290  1.0000  -4.3017   0.0000   0.0000   0.0000   0.2497
  12.800   1.1690   0.07448   0.07131  -0.0182  0.0289  1.0000  -4.2881   0.0000   0.0000   0.0000   0.2499
  12.900   1.1613   0.07645   0.07333  -0.0186  0.0288  1.0000  -4.2735   0.0000   0.0000   0.0000   0.2501
  13.000   1.1532   0.07850   0.07544  -0.0191  0.0287  1.0000  -4.2550   0.0000   0.0000   0.0000   0.2505
  13.100   1.1448   0.08065   0.07764  -0.0197  0.0286  1.0000  -4.2335   0.0000   0.0000   0.0000   0.2510
  13.200   1.1365   0.08288   0.07993  -0.0204  0.0285  1.0000  -4.2106   0.0000   0.0000   0.0000   0.2516
  13.300   1.1279   0.08518   0.08228  -0.0212  0.0284  1.0000  -4.1845   0.0000   0.0000   0.0000   0.2523
  13.400   1.1191   0.08754   0.08470  -0.0222  0.0283  1.0000  -4.1562   0.0000   0.0000   0.0000   0.2532
  13.500   1.1105   0.08998   0.08719  -0.0233  0.0283  1.0000  -4.1264   0.0000   0.0000   0.0000   0.2541
  13.600   1.1017   0.09246   0.08973  -0.0245  0.0282  1.0000  -4.0946   0.0000   0.0000   0.0000   0.2552
  13.700   1.0929   0.09498   0.09230  -0.0258  0.0282  1.0000  -4.0613   0.0000   0.0000   0.0000   0.2565
  13.800   1.0843   0.09758   0.09496  -0.0272  0.0282  1.0000  -4.0261   0.0000   0.0000   0.0000   0.2578
  13.900   1.0756   0.10022   0.09765  -0.0288  0.0282  1.0000  -3.9895   0.0000   0.0000   0.0000   0.2593
  14.000   1.0670   0.10294   0.10041  -0.0304  0.0282  1.0000  -3.9512   0.0000   0.0000   0.0000   0.2609
  14.100   1.0586   0.10576   0.10328  -0.0322  0.0281  1.0000  -3.9101   0.0000   0.0000   0.0000   0.2627
  14.200   1.0501   0.10866   0.10623  -0.0342  0.0282  1.0000  -3.8670   0.0000   0.0000   0.0000   0.2646
  14.300   1.0418   0.11168   0.10929  -0.0362  0.0282  1.0000  -3.8205   0.0000   0.0000   0.0000   0.2668
  14.400   1.0335   0.11481   0.11246  -0.0384  0.0282  1.0000  -3.7706   0.0000   0.0000   0.0000   0.2690
  14.500   1.0250   0.11799   0.11569  -0.0408  0.0282  1.0000  -3.7153   0.0000   0.0000   0.0000   0.2716
  14.600   1.0168   0.12122   0.11896  -0.0432  0.0282  1.0000  -3.6564   0.0000   0.0000   0.0000   0.2741
  14.700   1.0079   0.12483   0.12262  -0.0460  0.0283  1.0000  -3.5862   0.0000   0.0000   0.0000   0.2772
  14.800   0.9995   0.12863   0.12644  -0.0487  0.0283  1.0000  -3.5119   0.0000   0.0000   0.0000   0.2803
  14.900   0.9906   0.13289   0.13074  -0.0518  0.0283  1.0000  -3.4234   0.0000   0.0000   0.0000   0.2838
  15.000   0.9819   0.13736   0.13523  -0.0548  0.0282  1.0000  -3.3290   0.0000   0.0000   0.0000   0.2874
  15.100   0.9730   0.14210   0.13998  -0.0578  0.0279  1.0000  -3.2236   0.0000   0.0000   0.0000   0.2909
  15.200   0.9560   0.14966   0.14755  -0.0622  0.0273  1.0000  -3.0049   0.0000   0.0000   0.0000   0.2967
  15.300   0.9186   0.16650   0.16433  -0.0707  0.0263  1.0000  -2.4153   0.0000   0.0000   0.0000   0.3094
  15.400   0.9180   0.16945   0.16727  -0.0721  0.0263  1.0000  -2.3753   0.0000   0.0000   0.0000   0.3109
  15.500   0.9177   0.17228   0.17010  -0.0734  0.0263  1.0000  -2.3395   0.0000   0.0000   0.0000   0.3123
  15.600   0.9176   0.17503   0.17284  -0.0747  0.0263  1.0000  -2.3070   0.0000   0.0000   0.0000   0.3137
  15.700   0.9177   0.17770   0.17551  -0.0760  0.0263  1.0000  -2.2772   0.0000   0.0000   0.0000   0.3149
  15.800   0.9180   0.18030   0.17812  -0.0772  0.0262  1.0000  -2.2499   0.0000   0.0000   0.0000   0.3161
  15.900   0.9184   0.18286   0.18067  -0.0783  0.0262  1.0000  -2.2247   0.0000   0.0000   0.0000   0.3173
  16.000   0.9190   0.18536   0.18317  -0.0795  0.0262  1.0000  -2.2016   0.0000   0.0000   0.0000   0.3184
  16.100   0.9198   0.18781   0.18561  -0.0806  0.0261  1.0000  -2.1806   0.0000   0.0000   0.0000   0.3195
  16.200   0.9206   0.19020   0.18800  -0.0817  0.0261  1.0000  -2.1616   0.0000   0.0000   0.0000   0.3205
  16.300   0.9217   0.19252   0.19033  -0.0828  0.0260  1.0000  -2.1450   0.0000   0.0000   0.0000   0.3214
  16.400   0.9230   0.19477   0.19257  -0.0839  0.0260  1.0000  -2.1315   0.0000   0.0000   0.0000   0.3224
  16.500   0.9247   0.19688   0.19468  -0.0849  0.0259  1.0000  -2.1223   0.0000   0.0000   0.0000   0.3232
  16.600   0.9269   0.19877   0.19657  -0.0859  0.0257  1.0000  -2.1207   0.0000   0.0000   0.0000   0.3239
  16.700   0.9301   0.20034   0.19815  -0.0868  0.0253  1.0000  -2.1301   0.0000   0.0000   0.0000   0.3245
  16.800   0.9336   0.20194   0.19974  -0.0878  0.0247  1.0000  -2.1386   0.0000   0.0000   0.0000   0.3250
  16.900   0.9362   0.20387   0.20167  -0.0887  0.0241  1.0000  -2.1349   0.0000   0.0000   0.0000   0.3257
  17.000   0.9378   0.20613   0.20393  -0.0898  0.0235  1.0000  -2.1185   0.0000   0.0000   0.0000   0.3266
  17.100   0.9390   0.20851   0.20632  -0.0910  0.0230  1.0000  -2.0979   0.0000   0.0000   0.0000   0.3275
  17.200   0.9401   0.21091   0.20871  -0.0920  0.0225  1.0000  -2.0785   0.0000   0.0000   0.0000   0.3285
  17.300   0.9411   0.21329   0.21109  -0.0931  0.0220  1.0000  -2.0603   0.0000   0.0000   0.0000   0.3294
  17.400   0.9421   0.21566   0.21346  -0.0941  0.0216  1.0000  -2.0437   0.0000   0.0000   0.0000   0.3303
  17.500   0.9431   0.21800   0.21580  -0.0952  0.0211  1.0000  -2.0287   0.0000   0.0000   0.0000   0.3311
  17.600   0.9441   0.22031   0.21812  -0.0961  0.0207  1.0000  -2.0155   0.0000   0.0000   0.0000   0.3319
  17.700   0.9452   0.22260   0.22041  -0.0971  0.0204  1.0000  -2.0043   0.0000   0.0000   0.0000   0.3327
  17.800   0.9463   0.22487   0.22267  -0.0980  0.0200  1.0000  -1.9947   0.0000   0.0000   0.0000   0.3334
  17.900   0.9475   0.22712   0.22492  -0.0990  0.0197  1.0000  -1.9865   0.0000   0.0000   0.0000   0.3341
  18.000   0.9487   0.22934   0.22715  -0.0998  0.0194  1.0000  -1.9798   0.0000   0.0000   0.0000   0.3348
  18.100   0.9499   0.23155   0.22935  -0.1007  0.0191  1.0000  -1.9745   0.0000   0.0000   0.0000   0.3355
  18.200   0.9512   0.23374   0.23155  -0.1016  0.0188  1.0000  -1.9704   0.0000   0.0000   0.0000   0.3361
  18.300   0.9525   0.23592   0.23372  -0.1024  0.0185  1.0000  -1.9674   0.0000   0.0000   0.0000   0.3367
  18.400   0.9538   0.23808   0.23589  -0.1032  0.0182  1.0000  -1.9655   0.0000   0.0000   0.0000   0.3372
  18.500   0.9551   0.24023   0.23804  -0.1041  0.0180  1.0000  -1.9646   0.0000   0.0000   0.0000   0.3378
  18.600   0.9565   0.24236   0.24018  -0.1048  0.0177  1.0000  -1.9648   0.0000   0.0000   0.0000   0.3383
  18.700   0.9579   0.24448   0.24230  -0.1056  0.0175  1.0000  -1.9660   0.0000   0.0000   0.0000   0.3388
  18.800   0.9594   0.24649   0.24431  -0.1064  0.0172  1.0000  -1.9743   0.0000   0.0000   0.0000   0.3393
  18.900   0.9610   0.24841   0.24624  -0.1071  0.0169  1.0000  -1.9871   0.0000   0.0000   0.0000   0.3396
  19.000   0.9627   0.25030   0.24813  -0.1077  0.0166  1.0000  -2.0022   0.0000   0.0000   0.0000   0.3400
  19.100   0.9644   0.25215   0.24999  -0.1084  0.0164  1.0000  -2.0199   0.0000   0.0000   0.0000   0.3402
  19.200   0.9662   0.25396   0.25180  -0.1090  0.0161  1.0000  -2.0403   0.0000   0.0000   0.0000   0.3405
  19.300   0.9681   0.25573   0.25357  -0.1095  0.0159  1.0000  -2.0635   0.0000   0.0000   0.0000   0.3407
  19.400   0.9700   0.25746   0.25530  -0.1101  0.0156  1.0000  -2.0898   0.0000   0.0000   0.0000   0.3408
  19.500   0.9720   0.25913   0.25699  -0.1106  0.0154  1.0000  -2.1194   0.0000   0.0000   0.0000   0.3409
  19.600   0.9740   0.26081   0.25867  -0.1110  0.0152  1.0000  -2.1503   0.0000   0.0000   0.0000   0.3409
  19.700   0.9759   0.26251   0.26037  -0.1115  0.0150  1.0000  -2.1806   0.0000   0.0000   0.0000   0.3410
  19.800   0.9779   0.26398   0.26190  -0.1119  0.0147  1.0000  -2.2219   0.0000   0.0000   0.0000   0.3409
  19.900   0.9787   0.26608   0.26400  -0.1125  0.0145  1.0000  -2.2353   0.0000   0.0000   0.0000   0.3412
  20.000   0.9789   0.26846   0.26638  -0.1131  0.0143  1.0000  -2.2385   0.0000   0.0000   0.0000   0.3417
  20.100   0.9636   0.27923   0.27707  -0.1149  0.0133  1.0000  -1.9080   0.0000   0.0000   0.0000   0.3457
  20.200   0.9642   0.28165   0.27950  -0.1157  0.0133  1.0000  -1.8952   0.0000   0.0000   0.0000   0.3463
  20.300   0.9647   0.28406   0.28191  -0.1164  0.0133  1.0000  -1.8825   0.0000   0.0000   0.0000   0.3468
  20.400   0.9650   0.28645   0.28435  -0.1171  0.0133  1.0000  -1.8657   0.0000   0.0000   0.0000   0.3474
  20.500   0.9653   0.28883   0.28674  -0.1179  0.0133  1.0000  -1.8526   0.0000   0.0000   0.0000   0.3480
  20.600   0.9655   0.29119   0.28911  -0.1186  0.0132  1.0000  -1.8399   0.0000   0.0000   0.0000   0.3486
  20.700   0.9656   0.29354   0.29146  -0.1192  0.0132  1.0000  -1.8272   0.0000   0.0000   0.0000   0.3491
  20.800   0.9656   0.29587   0.29380  -0.1199  0.0132  1.0000  -1.8144   0.0000   0.0000   0.0000   0.3497
  20.900   0.9654   0.29818   0.29611  -0.1206  0.0132  1.0000  -1.8015   0.0000   0.0000   0.0000   0.3503
  21.000   0.9651   0.30046   0.29839  -0.1212  0.0132  1.0000  -1.7884   0.0000   0.0000   0.0000   0.3508
  21.100   0.9646   0.30270   0.30064  -0.1218  0.0132  1.0000  -1.7751   0.0000   0.0000   0.0000   0.3514
  21.200   0.9638   0.30490   0.30285  -0.1224  0.0132  1.0000  -1.7615   0.0000   0.0000   0.0000   0.3520
  21.300   0.9628   0.30705   0.30501  -0.1230  0.0132  1.0000  -1.7474   0.0000   0.0000   0.0000   0.3526
  21.400   0.9615   0.30913   0.30710  -0.1235  0.0132  1.0000  -1.7326   0.0000   0.0000   0.0000   0.3532
  21.500   0.9597   0.31112   0.30910  -0.1240  0.0132  1.0000  -1.7170   0.0000   0.0000   0.0000   0.3538
  21.600   0.9574   0.31299   0.31098  -0.1244  0.0132  1.0000  -1.7001   0.0000   0.0000   0.0000   0.3545
  21.700   0.9544   0.31468   0.31268  -0.1247  0.0132  1.0000  -1.6814   0.0000   0.0000   0.0000   0.3552
  21.800   0.9032   0.30484   0.30293  -0.1203  0.0132  1.0000  -1.5391   0.0000   0.0000   0.0000   0.3585
  21.900   0.8966   0.30462   0.30273  -0.1202  0.0132  1.0000  -1.5124   0.0000   0.0000   0.0000   0.3594
  22.000   0.8914   0.30465   0.30278  -0.1202  0.0132  1.0000  -1.4895   0.0000   0.0000   0.0000   0.3601
  22.100   0.8871   0.30483   0.30297  -0.1203  0.0132  1.0000  -1.4689   0.0000   0.0000   0.0000   0.3609
  22.200   0.8833   0.30510   0.30326  -0.1205  0.0132  1.0000  -1.4499   0.0000   0.0000   0.0000   0.3616
  22.300   0.8799   0.30543   0.30359  -0.1207  0.0131  1.0000  -1.4322   0.0000   0.0000   0.0000   0.3623
  22.400   0.8768   0.30580   0.30398  -0.1209  0.0131  1.0000  -1.4153   0.0000   0.0000   0.0000   0.3629
  22.500   0.8740   0.30622   0.30441  -0.1211  0.0131  1.0000  -1.3994   0.0000   0.0000   0.0000   0.3635
  22.600   0.8715   0.30667   0.30486  -0.1214  0.0131  1.0000  -1.3843   0.0000   0.0000   0.0000   0.3642
  22.700   0.8691   0.30714   0.30534  -0.1217  0.0131  1.0000  -1.3700   0.0000   0.0000   0.0000   0.3648
  22.800   0.8670   0.30763   0.30585  -0.1219  0.0131  1.0000  -1.3563   0.0000   0.0000   0.0000   0.3654
  22.900   0.8650   0.30814   0.30636  -0.1223  0.0131  1.0000  -1.3432   0.0000   0.0000   0.0000   0.3659
  23.000   0.8632   0.30866   0.30690  -0.1226  0.0131  1.0000  -1.3307   0.0000   0.0000   0.0000   0.3665
  23.100   0.8615   0.30920   0.30744  -0.1229  0.0131  1.0000  -1.3189   0.0000   0.0000   0.0000   0.3671
  23.200   0.8599   0.30975   0.30800  -0.1233  0.0130  1.0000  -1.3075   0.0000   0.0000   0.0000   0.3676
  23.300   0.8585   0.31030   0.30856  -0.1236  0.0130  1.0000  -1.2966   0.0000   0.0000   0.0000   0.3682
  23.400   0.8572   0.31086   0.30913  -0.1240  0.0130  1.0000  -1.2864   0.0000   0.0000   0.0000   0.3687
  23.500   0.8560   0.31143   0.30970  -0.1244  0.0130  1.0000  -1.2768   0.0000   0.0000   0.0000   0.3693
  23.600   0.8549   0.31200   0.31029  -0.1248  0.0129  1.0000  -1.2680   0.0000   0.0000   0.0000   0.3698
  23.700   0.8539   0.31258   0.31088  -0.1252  0.0129  1.0000  -1.2600   0.0000   0.0000   0.0000   0.3703
  23.800   0.8531   0.31317   0.31148  -0.1256  0.0128  1.0000  -1.2519   0.0000   0.0000   0.0000   0.3708
  23.900   0.8523   0.31378   0.31209  -0.1261  0.0128  1.0000  -1.2440   0.0000   0.0000   0.0000   0.3714
  24.000   0.8515   0.31439   0.31271  -0.1265  0.0127  1.0000  -1.2364   0.0000   0.0000   0.0000   0.3719
  24.100   0.8507   0.31503   0.31336  -0.1270  0.0126  1.0000  -1.2263   0.0000   0.0000   0.0000   0.3724
  24.200   0.8500   0.31569   0.31402  -0.1274  0.0126  1.0000  -1.2163   0.0000   0.0000   0.0000   0.3730
  24.300   0.8494   0.31637   0.31471  -0.1279  0.0125  1.0000  -1.2066   0.0000   0.0000   0.0000   0.3735
  24.400   0.8490   0.31709   0.31543  -0.1285  0.0124  1.0000  -1.1970   0.0000   0.0000   0.0000   0.3741
  24.500   0.8489   0.31787   0.31622  -0.1290  0.0122  1.0000  -1.1870   0.0000   0.0000   0.0000   0.3746
  24.600   0.8492   0.31874   0.31710  -0.1296  0.0119  1.0000  -1.1757   0.0000   0.0000   0.0000   0.3751
  24.700   0.8496   0.31966   0.31803  -0.1302  0.0113  1.0000  -1.1631   0.0000   0.0000   0.0000   0.3756
  24.800   0.8496   0.32050   0.31888  -0.1307  0.0108  1.0000  -1.1531   0.0000   0.0000   0.0000   0.3761
  24.900   0.8493   0.32125   0.31963  -0.1312  0.0102  1.0000  -1.1470   0.0000   0.0000   0.0000   0.3765
  25.000   0.8489   0.32194   0.32033  -0.1316  0.0097  1.0000  -1.1444   0.0000   0.0000   0.0000   0.3769
  25.100   0.8484   0.32259   0.32098  -0.1320  0.0091  1.0000  -1.1452   0.0000   0.0000   0.0000   0.3773
  25.200   0.8480   0.32321   0.32161  -0.1324  0.0086  1.0000  -1.1493   0.0000   0.0000   0.0000   0.3777
  25.300   0.8476   0.32379   0.32220  -0.1328  0.0081  1.0000  -1.1606   0.0000   0.0000   0.0000   0.3780
  25.400   0.8473   0.32434   0.32275  -0.1332  0.0077  1.0000  -1.1799   0.0000   0.0000   0.0000   0.3784
  25.500   0.8471   0.32484   0.32326  -0.1335  0.0073  1.0000  -1.2026   0.0000   0.0000   0.0000   0.3787
  25.600   0.8469   0.32530   0.32373  -0.1339  0.0069  1.0000  -1.2290   0.0000   0.0000   0.0000   0.3790
  25.700   0.8468   0.32571   0.32414  -0.1343  0.0065  1.0000  -1.2593   0.0000   0.0000   0.0000   0.3792
  25.800   0.8468   0.32607   0.32450  -0.1347  0.0062  1.0000  -1.2933   0.0000   0.0000   0.0000   0.3794
  25.900   0.8468   0.32637   0.32482  -0.1350  0.0060  1.0000  -1.3311   0.0000   0.0000   0.0000   0.3796
  26.000   0.8468   0.32662   0.32507  -0.1353  0.0057  1.0000  -1.3727   0.0000   0.0000   0.0000   0.3797
  26.100   0.8469   0.32680   0.32527  -0.1356  0.0055  1.0000  -1.4181   0.0000   0.0000   0.0000   0.3797
  26.200   0.8471   0.32693   0.32540  -0.1359  0.0054  1.0000  -1.4673   0.0000   0.0000   0.0000   0.3797
  26.300   0.8471   0.32698   0.32546  -0.1360  0.0052  1.0000  -1.5198   0.0000   0.0000   0.0000   0.3796
  26.400   0.8361   0.32961   0.32805  -0.1359  0.0044  1.0000  -1.2416   0.0000   0.0000   0.0000   0.3821
  26.500   0.8357   0.33048   0.32893  -0.1364  0.0043  1.0000  -1.2310   0.0000   0.0000   0.0000   0.3825
  26.600   0.8352   0.33133   0.32978  -0.1368  0.0043  1.0000  -1.2211   0.0000   0.0000   0.0000   0.3830
  26.700   0.8348   0.33218   0.33063  -0.1372  0.0043  1.0000  -1.2108   0.0000   0.0000   0.0000   0.3834
  26.800   0.8344   0.33301   0.33147  -0.1376  0.0043  1.0000  -1.2005   0.0000   0.0000   0.0000   0.3838
  26.900   0.8340   0.33384   0.33230  -0.1380  0.0042  1.0000  -1.1903   0.0000   0.0000   0.0000   0.3842
  27.000   0.8336   0.33466   0.33312  -0.1384  0.0042  1.0000  -1.1800   0.0000   0.0000   0.0000   0.3846
  27.100   0.8332   0.33547   0.33394  -0.1388  0.0042  1.0000  -1.1697   0.0000   0.0000   0.0000   0.3850
  27.200   0.8328   0.33628   0.33475  -0.1391  0.0042  1.0000  -1.1595   0.0000   0.0000   0.0000   0.3854
  27.300   0.8324   0.33708   0.33556  -0.1395  0.0042  1.0000  -1.1494   0.0000   0.0000   0.0000   0.3857
  27.400   0.8320   0.33788   0.33637  -0.1399  0.0042  1.0000  -1.1395   0.0000   0.0000   0.0000   0.3861
  27.500   0.8316   0.33868   0.33717  -0.1403  0.0042  1.0000  -1.1298   0.0000   0.0000   0.0000   0.3864
  27.600   0.8312   0.33948   0.33797  -0.1406  0.0042  1.0000  -1.1202   0.0000   0.0000   0.0000   0.3868
  27.700   0.8309   0.34028   0.33877  -0.1410  0.0042  1.0000  -1.1110   0.0000   0.0000   0.0000   0.3871
  27.800   0.8305   0.34107   0.33957  -0.1414  0.0042  1.0000  -1.1020   0.0000   0.0000   0.0000   0.3875
  27.900   0.8302   0.34187   0.34037  -0.1417  0.0042  1.0000  -1.0932   0.0000   0.0000   0.0000   0.3878
  28.000   0.8299   0.34266   0.34117  -0.1421  0.0042  1.0000  -1.0846   0.0000   0.0000   0.0000   0.3882
  28.100   0.8296   0.34345   0.34196  -0.1425  0.0042  1.0000  -1.0763   0.0000   0.0000   0.0000   0.3885
  28.200   0.8293   0.34424   0.34276  -0.1429  0.0042  1.0000  -1.0682   0.0000   0.0000   0.0000   0.3888
  28.300   0.8291   0.34504   0.34356  -0.1432  0.0042  1.0000  -1.0603   0.0000   0.0000   0.0000   0.3891
  28.400   0.8288   0.34583   0.34435  -0.1436  0.0042  1.0000  -1.0527   0.0000   0.0000   0.0000   0.3895
  28.500   0.8286   0.34662   0.34515  -0.1440  0.0042  1.0000  -1.0452   0.0000   0.0000   0.0000   0.3898
  28.600   0.8283   0.34742   0.34598  -0.1444  0.0042  1.0000  -1.0380   0.0000   0.0000   0.0000   0.3901
  28.700   0.8281   0.34821   0.34678  -0.1448  0.0042  1.0000  -1.0309   0.0000   0.0000   0.0000   0.3904


