xflr5 v6.61

 Calculated polar for: E193  (10.22%)

 1 1 Reynolds number fixed          Mach number fixed         

 xtrf =   1.000 (top)        1.000 (bottom)
 Mach =   0.000     Re =     0.719 e 6     Ncrit =   9.000

  alpha     CL        CD       CDp       Cm    Top Xtr Bot Xtr   Cpmin    Chinge    XCp    
 ------- -------- --------- --------- -------- ------- ------- -------- --------- ---------
 -10.000  -0.3583   0.10183   0.09981  -0.0325  1.0000  0.0091  -2.2500   0.0000   0.0000   0.0000   0.1500
  -9.900  -0.3572   0.10049   0.09849  -0.0330  1.0000  0.0092  -2.2521   0.0000   0.0000   0.0000   0.1486
  -9.800  -0.3561   0.09920   0.09720  -0.0334  1.0000  0.0093  -2.2509   0.0000   0.0000   0.0000   0.1472
  -9.700  -0.3549   0.09794   0.09595  -0.0338  1.0000  0.0094  -2.2476   0.0000   0.0000   0.0000   0.1458
  -9.600  -0.3537   0.09671   0.09472  -0.0343  1.0000  0.0095  -2.2432   0.0000   0.0000   0.0000   0.1444
  -9.500  -0.3526   0.09549   0.09351  -0.0347  1.0000  0.0096  -2.2382   0.0000   0.0000   0.0000   0.1431
  -9.400  -0.3515   0.09428   0.09231  -0.0350  1.0000  0.0097  -2.2330   0.0000   0.0000   0.0000   0.1417
  -9.300  -0.3505   0.09309   0.09112  -0.0354  1.0000  0.0098  -2.2280   0.0000   0.0000   0.0000   0.1405
  -9.200  -0.3496   0.09190   0.08995  -0.0358  1.0000  0.0099  -2.2235   0.0000   0.0000   0.0000   0.1392
  -9.100  -0.3486   0.09073   0.08879  -0.0362  1.0000  0.0100  -2.2180   0.0000   0.0000   0.0000   0.1381
  -9.000  -0.3475   0.08962   0.08768  -0.0365  1.0000  0.0101  -2.2059   0.0000   0.0000   0.0000   0.1369
  -8.900  -0.3463   0.08849   0.08657  -0.0368  1.0000  0.0102  -2.1948   0.0000   0.0000   0.0000   0.1358
  -8.800  -0.3454   0.08737   0.08545  -0.0371  1.0000  0.0103  -2.1853   0.0000   0.0000   0.0000   0.1348
  -8.700  -0.3446   0.08624   0.08433  -0.0374  1.0000  0.0104  -2.1773   0.0000   0.0000   0.0000   0.1338
  -8.600  -0.3439   0.08510   0.08321  -0.0377  1.0000  0.0105  -2.1709   0.0000   0.0000   0.0000   0.1329
  -8.500  -0.3436   0.08397   0.08209  -0.0379  1.0000  0.0106  -2.1663   0.0000   0.0000   0.0000   0.1321
  -8.400  -0.3434   0.08284   0.08097  -0.0382  1.0000  0.0107  -2.1634   0.0000   0.0000   0.0000   0.1315
  -8.300  -0.3435   0.08172   0.07986  -0.0384  1.0000  0.0108  -2.1617   0.0000   0.0000   0.0000   0.1310
  -8.200  -0.3439   0.08060   0.07876  -0.0386  1.0000  0.0109  -2.1620   0.0000   0.0000   0.0000   0.1308
  -8.100  -0.3448   0.07950   0.07767  -0.0387  1.0000  0.0110  -2.1646   0.0000   0.0000   0.0000   0.1308
  -8.000  -0.3462   0.07840   0.07659  -0.0388  1.0000  0.0111  -2.1698   0.0000   0.0000   0.0000   0.1313
  -7.900  -0.3483   0.07734   0.07555  -0.0387  1.0000  0.0111  -2.1780   0.0000   0.0000   0.0000   0.1323
  -7.800  -0.3473   0.07599   0.07421  -0.0396  0.9991  0.0112  -2.1807   0.0000   0.0000   0.0000   0.1295
  -7.700  -0.3410   0.07415   0.07237  -0.0422  0.9946  0.0114  -2.1748   0.0000   0.0000   0.0000   0.1198
  -7.600  -0.3342   0.07218   0.07041  -0.0452  0.9902  0.0116  -2.1723   0.0000   0.0000   0.0000   0.1083
  -7.500  -0.3260   0.06999   0.06822  -0.0490  0.9863  0.0118  -2.1729   0.0000   0.0000   0.0000   0.0934
  -7.400  -0.3184   0.06772   0.06595  -0.0528  0.9798  0.0120  -2.1797   0.0000   0.0000   0.0000   0.0778
  -7.300  -0.3079   0.06511   0.06333  -0.0577  0.9742  0.0123  -2.1882   0.0000   0.0000   0.0000   0.0562
  -7.200  -0.2978   0.06243   0.06063  -0.0625  0.9670  0.0125  -2.2030   0.0000   0.0000   0.0000   0.0335
  -7.100  -0.2875   0.05963   0.05779  -0.0674  0.9561  0.0127  -2.2233   0.0000   0.0000   0.0000   0.0089
  -7.000  -0.2766   0.05670   0.05481  -0.0723  0.9443  0.0130  -2.2480   0.0000   0.0000   0.0000  -0.0181
  -6.900  -0.2673   0.05391   0.05196  -0.0763  0.9282  0.0133  -2.2767   0.0000   0.0000   0.0000  -0.0423
  -6.800  -0.2611   0.05148   0.04944  -0.0790  0.9111  0.0135  -2.3068   0.0000   0.0000   0.0000  -0.0593
  -6.700  -0.2564   0.04930   0.04714  -0.0807  0.8938  0.0137  -2.3361   0.0000   0.0000   0.0000  -0.0717
  -6.600  -0.2524   0.04725   0.04500  -0.0820  0.8798  0.0140  -2.3637   0.0000   0.0000   0.0000  -0.0818
  -6.500  -0.2484   0.04531   0.04294  -0.0830  0.8659  0.0143  -2.3890   0.0000   0.0000   0.0000  -0.0909
  -6.400  -0.2440   0.04341   0.04094  -0.0838  0.8550  0.0146  -2.4115   0.0000   0.0000   0.0000  -0.1004
  -6.300  -0.2389   0.04159   0.03903  -0.0844  0.8455  0.0150  -2.4288   0.0000   0.0000   0.0000  -0.1106
  -6.200  -0.2335   0.03989   0.03721  -0.0849  0.8358  0.0154  -2.4422   0.0000   0.0000   0.0000  -0.1209
  -6.100  -0.2278   0.03834   0.03554  -0.0852  0.8260  0.0159  -2.4497   0.0000   0.0000   0.0000  -0.1312
  -6.000  -0.2211   0.03690   0.03399  -0.0854  0.8185  0.0166  -2.4502   0.0000   0.0000   0.0000  -0.1438
  -5.900  -0.2133   0.03569   0.03270  -0.0855  0.8128  0.0173  -2.4367   0.0000   0.0000   0.0000  -0.1587
  -5.800  -0.2040   0.03499   0.03193  -0.0855  0.8065  0.0182  -2.3968   0.0000   0.0000   0.0000  -0.1769
  -5.700  -0.1898   0.03597   0.03289  -0.0850  0.7997  0.0195  -2.2650   0.0000   0.0000   0.0000  -0.2060
  -5.600  -0.1778   0.03654   0.03338  -0.0847  0.7925  0.0200  -2.1668   0.0000   0.0000   0.0000  -0.2348
  -5.500  -0.1702   0.03571   0.03242  -0.0846  0.7846  0.0201  -2.1437   0.0000   0.0000   0.0000  -0.2559
  -5.400  -0.1628   0.03470   0.03129  -0.0847  0.7782  0.0202  -2.1278   0.0000   0.0000   0.0000  -0.2789
  -5.300  -0.1553   0.03361   0.03009  -0.0847  0.7748  0.0202  -2.1130   0.0000   0.0000   0.0000  -0.3049
  -5.200  -0.1477   0.03252   0.02890  -0.0847  0.7707  0.0203  -2.0978   0.0000   0.0000   0.0000  -0.3334
  -5.100  -0.1582   0.02420   0.02003  -0.0851  0.7674  0.0227  -2.4536   0.0000   0.0000   0.0000  -0.2977
  -5.000  -0.1499   0.02352   0.01931  -0.0851  0.7626  0.0237  -2.3778   0.0000   0.0000   0.0000  -0.3277
  -4.900  -0.1409   0.02311   0.01886  -0.0851  0.7576  0.0246  -2.2927   0.0000   0.0000   0.0000  -0.3639
  -4.800  -0.1316   0.02283   0.01856  -0.0850  0.7524  0.0256  -2.2030   0.0000   0.0000   0.0000  -0.4064
  -4.700  -0.1223   0.02254   0.01821  -0.0849  0.7467  0.0266  -2.1213   0.0000   0.0000   0.0000  -0.4548
  -4.600  -0.1130   0.02221   0.01780  -0.0848  0.7403  0.0279  -2.0484   0.0000   0.0000   0.0000  -0.5119
  -4.500  -0.1033   0.02181   0.01731  -0.0847  0.7345  0.0292  -1.9868   0.0000   0.0000   0.0000  -0.5820
  -4.400  -0.0934   0.02102   0.01631  -0.0845  0.7328  0.0298  -1.9573   0.0000   0.0000   0.0000  -0.6670
  -4.300  -0.0827   0.02092   0.01619  -0.0844  0.7305  0.0323  -1.8781   0.0000   0.0000   0.0000  -0.7845
  -4.200  -0.0704   0.02147   0.01676  -0.0843  0.7277  0.0353  -1.7795   0.0000   0.0000   0.0000  -0.9629
  -4.100  -0.0543   0.02402   0.01941  -0.0841  0.7242  0.0375  -1.6138   0.0000   0.0000   0.0000  -1.3175
  -4.000  -0.0438   0.02381   0.01911  -0.0838  0.7208  0.0377  -1.5666   0.0000   0.0000   0.0000  -1.6874
  -3.900  -0.0445   0.01806   0.01295  -0.0838  0.7183  0.0428  -1.7011   0.0000   0.0000   0.0000  -1.6582
  -3.800  -0.0347   0.01778   0.01267  -0.0838  0.7145  0.0451  -1.6226   0.0000   0.0000   0.0000  -2.1935
  -3.700  -0.0246   0.01762   0.01252  -0.0837  0.7104  0.0476  -1.5454   0.0000   0.0000   0.0000  -3.1937
  -3.600  -0.0144   0.01728   0.01213  -0.0835  0.7060  0.0497  -1.4903   0.0000   0.0000   0.0000  -5.6200
  -3.500  -0.0040   0.01694   0.01172  -0.0833  0.7010  0.0519  -1.4411   0.0000   0.0000   0.0000  -20.5709
  -3.400   0.0065   0.01660   0.01130  -0.0831  0.6956  0.0539  -1.3961   0.0000   0.0000   0.0000  13.1425
  -3.100   0.0398   0.01131   0.00510  -0.0802  0.6870  0.0247  -1.6980   0.0000   0.0000   0.0000   2.2861
  -3.000   0.0522   0.01156   0.00534  -0.0801  0.6856  0.0215  -1.6256   0.0000   0.0000   0.0000   1.8007
  -2.900   0.0620   0.01057   0.00425  -0.0794  0.6843  0.0181  -1.6714   0.0000   0.0000   0.0000   1.5450
  -2.800   0.0722   0.01001   0.00359  -0.0790  0.6827  0.0167  -1.6675   0.0000   0.0000   0.0000   1.3559
  -2.700   0.0827   0.00963   0.00312  -0.0787  0.6809  0.0156  -1.6454   0.0000   0.0000   0.0000   1.2107
  -2.600   0.0935   0.00936   0.00277  -0.0785  0.6788  0.0147  -1.6126   0.0000   0.0000   0.0000   1.0969
  -2.500   0.1044   0.00916   0.00250  -0.0783  0.6766  0.0141  -1.5709   0.0000   0.0000   0.0000   1.0059
  -2.400   0.1154   0.00902   0.00229  -0.0781  0.6742  0.0135  -1.5196   0.0000   0.0000   0.0000   0.9320
  -2.300   0.1265   0.00892   0.00213  -0.0780  0.6718  0.0131  -1.4591   0.0000   0.0000   0.0000   0.8712
  -2.200   0.1375   0.00884   0.00200  -0.0779  0.6692  0.0128  -1.3938   0.0000   0.0000   0.0000   0.8204
  -2.100   0.1485   0.00877   0.00188  -0.0778  0.6665  0.0126  -1.3262   0.0000   0.0000   0.0000   0.7772
  -2.000   0.1595   0.00872   0.00179  -0.0777  0.6638  0.0124  -1.2578   0.0000   0.0000   0.0000   0.7400
  -1.900   0.1705   0.00868   0.00170  -0.0776  0.6608  0.0123  -1.1893   0.0000   0.0000   0.0000   0.7077
  -1.800   0.1815   0.00866   0.00162  -0.0775  0.6576  0.0123  -1.1210   0.0000   0.0000   0.0000   0.6793
  -1.700   0.1925   0.00864   0.00155  -0.0775  0.6540  0.0123  -1.0530   0.0000   0.0000   0.0000   0.6542
  -1.600   0.2035   0.00863   0.00150  -0.0774  0.6501  0.0124  -0.9852   0.0000   0.0000   0.0000   0.6318
  -1.500   0.2146   0.00862   0.00145  -0.0774  0.6460  0.0126  -0.9176   0.0000   0.0000   0.0000   0.6117
  -1.400   0.2258   0.00863   0.00142  -0.0773  0.6420  0.0130  -0.8501   0.0000   0.0000   0.0000   0.5935
  -1.300   0.2371   0.00860   0.00138  -0.0773  0.6401  0.0137  -0.7824   0.0000   0.0000   0.0000   0.5770
  -1.200   0.2483   0.00856   0.00134  -0.0773  0.6394  0.0148  -0.7157   0.0000   0.0000   0.0000   0.5620
  -1.100   0.2595   0.00853   0.00133  -0.0773  0.6385  0.0163  -0.6527   0.0000   0.0000   0.0000   0.5483
  -1.000   0.2708   0.00850   0.00134  -0.0773  0.6375  0.0179  -0.5954   0.0000   0.0000   0.0000   0.5358
  -0.900   0.2820   0.00846   0.00134  -0.0773  0.6363  0.0195  -0.5917   0.0000   0.0000   0.0000   0.5243
  -0.800   0.2924   0.00820   0.00130  -0.0773  0.6349  0.0730  -0.5986   0.0000   0.0000   0.0000   0.5142
  -0.700   0.3029   0.00801   0.00129  -0.0773  0.6333  0.1194  -0.6057   0.0000   0.0000   0.0000   0.5049
  -0.600   0.3133   0.00780   0.00128  -0.0772  0.6316  0.1753  -0.6127   0.0000   0.0000   0.0000   0.4962
  -0.500   0.3237   0.00760   0.00129  -0.0772  0.6297  0.2308  -0.6197   0.0000   0.0000   0.0000   0.4882
  -0.300   0.3371   0.00628   0.00145  -0.0761  0.6256  0.6682  -0.6303   0.0000   0.0000   0.0000   0.4752
  -0.200   0.3436   0.00595   0.00150  -0.0751  0.6236  0.7827  -0.6356   0.0000   0.0000   0.0000   0.4677
  -0.100   0.3500   0.00572   0.00155  -0.0738  0.6216  0.8784  -0.6409   0.0000   0.0000   0.0000   0.4598
   0.000   0.3657   0.00567   0.00158  -0.0744  0.6194  0.9401  -0.6508   0.0000   0.0000   0.0000   0.4526
   0.100   0.3847   0.00568   0.00158  -0.0761  0.6170  0.9682  -0.6622   0.0000   0.0000   0.0000   0.4467
   0.200   0.4040   0.00570   0.00157  -0.0779  0.6145  0.9804  -0.6737   0.0000   0.0000   0.0000   0.4415
   0.300   0.4210   0.00573   0.00157  -0.0791  0.6118  0.9880  -0.6842   0.0000   0.0000   0.0000   0.4367
   0.400   0.4401   0.00575   0.00155  -0.0809  0.6088  0.9928  -0.6956   0.0000   0.0000   0.0000   0.4325
   0.500   0.4587   0.00578   0.00154  -0.0826  0.6054  0.9975  -0.7068   0.0000   0.0000   0.0000   0.4286
   0.600   0.4748   0.00582   0.00154  -0.0837  0.6018  1.0000  -0.7167   0.0000   0.0000   0.0000   0.4248
   0.700   0.4849   0.00587   0.00156  -0.0835  0.5981  1.0000  -0.7236   0.0000   0.0000   0.0000   0.4206
   0.800   0.4952   0.00593   0.00159  -0.0834  0.5944  1.0000  -0.7305   0.0000   0.0000   0.0000   0.4167
   0.900   0.5055   0.00597   0.00162  -0.0832  0.5916  1.0000  -0.7374   0.0000   0.0000   0.0000   0.4128
   1.000   0.5159   0.00598   0.00162  -0.0831  0.5911  1.0000  -0.7446   0.0000   0.0000   0.0000   0.4092
   1.100   0.5263   0.00599   0.00163  -0.0829  0.5905  1.0000  -0.7517   0.0000   0.0000   0.0000   0.4056
   1.200   0.5367   0.00600   0.00163  -0.0828  0.5897  1.0000  -0.7589   0.0000   0.0000   0.0000   0.4022
   1.300   0.5471   0.00600   0.00164  -0.0826  0.5888  1.0000  -0.7661   0.0000   0.0000   0.0000   0.3989
   1.400   0.5575   0.00601   0.00164  -0.0825  0.5877  1.0000  -0.7734   0.0000   0.0000   0.0000   0.3957
   1.500   0.5679   0.00602   0.00165  -0.0823  0.5863  1.0000  -0.7815   0.0000   0.0000   0.0000   0.3927
   1.600   0.5783   0.00604   0.00166  -0.0822  0.5848  1.0000  -0.7897   0.0000   0.0000   0.0000   0.3897
   1.700   0.5887   0.00605   0.00167  -0.0820  0.5831  1.0000  -0.7979   0.0000   0.0000   0.0000   0.3869
   1.800   0.5991   0.00607   0.00168  -0.0819  0.5813  1.0000  -0.8060   0.0000   0.0000   0.0000   0.3841
   1.900   0.6095   0.00608   0.00169  -0.0818  0.5793  1.0000  -0.8148   0.0000   0.0000   0.0000   0.3815
   2.000   0.6199   0.00610   0.00171  -0.0816  0.5771  1.0000  -0.8240   0.0000   0.0000   0.0000   0.3789
   2.100   0.6303   0.00613   0.00172  -0.0814  0.5747  1.0000  -0.8332   0.0000   0.0000   0.0000   0.3764
   2.200   0.6406   0.00615   0.00173  -0.0813  0.5720  1.0000  -0.8429   0.0000   0.0000   0.0000   0.3740
   2.300   0.6508   0.00619   0.00175  -0.0811  0.5691  1.0000  -0.8533   0.0000   0.0000   0.0000   0.3716
   2.400   0.6610   0.00622   0.00176  -0.0809  0.5662  1.0000  -0.8651   0.0000   0.0000   0.0000   0.3693
   2.500   0.6711   0.00626   0.00178  -0.0807  0.5628  1.0000  -0.8769   0.0000   0.0000   0.0000   0.3671
   2.600   0.6812   0.00631   0.00180  -0.0805  0.5588  1.0000  -0.8887   0.0000   0.0000   0.0000   0.3649
   2.700   0.6912   0.00637   0.00182  -0.0803  0.5541  1.0000  -0.9015   0.0000   0.0000   0.0000   0.3628
   2.800   0.7014   0.00644   0.00186  -0.0801  0.5492  1.0000  -0.9152   0.0000   0.0000   0.0000   0.3608
   2.900   0.7117   0.00651   0.00192  -0.0800  0.5445  1.0000  -0.9306   0.0000   0.0000   0.0000   0.3589
   3.000   0.7198   0.00646   0.00175  -0.0793  0.5128  1.0000  -0.9459   0.0000   0.0000   0.0000   0.3565
   3.100   0.7282   0.00660   0.00175  -0.0787  0.4880  1.0000  -0.9607   0.0000   0.0000   0.0000   0.3544
   3.200   0.7381   0.00666   0.00176  -0.0785  0.4775  1.0000  -0.9769   0.0000   0.0000   0.0000   0.3526
   3.300   0.7475   0.00676   0.00179  -0.0782  0.4645  1.0000  -0.9952   0.0000   0.0000   0.0000   0.3507
   3.400   0.7565   0.00690   0.00183  -0.0778  0.4490  1.0000  -1.0132   0.0000   0.0000   0.0000   0.3489
   3.500   0.7667   0.00696   0.00186  -0.0777  0.4416  1.0000  -1.0324   0.0000   0.0000   0.0000   0.3472
   3.600   0.7767   0.00703   0.00189  -0.0775  0.4318  1.0000  -1.0516   0.0000   0.0000   0.0000   0.3456
   3.700   0.7859   0.00716   0.00194  -0.0772  0.4169  1.0000  -1.0700   0.0000   0.0000   0.0000   0.3439
   3.800   0.7948   0.00733   0.00200  -0.0768  0.3995  1.0000  -1.0881   0.0000   0.0000   0.0000   0.3423
   3.900   0.8048   0.00741   0.00205  -0.0767  0.3904  1.0000  -1.1108   0.0000   0.0000   0.0000   0.3408
   4.000   0.8138   0.00757   0.00212  -0.0763  0.3724  1.0000  -1.1340   0.0000   0.0000   0.0000   0.3392
   4.100   0.8222   0.00780   0.00222  -0.0759  0.3501  1.0000  -1.1604   0.0000   0.0000   0.0000   0.3377
   4.200   0.8304   0.00804   0.00233  -0.0755  0.3246  1.0000  -1.1866   0.0000   0.0000   0.0000   0.3361
   4.300   0.8383   0.00832   0.00246  -0.0750  0.2971  1.0000  -1.2124   0.0000   0.0000   0.0000   0.3346
   4.400   0.8455   0.00867   0.00264  -0.0744  0.2644  1.0000  -1.2372   0.0000   0.0000   0.0000   0.3331
   4.500   0.8534   0.00895   0.00278  -0.0740  0.2393  1.0000  -1.2631   0.0000   0.0000   0.0000   0.3317
   4.700   0.8687   0.00958   0.00312  -0.0730  0.1866  1.0000  -1.3143   0.0000   0.0000   0.0000   0.3288
   4.800   0.8763   0.00990   0.00330  -0.0725  0.1618  1.0000  -1.3397   0.0000   0.0000   0.0000   0.3274
   4.900   0.8840   0.01020   0.00347  -0.0720  0.1373  1.0000  -1.3656   0.0000   0.0000   0.0000   0.3261
   5.000   0.8915   0.01053   0.00365  -0.0715  0.1133  1.0000  -1.4108   0.0000   0.0000   0.0000   0.3247
   5.100   0.8985   0.01090   0.00387  -0.0709  0.0875  1.0000  -1.4629   0.0000   0.0000   0.0000   0.3234
   5.200   0.9056   0.01126   0.00408  -0.0704  0.0640  1.0000  -1.5360   0.0000   0.0000   0.0000   0.3220
   5.300   0.9082   0.01204   0.00456  -0.0691  0.0131  1.0000  -1.5872   0.0000   0.0000   0.0000   0.3203
   5.400   0.9178   0.01215   0.00464  -0.0689  0.0122  1.0000  -1.6725   0.0000   0.0000   0.0000   0.3192
   5.500   0.9277   0.01225   0.00471  -0.0687  0.0111  1.0000  -1.7575   0.0000   0.0000   0.0000   0.3181
   5.600   0.9374   0.01236   0.00479  -0.0685  0.0097  1.0000  -1.8385   0.0000   0.0000   0.0000   0.3170
   5.700   0.9471   0.01249   0.00491  -0.0683  0.0084  1.0000  -1.9139   0.0000   0.0000   0.0000   0.3159
   5.800   0.9567   0.01261   0.00505  -0.0680  0.0078  1.0000  -1.9896   0.0000   0.0000   0.0000   0.3148
   5.900   0.9663   0.01273   0.00519  -0.0678  0.0075  1.0000  -2.0678   0.0000   0.0000   0.0000   0.3137
   6.000   0.9760   0.01285   0.00533  -0.0675  0.0073  1.0000  -2.1483   0.0000   0.0000   0.0000   0.3127
   6.100   0.9856   0.01297   0.00547  -0.0673  0.0072  1.0000  -2.2304   0.0000   0.0000   0.0000   0.3116
   6.200   0.9951   0.01309   0.00562  -0.0671  0.0072  1.0000  -2.3182   0.0000   0.0000   0.0000   0.3106
   6.300   1.0046   0.01322   0.00578  -0.0668  0.0071  1.0000  -2.4058   0.0000   0.0000   0.0000   0.3096
   6.400   1.0141   0.01335   0.00594  -0.0665  0.0071  1.0000  -2.4932   0.0000   0.0000   0.0000   0.3086
   6.500   1.0234   0.01349   0.00611  -0.0663  0.0072  1.0000  -2.5804   0.0000   0.0000   0.0000   0.3076
   6.600   1.0327   0.01364   0.00628  -0.0660  0.0072  1.0000  -2.6674   0.0000   0.0000   0.0000   0.3066
   6.700   1.0418   0.01379   0.00647  -0.0656  0.0073  1.0000  -2.7540   0.0000   0.0000   0.0000   0.3056
   6.800   1.0508   0.01396   0.00667  -0.0653  0.0074  1.0000  -2.8400   0.0000   0.0000   0.0000   0.3046
   6.900   1.0595   0.01414   0.00689  -0.0649  0.0075  1.0000  -2.9253   0.0000   0.0000   0.0000   0.3037
   7.000   1.0693   0.01422   0.00717  -0.0648  0.0078  1.0000  -3.0699   0.0000   0.0000   0.0000   0.3029
   7.100   1.0782   0.01438   0.00738  -0.0644  0.0079  1.0000  -3.1685   0.0000   0.0000   0.0000   0.3019
   7.200   1.0868   0.01457   0.00762  -0.0640  0.0080  1.0000  -3.2592   0.0000   0.0000   0.0000   0.3010
   7.300   1.0952   0.01477   0.00787  -0.0636  0.0081  1.0000  -3.3459   0.0000   0.0000   0.0000   0.3000
   7.400   1.1034   0.01499   0.00813  -0.0631  0.0082  1.0000  -3.4292   0.0000   0.0000   0.0000   0.2990
   7.500   1.1114   0.01522   0.00842  -0.0626  0.0083  1.0000  -3.5088   0.0000   0.0000   0.0000   0.2980
   7.600   1.1190   0.01548   0.00873  -0.0620  0.0084  1.0000  -3.5840   0.0000   0.0000   0.0000   0.2970
   7.700   1.1263   0.01576   0.00907  -0.0614  0.0086  1.0000  -3.6539   0.0000   0.0000   0.0000   0.2959
   7.800   1.1331   0.01607   0.00945  -0.0607  0.0088  1.0000  -3.7167   0.0000   0.0000   0.0000   0.2948
   7.900   1.1393   0.01643   0.00987  -0.0598  0.0090  1.0000  -3.7725   0.0000   0.0000   0.0000   0.2936
   8.000   1.1448   0.01682   0.01032  -0.0589  0.0092  1.0000  -3.8225   0.0000   0.0000   0.0000   0.2924
   8.100   1.1497   0.01724   0.01082  -0.0578  0.0095  1.0000  -3.8670   0.0000   0.0000   0.0000   0.2912
   8.200   1.1538   0.01771   0.01137  -0.0566  0.0097  1.0000  -3.9060   0.0000   0.0000   0.0000   0.2898
   8.300   1.1571   0.01822   0.01195  -0.0554  0.0100  1.0000  -3.9395   0.0000   0.0000   0.0000   0.2884
   8.400   1.1593   0.01876   0.01256  -0.0539  0.0103  1.0000  -3.9672   0.0000   0.0000   0.0000   0.2870
   8.500   1.1602   0.01932   0.01320  -0.0522  0.0106  1.0000  -3.9880   0.0000   0.0000   0.0000   0.2853
   8.600   1.1605   0.01992   0.01388  -0.0504  0.0109  1.0000  -4.0037   0.0000   0.0000   0.0000   0.2837
   8.700   1.1605   0.02060   0.01463  -0.0487  0.0113  1.0000  -4.0146   0.0000   0.0000   0.0000   0.2820
   8.800   1.1602   0.02138   0.01547  -0.0469  0.0116  1.0000  -4.0189   0.0000   0.0000   0.0000   0.2804
   8.900   1.1598   0.02232   0.01649  -0.0452  0.0121  1.0000  -4.0122   0.0000   0.0000   0.0000   0.2788
   9.000   1.1584   0.02408   0.01836  -0.0433  0.0128  1.0000  -3.9456   0.0000   0.0000   0.0000   0.2771
   9.100   1.1678   0.02402   0.01828  -0.0428  0.0148  1.0000  -4.0049   0.0000   0.0000   0.0000   0.2762
  10.000   1.2676   0.03745   0.03280  -0.0411  0.0299  1.0000  -4.0889   0.0000   0.0000   0.0000   0.2707
  10.100   1.2721   0.03907   0.03445  -0.0407  0.0288  1.0000  -4.1400   0.0000   0.0000   0.0000   0.2702
  10.200   1.2304   0.05035   0.04629  -0.0374  0.0263  1.0000  -3.7621   0.0000   0.0000   0.0000   0.2686
  10.300   1.2297   0.05136   0.04738  -0.0362  0.0263  1.0000  -3.7830   0.0000   0.0000   0.0000   0.2676
  10.400   1.2286   0.05232   0.04841  -0.0350  0.0263  1.0000  -3.8035   0.0000   0.0000   0.0000   0.2665
  10.500   1.2270   0.05321   0.04938  -0.0338  0.0263  1.0000  -3.8238   0.0000   0.0000   0.0000   0.2654
  10.600   1.2244   0.05397   0.05021  -0.0324  0.0262  1.0000  -3.8428   0.0000   0.0000   0.0000   0.2642
  10.700   1.2208   0.05462   0.05091  -0.0308  0.0262  1.0000  -3.8606   0.0000   0.0000   0.0000   0.2628
  10.800   1.2170   0.05516   0.05151  -0.0292  0.0261  1.0000  -3.8802   0.0000   0.0000   0.0000   0.2614
  10.900   1.2136   0.05554   0.05194  -0.0277  0.0261  1.0000  -3.9065   0.0000   0.0000   0.0000   0.2602
  11.000   1.2305   0.05172   0.04804  -0.0270  0.0251  1.0000  -4.1213   0.0000   0.0000   0.0000   0.2590
  11.100   1.2389   0.05064   0.04694  -0.0263  0.0242  1.0000  -4.2403   0.0000   0.0000   0.0000   0.2582
  11.200   1.2408   0.05076   0.04708  -0.0255  0.0235  1.0000  -4.3028   0.0000   0.0000   0.0000   0.2573
  11.300   1.2406   0.05123   0.04759  -0.0245  0.0229  1.0000  -4.3485   0.0000   0.0000   0.0000   0.2564
  11.400   1.2392   0.05189   0.04830  -0.0237  0.0224  1.0000  -4.3851   0.0000   0.0000   0.0000   0.2556
  11.500   1.2370   0.05267   0.04912  -0.0228  0.0219  1.0000  -4.4155   0.0000   0.0000   0.0000   0.2548
  11.600   1.2337   0.05354   0.05004  -0.0220  0.0215  1.0000  -4.4399   0.0000   0.0000   0.0000   0.2540
  11.700   1.2304   0.05448   0.05104  -0.0213  0.0212  1.0000  -4.4632   0.0000   0.0000   0.0000   0.2533
  11.800   1.2265   0.05552   0.05213  -0.0207  0.0208  1.0000  -4.4825   0.0000   0.0000   0.0000   0.2527
  11.900   1.2225   0.05662   0.05329  -0.0201  0.0205  1.0000  -4.5005   0.0000   0.0000   0.0000   0.2521
  12.000   1.2183   0.05779   0.05450  -0.0197  0.0203  1.0000  -4.5171   0.0000   0.0000   0.0000   0.2517
  12.100   1.2134   0.05904   0.05581  -0.0193  0.0200  1.0000  -4.5293   0.0000   0.0000   0.0000   0.2513
  12.200   1.2088   0.06032   0.05715  -0.0190  0.0198  1.0000  -4.5420   0.0000   0.0000   0.0000   0.2509
  12.300   1.2036   0.06169   0.05857  -0.0188  0.0196  1.0000  -4.5509   0.0000   0.0000   0.0000   0.2507
  12.400   1.1979   0.06313   0.06006  -0.0187  0.0194  1.0000  -4.5563   0.0000   0.0000   0.0000   0.2505
  12.500   1.1923   0.06456   0.06155  -0.0187  0.0193  1.0000  -4.5610   0.0000   0.0000   0.0000   0.2503
  12.600   1.1886   0.06563   0.06269  -0.0187  0.0188  1.0000  -4.5894   0.0000   0.0000   0.0000   0.2502
  12.700   1.1821   0.06722   0.06433  -0.0188  0.0187  1.0000  -4.5882   0.0000   0.0000   0.0000   0.2502
  12.800   1.1764   0.06884   0.06600  -0.0190  0.0186  1.0000  -4.5907   0.0000   0.0000   0.0000   0.2503
  12.900   1.1700   0.07059   0.06780  -0.0194  0.0184  1.0000  -4.5880   0.0000   0.0000   0.0000   0.2505
  13.000   1.1629   0.07250   0.06977  -0.0198  0.0184  1.0000  -4.5779   0.0000   0.0000   0.0000   0.2508
  13.100   1.1567   0.07439   0.07171  -0.0203  0.0183  1.0000  -4.5725   0.0000   0.0000   0.0000   0.2512
  13.200   1.1501   0.07638   0.07375  -0.0209  0.0182  1.0000  -4.5635   0.0000   0.0000   0.0000   0.2517
  13.300   1.1418   0.07865   0.07608  -0.0218  0.0182  1.0000  -4.5389   0.0000   0.0000   0.0000   0.2523
  13.400   1.1345   0.08087   0.07836  -0.0226  0.0181  1.0000  -4.5206   0.0000   0.0000   0.0000   0.2530
  13.500   1.1273   0.08313   0.08068  -0.0235  0.0181  1.0000  -4.5014   0.0000   0.0000   0.0000   0.2538
  13.600   1.1172   0.08590   0.08351  -0.0248  0.0182  1.0000  -4.4547   0.0000   0.0000   0.0000   0.2550
  13.700   1.1085   0.08856   0.08623  -0.0261  0.0182  1.0000  -4.4168   0.0000   0.0000   0.0000   0.2562
  13.800   1.0968   0.09201   0.08971  -0.0278  0.0185  1.0000  -4.3385   0.0000   0.0000   0.0000   0.2578
  13.900   1.0865   0.09515   0.09291  -0.0296  0.0186  1.0000  -4.2814   0.0000   0.0000   0.0000   0.2595
  14.000   1.0775   0.09819   0.09601  -0.0313  0.0187  1.0000  -4.2314   0.0000   0.0000   0.0000   0.2612
  14.100   1.0662   0.10180   0.09968  -0.0335  0.0189  1.0000  -4.1560   0.0000   0.0000   0.0000   0.2635
  14.200   1.0548   0.10563   0.10357  -0.0359  0.0191  1.0000  -4.0733   0.0000   0.0000   0.0000   0.2660
  14.300   1.0412   0.11012   0.10813  -0.0389  0.0194  1.0000  -3.9631   0.0000   0.0000   0.0000   0.2692
  14.400   1.0268   0.11510   0.11318  -0.0422  0.0199  1.0000  -3.8356   0.0000   0.0000   0.0000   0.2730
  14.500   1.0081   0.12149   0.11963  -0.0467  0.0207  1.0000  -3.6491   0.0000   0.0000   0.0000   0.2782
  14.600   0.9869   0.12901   0.12722  -0.0520  0.0218  1.0000  -3.4108   0.0000   0.0000   0.0000   0.2847
  14.700   0.9654   0.13807   0.13631  -0.0578  0.0231  1.0000  -3.1203   0.0000   0.0000   0.0000   0.2921
  14.800   0.9568   0.14430   0.14254  -0.0612  0.0230  1.0000  -2.9569   0.0000   0.0000   0.0000   0.2964
  14.900   0.9529   0.14829   0.14652  -0.0633  0.0227  1.0000  -2.8747   0.0000   0.0000   0.0000   0.2989
  15.000   0.9501   0.15176   0.14998  -0.0652  0.0223  1.0000  -2.8114   0.0000   0.0000   0.0000   0.3010
  15.100   0.9478   0.15497   0.15319  -0.0669  0.0220  1.0000  -2.7571   0.0000   0.0000   0.0000   0.3030
  15.200   0.9460   0.15803   0.15624  -0.0685  0.0217  1.0000  -2.7092   0.0000   0.0000   0.0000   0.3048
  15.300   0.9444   0.16095   0.15917  -0.0700  0.0213  1.0000  -2.6662   0.0000   0.0000   0.0000   0.3064
  15.400   0.9432   0.16376   0.16197  -0.0715  0.0209  1.0000  -2.6285   0.0000   0.0000   0.0000   0.3080
  15.500   0.9425   0.16640   0.16461  -0.0729  0.0205  1.0000  -2.5993   0.0000   0.0000   0.0000   0.3094
  15.600   0.9420   0.16894   0.16714  -0.0742  0.0200  1.0000  -2.5747   0.0000   0.0000   0.0000   0.3108
  15.700   0.9418   0.17139   0.16958  -0.0754  0.0196  1.0000  -2.5547   0.0000   0.0000   0.0000   0.3120
  15.800   0.9418   0.17374   0.17193  -0.0766  0.0192  1.0000  -2.5394   0.0000   0.0000   0.0000   0.3132
  15.900   0.9420   0.17599   0.17419  -0.0777  0.0188  1.0000  -2.5287   0.0000   0.0000   0.0000   0.3143
  16.000   0.9425   0.17816   0.17635  -0.0788  0.0184  1.0000  -2.5227   0.0000   0.0000   0.0000   0.3153
  16.100   0.9432   0.18024   0.17843  -0.0798  0.0181  1.0000  -2.5214   0.0000   0.0000   0.0000   0.3162
  16.200   0.9440   0.18223   0.18042  -0.0808  0.0177  1.0000  -2.5248   0.0000   0.0000   0.0000   0.3170
  16.300   0.9451   0.18412   0.18232  -0.0817  0.0174  1.0000  -2.5329   0.0000   0.0000   0.0000   0.3177
  16.400   0.9464   0.18593   0.18413  -0.0826  0.0171  1.0000  -2.5459   0.0000   0.0000   0.0000   0.3184
  16.500   0.9479   0.18765   0.18585  -0.0834  0.0168  1.0000  -2.5638   0.0000   0.0000   0.0000   0.3190
  16.600   0.9496   0.18928   0.18748  -0.0842  0.0165  1.0000  -2.5868   0.0000   0.0000   0.0000   0.3195
  16.700   0.9514   0.19082   0.18902  -0.0849  0.0162  1.0000  -2.6148   0.0000   0.0000   0.0000   0.3199
  16.800   0.9535   0.19226   0.19046  -0.0856  0.0160  1.0000  -2.6481   0.0000   0.0000   0.0000   0.3202
  16.900   0.9557   0.19362   0.19182  -0.0862  0.0157  1.0000  -2.6866   0.0000   0.0000   0.0000   0.3205
  17.000   0.9570   0.19540   0.19360  -0.0871  0.0155  1.0000  -2.7045   0.0000   0.0000   0.0000   0.3211
  17.100   0.9582   0.19719   0.19540  -0.0879  0.0152  1.0000  -2.7228   0.0000   0.0000   0.0000   0.3216
  17.200   0.9593   0.19902   0.19723  -0.0887  0.0150  1.0000  -2.7397   0.0000   0.0000   0.0000   0.3222
  17.300   0.9601   0.20098   0.19919  -0.0896  0.0147  1.0000  -2.7503   0.0000   0.0000   0.0000   0.3229
  17.400   0.9597   0.20339   0.20160  -0.0906  0.0144  1.0000  -2.7396   0.0000   0.0000   0.0000   0.3238
  17.500   0.9364   0.21677   0.21492  -0.0950  0.0133  1.0000  -2.1986   0.0000   0.0000   0.0000   0.3314
  17.600   0.9375   0.21926   0.21741  -0.0960  0.0133  1.0000  -2.1793   0.0000   0.0000   0.0000   0.3321
  17.700   0.9387   0.22173   0.21988  -0.0969  0.0133  1.0000  -2.1608   0.0000   0.0000   0.0000   0.3329
  17.800   0.9399   0.22419   0.22234  -0.0979  0.0132  1.0000  -2.1432   0.0000   0.0000   0.0000   0.3337
  17.900   0.9411   0.22664   0.22480  -0.0988  0.0132  1.0000  -2.1263   0.0000   0.0000   0.0000   0.3344
  18.000   0.9423   0.22909   0.22724  -0.0997  0.0132  1.0000  -2.1101   0.0000   0.0000   0.0000   0.3351
  18.100   0.9435   0.23152   0.22967  -0.1006  0.0132  1.0000  -2.0945   0.0000   0.0000   0.0000   0.3358
  18.200   0.9448   0.23395   0.23210  -0.1015  0.0132  1.0000  -2.0796   0.0000   0.0000   0.0000   0.3365
  18.300   0.9460   0.23637   0.23452  -0.1024  0.0132  1.0000  -2.0653   0.0000   0.0000   0.0000   0.3372
  18.400   0.9473   0.23878   0.23694  -0.1033  0.0132  1.0000  -2.0515   0.0000   0.0000   0.0000   0.3379
  18.500   0.9486   0.24119   0.23935  -0.1042  0.0132  1.0000  -2.0383   0.0000   0.0000   0.0000   0.3385
  18.600   0.9498   0.24359   0.24175  -0.1051  0.0132  1.0000  -2.0256   0.0000   0.0000   0.0000   0.3392
  18.700   0.9511   0.24598   0.24414  -0.1059  0.0132  1.0000  -2.0134   0.0000   0.0000   0.0000   0.3398
  18.800   0.9524   0.24837   0.24653  -0.1068  0.0131  1.0000  -2.0016   0.0000   0.0000   0.0000   0.3404
  18.900   0.9536   0.25075   0.24892  -0.1076  0.0131  1.0000  -1.9904   0.0000   0.0000   0.0000   0.3410
  19.000   0.9549   0.25312   0.25129  -0.1085  0.0131  1.0000  -1.9796   0.0000   0.0000   0.0000   0.3416
  19.100   0.9561   0.25549   0.25366  -0.1093  0.0131  1.0000  -1.9694   0.0000   0.0000   0.0000   0.3422
  19.200   0.9574   0.25784   0.25602  -0.1102  0.0131  1.0000  -1.9596   0.0000   0.0000   0.0000   0.3428
  19.300   0.9586   0.26019   0.25836  -0.1110  0.0131  1.0000  -1.9504   0.0000   0.0000   0.0000   0.3434
  19.400   0.9598   0.26252   0.26070  -0.1118  0.0130  1.0000  -1.9417   0.0000   0.0000   0.0000   0.3439
  19.500   0.9610   0.26484   0.26302  -0.1126  0.0130  1.0000  -1.9336   0.0000   0.0000   0.0000   0.3445
  19.600   0.9623   0.26714   0.26533  -0.1134  0.0130  1.0000  -1.9262   0.0000   0.0000   0.0000   0.3450
  19.700   0.9635   0.26942   0.26761  -0.1142  0.0129  1.0000  -1.9196   0.0000   0.0000   0.0000   0.3456
  19.800   0.9647   0.27167   0.26987  -0.1150  0.0129  1.0000  -1.9141   0.0000   0.0000   0.0000   0.3461
  19.900   0.9659   0.27389   0.27208  -0.1158  0.0129  1.0000  -1.9098   0.0000   0.0000   0.0000   0.3466
  20.000   0.9672   0.27605   0.27425  -0.1165  0.0128  1.0000  -1.9073   0.0000   0.0000   0.0000   0.3471
  20.100   0.9687   0.27815   0.27635  -0.1173  0.0127  1.0000  -1.9073   0.0000   0.0000   0.0000   0.3475
  20.200   0.9703   0.28015   0.27835  -0.1181  0.0126  1.0000  -1.9104   0.0000   0.0000   0.0000   0.3480
  20.300   0.9721   0.28204   0.28025  -0.1188  0.0124  1.0000  -1.9167   0.0000   0.0000   0.0000   0.3483
  20.400   0.9750   0.28362   0.28187  -0.1198  0.0117  1.0000  -1.9233   0.0000   0.0000   0.0000   0.3489
  20.500   0.9760   0.28595   0.28420  -0.1207  0.0114  1.0000  -1.9098   0.0000   0.0000   0.0000   0.3495
  20.600   0.9768   0.28832   0.28658  -0.1215  0.0110  1.0000  -1.8959   0.0000   0.0000   0.0000   0.3501
  20.700   0.9774   0.29071   0.28897  -0.1223  0.0108  1.0000  -1.8826   0.0000   0.0000   0.0000   0.3507
  20.800   0.9778   0.29310   0.29136  -0.1230  0.0105  1.0000  -1.8699   0.0000   0.0000   0.0000   0.3512
  20.900   0.9781   0.29546   0.29373  -0.1238  0.0103  1.0000  -1.8581   0.0000   0.0000   0.0000   0.3518
  21.000   0.9782   0.29781   0.29608  -0.1245  0.0101  1.0000  -1.8470   0.0000   0.0000   0.0000   0.3524
  21.100   0.9782   0.30013   0.29841  -0.1252  0.0098  1.0000  -1.8363   0.0000   0.0000   0.0000   0.3530
  21.200   0.9780   0.30243   0.30071  -0.1258  0.0097  1.0000  -1.8260   0.0000   0.0000   0.0000   0.3535
  21.300   0.9777   0.30469   0.30298  -0.1265  0.0095  1.0000  -1.8159   0.0000   0.0000   0.0000   0.3541
  21.400   0.9772   0.30691   0.30521  -0.1271  0.0093  1.0000  -1.8062   0.0000   0.0000   0.0000   0.3547
  21.500   0.9764   0.30908   0.30739  -0.1277  0.0091  1.0000  -1.7968   0.0000   0.0000   0.0000   0.3552
  21.600   0.9754   0.31119   0.30950  -0.1283  0.0089  1.0000  -1.7876   0.0000   0.0000   0.0000   0.3558
  21.700   0.9740   0.31323   0.31154  -0.1288  0.0087  1.0000  -1.7785   0.0000   0.0000   0.0000   0.3564
  21.800   0.9723   0.31516   0.31349  -0.1293  0.0086  1.0000  -1.7693   0.0000   0.0000   0.0000   0.3571
  21.900   0.9700   0.31696   0.31529  -0.1297  0.0084  1.0000  -1.7595   0.0000   0.0000   0.0000   0.3577
  22.000   0.9669   0.31856   0.31691  -0.1301  0.0082  1.0000  -1.7484   0.0000   0.0000   0.0000   0.3584
  22.100   0.9107   0.30782   0.30626  -0.1253  0.0086  1.0000  -1.5635   0.0000   0.0000   0.0000   0.3624
  22.200   0.9052   0.30777   0.30622  -0.1253  0.0084  1.0000  -1.5448   0.0000   0.0000   0.0000   0.3633
  22.300   0.9007   0.30788   0.30634  -0.1254  0.0083  1.0000  -1.5304   0.0000   0.0000   0.0000   0.3640
  22.400   0.8968   0.30806   0.30653  -0.1255  0.0081  1.0000  -1.5194   0.0000   0.0000   0.0000   0.3647
  22.500   0.8935   0.30831   0.30679  -0.1257  0.0079  1.0000  -1.5116   0.0000   0.0000   0.0000   0.3653
  22.600   0.8905   0.30860   0.30709  -0.1259  0.0077  1.0000  -1.5066   0.0000   0.0000   0.0000   0.3659
  22.700   0.8879   0.30892   0.30742  -0.1261  0.0075  1.0000  -1.5046   0.0000   0.0000   0.0000   0.3665
  22.800   0.8856   0.30925   0.30776  -0.1264  0.0073  1.0000  -1.5054   0.0000   0.0000   0.0000   0.3670
  22.900   0.8835   0.30959   0.30811  -0.1266  0.0071  1.0000  -1.5090   0.0000   0.0000   0.0000   0.3675
  23.000   0.8816   0.30994   0.30847  -0.1269  0.0069  1.0000  -1.5152   0.0000   0.0000   0.0000   0.3680
  23.100   0.8800   0.31029   0.30883  -0.1272  0.0067  1.0000  -1.5240   0.0000   0.0000   0.0000   0.3684
  23.200   0.8784   0.31064   0.30918  -0.1274  0.0065  1.0000  -1.5348   0.0000   0.0000   0.0000   0.3689
  23.300   0.8770   0.31099   0.30954  -0.1277  0.0064  1.0000  -1.5473   0.0000   0.0000   0.0000   0.3693
  23.400   0.8758   0.31134   0.30990  -0.1280  0.0062  1.0000  -1.5606   0.0000   0.0000   0.0000   0.3697
  23.500   0.8745   0.31169   0.31026  -0.1283  0.0061  1.0000  -1.5736   0.0000   0.0000   0.0000   0.3700
  23.600   0.8734   0.31208   0.31065  -0.1286  0.0060  1.0000  -1.5845   0.0000   0.0000   0.0000   0.3704
  23.700   0.8722   0.31247   0.31105  -0.1289  0.0059  1.0000  -1.5940   0.0000   0.0000   0.0000   0.3708
  23.800   0.8711   0.31286   0.31145  -0.1292  0.0058  1.0000  -1.6052   0.0000   0.0000   0.0000   0.3711
  23.900   0.8702   0.31324   0.31184  -0.1295  0.0057  1.0000  -1.6182   0.0000   0.0000   0.0000   0.3715
  24.000   0.8693   0.31360   0.31221  -0.1297  0.0057  1.0000  -1.6329   0.0000   0.0000   0.0000   0.3718
  24.100   0.8685   0.31396   0.31257  -0.1300  0.0056  1.0000  -1.6493   0.0000   0.0000   0.0000   0.3721
  24.200   0.8677   0.31430   0.31292  -0.1303  0.0055  1.0000  -1.6675   0.0000   0.0000   0.0000   0.3723
  24.300   0.8670   0.31462   0.31325  -0.1305  0.0054  1.0000  -1.6873   0.0000   0.0000   0.0000   0.3725
  24.400   0.8660   0.31502   0.31366  -0.1308  0.0053  1.0000  -1.6987   0.0000   0.0000   0.0000   0.3729
  24.500   0.8650   0.31543   0.31408  -0.1311  0.0052  1.0000  -1.7085   0.0000   0.0000   0.0000   0.3732
  24.600   0.8636   0.31587   0.31453  -0.1314  0.0051  1.0000  -1.7110   0.0000   0.0000   0.0000   0.3736
  24.700   0.8608   0.31641   0.31507  -0.1316  0.0049  1.0000  -1.6854   0.0000   0.0000   0.0000   0.3742
  24.800   0.8484   0.31870   0.31734  -0.1314  0.0045  1.0000  -1.3661   0.0000   0.0000   0.0000   0.3767
  24.900   0.8476   0.31937   0.31802  -0.1318  0.0045  1.0000  -1.3552   0.0000   0.0000   0.0000   0.3772
  25.000   0.8469   0.32005   0.31871  -0.1322  0.0045  1.0000  -1.3443   0.0000   0.0000   0.0000   0.3776
  25.100   0.8462   0.32074   0.31940  -0.1326  0.0045  1.0000  -1.3334   0.0000   0.0000   0.0000   0.3781
  25.200   0.8456   0.32143   0.32010  -0.1330  0.0045  1.0000  -1.3233   0.0000   0.0000   0.0000   0.3785
  25.300   0.8449   0.32214   0.32081  -0.1334  0.0045  1.0000  -1.3135   0.0000   0.0000   0.0000   0.3790
  25.400   0.8443   0.32286   0.32153  -0.1338  0.0044  1.0000  -1.3041   0.0000   0.0000   0.0000   0.3794
  25.500   0.8437   0.32359   0.32227  -0.1342  0.0044  1.0000  -1.3062   0.0000   0.0000   0.0000   0.3799
  25.600   0.8432   0.32434   0.32303  -0.1347  0.0044  1.0000  -1.3065   0.0000   0.0000   0.0000   0.3804
  25.700   0.8427   0.32512   0.32381  -0.1352  0.0044  1.0000  -1.3043   0.0000   0.0000   0.0000   0.3809
  25.800   0.8424   0.32593   0.32463  -0.1356  0.0043  1.0000  -1.2993   0.0000   0.0000   0.0000   0.3813
  25.900   0.8424   0.32676   0.32546  -0.1361  0.0043  1.0000  -1.2940   0.0000   0.0000   0.0000   0.3818
  26.000   0.8427   0.32759   0.32629  -0.1367  0.0042  1.0000  -1.2930   0.0000   0.0000   0.0000   0.3822
  26.100   0.8434   0.32836   0.32706  -0.1372  0.0040  1.0000  -1.3037   0.0000   0.0000   0.0000   0.3825
  26.200   0.8444   0.32917   0.32788  -0.1378  0.0037  1.0000  -1.3200   0.0000   0.0000   0.0000   0.3827
  26.300   0.8451   0.33014   0.32885  -0.1383  0.0034  1.0000  -1.3240   0.0000   0.0000   0.0000   0.3831
  26.400   0.8451   0.33109   0.32980  -0.1387  0.0032  1.0000  -1.3151   0.0000   0.0000   0.0000   0.3834
  26.500   0.8446   0.33198   0.33070  -0.1390  0.0031  1.0000  -1.3015   0.0000   0.0000   0.0000   0.3838
  26.600   0.8441   0.33284   0.33156  -0.1394  0.0030  1.0000  -1.2862   0.0000   0.0000   0.0000   0.3842
  26.700   0.8434   0.33368   0.33241  -0.1397  0.0030  1.0000  -1.2700   0.0000   0.0000   0.0000   0.3845
  26.800   0.8428   0.33451   0.33324  -0.1401  0.0030  1.0000  -1.2531   0.0000   0.0000   0.0000   0.3849
  26.900   0.8420   0.33533   0.33406  -0.1404  0.0031  1.0000  -1.2358   0.0000   0.0000   0.0000   0.3853
  27.000   0.8412   0.33613   0.33486  -0.1407  0.0032  1.0000  -1.2181   0.0000   0.0000   0.0000   0.3857
  27.100   0.8403   0.33692   0.33566  -0.1411  0.0033  1.0000  -1.1997   0.0000   0.0000   0.0000   0.3862
  27.200   0.8392   0.33770   0.33643  -0.1414  0.0035  1.0000  -1.1801   0.0000   0.0000   0.0000   0.3866


