xflr5 v6.61

 Calculated polar for: E193  (10.22%)

 1 1 Reynolds number fixed          Mach number fixed         

 xtrf =   1.000 (top)        1.000 (bottom)
 Mach =   0.000     Re =     0.400 e 6     Ncrit =   9.000

  alpha     CL        CD       CDp       Cm    Top Xtr Bot Xtr   Cpmin    Chinge    XCp    
 ------- -------- --------- --------- -------- ------- ------- -------- --------- ---------
 -10.000  -0.3348   0.11223   0.10955  -0.0324  1.0000  0.0202  -1.5380   0.0000   0.0000   0.0000   0.1442
  -9.900  -0.3330   0.11089   0.10822  -0.0330  1.0000  0.0202  -1.5454   0.0000   0.0000   0.0000   0.1421
  -9.100  -0.3372   0.09592   0.09337  -0.0381  1.0000  0.0210  -1.8449   0.0000   0.0000   0.0000   0.1289
  -9.000  -0.3406   0.09361   0.09107  -0.0386  1.0000  0.0214  -1.8929   0.0000   0.0000   0.0000   0.1288
  -8.900  -0.3414   0.09198   0.08945  -0.0389  1.0000  0.0217  -1.9041   0.0000   0.0000   0.0000   0.1283
  -8.800  -0.3414   0.09059   0.08808  -0.0391  1.0000  0.0220  -1.9033   0.0000   0.0000   0.0000   0.1277
  -8.700  -0.3411   0.08933   0.08683  -0.0393  1.0000  0.0223  -1.8974   0.0000   0.0000   0.0000   0.1271
  -8.600  -0.3399   0.08825   0.08576  -0.0393  1.0000  0.0225  -1.8775   0.0000   0.0000   0.0000   0.1269
  -8.500  -0.3384   0.08726   0.08478  -0.0392  1.0000  0.0228  -1.8523   0.0000   0.0000   0.0000   0.1267
  -8.400  -0.3371   0.08628   0.08381  -0.0392  1.0000  0.0230  -1.8298   0.0000   0.0000   0.0000   0.1265
  -8.300  -0.3360   0.08530   0.08285  -0.0391  1.0000  0.0233  -1.8103   0.0000   0.0000   0.0000   0.1264
  -8.200  -0.3353   0.08434   0.08190  -0.0391  1.0000  0.0235  -1.7934   0.0000   0.0000   0.0000   0.1264
  -8.100  -0.3346   0.08339   0.08097  -0.0390  1.0000  0.0238  -1.7771   0.0000   0.0000   0.0000   0.1265
  -8.000  -0.3344   0.08243   0.08003  -0.0389  1.0000  0.0241  -1.7644   0.0000   0.0000   0.0000   0.1268
  -7.900  -0.3346   0.08148   0.07910  -0.0389  1.0000  0.0243  -1.7549   0.0000   0.0000   0.0000   0.1273
  -7.800  -0.3354   0.08053   0.07817  -0.0387  1.0000  0.0246  -1.7488   0.0000   0.0000   0.0000   0.1281
  -7.700  -0.3369   0.07961   0.07727  -0.0385  1.0000  0.0248  -1.7463   0.0000   0.0000   0.0000   0.1294
  -7.600  -0.3394   0.07873   0.07642  -0.0382  1.0000  0.0250  -1.7475   0.0000   0.0000   0.0000   0.1315
  -7.500  -0.3433   0.07793   0.07565  -0.0376  1.0000  0.0251  -1.7531   0.0000   0.0000   0.0000   0.1346
  -7.400  -0.3494   0.07728   0.07503  -0.0366  1.0000  0.0252  -1.7648   0.0000   0.0000   0.0000   0.1395
  -7.300  -0.3406   0.07544   0.07320  -0.0396  0.9966  0.0258  -1.7473   0.0000   0.0000   0.0000   0.1281
  -7.200  -0.3318   0.07348   0.07124  -0.0429  0.9924  0.0264  -1.7355   0.0000   0.0000   0.0000   0.1151
  -7.100  -0.3209   0.07124   0.06900  -0.0470  0.9888  0.0271  -1.7261   0.0000   0.0000   0.0000   0.0979
  -7.000  -0.3105   0.06897   0.06672  -0.0511  0.9851  0.0278  -1.7236   0.0000   0.0000   0.0000   0.0796
  -6.900  -0.3011   0.06669   0.06442  -0.0551  0.9794  0.0285  -1.7275   0.0000   0.0000   0.0000   0.0613
  -6.800  -0.2895   0.06413   0.06185  -0.0598  0.9748  0.0293  -1.7350   0.0000   0.0000   0.0000   0.0376
  -6.700  -0.2767   0.06142   0.05911  -0.0648  0.9708  0.0303  -1.7469   0.0000   0.0000   0.0000   0.0099
  -6.600  -0.2680   0.05905   0.05671  -0.0683  0.9617  0.0312  -1.7646   0.0000   0.0000   0.0000  -0.0108
  -6.500  -0.2555   0.05635   0.05395  -0.0727  0.9547  0.0324  -1.7871   0.0000   0.0000   0.0000  -0.0408
  -6.400  -0.2421   0.05373   0.05126  -0.0769  0.9476  0.0339  -1.8147   0.0000   0.0000   0.0000  -0.0742
  -6.300  -0.2276   0.05229   0.04973  -0.0794  0.9381  0.0357  -1.8154   0.0000   0.0000   0.0000  -0.1058
  -6.200  -0.2085   0.05210   0.04943  -0.0815  0.9297  0.0372  -1.7758   0.0000   0.0000   0.0000  -0.1484
  -6.100  -0.1981   0.05059   0.04782  -0.0833  0.9201  0.0374  -1.7763   0.0000   0.0000   0.0000  -0.1781
  -6.000  -0.1905   0.04914   0.04626  -0.0843  0.9085  0.0375  -1.7794   0.0000   0.0000   0.0000  -0.2006
  -5.900  -0.1830   0.04767   0.04466  -0.0852  0.8977  0.0376  -1.7816   0.0000   0.0000   0.0000  -0.2238
  -5.800  -0.1769   0.04631   0.04319  -0.0857  0.8873  0.0377  -1.7827   0.0000   0.0000   0.0000  -0.2428
  -5.700  -0.1709   0.04500   0.04176  -0.0859  0.8767  0.0377  -1.7824   0.0000   0.0000   0.0000  -0.2612
  -5.600  -0.1648   0.04370   0.04033  -0.0861  0.8667  0.0377  -1.7804   0.0000   0.0000   0.0000  -0.2813
  -5.500  -0.1779   0.03537   0.03164  -0.0882  0.8578  0.0400  -2.0390   0.0000   0.0000   0.0000  -0.2540
  -5.400  -0.1729   0.03365   0.02985  -0.0883  0.8505  0.0410  -2.0204   0.0000   0.0000   0.0000  -0.2690
  -5.300  -0.1661   0.03256   0.02870  -0.0882  0.8428  0.0419  -1.9815   0.0000   0.0000   0.0000  -0.2895
  -5.200  -0.1585   0.03172   0.02780  -0.0881  0.8354  0.0427  -1.9334   0.0000   0.0000   0.0000  -0.3144
  -5.100  -0.1505   0.03100   0.02701  -0.0879  0.8284  0.0435  -1.8820   0.0000   0.0000   0.0000  -0.3431
  -4.900  -0.1338   0.02958   0.02546  -0.0877  0.8166  0.0455  -1.7895   0.0000   0.0000   0.0000  -0.4153
  -4.800  -0.1251   0.02888   0.02469  -0.0876  0.8115  0.0467  -1.7469   0.0000   0.0000   0.0000  -0.4603
  -4.700  -0.1159   0.02862   0.02423  -0.0875  0.8060  0.0497  -1.6846   0.0000   0.0000   0.0000  -0.5155
  -4.600  -0.1068   0.02785   0.02336  -0.0873  0.8006  0.0513  -1.6549   0.0000   0.0000   0.0000  -0.5786
  -4.500  -0.0974   0.02717   0.02256  -0.0871  0.7952  0.0531  -1.6256   0.0000   0.0000   0.0000  -0.6561
  -4.400  -0.0875   0.02664   0.02191  -0.0868  0.7898  0.0550  -1.5939   0.0000   0.0000   0.0000  -0.7549
  -4.300  -0.0769   0.02641   0.02157  -0.0865  0.7840  0.0569  -1.5547   0.0000   0.0000   0.0000  -0.8891
  -4.200  -0.0644   0.02701   0.02211  -0.0861  0.7785  0.0590  -1.4919   0.0000   0.0000   0.0000  -1.1043
  -4.100  -0.0516   0.02791   0.02296  -0.0857  0.7754  0.0601  -1.4236   0.0000   0.0000   0.0000  -1.4322
  -4.000  -0.0515   0.02264   0.01730  -0.0861  0.7727  0.0642  -1.5221   0.0000   0.0000   0.0000  -1.4421
  -3.900  -0.0427   0.02157   0.01618  -0.0860  0.7691  0.0661  -1.4870   0.0000   0.0000   0.0000  -1.7863
  -3.800  -0.0331   0.02084   0.01540  -0.0859  0.7653  0.0676  -1.4475   0.0000   0.0000   0.0000  -2.3714
  -3.700  -0.0232   0.02018   0.01468  -0.0857  0.7614  0.0689  -1.4101   0.0000   0.0000   0.0000  -3.4876
  -3.600  -0.0089   0.01508   0.00864  -0.0830  0.7591  0.0275  -1.8425   0.0000   0.0000   0.0000  -9.1585
  -3.500   0.0025   0.01417   0.00746  -0.0823  0.7554  0.0225  -1.8976   0.0000   0.0000   0.0000  33.0786
  -3.400   0.0139   0.01428   0.00754  -0.0821  0.7513  0.0214  -1.8230   0.0000   0.0000   0.0000   6.2359
  -3.200   0.0346   0.01332   0.00641  -0.0814  0.7429  0.0194  -1.7657   0.0000   0.0000   0.0000   2.6278
  -3.100   0.0446   0.01265   0.00562  -0.0810  0.7380  0.0188  -1.7543   0.0000   0.0000   0.0000   2.0876
  -3.000   0.0548   0.01217   0.00505  -0.0807  0.7341  0.0183  -1.7280   0.0000   0.0000   0.0000   1.7376
  -2.900   0.0651   0.01175   0.00458  -0.0804  0.7321  0.0178  -1.6942   0.0000   0.0000   0.0000   1.4976
  -2.800   0.0755   0.01141   0.00417  -0.0801  0.7298  0.0175  -1.6550   0.0000   0.0000   0.0000   1.3221
  -2.700   0.0859   0.01112   0.00383  -0.0798  0.7271  0.0171  -1.6111   0.0000   0.0000   0.0000   1.1879
  -2.600   0.0965   0.01089   0.00354  -0.0796  0.7243  0.0169  -1.5631   0.0000   0.0000   0.0000   1.0822
  -2.500   0.1072   0.01070   0.00328  -0.0794  0.7212  0.0167  -1.5118   0.0000   0.0000   0.0000   0.9970
  -2.400   0.1180   0.01054   0.00306  -0.0792  0.7180  0.0165  -1.4577   0.0000   0.0000   0.0000   0.9269
  -2.300   0.1289   0.01042   0.00287  -0.0791  0.7148  0.0164  -1.4013   0.0000   0.0000   0.0000   0.8683
  -2.200   0.1398   0.01032   0.00271  -0.0789  0.7118  0.0164  -1.3429   0.0000   0.0000   0.0000   0.8187
  -2.100   0.1507   0.01025   0.00258  -0.0788  0.7087  0.0165  -1.2828   0.0000   0.0000   0.0000   0.7762
  -2.000   0.1617   0.01020   0.00246  -0.0786  0.7056  0.0166  -1.2213   0.0000   0.0000   0.0000   0.7396
  -1.900   0.1726   0.01016   0.00237  -0.0785  0.7023  0.0169  -1.1582   0.0000   0.0000   0.0000   0.7076
  -1.800   0.1836   0.01014   0.00229  -0.0784  0.6988  0.0173  -1.0933   0.0000   0.0000   0.0000   0.6795
  -1.700   0.1946   0.01013   0.00223  -0.0784  0.6948  0.0178  -1.0271   0.0000   0.0000   0.0000   0.6546
  -1.600   0.2058   0.01015   0.00221  -0.0783  0.6905  0.0185  -0.9597   0.0000   0.0000   0.0000   0.6323
  -1.500   0.2170   0.01014   0.00218  -0.0783  0.6878  0.0195  -0.8924   0.0000   0.0000   0.0000   0.6123
  -1.400   0.2280   0.01006   0.00214  -0.0783  0.6865  0.0276  -0.8278   0.0000   0.0000   0.0000   0.5945
  -1.300   0.2381   0.00977   0.00206  -0.0782  0.6851  0.0810  -0.7705   0.0000   0.0000   0.0000   0.5794
  -1.200   0.2486   0.00960   0.00203  -0.0782  0.6835  0.1163  -0.7147   0.0000   0.0000   0.0000   0.5651
  -1.100   0.2591   0.00942   0.00203  -0.0781  0.6817  0.1599  -0.6622   0.0000   0.0000   0.0000   0.5522
  -1.000   0.2694   0.00922   0.00203  -0.0781  0.6797  0.2089  -0.6126   0.0000   0.0000   0.0000   0.5404
  -0.900   0.2796   0.00904   0.00204  -0.0781  0.6776  0.2581  -0.5870   0.0000   0.0000   0.0000   0.5294
  -0.800   0.2900   0.00888   0.00205  -0.0780  0.6755  0.3056  -0.5939   0.0000   0.0000   0.0000   0.5192
  -0.700   0.3002   0.00873   0.00207  -0.0780  0.6733  0.3539  -0.6008   0.0000   0.0000   0.0000   0.5096
  -0.600   0.3102   0.00855   0.00209  -0.0779  0.6711  0.4130  -0.6076   0.0000   0.0000   0.0000   0.5008
  -0.500   0.3197   0.00833   0.00213  -0.0776  0.6688  0.4881  -0.6141   0.0000   0.0000   0.0000   0.4925
  -0.400   0.3552   0.00708   0.00239  -0.0819  0.6665  0.9895  -0.6347   0.0000   0.0000   0.0000   0.4802
  -0.300   0.3771   0.00708   0.00234  -0.0843  0.6638  0.9976  -0.6474   0.0000   0.0000   0.0000   0.4729
  -0.200   0.3912   0.00710   0.00231  -0.0850  0.6610  1.0000  -0.6563   0.0000   0.0000   0.0000   0.4665
  -0.100   0.4011   0.00713   0.00230  -0.0847  0.6581  1.0000  -0.6631   0.0000   0.0000   0.0000   0.4604
   0.000   0.4110   0.00717   0.00229  -0.0845  0.6549  1.0000  -0.6699   0.0000   0.0000   0.0000   0.4546
   0.100   0.4210   0.00722   0.00230  -0.0843  0.6513  1.0000  -0.6767   0.0000   0.0000   0.0000   0.4491
   0.200   0.4311   0.00729   0.00232  -0.0841  0.6474  1.0000  -0.6834   0.0000   0.0000   0.0000   0.4439
   0.300   0.4415   0.00738   0.00236  -0.0840  0.6433  1.0000  -0.6902   0.0000   0.0000   0.0000   0.4390
   0.400   0.4518   0.00745   0.00241  -0.0838  0.6402  1.0000  -0.6970   0.0000   0.0000   0.0000   0.4343
   0.500   0.4620   0.00746   0.00241  -0.0837  0.6393  1.0000  -0.7039   0.0000   0.0000   0.0000   0.4297
   0.600   0.4722   0.00748   0.00241  -0.0835  0.6383  1.0000  -0.7109   0.0000   0.0000   0.0000   0.4253
   0.700   0.4824   0.00749   0.00242  -0.0833  0.6371  1.0000  -0.7178   0.0000   0.0000   0.0000   0.4211
   0.800   0.4926   0.00751   0.00243  -0.0831  0.6357  1.0000  -0.7247   0.0000   0.0000   0.0000   0.4171
   0.900   0.5029   0.00753   0.00244  -0.0830  0.6342  1.0000  -0.7317   0.0000   0.0000   0.0000   0.4132
   1.000   0.5131   0.00755   0.00245  -0.0828  0.6325  1.0000  -0.7386   0.0000   0.0000   0.0000   0.4095
   1.100   0.5234   0.00758   0.00247  -0.0826  0.6307  1.0000  -0.7456   0.0000   0.0000   0.0000   0.4059
   1.200   0.5336   0.00760   0.00248  -0.0824  0.6288  1.0000  -0.7526   0.0000   0.0000   0.0000   0.4025
   1.300   0.5439   0.00763   0.00250  -0.0823  0.6269  1.0000  -0.7601   0.0000   0.0000   0.0000   0.3992
   1.400   0.5542   0.00766   0.00252  -0.0821  0.6249  1.0000  -0.7681   0.0000   0.0000   0.0000   0.3960
   1.500   0.5645   0.00769   0.00254  -0.0820  0.6228  1.0000  -0.7761   0.0000   0.0000   0.0000   0.3929
   1.600   0.5748   0.00772   0.00256  -0.0818  0.6207  1.0000  -0.7841   0.0000   0.0000   0.0000   0.3900
   1.700   0.5850   0.00775   0.00257  -0.0816  0.6185  1.0000  -0.7921   0.0000   0.0000   0.0000   0.3871
   1.800   0.5953   0.00779   0.00259  -0.0814  0.6161  1.0000  -0.8004   0.0000   0.0000   0.0000   0.3843
   1.900   0.6056   0.00782   0.00261  -0.0813  0.6136  1.0000  -0.8095   0.0000   0.0000   0.0000   0.3816
   2.000   0.6158   0.00786   0.00262  -0.0811  0.6110  1.0000  -0.8186   0.0000   0.0000   0.0000   0.3790
   2.100   0.6261   0.00791   0.00264  -0.0809  0.6081  1.0000  -0.8277   0.0000   0.0000   0.0000   0.3765
   2.200   0.6363   0.00797   0.00268  -0.0807  0.6051  1.0000  -0.8377   0.0000   0.0000   0.0000   0.3740
   2.300   0.6466   0.00804   0.00272  -0.0806  0.6016  1.0000  -0.8481   0.0000   0.0000   0.0000   0.3717
   2.400   0.6571   0.00814   0.00280  -0.0805  0.5977  1.0000  -0.8598   0.0000   0.0000   0.0000   0.3695
   2.500   0.6677   0.00828   0.00291  -0.0804  0.5932  1.0000  -0.8717   0.0000   0.0000   0.0000   0.3674
   2.600   0.6782   0.00833   0.00297  -0.0803  0.5912  1.0000  -0.8836   0.0000   0.0000   0.0000   0.3653
   2.700   0.6886   0.00833   0.00298  -0.0802  0.5901  1.0000  -0.8969   0.0000   0.0000   0.0000   0.3632
   2.800   0.6990   0.00834   0.00299  -0.0800  0.5888  1.0000  -0.9108   0.0000   0.0000   0.0000   0.3612
   2.900   0.7095   0.00835   0.00301  -0.0799  0.5873  1.0000  -0.9261   0.0000   0.0000   0.0000   0.3592
   3.000   0.7200   0.00835   0.00308  -0.0798  0.5856  1.0000  -0.9423   0.0000   0.0000   0.0000   0.3573
   3.100   0.7301   0.00831   0.00303  -0.0795  0.5819  1.0000  -0.9587   0.0000   0.0000   0.0000   0.3553
   3.200   0.7395   0.00819   0.00285  -0.0790  0.5711  1.0000  -0.9750   0.0000   0.0000   0.0000   0.3531
   3.300   0.7482   0.00817   0.00270  -0.0784  0.5565  1.0000  -0.9932   0.0000   0.0000   0.0000   0.3510
   3.400   0.7572   0.00825   0.00267  -0.0779  0.5415  1.0000  -1.0115   0.0000   0.0000   0.0000   0.3490
   3.500   0.7672   0.00820   0.00262  -0.0777  0.5331  1.0000  -1.0310   0.0000   0.0000   0.0000   0.3472
   3.600   0.7769   0.00822   0.00259  -0.0774  0.5220  1.0000  -1.0501   0.0000   0.0000   0.0000   0.3455
   3.700   0.7864   0.00829   0.00257  -0.0771  0.5118  1.0000  -1.0690   0.0000   0.0000   0.0000   0.3438
   3.800   0.7961   0.00836   0.00260  -0.0768  0.5047  1.0000  -1.0880   0.0000   0.0000   0.0000   0.3421
   3.900   0.8058   0.00844   0.00263  -0.0765  0.4974  1.0000  -1.1103   0.0000   0.0000   0.0000   0.3406
   4.000   0.8161   0.00849   0.00267  -0.0764  0.4926  1.0000  -1.1354   0.0000   0.0000   0.0000   0.3391
   4.100   0.8266   0.00852   0.00271  -0.0763  0.4883  1.0000  -1.1648   0.0000   0.0000   0.0000   0.3377
   4.200   0.8370   0.00857   0.00275  -0.0762  0.4824  1.0000  -1.1942   0.0000   0.0000   0.0000   0.3363
   4.300   0.8471   0.00862   0.00278  -0.0760  0.4751  1.0000  -1.2235   0.0000   0.0000   0.0000   0.3349
   4.400   0.8569   0.00870   0.00281  -0.0758  0.4664  1.0000  -1.2524   0.0000   0.0000   0.0000   0.3335
   4.500   0.8662   0.00881   0.00285  -0.0755  0.4564  1.0000  -1.2807   0.0000   0.0000   0.0000   0.3321
   4.600   0.8754   0.00892   0.00290  -0.0751  0.4462  1.0000  -1.3090   0.0000   0.0000   0.0000   0.3307
   4.700   0.8857   0.00898   0.00296  -0.0750  0.4394  1.0000  -1.3388   0.0000   0.0000   0.0000   0.3295
   4.800   0.8954   0.00907   0.00301  -0.0748  0.4279  1.0000  -1.3796   0.0000   0.0000   0.0000   0.3282
   4.900   0.9041   0.00923   0.00307  -0.0744  0.4118  1.0000  -1.4329   0.0000   0.0000   0.0000   0.3268
   5.000   0.9127   0.00940   0.00314  -0.0740  0.3964  1.0000  -1.4869   0.0000   0.0000   0.0000   0.3255
   5.100   0.9218   0.00954   0.00323  -0.0737  0.3795  1.0000  -1.5435   0.0000   0.0000   0.0000   0.3243
   5.200   0.9288   0.00984   0.00334  -0.0730  0.3527  1.0000  -1.6159   0.0000   0.0000   0.0000   0.3229
   5.300   0.9358   0.01016   0.00350  -0.0724  0.3210  1.0000  -1.6919   0.0000   0.0000   0.0000   0.3216
   5.400   0.9417   0.01058   0.00371  -0.0717  0.2836  1.0000  -1.7634   0.0000   0.0000   0.0000   0.3202
   5.500   0.9472   0.01106   0.00395  -0.0709  0.2453  1.0000  -1.8332   0.0000   0.0000   0.0000   0.3188
   5.600   0.9524   0.01156   0.00424  -0.0701  0.2075  1.0000  -1.9016   0.0000   0.0000   0.0000   0.3175
   5.700   0.9574   0.01210   0.00454  -0.0693  0.1692  1.0000  -1.9680   0.0000   0.0000   0.0000   0.3161
   5.800   0.9619   0.01268   0.00487  -0.0684  0.1308  1.0000  -2.0314   0.0000   0.0000   0.0000   0.3148
   5.900   0.9664   0.01325   0.00521  -0.0675  0.0953  1.0000  -2.0932   0.0000   0.0000   0.0000   0.3134
   6.000   0.9712   0.01378   0.00555  -0.0667  0.0649  1.0000  -2.1542   0.0000   0.0000   0.0000   0.3121
   6.100   0.9728   0.01460   0.00608  -0.0653  0.0209  1.0000  -2.1993   0.0000   0.0000   0.0000   0.3105
   6.200   0.9805   0.01487   0.00631  -0.0648  0.0128  1.0000  -2.2706   0.0000   0.0000   0.0000   0.3093
   6.300   0.9895   0.01504   0.00649  -0.0645  0.0122  1.0000  -2.3486   0.0000   0.0000   0.0000   0.3083
   6.400   0.9985   0.01519   0.00667  -0.0641  0.0116  1.0000  -2.4272   0.0000   0.0000   0.0000   0.3072
   6.500   1.0075   0.01535   0.00685  -0.0638  0.0113  1.0000  -2.5061   0.0000   0.0000   0.0000   0.3062
   6.600   1.0165   0.01551   0.00705  -0.0635  0.0110  1.0000  -2.5853   0.0000   0.0000   0.0000   0.3052
   6.700   1.0254   0.01568   0.00725  -0.0631  0.0108  1.0000  -2.6642   0.0000   0.0000   0.0000   0.3042
   6.800   1.0341   0.01585   0.00747  -0.0627  0.0106  1.0000  -2.7425   0.0000   0.0000   0.0000   0.3032
   6.900   1.0428   0.01603   0.00769  -0.0623  0.0105  1.0000  -2.8199   0.0000   0.0000   0.0000   0.3022
   7.000   1.0512   0.01623   0.00793  -0.0619  0.0104  1.0000  -2.8959   0.0000   0.0000   0.0000   0.3011
   7.100   1.0615   0.01625   0.00824  -0.0618  0.0115  1.0000  -3.0819   0.0000   0.0000   0.0000   0.3004
   7.200   1.0699   0.01643   0.00848  -0.0614  0.0115  1.0000  -3.1739   0.0000   0.0000   0.0000   0.2994
   7.300   1.0781   0.01664   0.00875  -0.0609  0.0114  1.0000  -3.2546   0.0000   0.0000   0.0000   0.2984
   7.400   1.0859   0.01689   0.00905  -0.0604  0.0114  1.0000  -3.3295   0.0000   0.0000   0.0000   0.2974
   7.500   1.0933   0.01715   0.00938  -0.0598  0.0113  1.0000  -3.4006   0.0000   0.0000   0.0000   0.2963
   7.600   1.1004   0.01744   0.00973  -0.0591  0.0113  1.0000  -3.4684   0.0000   0.0000   0.0000   0.2953
   7.700   1.1071   0.01775   0.01010  -0.0584  0.0112  1.0000  -3.5335   0.0000   0.0000   0.0000   0.2942
   7.800   1.1133   0.01808   0.01051  -0.0576  0.0112  1.0000  -3.5956   0.0000   0.0000   0.0000   0.2930
   7.900   1.1189   0.01845   0.01094  -0.0568  0.0112  1.0000  -3.6545   0.0000   0.0000   0.0000   0.2919
   8.000   1.1241   0.01884   0.01140  -0.0558  0.0113  1.0000  -3.7104   0.0000   0.0000   0.0000   0.2907
   8.100   1.1287   0.01925   0.01188  -0.0548  0.0113  1.0000  -3.7633   0.0000   0.0000   0.0000   0.2895
   8.200   1.1326   0.01969   0.01238  -0.0537  0.0114  1.0000  -3.8123   0.0000   0.0000   0.0000   0.2882
   8.300   1.1353   0.02013   0.01288  -0.0524  0.0114  1.0000  -3.8562   0.0000   0.0000   0.0000   0.2868
   8.400   1.1374   0.02060   0.01342  -0.0510  0.0115  1.0000  -3.8966   0.0000   0.0000   0.0000   0.2853
   8.500   1.1392   0.02110   0.01398  -0.0496  0.0115  1.0000  -3.9346   0.0000   0.0000   0.0000   0.2839
   8.600   1.1406   0.02164   0.01458  -0.0482  0.0116  1.0000  -3.9703   0.0000   0.0000   0.0000   0.2824
   8.700   1.1419   0.02221   0.01521  -0.0468  0.0117  1.0000  -4.0041   0.0000   0.0000   0.0000   0.2810
   8.800   1.1430   0.02281   0.01587  -0.0454  0.0118  1.0000  -4.0362   0.0000   0.0000   0.0000   0.2797
   8.900   1.1440   0.02345   0.01657  -0.0441  0.0119  1.0000  -4.0663   0.0000   0.0000   0.0000   0.2783
   9.000   1.1451   0.02413   0.01731  -0.0428  0.0120  1.0000  -4.0949   0.0000   0.0000   0.0000   0.2770
   9.100   1.1462   0.02485   0.01809  -0.0415  0.0121  1.0000  -4.1217   0.0000   0.0000   0.0000   0.2758
   9.200   1.1475   0.02562   0.01892  -0.0404  0.0122  1.0000  -4.1470   0.0000   0.0000   0.0000   0.2746
   9.300   1.1492   0.02644   0.01980  -0.0392  0.0123  1.0000  -4.1704   0.0000   0.0000   0.0000   0.2734
   9.400   1.1513   0.02733   0.02076  -0.0381  0.0125  1.0000  -4.1906   0.0000   0.0000   0.0000   0.2723
   9.500   1.1541   0.02835   0.02185  -0.0371  0.0126  1.0000  -4.2055   0.0000   0.0000   0.0000   0.2712
   9.600   1.1584   0.02971   0.02330  -0.0362  0.0129  1.0000  -4.2042   0.0000   0.0000   0.0000   0.2701
   9.800   1.1743   0.03170   0.02540  -0.0352  0.0138  1.0000  -4.2725   0.0000   0.0000   0.0000   0.2686
   9.900   1.1798   0.03190   0.02562  -0.0346  0.0141  1.0000  -4.3499   0.0000   0.0000   0.0000   0.2678
  10.000   1.1854   0.03214   0.02588  -0.0340  0.0144  1.0000  -4.4253   0.0000   0.0000   0.0000   0.2670
  10.100   1.1912   0.03242   0.02620  -0.0334  0.0148  1.0000  -4.4975   0.0000   0.0000   0.0000   0.2662
  10.200   1.1977   0.03279   0.02662  -0.0329  0.0154  1.0000  -4.5619   0.0000   0.0000   0.0000   0.2654
  13.100   1.0772   0.09079   0.08803  -0.0246  0.0360  1.0000  -3.6087   0.0000   0.0000   0.0000   0.2568
  13.200   1.0672   0.09361   0.09090  -0.0262  0.0360  1.0000  -3.5683   0.0000   0.0000   0.0000   0.2583
  13.300   1.0569   0.09656   0.09391  -0.0279  0.0360  1.0000  -3.5241   0.0000   0.0000   0.0000   0.2600
  13.400   1.0457   0.09980   0.09720  -0.0299  0.0361  1.0000  -3.4711   0.0000   0.0000   0.0000   0.2621
  13.500   1.0351   0.10312   0.10058  -0.0320  0.0362  1.0000  -3.4168   0.0000   0.0000   0.0000   0.2644
  13.600   1.0230   0.10689   0.10440  -0.0346  0.0363  1.0000  -3.3492   0.0000   0.0000   0.0000   0.2671
  13.700   1.0115   0.11083   0.10838  -0.0373  0.0364  1.0000  -3.2780   0.0000   0.0000   0.0000   0.2701
  13.800   0.9990   0.11528   0.11287  -0.0405  0.0365  1.0000  -3.1926   0.0000   0.0000   0.0000   0.2737
  13.900   0.9868   0.12012   0.11775  -0.0439  0.0366  1.0000  -3.0969   0.0000   0.0000   0.0000   0.2776
  14.000   0.9749   0.12545   0.12311  -0.0475  0.0365  1.0000  -2.9873   0.0000   0.0000   0.0000   0.2820
  14.100   0.9633   0.13140   0.12908  -0.0515  0.0362  1.0000  -2.8567   0.0000   0.0000   0.0000   0.2868
  14.200   0.9553   0.13653   0.13420  -0.0547  0.0358  1.0000  -2.7498   0.0000   0.0000   0.0000   0.2906
  14.300   0.9505   0.14018   0.13784  -0.0569  0.0353  1.0000  -2.6860   0.0000   0.0000   0.0000   0.2932
  14.400   0.9469   0.14333   0.14099  -0.0588  0.0348  1.0000  -2.6378   0.0000   0.0000   0.0000   0.2954
  14.500   0.9442   0.14621   0.14386  -0.0604  0.0344  1.0000  -2.5989   0.0000   0.0000   0.0000   0.2973
  14.600   0.9420   0.14889   0.14653  -0.0619  0.0339  1.0000  -2.5671   0.0000   0.0000   0.0000   0.2990
  14.700   0.9404   0.15142   0.14906  -0.0634  0.0335  1.0000  -2.5411   0.0000   0.0000   0.0000   0.3005
  14.800   0.9392   0.15383   0.15146  -0.0647  0.0330  1.0000  -2.5201   0.0000   0.0000   0.0000   0.3019
  14.900   0.9384   0.15612   0.15375  -0.0659  0.0326  1.0000  -2.5036   0.0000   0.0000   0.0000   0.3032
  15.000   0.9380   0.15831   0.15593  -0.0670  0.0323  1.0000  -2.4912   0.0000   0.0000   0.0000   0.3043
  15.100   0.9378   0.16041   0.15804  -0.0681  0.0319  1.0000  -2.4828   0.0000   0.0000   0.0000   0.3054
  15.200   0.9380   0.16244   0.16005  -0.0691  0.0315  1.0000  -2.4782   0.0000   0.0000   0.0000   0.3063
  15.300   0.9384   0.16438   0.16199  -0.0700  0.0312  1.0000  -2.4771   0.0000   0.0000   0.0000   0.3072
  15.400   0.9391   0.16624   0.16386  -0.0709  0.0308  1.0000  -2.4796   0.0000   0.0000   0.0000   0.3079
  15.500   0.9400   0.16803   0.16565  -0.0717  0.0305  1.0000  -2.4856   0.0000   0.0000   0.0000   0.3086
  15.600   0.9412   0.16975   0.16737  -0.0725  0.0302  1.0000  -2.4951   0.0000   0.0000   0.0000   0.3091
  15.700   0.9425   0.17141   0.16902  -0.0732  0.0299  1.0000  -2.5080   0.0000   0.0000   0.0000   0.3096
  15.800   0.9441   0.17299   0.17061  -0.0738  0.0296  1.0000  -2.5245   0.0000   0.0000   0.0000   0.3100
  15.900   0.9457   0.17458   0.17220  -0.0745  0.0293  1.0000  -2.5415   0.0000   0.0000   0.0000   0.3104
  16.000   0.9463   0.17649   0.17411  -0.0753  0.0290  1.0000  -2.5458   0.0000   0.0000   0.0000   0.3111
  16.100   0.9469   0.17843   0.17605  -0.0761  0.0287  1.0000  -2.5498   0.0000   0.0000   0.0000   0.3118
  16.200   0.9471   0.18047   0.17809  -0.0770  0.0283  1.0000  -2.5506   0.0000   0.0000   0.0000   0.3125
  16.300   0.9463   0.18288   0.18050  -0.0779  0.0279  1.0000  -2.5385   0.0000   0.0000   0.0000   0.3134
  16.400   0.9224   0.19468   0.19222  -0.0823  0.0263  1.0000  -2.1693   0.0000   0.0000   0.0000   0.3206
  16.500   0.9232   0.19718   0.19473  -0.0833  0.0263  1.0000  -2.1481   0.0000   0.0000   0.0000   0.3216
  16.600   0.9241   0.19967   0.19721  -0.0844  0.0263  1.0000  -2.1279   0.0000   0.0000   0.0000   0.3226
  16.700   0.9250   0.20213   0.19967  -0.0854  0.0263  1.0000  -2.1086   0.0000   0.0000   0.0000   0.3235
  16.800   0.9259   0.20457   0.20212  -0.0864  0.0263  1.0000  -2.0903   0.0000   0.0000   0.0000   0.3244
  16.900   0.9270   0.20700   0.20454  -0.0874  0.0263  1.0000  -2.0728   0.0000   0.0000   0.0000   0.3252
  17.000   0.9280   0.20940   0.20694  -0.0884  0.0262  1.0000  -2.0561   0.0000   0.0000   0.0000   0.3261
  17.100   0.9292   0.21178   0.20933  -0.0894  0.0262  1.0000  -2.0403   0.0000   0.0000   0.0000   0.3269
  17.200   0.9303   0.21415   0.21169  -0.0904  0.0262  1.0000  -2.0252   0.0000   0.0000   0.0000   0.3277
  17.300   0.9315   0.21649   0.21403  -0.0914  0.0262  1.0000  -2.0109   0.0000   0.0000   0.0000   0.3285
  17.400   0.9328   0.21881   0.21636  -0.0923  0.0261  1.0000  -1.9974   0.0000   0.0000   0.0000   0.3293
  17.500   0.9341   0.22111   0.21865  -0.0933  0.0261  1.0000  -1.9848   0.0000   0.0000   0.0000   0.3301
  17.600   0.9355   0.22337   0.22091  -0.0942  0.0261  1.0000  -1.9731   0.0000   0.0000   0.0000   0.3308
  17.700   0.9369   0.22559   0.22313  -0.0952  0.0260  1.0000  -1.9626   0.0000   0.0000   0.0000   0.3315
  17.800   0.9385   0.22775   0.22530  -0.0961  0.0259  1.0000  -1.9534   0.0000   0.0000   0.0000   0.3322
  17.900   0.9402   0.22984   0.22739  -0.0970  0.0258  1.0000  -1.9461   0.0000   0.0000   0.0000   0.3329
  18.000   0.9421   0.23181   0.22936  -0.0980  0.0257  1.0000  -1.9416   0.0000   0.0000   0.0000   0.3336
  18.100   0.9444   0.23361   0.23116  -0.0989  0.0254  1.0000  -1.9406   0.0000   0.0000   0.0000   0.3342
  18.200   0.9471   0.23530   0.23285  -0.0999  0.0250  1.0000  -1.9412   0.0000   0.0000   0.0000   0.3347
  18.300   0.9492   0.23724   0.23479  -0.1010  0.0244  1.0000  -1.9311   0.0000   0.0000   0.0000   0.3355
  18.400   0.9506   0.23947   0.23703  -0.1021  0.0239  1.0000  -1.9109   0.0000   0.0000   0.0000   0.3365
  18.500   0.9515   0.24183   0.23938  -0.1033  0.0234  1.0000  -1.8889   0.0000   0.0000   0.0000   0.3374
  18.600   0.9525   0.24420   0.24175  -0.1043  0.0229  1.0000  -1.8702   0.0000   0.0000   0.0000   0.3383
  18.700   0.9536   0.24656   0.24411  -0.1053  0.0224  1.0000  -1.8543   0.0000   0.0000   0.0000   0.3391
  18.800   0.9546   0.24891   0.24646  -0.1062  0.0220  1.0000  -1.8409   0.0000   0.0000   0.0000   0.3398
  18.900   0.9557   0.25124   0.24880  -0.1071  0.0216  1.0000  -1.8293   0.0000   0.0000   0.0000   0.3405
  19.000   0.9568   0.25356   0.25112  -0.1080  0.0212  1.0000  -1.8193   0.0000   0.0000   0.0000   0.3411
  19.100   0.9579   0.25586   0.25342  -0.1088  0.0208  1.0000  -1.8106   0.0000   0.0000   0.0000   0.3417
  19.200   0.9589   0.25815   0.25572  -0.1096  0.0205  1.0000  -1.8030   0.0000   0.0000   0.0000   0.3423
  19.300   0.9600   0.26043   0.25800  -0.1104  0.0201  1.0000  -1.7964   0.0000   0.0000   0.0000   0.3429
  19.400   0.9610   0.26270   0.26027  -0.1112  0.0198  1.0000  -1.7906   0.0000   0.0000   0.0000   0.3435
  19.500   0.9621   0.26496   0.26253  -0.1120  0.0195  1.0000  -1.7856   0.0000   0.0000   0.0000   0.3440
  19.600   0.9631   0.26720   0.26478  -0.1128  0.0192  1.0000  -1.7813   0.0000   0.0000   0.0000   0.3445
  19.700   0.9640   0.26944   0.26702  -0.1135  0.0189  1.0000  -1.7777   0.0000   0.0000   0.0000   0.3450
  19.800   0.9650   0.27167   0.26926  -0.1142  0.0187  1.0000  -1.7747   0.0000   0.0000   0.0000   0.3455
  19.900   0.9659   0.27389   0.27148  -0.1150  0.0184  1.0000  -1.7722   0.0000   0.0000   0.0000   0.3460
  20.000   0.9668   0.27609   0.27369  -0.1157  0.0182  1.0000  -1.7704   0.0000   0.0000   0.0000   0.3465
  20.100   0.9676   0.27828   0.27588  -0.1164  0.0179  1.0000  -1.7691   0.0000   0.0000   0.0000   0.3470
  20.200   0.9684   0.28047   0.27807  -0.1171  0.0177  1.0000  -1.7684   0.0000   0.0000   0.0000   0.3474
  20.300   0.9691   0.28263   0.28024  -0.1177  0.0175  1.0000  -1.7682   0.0000   0.0000   0.0000   0.3479
  20.400   0.9698   0.28479   0.28240  -0.1184  0.0173  1.0000  -1.7685   0.0000   0.0000   0.0000   0.3483
  20.500   0.9704   0.28692   0.28454  -0.1190  0.0171  1.0000  -1.7692   0.0000   0.0000   0.0000   0.3487
  20.600   0.9709   0.28905   0.28673  -0.1197  0.0169  1.0000  -1.7657   0.0000   0.0000   0.0000   0.3491
  20.700   0.9715   0.29108   0.28877  -0.1203  0.0167  1.0000  -1.7705   0.0000   0.0000   0.0000   0.3495
  20.800   0.9721   0.29304   0.29074  -0.1208  0.0165  1.0000  -1.7792   0.0000   0.0000   0.0000   0.3499
  20.900   0.9726   0.29498   0.29268  -0.1213  0.0162  1.0000  -1.7889   0.0000   0.0000   0.0000   0.3502
  21.000   0.9730   0.29688   0.29459  -0.1219  0.0160  1.0000  -1.7998   0.0000   0.0000   0.0000   0.3505
  21.100   0.9733   0.29874   0.29646  -0.1223  0.0158  1.0000  -1.8118   0.0000   0.0000   0.0000   0.3507
  21.200   0.9735   0.30057   0.29830  -0.1228  0.0156  1.0000  -1.8249   0.0000   0.0000   0.0000   0.3510
  21.300   0.9737   0.30236   0.30009  -0.1232  0.0154  1.0000  -1.8391   0.0000   0.0000   0.0000   0.3512
  21.400   0.9737   0.30410   0.30184  -0.1236  0.0153  1.0000  -1.8544   0.0000   0.0000   0.0000   0.3514
  21.500   0.9735   0.30579   0.30354  -0.1239  0.0151  1.0000  -1.8707   0.0000   0.0000   0.0000   0.3516
  21.600   0.9732   0.30743   0.30520  -0.1242  0.0149  1.0000  -1.8879   0.0000   0.0000   0.0000   0.3518
  21.700   0.9727   0.30901   0.30679  -0.1244  0.0148  1.0000  -1.9057   0.0000   0.0000   0.0000   0.3519
  21.800   0.9718   0.31054   0.30833  -0.1245  0.0146  1.0000  -1.9239   0.0000   0.0000   0.0000   0.3520
  21.900   0.9703   0.31202   0.30983  -0.1246  0.0144  1.0000  -1.9379   0.0000   0.0000   0.0000   0.3521
  22.000   0.9668   0.31355   0.31137  -0.1247  0.0143  1.0000  -1.9350   0.0000   0.0000   0.0000   0.3526
  26.500   0.8416   0.32989   0.32817  -0.1360  0.0057  1.0000  -1.3123   0.0000   0.0000   0.0000   0.3808
  26.600   0.8416   0.33008   0.32837  -0.1363  0.0055  1.0000  -1.3544   0.0000   0.0000   0.0000   0.3809
  26.700   0.8417   0.33020   0.32851  -0.1365  0.0053  1.0000  -1.4003   0.0000   0.0000   0.0000   0.3808
  26.800   0.8416   0.33028   0.32859  -0.1366  0.0051  1.0000  -1.4473   0.0000   0.0000   0.0000   0.3807
  26.900   0.8318   0.33276   0.33104  -0.1363  0.0044  1.0000  -1.2153   0.0000   0.0000   0.0000   0.3826
  27.000   0.8314   0.33360   0.33188  -0.1367  0.0044  1.0000  -1.2035   0.0000   0.0000   0.0000   0.3831
  27.100   0.8309   0.33443   0.33272  -0.1371  0.0044  1.0000  -1.1923   0.0000   0.0000   0.0000   0.3835
  27.200   0.8305   0.33526   0.33355  -0.1375  0.0044  1.0000  -1.1818   0.0000   0.0000   0.0000   0.3839
  27.300   0.8301   0.33607   0.33437  -0.1379  0.0044  1.0000  -1.1717   0.0000   0.0000   0.0000   0.3843
  27.400   0.8298   0.33689   0.33519  -0.1383  0.0044  1.0000  -1.1620   0.0000   0.0000   0.0000   0.3847
  27.500   0.8294   0.33770   0.33600  -0.1387  0.0044  1.0000  -1.1526   0.0000   0.0000   0.0000   0.3851
  27.600   0.8291   0.33850   0.33681  -0.1391  0.0044  1.0000  -1.1435   0.0000   0.0000   0.0000   0.3854
  27.700   0.8288   0.33931   0.33762  -0.1395  0.0044  1.0000  -1.1345   0.0000   0.0000   0.0000   0.3858
  27.800   0.8285   0.34011   0.33843  -0.1399  0.0043  1.0000  -1.1256   0.0000   0.0000   0.0000   0.3862
  27.900   0.8282   0.34091   0.33924  -0.1403  0.0043  1.0000  -1.1169   0.0000   0.0000   0.0000   0.3865
  28.000   0.8279   0.34172   0.34004  -0.1407  0.0043  1.0000  -1.1084   0.0000   0.0000   0.0000   0.3869
  28.100   0.8276   0.34252   0.34085  -0.1411  0.0043  1.0000  -1.1002   0.0000   0.0000   0.0000   0.3872
  28.200   0.8273   0.34331   0.34165  -0.1415  0.0043  1.0000  -1.0921   0.0000   0.0000   0.0000   0.3876
  28.300   0.8271   0.34411   0.34245  -0.1419  0.0043  1.0000  -1.0843   0.0000   0.0000   0.0000   0.3879
  28.400   0.8268   0.34491   0.34325  -0.1422  0.0043  1.0000  -1.0766   0.0000   0.0000   0.0000   0.3882
  28.500   0.8266   0.34570   0.34405  -0.1426  0.0043  1.0000  -1.0691   0.0000   0.0000   0.0000   0.3886
  28.600   0.8264   0.34652   0.34491  -0.1430  0.0043  1.0000  -1.0618   0.0000   0.0000   0.0000   0.3889
  28.700   0.8262   0.34731   0.34571  -0.1434  0.0043  1.0000  -1.0546   0.0000   0.0000   0.0000   0.3892
  28.800   0.8260   0.34810   0.34650  -0.1438  0.0043  1.0000  -1.0477   0.0000   0.0000   0.0000   0.3896
  28.900   0.8258   0.34889   0.34730  -0.1442  0.0043  1.0000  -1.0409   0.0000   0.0000   0.0000   0.3899
  29.000   0.8256   0.34968   0.34809  -0.1446  0.0043  1.0000  -1.0342   0.0000   0.0000   0.0000   0.3902
  29.100   0.8254   0.35047   0.34889  -0.1450  0.0043  1.0000  -1.0276   0.0000   0.0000   0.0000   0.3905
  29.200   0.8252   0.35126   0.34968  -0.1454  0.0043  1.0000  -1.0212   0.0000   0.0000   0.0000   0.3908
  29.300   0.8250   0.35205   0.35047  -0.1458  0.0043  1.0000  -1.0149   0.0000   0.0000   0.0000   0.3911
  29.400   0.8249   0.35283   0.35126  -0.1462  0.0043  1.0000  -1.0088   0.0000   0.0000   0.0000   0.3914
  29.500   0.8247   0.35362   0.35205  -0.1465  0.0043  1.0000  -1.0027   0.0000   0.0000   0.0000   0.3918
  29.600   0.8245   0.35441   0.35284  -0.1469  0.0043  1.0000  -0.9968   0.0000   0.0000   0.0000   0.3921
  29.700   0.8244   0.35519   0.35364  -0.1473  0.0043  1.0000  -0.9909   0.0000   0.0000   0.0000   0.3924
  29.800   0.8243   0.35598   0.35443  -0.1477  0.0043  1.0000  -0.9852   0.0000   0.0000   0.0000   0.3927
  29.900   0.8241   0.35676   0.35522  -0.1481  0.0043  1.0000  -0.9795   0.0000   0.0000   0.0000   0.3930


