xflr5 v6.61

 Calculated polar for: E193  (10.22%)

 1 1 Reynolds number fixed          Mach number fixed         

 xtrf =   1.000 (top)        1.000 (bottom)
 Mach =   0.000     Re =     1.000 e 6     Ncrit =   9.000

  alpha     CL        CD       CDp       Cm    Top Xtr Bot Xtr   Cpmin    Chinge    XCp    
 ------- -------- --------- --------- -------- ------- ------- -------- --------- ---------
 -10.000  -0.3325   0.10773   0.10599  -0.0302  1.0000  0.0079  -1.6705   0.0000   0.0000   0.0000   0.1500
  -9.900  -0.3308   0.10640   0.10466  -0.0306  1.0000  0.0079  -1.6790   0.0000   0.0000   0.0000   0.1483
  -9.800  -0.3291   0.10507   0.10334  -0.0311  1.0000  0.0079  -1.6877   0.0000   0.0000   0.0000   0.1465
  -9.700  -0.3275   0.10373   0.10201  -0.0315  1.0000  0.0080  -1.6967   0.0000   0.0000   0.0000   0.1448
  -9.600  -0.3260   0.10241   0.10069  -0.0319  1.0000  0.0080  -1.7060   0.0000   0.0000   0.0000   0.1431
  -9.500  -0.3245   0.10108   0.09937  -0.0324  1.0000  0.0080  -1.7155   0.0000   0.0000   0.0000   0.1414
  -9.400  -0.3232   0.09975   0.09805  -0.0328  1.0000  0.0080  -1.7254   0.0000   0.0000   0.0000   0.1397
  -9.300  -0.3219   0.09843   0.09673  -0.0332  1.0000  0.0080  -1.7356   0.0000   0.0000   0.0000   0.1381
  -9.200  -0.3207   0.09712   0.09543  -0.0336  1.0000  0.0080  -1.7461   0.0000   0.0000   0.0000   0.1365
  -9.100  -0.3196   0.09581   0.09413  -0.0340  1.0000  0.0080  -1.7572   0.0000   0.0000   0.0000   0.1350
  -9.000  -0.3186   0.09451   0.09283  -0.0344  1.0000  0.0080  -1.7687   0.0000   0.0000   0.0000   0.1336
  -8.900  -0.3177   0.09322   0.09155  -0.0348  1.0000  0.0080  -1.7807   0.0000   0.0000   0.0000   0.1322
  -8.800  -0.3170   0.09194   0.09027  -0.0351  1.0000  0.0080  -1.7930   0.0000   0.0000   0.0000   0.1309
  -8.700  -0.3163   0.09064   0.08898  -0.0355  1.0000  0.0080  -1.8057   0.0000   0.0000   0.0000   0.1296
  -8.600  -0.3156   0.08933   0.08768  -0.0359  1.0000  0.0080  -1.8187   0.0000   0.0000   0.0000   0.1282
  -8.500  -0.3150   0.08802   0.08638  -0.0362  1.0000  0.0080  -1.8322   0.0000   0.0000   0.0000   0.1270
  -8.400  -0.3146   0.08672   0.08509  -0.0366  1.0000  0.0080  -1.8462   0.0000   0.0000   0.0000   0.1259
  -8.300  -0.3144   0.08543   0.08381  -0.0369  1.0000  0.0080  -1.8607   0.0000   0.0000   0.0000   0.1249
  -8.200  -0.3144   0.08415   0.08254  -0.0372  1.0000  0.0080  -1.8758   0.0000   0.0000   0.0000   0.1241
  -7.400  -0.2675   0.06792   0.06631  -0.0577  0.9603  0.0080  -2.0382   0.0000   0.0000   0.0000   0.0266
  -7.300  -0.2561   0.06499   0.06334  -0.0632  0.9414  0.0080  -2.0728   0.0000   0.0000   0.0000  -0.0046
  -7.200  -0.2481   0.06238   0.06065  -0.0675  0.9159  0.0080  -2.1101   0.0000   0.0000   0.0000  -0.0301
  -7.100  -0.2455   0.06034   0.05851  -0.0698  0.8907  0.0080  -2.1466   0.0000   0.0000   0.0000  -0.0423
  -7.000  -0.2438   0.05834   0.05643  -0.0718  0.8717  0.0080  -2.1853   0.0000   0.0000   0.0000  -0.0521
  -6.900  -0.2419   0.05628   0.05429  -0.0736  0.8561  0.0080  -2.2269   0.0000   0.0000   0.0000  -0.0617
  -6.800  -0.2392   0.05404   0.05199  -0.0755  0.8449  0.0080  -2.2728   0.0000   0.0000   0.0000  -0.0732
  -6.500  -0.2294   0.04713   0.04484  -0.0799  0.8150  0.0080  -2.4275   0.0000   0.0000   0.0000  -0.1063
  -6.400  -0.2254   0.04482   0.04245  -0.0811  0.8081  0.0080  -2.4824   0.0000   0.0000   0.0000  -0.1174
  -6.300  -0.2215   0.04265   0.04018  -0.0819  0.8007  0.0080  -2.5338   0.0000   0.0000   0.0000  -0.1276
  -6.100  -0.2464   0.02763   0.02430  -0.0847  0.7853  0.0091  -3.5374   0.0000   0.0000   0.0000  -0.1017
  -6.000  -0.2420   0.02578   0.02228  -0.0846  0.7784  0.0095  -3.5609   0.0000   0.0000   0.0000  -0.1076
  -5.900  -0.2348   0.02477   0.02118  -0.0846  0.7751  0.0099  -3.5080   0.0000   0.0000   0.0000  -0.1184
  -5.800  -0.2266   0.02407   0.02041  -0.0845  0.7710  0.0102  -3.4293   0.0000   0.0000   0.0000  -0.1313
  -5.700  -0.2180   0.02351   0.01979  -0.0845  0.7663  0.0105  -3.3401   0.0000   0.0000   0.0000  -0.1458
  -5.600  -0.2092   0.02303   0.01924  -0.0844  0.7611  0.0108  -3.2471   0.0000   0.0000   0.0000  -0.1619
  -5.500  -0.2003   0.02259   0.01873  -0.0843  0.7557  0.0111  -3.1542   0.0000   0.0000   0.0000  -0.1794
  -5.400  -0.1913   0.02216   0.01823  -0.0842  0.7498  0.0115  -3.0631   0.0000   0.0000   0.0000  -0.1986
  -5.300  -0.1823   0.02180   0.01779  -0.0840  0.7429  0.0119  -2.9684   0.0000   0.0000   0.0000  -0.2200
  -5.100  -0.1633   0.02101   0.01689  -0.0839  0.7332  0.0129  -2.7868   0.0000   0.0000   0.0000  -0.2730
  -5.000  -0.1536   0.02059   0.01641  -0.0838  0.7310  0.0135  -2.7020   0.0000   0.0000   0.0000  -0.3055
  -4.900  -0.1438   0.02016   0.01592  -0.0837  0.7283  0.0141  -2.6212   0.0000   0.0000   0.0000  -0.3426
  -4.800  -0.1339   0.01974   0.01544  -0.0836  0.7252  0.0149  -2.5435   0.0000   0.0000   0.0000  -0.3854
  -4.700  -0.1238   0.01935   0.01500  -0.0835  0.7218  0.0158  -2.4676   0.0000   0.0000   0.0000  -0.4357
  -4.600  -0.1135   0.01904   0.01462  -0.0834  0.7181  0.0167  -2.3912   0.0000   0.0000   0.0000  -0.4961
  -4.200  -0.0738   0.01697   0.01205  -0.0824  0.6995  0.0182  -2.1931   0.0000   0.0000   0.0000  -0.8834
  -4.100  -0.0618   0.01765   0.01275  -0.0824  0.6928  0.0195  -2.0585   0.0000   0.0000   0.0000  -1.1030
  -4.000  -0.0551   0.01543   0.01019  -0.0820  0.6882  0.0224  -2.1001   0.0000   0.0000   0.0000  -1.2576
  -3.900  -0.0457   0.01483   0.00962  -0.0820  0.6872  0.0248  -2.0099   0.0000   0.0000   0.0000  -1.5699
  -3.800  -0.0352   0.01483   0.00965  -0.0821  0.6857  0.0268  -1.8968   0.0000   0.0000   0.0000  -2.1163
  -3.700  -0.0244   0.01488   0.00973  -0.0822  0.6839  0.0292  -1.7886   0.0000   0.0000   0.0000  -3.1577
  -3.600  -0.0134   0.01502   0.00990  -0.0823  0.6819  0.0323  -1.6879   0.0000   0.0000   0.0000  -5.9749
  -3.500  -0.0011   0.01580   0.01074  -0.0824  0.6796  0.0360  -1.5693   0.0000   0.0000   0.0000  -78.6551
  -3.400   0.0134   0.01785   0.01291  -0.0824  0.6769  0.0377  -1.4172   0.0000   0.0000   0.0000   6.4699
  -3.300   0.0173   0.01372   0.00846  -0.0821  0.6751  0.0440  -1.4945   0.0000   0.0000   0.0000   5.0454
  -3.200   0.0277   0.01364   0.00840  -0.0821  0.6724  0.0472  -1.4108   0.0000   0.0000   0.0000   3.2448
  -2.800   0.0716   0.00979   0.00386  -0.0794  0.6614  0.0235  -1.5517   0.0000   0.0000   0.0000   1.3694
  -2.700   0.0824   0.00941   0.00340  -0.0788  0.6579  0.0181  -1.5661   0.0000   0.0000   0.0000   1.2159
  -2.600   0.0924   0.00887   0.00270  -0.0783  0.6541  0.0156  -1.5843   0.0000   0.0000   0.0000   1.1050
  -2.500   0.1031   0.00860   0.00230  -0.0780  0.6500  0.0140  -1.5711   0.0000   0.0000   0.0000   1.0127
  -2.400   0.1140   0.00845   0.00207  -0.0778  0.6459  0.0129  -1.5293   0.0000   0.0000   0.0000   0.9375
  -2.300   0.1250   0.00836   0.00191  -0.0777  0.6419  0.0123  -1.4677   0.0000   0.0000   0.0000   0.8757
  -2.200   0.1362   0.00828   0.00179  -0.0776  0.6401  0.0118  -1.3998   0.0000   0.0000   0.0000   0.8237
  -2.100   0.1475   0.00820   0.00168  -0.0776  0.6395  0.0114  -1.3300   0.0000   0.0000   0.0000   0.7793
  -2.000   0.1587   0.00812   0.00159  -0.0775  0.6388  0.0111  -1.2599   0.0000   0.0000   0.0000   0.7413
  -1.900   0.1700   0.00806   0.00151  -0.0775  0.6380  0.0108  -1.1902   0.0000   0.0000   0.0000   0.7082
  -1.800   0.1813   0.00800   0.00143  -0.0775  0.6370  0.0107  -1.1212   0.0000   0.0000   0.0000   0.6794
  -1.700   0.1926   0.00795   0.00136  -0.0775  0.6359  0.0105  -1.0527   0.0000   0.0000   0.0000   0.6539
  -1.600   0.2039   0.00791   0.00129  -0.0774  0.6347  0.0105  -0.9848   0.0000   0.0000   0.0000   0.6312
  -1.500   0.2152   0.00787   0.00124  -0.0774  0.6333  0.0105  -0.9174   0.0000   0.0000   0.0000   0.6109
  -1.400   0.2265   0.00784   0.00119  -0.0774  0.6315  0.0107  -0.8505   0.0000   0.0000   0.0000   0.5927
  -1.300   0.2378   0.00782   0.00114  -0.0774  0.6296  0.0109  -0.7840   0.0000   0.0000   0.0000   0.5762
  -1.200   0.2490   0.00779   0.00110  -0.0774  0.6275  0.0114  -0.7175   0.0000   0.0000   0.0000   0.5613
  -1.100   0.2602   0.00777   0.00107  -0.0773  0.6251  0.0122  -0.6518   0.0000   0.0000   0.0000   0.5476
  -1.000   0.2713   0.00775   0.00104  -0.0773  0.6226  0.0136  -0.5903   0.0000   0.0000   0.0000   0.5352
  -0.900   0.2824   0.00774   0.00103  -0.0773  0.6199  0.0155  -0.5933   0.0000   0.0000   0.0000   0.5237
  -0.800   0.2935   0.00774   0.00104  -0.0773  0.6171  0.0172  -0.6006   0.0000   0.0000   0.0000   0.5132
  -0.700   0.3045   0.00773   0.00105  -0.0772  0.6142  0.0190  -0.6080   0.0000   0.0000   0.0000   0.5034
  -0.600   0.3151   0.00761   0.00104  -0.0772  0.6111  0.0468  -0.6150   0.0000   0.0000   0.0000   0.4945
  -0.500   0.3255   0.00744   0.00102  -0.0771  0.6079  0.0967  -0.6220   0.0000   0.0000   0.0000   0.4865
  -0.400   0.3336   0.00678   0.00105  -0.0770  0.6045  0.2987  -0.6277   0.0000   0.0000   0.0000   0.4802
  -0.300   0.3439   0.00664   0.00107  -0.0770  0.6009  0.3523  -0.6346   0.0000   0.0000   0.0000   0.4731
  -0.200   0.3536   0.00641   0.00109  -0.0768  0.5973  0.4366  -0.6413   0.0000   0.0000   0.0000   0.4665
  -0.100   0.3629   0.00616   0.00114  -0.0766  0.5939  0.5372  -0.6477   0.0000   0.0000   0.0000   0.4602
   0.000   0.3718   0.00589   0.00118  -0.0763  0.5917  0.6416  -0.6540   0.0000   0.0000   0.0000   0.4541
   0.100   0.3802   0.00562   0.00121  -0.0757  0.5913  0.7352  -0.6603   0.0000   0.0000   0.0000   0.4480
   0.200   0.3889   0.00545   0.00123  -0.0751  0.5908  0.8027  -0.6666   0.0000   0.0000   0.0000   0.4419
   0.300   0.3972   0.00529   0.00126  -0.0744  0.5903  0.8614  -0.6728   0.0000   0.0000   0.0000   0.4359
   0.400   0.4073   0.00517   0.00131  -0.0739  0.5897  0.9309  -0.6800   0.0000   0.0000   0.0000   0.4299
   0.500   0.4260   0.00516   0.00132  -0.0754  0.5889  0.9689  -0.6913   0.0000   0.0000   0.0000   0.4255
   0.600   0.4446   0.00516   0.00132  -0.0770  0.5879  0.9797  -0.7026   0.0000   0.0000   0.0000   0.4216
   0.800   0.4793   0.00517   0.00131  -0.0798  0.5857  0.9911  -0.7240   0.0000   0.0000   0.0000   0.4147
   0.900   0.4970   0.00518   0.00130  -0.0812  0.5842  0.9951  -0.7349   0.0000   0.0000   0.0000   0.4116
   1.000   0.5138   0.00518   0.00130  -0.0825  0.5825  0.9979  -0.7454   0.0000   0.0000   0.0000   0.4087
   1.100   0.5300   0.00519   0.00129  -0.0837  0.5805  0.9999  -0.7555   0.0000   0.0000   0.0000   0.4058
   1.200   0.5406   0.00521   0.00130  -0.0836  0.5784  1.0000  -0.7629   0.0000   0.0000   0.0000   0.4025
   1.300   0.5509   0.00523   0.00130  -0.0834  0.5761  1.0000  -0.7700   0.0000   0.0000   0.0000   0.3992
   1.400   0.5611   0.00525   0.00131  -0.0832  0.5735  1.0000  -0.7772   0.0000   0.0000   0.0000   0.3960
   1.500   0.5713   0.00528   0.00131  -0.0830  0.5709  1.0000  -0.7847   0.0000   0.0000   0.0000   0.3930
   1.600   0.5815   0.00531   0.00132  -0.0828  0.5681  1.0000  -0.7927   0.0000   0.0000   0.0000   0.3900
   1.700   0.5916   0.00534   0.00133  -0.0826  0.5649  1.0000  -0.8007   0.0000   0.0000   0.0000   0.3871
   1.800   0.6016   0.00538   0.00134  -0.0824  0.5611  1.0000  -0.8087   0.0000   0.0000   0.0000   0.3844
   1.900   0.6117   0.00543   0.00136  -0.0822  0.5567  1.0000  -0.8169   0.0000   0.0000   0.0000   0.3817
   2.000   0.6217   0.00548   0.00138  -0.0820  0.5520  1.0000  -0.8258   0.0000   0.0000   0.0000   0.3791
   2.100   0.6318   0.00553   0.00141  -0.0818  0.5474  1.0000  -0.8348   0.0000   0.0000   0.0000   0.3766
   2.200   0.6421   0.00559   0.00145  -0.0816  0.5429  1.0000  -0.8442   0.0000   0.0000   0.0000   0.3742
   2.300   0.6526   0.00559   0.00146  -0.0815  0.5423  1.0000  -0.8549   0.0000   0.0000   0.0000   0.3719
   2.400   0.6632   0.00560   0.00147  -0.0814  0.5416  1.0000  -0.8670   0.0000   0.0000   0.0000   0.3696
   2.500   0.6738   0.00561   0.00148  -0.0813  0.5407  1.0000  -0.8791   0.0000   0.0000   0.0000   0.3674
   2.600   0.6844   0.00562   0.00149  -0.0812  0.5396  1.0000  -0.8913   0.0000   0.0000   0.0000   0.3653
   2.700   0.6950   0.00563   0.00151  -0.0811  0.5383  1.0000  -0.9048   0.0000   0.0000   0.0000   0.3633
   2.800   0.7055   0.00564   0.00153  -0.0809  0.5367  1.0000  -0.9188   0.0000   0.0000   0.0000   0.3613
   2.900   0.7161   0.00566   0.00154  -0.0808  0.5348  1.0000  -0.9350   0.0000   0.0000   0.0000   0.3594
   3.000   0.7202   0.00601   0.00150  -0.0795  0.4618  1.0000  -0.9465   0.0000   0.0000   0.0000   0.3567
   3.100   0.7290   0.00616   0.00154  -0.0791  0.4390  1.0000  -0.9614   0.0000   0.0000   0.0000   0.3547
   3.200   0.7372   0.00636   0.00160  -0.0786  0.4139  1.0000  -0.9762   0.0000   0.0000   0.0000   0.3528
   3.300   0.7461   0.00652   0.00165  -0.0782  0.3933  1.0000  -0.9940   0.0000   0.0000   0.0000   0.3509
   3.400   0.7543   0.00674   0.00174  -0.0777  0.3678  1.0000  -1.0111   0.0000   0.0000   0.0000   0.3491
   3.500   0.7628   0.00695   0.00182  -0.0773  0.3432  1.0000  -1.0285   0.0000   0.0000   0.0000   0.3473
   3.600   0.7702   0.00726   0.00195  -0.0768  0.3100  1.0000  -1.0449   0.0000   0.0000   0.0000   0.3455
   3.700   0.7786   0.00749   0.00206  -0.0763  0.2857  1.0000  -1.0622   0.0000   0.0000   0.0000   0.3438
   3.900   0.7940   0.00809   0.00235  -0.0753  0.2269  1.0000  -1.0973   0.0000   0.0000   0.0000   0.3404
   4.000   0.8023   0.00834   0.00248  -0.0749  0.2036  1.0000  -1.1184   0.0000   0.0000   0.0000   0.3388
   4.200   0.8183   0.00889   0.00278  -0.0740  0.1544  1.0000  -1.1673   0.0000   0.0000   0.0000   0.3357
   4.300   0.8271   0.00910   0.00289  -0.0736  0.1375  1.0000  -1.1943   0.0000   0.0000   0.0000   0.3342
   4.400   0.8354   0.00935   0.00304  -0.0732  0.1163  1.0000  -1.2205   0.0000   0.0000   0.0000   0.3328
   4.500   0.8435   0.00963   0.00319  -0.0728  0.0971  1.0000  -1.2465   0.0000   0.0000   0.0000   0.3313
   4.600   0.8523   0.00983   0.00332  -0.0725  0.0808  1.0000  -1.2738   0.0000   0.0000   0.0000   0.3299
   4.700   0.8574   0.01039   0.00363  -0.0716  0.0376  1.0000  -1.2970   0.0000   0.0000   0.0000   0.3283
   4.800   0.8643   0.01078   0.00388  -0.0709  0.0130  1.0000  -1.3089   0.0000   0.0000   0.0000   0.3268
   4.900   0.8743   0.01087   0.00395  -0.0707  0.0124  1.0000  -1.3410   0.0000   0.0000   0.0000   0.3255
   5.000   0.8843   0.01096   0.00402  -0.0706  0.0117  1.0000  -1.3790   0.0000   0.0000   0.0000   0.3244
   5.100   0.8945   0.01104   0.00407  -0.0705  0.0110  1.0000  -1.4497   0.0000   0.0000   0.0000   0.3232
   5.200   0.9046   0.01112   0.00413  -0.0703  0.0100  1.0000  -1.5358   0.0000   0.0000   0.0000   0.3221
   5.300   0.9146   0.01121   0.00420  -0.0702  0.0087  1.0000  -1.6200   0.0000   0.0000   0.0000   0.3209
   5.400   0.9245   0.01131   0.00429  -0.0700  0.0074  1.0000  -1.6985   0.0000   0.0000   0.0000   0.3198
   5.500   0.9344   0.01141   0.00440  -0.0698  0.0066  1.0000  -1.7703   0.0000   0.0000   0.0000   0.3187
   5.600   0.9444   0.01151   0.00451  -0.0696  0.0062  1.0000  -1.8488   0.0000   0.0000   0.0000   0.3176
   5.700   0.9543   0.01161   0.00463  -0.0694  0.0060  1.0000  -1.9384   0.0000   0.0000   0.0000   0.3165
   5.800   0.9642   0.01172   0.00475  -0.0692  0.0059  1.0000  -2.0261   0.0000   0.0000   0.0000   0.3154
   5.900   0.9740   0.01182   0.00487  -0.0690  0.0059  1.0000  -2.1128   0.0000   0.0000   0.0000   0.3144
   6.000   0.9838   0.01194   0.00501  -0.0688  0.0059  1.0000  -2.1992   0.0000   0.0000   0.0000   0.3133
   6.100   0.9936   0.01205   0.00515  -0.0686  0.0059  1.0000  -2.2854   0.0000   0.0000   0.0000   0.3123
   6.200   1.0032   0.01217   0.00530  -0.0683  0.0060  1.0000  -2.3715   0.0000   0.0000   0.0000   0.3113
   6.300   1.0128   0.01230   0.00545  -0.0681  0.0060  1.0000  -2.4576   0.0000   0.0000   0.0000   0.3103
   6.400   1.0222   0.01244   0.00561  -0.0678  0.0061  1.0000  -2.5438   0.0000   0.0000   0.0000   0.3093
   6.500   1.0316   0.01258   0.00578  -0.0675  0.0062  1.0000  -2.6301   0.0000   0.0000   0.0000   0.3083
   6.600   1.0409   0.01273   0.00595  -0.0672  0.0063  1.0000  -2.7165   0.0000   0.0000   0.0000   0.3073
   6.700   1.0501   0.01289   0.00613  -0.0669  0.0065  1.0000  -2.8029   0.0000   0.0000   0.0000   0.3063
   6.800   1.0591   0.01306   0.00633  -0.0665  0.0066  1.0000  -2.8891   0.0000   0.0000   0.0000   0.3053
   6.900   1.0686   0.01317   0.00663  -0.0663  0.0067  1.0000  -2.9871   0.0000   0.0000   0.0000   0.3045
   7.000   1.0778   0.01331   0.00681  -0.0661  0.0068  1.0000  -3.0956   0.0000   0.0000   0.0000   0.3035
   7.100   1.0867   0.01349   0.00702  -0.0657  0.0069  1.0000  -3.1898   0.0000   0.0000   0.0000   0.3026
   7.200   1.0953   0.01368   0.00725  -0.0653  0.0071  1.0000  -3.2798   0.0000   0.0000   0.0000   0.3016
   7.300   1.1038   0.01389   0.00750  -0.0649  0.0072  1.0000  -3.3669   0.0000   0.0000   0.0000   0.3007
   7.400   1.1120   0.01411   0.00777  -0.0644  0.0074  1.0000  -3.4512   0.0000   0.0000   0.0000   0.2997
   7.500   1.1199   0.01435   0.00805  -0.0639  0.0076  1.0000  -3.5319   0.0000   0.0000   0.0000   0.2987
   7.600   1.1276   0.01462   0.00837  -0.0633  0.0079  1.0000  -3.6073   0.0000   0.0000   0.0000   0.2976
   7.700   1.1348   0.01492   0.00873  -0.0626  0.0082  1.0000  -3.6735   0.0000   0.0000   0.0000   0.2965
   7.800   1.1413   0.01527   0.00916  -0.0617  0.0086  1.0000  -3.7237   0.0000   0.0000   0.0000   0.2954
   7.900   1.1468   0.01569   0.00967  -0.0607  0.0092  1.0000  -3.7563   0.0000   0.0000   0.0000   0.2941
   8.000   1.1510   0.01620   0.01028  -0.0594  0.0098  1.0000  -3.7765   0.0000   0.0000   0.0000   0.2926
   8.100   1.1538   0.01680   0.01097  -0.0580  0.0104  1.0000  -3.7864   0.0000   0.0000   0.0000   0.2911
   8.200   1.1551   0.01750   0.01179  -0.0562  0.0111  1.0000  -3.7823   0.0000   0.0000   0.0000   0.2894
   8.300   1.1541   0.01839   0.01278  -0.0542  0.0119  1.0000  -3.7595   0.0000   0.0000   0.0000   0.2875
   8.400   1.1465   0.01987   0.01438  -0.0510  0.0128  1.0000  -3.6713   0.0000   0.0000   0.0000   0.2850
   9.600   1.2469   0.03156   0.02699  -0.0447  0.0223  1.0000  -4.0454   0.0000   0.0000   0.0000   0.2747
   9.700   1.2526   0.03183   0.02727  -0.0441  0.0212  1.0000  -4.1311   0.0000   0.0000   0.0000   0.2739
   9.800   1.2578   0.03217   0.02763  -0.0434  0.0203  1.0000  -4.2153   0.0000   0.0000   0.0000   0.2731
   9.900   1.2626   0.03256   0.02804  -0.0427  0.0195  1.0000  -4.2991   0.0000   0.0000   0.0000   0.2723
  10.000   1.2670   0.03297   0.02847  -0.0420  0.0188  1.0000  -4.3830   0.0000   0.0000   0.0000   0.2715
  10.100   1.2709   0.03341   0.02892  -0.0413  0.0182  1.0000  -4.4664   0.0000   0.0000   0.0000   0.2706
  10.200   1.2734   0.03384   0.02938  -0.0403  0.0177  1.0000  -4.5426   0.0000   0.0000   0.0000   0.2697
  10.300   1.2743   0.03428   0.02986  -0.0391  0.0172  1.0000  -4.6093   0.0000   0.0000   0.0000   0.2686
  10.400   1.2753   0.03475   0.03034  -0.0379  0.0168  1.0000  -4.6780   0.0000   0.0000   0.0000   0.2675
  10.500   1.2766   0.03526   0.03088  -0.0368  0.0164  1.0000  -4.7483   0.0000   0.0000   0.0000   0.2664
  10.600   1.2784   0.03589   0.03151  -0.0359  0.0159  1.0000  -4.8202   0.0000   0.0000   0.0000   0.2655
  10.700   1.2812   0.03688   0.03251  -0.0352  0.0153  1.0000  -4.8891   0.0000   0.0000   0.0000   0.2648
  10.800   1.2312   0.04922   0.04548  -0.0313  0.0133  1.0000  -4.3191   0.0000   0.0000   0.0000   0.2628
  10.900   1.2271   0.05011   0.04644  -0.0299  0.0133  1.0000  -4.3320   0.0000   0.0000   0.0000   0.2616
  11.000   1.2226   0.05102   0.04741  -0.0285  0.0133  1.0000  -4.3435   0.0000   0.0000   0.0000   0.2604
  11.100   1.2180   0.05197   0.04842  -0.0272  0.0133  1.0000  -4.3537   0.0000   0.0000   0.0000   0.2593
  11.200   1.2132   0.05296   0.04948  -0.0261  0.0133  1.0000  -4.3631   0.0000   0.0000   0.0000   0.2583
  11.300   1.2082   0.05400   0.05057  -0.0250  0.0133  1.0000  -4.3713   0.0000   0.0000   0.0000   0.2574
  11.400   1.2028   0.05504   0.05168  -0.0241  0.0133  1.0000  -4.3774   0.0000   0.0000   0.0000   0.2565
  11.500   1.1973   0.05615   0.05284  -0.0232  0.0132  1.0000  -4.3827   0.0000   0.0000   0.0000   0.2558
  11.600   1.1918   0.05731   0.05407  -0.0225  0.0132  1.0000  -4.3874   0.0000   0.0000   0.0000   0.2551
  11.700   1.1861   0.05854   0.05535  -0.0219  0.0132  1.0000  -4.3909   0.0000   0.0000   0.0000   0.2545
  11.800   1.1806   0.05981   0.05668  -0.0214  0.0132  1.0000  -4.3943   0.0000   0.0000   0.0000   0.2541
  11.900   1.1745   0.06115   0.05808  -0.0211  0.0132  1.0000  -4.3950   0.0000   0.0000   0.0000   0.2537
  12.000   1.1689   0.06251   0.05951  -0.0208  0.0132  1.0000  -4.3968   0.0000   0.0000   0.0000   0.2534
  12.100   1.1626   0.06396   0.06101  -0.0207  0.0132  1.0000  -4.3952   0.0000   0.0000   0.0000   0.2532
  12.200   1.1562   0.06543   0.06253  -0.0206  0.0132  1.0000  -4.3921   0.0000   0.0000   0.0000   0.2530
  12.300   1.1498   0.06690   0.06406  -0.0205  0.0132  1.0000  -4.3886   0.0000   0.0000   0.0000   0.2529
  12.400   1.1425   0.06852   0.06574  -0.0207  0.0132  1.0000  -4.3797   0.0000   0.0000   0.0000   0.2530
  12.500   1.1360   0.07019   0.06746  -0.0209  0.0132  1.0000  -4.3735   0.0000   0.0000   0.0000   0.2531
  12.600   1.1297   0.07191   0.06924  -0.0212  0.0132  1.0000  -4.3676   0.0000   0.0000   0.0000   0.2533
  12.700   1.1223   0.07383   0.07121  -0.0217  0.0132  1.0000  -4.3535   0.0000   0.0000   0.0000   0.2537
  12.800   1.1157   0.07574   0.07317  -0.0222  0.0132  1.0000  -4.3431   0.0000   0.0000   0.0000   0.2541
  12.900   1.1093   0.07768   0.07517  -0.0228  0.0132  1.0000  -4.3331   0.0000   0.0000   0.0000   0.2546
  13.000   1.1012   0.07992   0.07746  -0.0237  0.0132  1.0000  -4.3096   0.0000   0.0000   0.0000   0.2553
  13.100   1.0941   0.08210   0.07970  -0.0246  0.0132  1.0000  -4.2908   0.0000   0.0000   0.0000   0.2561
  13.200   1.0874   0.08429   0.08194  -0.0255  0.0131  1.0000  -4.2735   0.0000   0.0000   0.0000   0.2569
  13.300   1.0786   0.08684   0.08454  -0.0267  0.0132  1.0000  -4.2391   0.0000   0.0000   0.0000   0.2581
  13.400   1.0707   0.08934   0.08709  -0.0279  0.0132  1.0000  -4.2088   0.0000   0.0000   0.0000   0.2592
  13.500   1.0635   0.09182   0.08962  -0.0291  0.0132  1.0000  -4.1814   0.0000   0.0000   0.0000   0.2604
  13.600   1.0546   0.09463   0.09249  -0.0307  0.0132  1.0000  -4.1394   0.0000   0.0000   0.0000   0.2620
  13.700   1.0465   0.09744   0.09534  -0.0323  0.0132  1.0000  -4.1000   0.0000   0.0000   0.0000   0.2636
  13.800   1.0391   0.10019   0.09814  -0.0339  0.0132  1.0000  -4.0639   0.0000   0.0000   0.0000   0.2652
  13.900   1.0303   0.10330   0.10129  -0.0359  0.0132  1.0000  -4.0143   0.0000   0.0000   0.0000   0.2673
  14.000   1.0224   0.10636   0.10440  -0.0378  0.0132  1.0000  -3.9679   0.0000   0.0000   0.0000   0.2693
  14.100   1.0151   0.10941   0.10749  -0.0397  0.0132  1.0000  -3.9227   0.0000   0.0000   0.0000   0.2714
  14.200   1.0064   0.11286   0.11098  -0.0421  0.0132  1.0000  -3.8636   0.0000   0.0000   0.0000   0.2739
  14.300   0.9991   0.11608   0.11425  -0.0443  0.0132  1.0000  -3.8105   0.0000   0.0000   0.0000   0.2763
  14.400   0.9913   0.11938   0.11759  -0.0467  0.0132  1.0000  -3.7493   0.0000   0.0000   0.0000   0.2790
  14.500   0.9838   0.12274   0.12099  -0.0491  0.0132  1.0000  -3.6852   0.0000   0.0000   0.0000   0.2818
  14.600   0.9766   0.12625   0.12454  -0.0517  0.0132  1.0000  -3.6181   0.0000   0.0000   0.0000   0.2847
  14.700   0.9694   0.13006   0.12838  -0.0543  0.0132  1.0000  -3.5425   0.0000   0.0000   0.0000   0.2878
  14.800   0.9626   0.13402   0.13237  -0.0570  0.0132  1.0000  -3.4625   0.0000   0.0000   0.0000   0.2909
  14.900   0.9562   0.13811   0.13649  -0.0597  0.0132  1.0000  -3.3783   0.0000   0.0000   0.0000   0.2941
  15.000   0.9499   0.14250   0.14090  -0.0625  0.0133  1.0000  -3.2828   0.0000   0.0000   0.0000   0.2975
  15.100   0.9445   0.14686   0.14528  -0.0650  0.0133  1.0000  -3.1862   0.0000   0.0000   0.0000   0.3006
  15.200   0.9396   0.15127   0.14970  -0.0675  0.0133  1.0000  -3.0859   0.0000   0.0000   0.0000   0.3036
  15.300   0.9354   0.15569   0.15413  -0.0698  0.0133  1.0000  -2.9821   0.0000   0.0000   0.0000   0.3064
  15.400   0.9321   0.16000   0.15846  -0.0718  0.0132  1.0000  -2.8788   0.0000   0.0000   0.0000   0.3089
  15.500   0.9299   0.16394   0.16239  -0.0736  0.0132  1.0000  -2.7888   0.0000   0.0000   0.0000   0.3110
  15.600   0.9285   0.16737   0.16582  -0.0751  0.0132  1.0000  -2.7211   0.0000   0.0000   0.0000   0.3127
  15.700   0.9276   0.17053   0.16898  -0.0766  0.0132  1.0000  -2.6656   0.0000   0.0000   0.0000   0.3143
  15.800   0.9271   0.17352   0.17196  -0.0779  0.0132  1.0000  -2.6177   0.0000   0.0000   0.0000   0.3158
  15.900   0.9269   0.17639   0.17484  -0.0792  0.0132  1.0000  -2.5757   0.0000   0.0000   0.0000   0.3171
  16.000   0.9269   0.17917   0.17761  -0.0805  0.0132  1.0000  -2.5382   0.0000   0.0000   0.0000   0.3184
  16.100   0.9271   0.18186   0.18030  -0.0817  0.0132  1.0000  -2.5048   0.0000   0.0000   0.0000   0.3196
  16.200   0.9275   0.18447   0.18291  -0.0829  0.0132  1.0000  -2.4751   0.0000   0.0000   0.0000   0.3207
  16.300   0.9282   0.18702   0.18546  -0.0840  0.0131  1.0000  -2.4489   0.0000   0.0000   0.0000   0.3218
  16.400   0.9290   0.18950   0.18794  -0.0851  0.0131  1.0000  -2.4266   0.0000   0.0000   0.0000   0.3228
  16.500   0.9301   0.19189   0.19033  -0.0862  0.0131  1.0000  -2.4088   0.0000   0.0000   0.0000   0.3237
  16.600   0.9315   0.19416   0.19260  -0.0872  0.0130  1.0000  -2.3971   0.0000   0.0000   0.0000   0.3246
  16.700   0.9334   0.19623   0.19467  -0.0881  0.0129  1.0000  -2.3965   0.0000   0.0000   0.0000   0.3253
  16.800   0.9368   0.19772   0.19616  -0.0889  0.0128  1.0000  -2.4265   0.0000   0.0000   0.0000   0.3256
  16.900   0.9428   0.19826   0.19670  -0.0893  0.0123  1.0000  -2.5086   0.0000   0.0000   0.0000   0.3252
  17.000   0.9468   0.19959   0.19803  -0.0900  0.0118  1.0000  -2.5483   0.0000   0.0000   0.0000   0.3253
  17.100   0.9494   0.20148   0.19992  -0.0908  0.0114  1.0000  -2.5581   0.0000   0.0000   0.0000   0.3258
  17.200   0.9513   0.20363   0.20208  -0.0917  0.0111  1.0000  -2.5539   0.0000   0.0000   0.0000   0.3265
  17.300   0.9527   0.20593   0.20438  -0.0927  0.0107  1.0000  -2.5426   0.0000   0.0000   0.0000   0.3272
  17.400   0.9540   0.20831   0.20675  -0.0937  0.0104  1.0000  -2.5277   0.0000   0.0000   0.0000   0.3280
  17.500   0.9551   0.21072   0.20917  -0.0947  0.0101  1.0000  -2.5115   0.0000   0.0000   0.0000   0.3289
  17.600   0.9561   0.21318   0.21162  -0.0957  0.0099  1.0000  -2.4934   0.0000   0.0000   0.0000   0.3297
  17.700   0.9571   0.21562   0.21407  -0.0968  0.0096  1.0000  -2.4767   0.0000   0.0000   0.0000   0.3306
  17.800   0.9581   0.21804   0.21649  -0.0978  0.0094  1.0000  -2.4619   0.0000   0.0000   0.0000   0.3314
  17.900   0.9592   0.22044   0.21888  -0.0988  0.0091  1.0000  -2.4489   0.0000   0.0000   0.0000   0.3322
  18.000   0.9603   0.22281   0.22125  -0.0997  0.0089  1.0000  -2.4379   0.0000   0.0000   0.0000   0.3330
  18.100   0.9614   0.22515   0.22360  -0.1007  0.0087  1.0000  -2.4288   0.0000   0.0000   0.0000   0.3337
  18.200   0.9625   0.22748   0.22592  -0.1016  0.0085  1.0000  -2.4213   0.0000   0.0000   0.0000   0.3344
  18.300   0.9637   0.22978   0.22823  -0.1026  0.0083  1.0000  -2.4153   0.0000   0.0000   0.0000   0.3352
  18.400   0.9649   0.23207   0.23052  -0.1035  0.0081  1.0000  -2.4112   0.0000   0.0000   0.0000   0.3358
  18.500   0.9661   0.23433   0.23278  -0.1044  0.0079  1.0000  -2.4089   0.0000   0.0000   0.0000   0.3365
  18.600   0.9673   0.23656   0.23501  -0.1053  0.0077  1.0000  -2.4085   0.0000   0.0000   0.0000   0.3371
  18.700   0.9686   0.23878   0.23723  -0.1062  0.0076  1.0000  -2.4098   0.0000   0.0000   0.0000   0.3378
  18.800   0.9699   0.24097   0.23942  -0.1071  0.0074  1.0000  -2.4128   0.0000   0.0000   0.0000   0.3384
  18.900   0.9713   0.24314   0.24160  -0.1079  0.0073  1.0000  -2.4174   0.0000   0.0000   0.0000   0.3389
  19.000   0.9726   0.24529   0.24375  -0.1087  0.0071  1.0000  -2.4238   0.0000   0.0000   0.0000   0.3395
  19.100   0.9740   0.24742   0.24588  -0.1096  0.0070  1.0000  -2.4319   0.0000   0.0000   0.0000   0.3400
  19.200   0.9754   0.24953   0.24799  -0.1104  0.0069  1.0000  -2.4417   0.0000   0.0000   0.0000   0.3405
  19.300   0.9768   0.25162   0.25008  -0.1112  0.0068  1.0000  -2.4532   0.0000   0.0000   0.0000   0.3410
  19.400   0.9782   0.25368   0.25215  -0.1120  0.0066  1.0000  -2.4668   0.0000   0.0000   0.0000   0.3415
  19.500   0.9806   0.25488   0.25338  -0.1126  0.0064  1.0000  -2.5419   0.0000   0.0000   0.0000   0.3416
  19.600   0.9822   0.25676   0.25527  -0.1133  0.0063  1.0000  -2.5688   0.0000   0.0000   0.0000   0.3420
  19.700   0.9837   0.25869   0.25720  -0.1141  0.0062  1.0000  -2.5926   0.0000   0.0000   0.0000   0.3424
  19.800   0.9851   0.26062   0.25913  -0.1148  0.0061  1.0000  -2.6160   0.0000   0.0000   0.0000   0.3428
  19.900   0.9864   0.26270   0.26121  -0.1156  0.0060  1.0000  -2.6313   0.0000   0.0000   0.0000   0.3432
  20.000   0.9875   0.26482   0.26334  -0.1164  0.0059  1.0000  -2.6440   0.0000   0.0000   0.0000   0.3437
  20.100   0.9886   0.26695   0.26547  -0.1172  0.0058  1.0000  -2.6566   0.0000   0.0000   0.0000   0.3442
  20.200   0.9896   0.26908   0.26761  -0.1179  0.0057  1.0000  -2.6689   0.0000   0.0000   0.0000   0.3447
  20.300   0.9906   0.27123   0.26976  -0.1187  0.0056  1.0000  -2.6803   0.0000   0.0000   0.0000   0.3452
  20.400   0.9914   0.27341   0.27194  -0.1195  0.0055  1.0000  -2.6903   0.0000   0.0000   0.0000   0.3457
  20.500   0.9921   0.27562   0.27415  -0.1202  0.0054  1.0000  -2.6980   0.0000   0.0000   0.0000   0.3462
  20.600   0.9927   0.27788   0.27642  -0.1210  0.0054  1.0000  -2.7026   0.0000   0.0000   0.0000   0.3467
  20.700   0.9929   0.28025   0.27880  -0.1218  0.0052  1.0000  -2.7003   0.0000   0.0000   0.0000   0.3473
  20.800   0.9925   0.28295   0.28149  -0.1226  0.0051  1.0000  -2.6783   0.0000   0.0000   0.0000   0.3481
  20.900   0.9743   0.29521   0.29373  -0.1246  0.0045  1.0000  -2.0542   0.0000   0.0000   0.0000   0.3529
  21.000   0.9743   0.29763   0.29615  -0.1253  0.0045  1.0000  -2.0389   0.0000   0.0000   0.0000   0.3535
  21.100   0.9742   0.30002   0.29854  -0.1260  0.0045  1.0000  -2.0235   0.0000   0.0000   0.0000   0.3541
  21.200   0.9739   0.30238   0.30091  -0.1266  0.0045  1.0000  -2.0079   0.0000   0.0000   0.0000   0.3547
  21.300   0.9734   0.30471   0.30325  -0.1273  0.0045  1.0000  -1.9920   0.0000   0.0000   0.0000   0.3553
  21.400   0.9726   0.30700   0.30555  -0.1279  0.0045  1.0000  -1.9757   0.0000   0.0000   0.0000   0.3559
  21.500   0.9716   0.30924   0.30779  -0.1285  0.0045  1.0000  -1.9588   0.0000   0.0000   0.0000   0.3565
  21.600   0.9703   0.31141   0.30997  -0.1290  0.0045  1.0000  -1.9413   0.0000   0.0000   0.0000   0.3571
  21.700   0.9685   0.31349   0.31205  -0.1296  0.0045  1.0000  -1.9228   0.0000   0.0000   0.0000   0.3578
  21.800   0.9661   0.31544   0.31401  -0.1300  0.0045  1.0000  -1.9028   0.0000   0.0000   0.0000   0.3585
  21.900   0.9628   0.31719   0.31577  -0.1304  0.0045  1.0000  -1.8806   0.0000   0.0000   0.0000   0.3592
  22.000   0.9042   0.30534   0.30401  -0.1255  0.0045  1.0000  -1.7041   0.0000   0.0000   0.0000   0.3636
  22.100   0.8989   0.30539   0.30406  -0.1255  0.0045  1.0000  -1.6777   0.0000   0.0000   0.0000   0.3644
  22.200   0.8944   0.30557   0.30426  -0.1256  0.0045  1.0000  -1.6539   0.0000   0.0000   0.0000   0.3652
  22.300   0.8905   0.30584   0.30453  -0.1257  0.0045  1.0000  -1.6321   0.0000   0.0000   0.0000   0.3659
  22.400   0.8870   0.30618   0.30488  -0.1259  0.0045  1.0000  -1.6118   0.0000   0.0000   0.0000   0.3666
  22.500   0.8839   0.30656   0.30528  -0.1261  0.0045  1.0000  -1.5931   0.0000   0.0000   0.0000   0.3672
  22.600   0.8811   0.30699   0.30571  -0.1263  0.0045  1.0000  -1.5756   0.0000   0.0000   0.0000   0.3679
  22.700   0.8785   0.30745   0.30618  -0.1266  0.0045  1.0000  -1.5589   0.0000   0.0000   0.0000   0.3685
  22.800   0.8761   0.30793   0.30666  -0.1268  0.0045  1.0000  -1.5430   0.0000   0.0000   0.0000   0.3691
  22.900   0.8739   0.30843   0.30717  -0.1271  0.0044  1.0000  -1.5277   0.0000   0.0000   0.0000   0.3696
  23.000   0.8719   0.30895   0.30770  -0.1274  0.0044  1.0000  -1.5130   0.0000   0.0000   0.0000   0.3702
  23.100   0.8699   0.30948   0.30824  -0.1277  0.0044  1.0000  -1.4989   0.0000   0.0000   0.0000   0.3707
  23.200   0.8682   0.31003   0.30879  -0.1279  0.0044  1.0000  -1.4853   0.0000   0.0000   0.0000   0.3713
  23.300   0.8665   0.31059   0.30936  -0.1282  0.0044  1.0000  -1.4722   0.0000   0.0000   0.0000   0.3718
  23.400   0.8649   0.31116   0.30994  -0.1286  0.0044  1.0000  -1.4596   0.0000   0.0000   0.0000   0.3723
  23.500   0.8635   0.31174   0.31052  -0.1289  0.0044  1.0000  -1.4474   0.0000   0.0000   0.0000   0.3728
  23.600   0.8621   0.31233   0.31112  -0.1292  0.0044  1.0000  -1.4356   0.0000   0.0000   0.0000   0.3733
  23.700   0.8608   0.31293   0.31172  -0.1295  0.0044  1.0000  -1.4240   0.0000   0.0000   0.0000   0.3738
  23.800   0.8595   0.31353   0.31233  -0.1298  0.0044  1.0000  -1.4127   0.0000   0.0000   0.0000   0.3743
  23.900   0.8584   0.31414   0.31295  -0.1302  0.0044  1.0000  -1.4018   0.0000   0.0000   0.0000   0.3747
  24.000   0.8572   0.31476   0.31358  -0.1305  0.0044  1.0000  -1.3912   0.0000   0.0000   0.0000   0.3752
  24.100   0.8562   0.31538   0.31420  -0.1309  0.0044  1.0000  -1.3809   0.0000   0.0000   0.0000   0.3756
  24.200   0.8552   0.31601   0.31484  -0.1312  0.0044  1.0000  -1.3710   0.0000   0.0000   0.0000   0.3761
  24.300   0.8543   0.31665   0.31548  -0.1316  0.0044  1.0000  -1.3613   0.0000   0.0000   0.0000   0.3765
  24.400   0.8534   0.31729   0.31612  -0.1319  0.0044  1.0000  -1.3519   0.0000   0.0000   0.0000   0.3770
  24.500   0.8525   0.31793   0.31677  -0.1323  0.0044  1.0000  -1.3429   0.0000   0.0000   0.0000   0.3774
  24.600   0.8517   0.31858   0.31742  -0.1326  0.0044  1.0000  -1.3341   0.0000   0.0000   0.0000   0.3778
  24.700   0.8510   0.31923   0.31808  -0.1330  0.0044  1.0000  -1.3257   0.0000   0.0000   0.0000   0.3783
  24.800   0.8503   0.31989   0.31875  -0.1334  0.0044  1.0000  -1.3175   0.0000   0.0000   0.0000   0.3787
  24.900   0.8496   0.32055   0.31941  -0.1337  0.0044  1.0000  -1.3098   0.0000   0.0000   0.0000   0.3791
  25.000   0.8490   0.32122   0.32009  -0.1341  0.0044  1.0000  -1.3024   0.0000   0.0000   0.0000   0.3795
  25.100   0.8484   0.32189   0.32077  -0.1345  0.0043  1.0000  -1.2957   0.0000   0.0000   0.0000   0.3799
  25.200   0.8479   0.32258   0.32145  -0.1349  0.0043  1.0000  -1.2898   0.0000   0.0000   0.0000   0.3803
  25.300   0.8475   0.32326   0.32215  -0.1353  0.0043  1.0000  -1.2881   0.0000   0.0000   0.0000   0.3807
  25.400   0.8472   0.32396   0.32285  -0.1357  0.0043  1.0000  -1.2962   0.0000   0.0000   0.0000   0.3811
  25.500   0.8470   0.32467   0.32356  -0.1362  0.0042  1.0000  -1.3048   0.0000   0.0000   0.0000   0.3815
  25.600   0.8472   0.32537   0.32427  -0.1366  0.0041  1.0000  -1.3175   0.0000   0.0000   0.0000   0.3818
  25.700   0.8478   0.32604   0.32494  -0.1371  0.0040  1.0000  -1.3392   0.0000   0.0000   0.0000   0.3821
  25.800   0.8489   0.32668   0.32558  -0.1376  0.0038  1.0000  -1.3701   0.0000   0.0000   0.0000   0.3823
  25.900   0.8501   0.32745   0.32635  -0.1382  0.0035  1.0000  -1.3956   0.0000   0.0000   0.0000   0.3825
  26.000   0.8511   0.32828   0.32719  -0.1386  0.0031  1.0000  -1.4086   0.0000   0.0000   0.0000   0.3827
  26.100   0.8512   0.32910   0.32801  -0.1390  0.0026  1.0000  -1.4075   0.0000   0.0000   0.0000   0.3829


