xflr5 v6.61

 Calculated polar for: E193  (10.22%)

 1 1 Reynolds number fixed          Mach number fixed         

 xtrf =   1.000 (top)        1.000 (bottom)
 Mach =   0.000     Re =     0.450 e 6     Ncrit =   9.000

  alpha     CL        CD       CDp       Cm    Top Xtr Bot Xtr   Cpmin    Chinge    XCp    
 ------- -------- --------- --------- -------- ------- ------- -------- --------- ---------
 -10.000  -0.3341   0.11141   0.10888  -0.0318  1.0000  0.0200  -1.5235   0.0000   0.0000   0.0000   0.1460
  -9.900  -0.3321   0.11012   0.10760  -0.0323  1.0000  0.0201  -1.5295   0.0000   0.0000   0.0000   0.1439
  -9.800  -0.3302   0.10883   0.10631  -0.0328  1.0000  0.0201  -1.5358   0.0000   0.0000   0.0000   0.1419
  -9.700  -0.3284   0.10754   0.10503  -0.0333  1.0000  0.0201  -1.5425   0.0000   0.0000   0.0000   0.1399
  -9.600  -0.3267   0.10624   0.10374  -0.0338  1.0000  0.0201  -1.5494   0.0000   0.0000   0.0000   0.1379
  -9.500  -0.3250   0.10494   0.10245  -0.0343  1.0000  0.0201  -1.5567   0.0000   0.0000   0.0000   0.1359
  -9.400  -0.3234   0.10365   0.10116  -0.0348  1.0000  0.0202  -1.5644   0.0000   0.0000   0.0000   0.1339
  -9.300  -0.3218   0.10235   0.09988  -0.0352  1.0000  0.0202  -1.5724   0.0000   0.0000   0.0000   0.1320
  -9.200  -0.3204   0.10106   0.09860  -0.0357  1.0000  0.0202  -1.5807   0.0000   0.0000   0.0000   0.1301
  -9.100  -0.3191   0.09977   0.09732  -0.0362  1.0000  0.0202  -1.5895   0.0000   0.0000   0.0000   0.1283
  -9.000  -0.3179   0.09849   0.09605  -0.0366  1.0000  0.0202  -1.5986   0.0000   0.0000   0.0000   0.1265
  -8.900  -0.3168   0.09721   0.09478  -0.0371  1.0000  0.0202  -1.6081   0.0000   0.0000   0.0000   0.1248
  -8.800  -0.3157   0.09592   0.09350  -0.0375  1.0000  0.0202  -1.6179   0.0000   0.0000   0.0000   0.1231
  -8.700  -0.3147   0.09462   0.09221  -0.0380  1.0000  0.0202  -1.6282   0.0000   0.0000   0.0000   0.1213
  -8.600  -0.3138   0.09333   0.09093  -0.0384  1.0000  0.0202  -1.6388   0.0000   0.0000   0.0000   0.1197
  -8.500  -0.3132   0.09204   0.08965  -0.0388  1.0000  0.0203  -1.6500   0.0000   0.0000   0.0000   0.1182
  -8.400  -0.3126   0.09076   0.08839  -0.0392  1.0000  0.0203  -1.6616   0.0000   0.0000   0.0000   0.1169
  -8.300  -0.3124   0.08949   0.08713  -0.0396  1.0000  0.0203  -1.6738   0.0000   0.0000   0.0000   0.1158
  -8.200  -0.3123   0.08824   0.08590  -0.0399  1.0000  0.0203  -1.6865   0.0000   0.0000   0.0000   0.1148
  -8.100  -0.3126   0.08700   0.08468  -0.0402  1.0000  0.0203  -1.6999   0.0000   0.0000   0.0000   0.1142
  -8.000  -0.3132   0.08578   0.08348  -0.0404  1.0000  0.0203  -1.7138   0.0000   0.0000   0.0000   0.1138
  -7.700  -0.3277   0.08068   0.07849  -0.0410  1.0000  0.0205  -1.8683   0.0000   0.0000   0.0000   0.1183
  -7.600  -0.3406   0.07859   0.07644  -0.0406  1.0000  0.0207  -1.9686   0.0000   0.0000   0.0000   0.1245
  -7.500  -0.3461   0.07370   0.07156  -0.0455  0.9955  0.0213  -2.1271   0.0000   0.0000   0.0000   0.1124
  -7.400  -0.3404   0.07018   0.06804  -0.0504  0.9914  0.0218  -2.1701   0.0000   0.0000   0.0000   0.0959
  -7.300  -0.3319   0.06757   0.06542  -0.0545  0.9883  0.0223  -2.1675   0.0000   0.0000   0.0000   0.0798
  -7.200  -0.3229   0.06531   0.06314  -0.0581  0.9849  0.0228  -2.1512   0.0000   0.0000   0.0000   0.0640
  -7.100  -0.3144   0.06389   0.06172  -0.0600  0.9804  0.0232  -2.1006   0.0000   0.0000   0.0000   0.0531
  -7.000  -0.3043   0.06240   0.06021  -0.0623  0.9765  0.0237  -2.0482   0.0000   0.0000   0.0000   0.0392
  -6.900  -0.2931   0.06070   0.05850  -0.0652  0.9730  0.0242  -2.0031   0.0000   0.0000   0.0000   0.0214
  -6.800  -0.2835   0.05895   0.05673  -0.0678  0.9673  0.0248  -1.9729   0.0000   0.0000   0.0000   0.0046
  -6.700  -0.2741   0.05716   0.05491  -0.0704  0.9597  0.0254  -1.9484   0.0000   0.0000   0.0000  -0.0131
  -6.600  -0.2627   0.05517   0.05288  -0.0735  0.9533  0.0261  -1.9255   0.0000   0.0000   0.0000  -0.0363
  -6.500  -0.2525   0.05317   0.05084  -0.0763  0.9451  0.0268  -1.9122   0.0000   0.0000   0.0000  -0.0587
  -6.400  -0.2428   0.05116   0.04876  -0.0789  0.9348  0.0277  -1.9048   0.0000   0.0000   0.0000  -0.0815
  -6.300  -0.2322   0.04906   0.04659  -0.0815  0.9255  0.0286  -1.9008   0.0000   0.0000   0.0000  -0.1079
  -6.200  -0.2246   0.04722   0.04467  -0.0831  0.9134  0.0295  -1.9032   0.0000   0.0000   0.0000  -0.1268
  -6.100  -0.2169   0.04541   0.04276  -0.0845  0.9014  0.0306  -1.9079   0.0000   0.0000   0.0000  -0.1465
  -6.000  -0.2096   0.04375   0.04097  -0.0855  0.8904  0.0318  -1.9145   0.0000   0.0000   0.0000  -0.1648
  -5.900  -0.2024   0.04232   0.03943  -0.0860  0.8794  0.0331  -1.9191   0.0000   0.0000   0.0000  -0.1824
  -5.800  -0.1926   0.04155   0.03854  -0.0862  0.8689  0.0349  -1.9024   0.0000   0.0000   0.0000  -0.2052
  -5.700  -0.1767   0.04286   0.03973  -0.0857  0.8591  0.0370  -1.8188   0.0000   0.0000   0.0000  -0.2429
  -5.600  -0.1676   0.04260   0.03937  -0.0857  0.8510  0.0374  -1.7885   0.0000   0.0000   0.0000  -0.2695
  -5.500  -0.1607   0.04158   0.03823  -0.0858  0.8426  0.0376  -1.7795   0.0000   0.0000   0.0000  -0.2923
  -5.400  -0.1540   0.04048   0.03700  -0.0858  0.8345  0.0376  -1.7717   0.0000   0.0000   0.0000  -0.3163
  -5.300  -0.1472   0.03938   0.03576  -0.0858  0.8266  0.0377  -1.7634   0.0000   0.0000   0.0000  -0.3421
  -5.200  -0.1402   0.03825   0.03450  -0.0859  0.8196  0.0377  -1.7542   0.0000   0.0000   0.0000  -0.3717
  -5.100  -0.1507   0.03005   0.02593  -0.0873  0.8152  0.0406  -1.9942   0.0000   0.0000   0.0000  -0.3383
  -5.000  -0.1436   0.02881   0.02462  -0.0873  0.8098  0.0417  -1.9573   0.0000   0.0000   0.0000  -0.3673
  -4.900  -0.1355   0.02795   0.02371  -0.0872  0.8041  0.0427  -1.9099   0.0000   0.0000   0.0000  -0.4032
  -4.800  -0.1269   0.02730   0.02302  -0.0871  0.7984  0.0436  -1.8548   0.0000   0.0000   0.0000  -0.4461
  -4.700  -0.1182   0.02675   0.02239  -0.0869  0.7927  0.0447  -1.7995   0.0000   0.0000   0.0000  -0.4959
  -4.400  -0.0904   0.02529   0.02059  -0.0865  0.7768  0.0503  -1.6438   0.0000   0.0000   0.0000  -0.7190
  -4.300  -0.0806   0.02463   0.01985  -0.0863  0.7735  0.0521  -1.6088   0.0000   0.0000   0.0000  -0.8345
  -4.200  -0.0705   0.02406   0.01920  -0.0861  0.7698  0.0539  -1.5739   0.0000   0.0000   0.0000  -0.9868
  -4.100  -0.0600   0.02365   0.01871  -0.0859  0.7658  0.0558  -1.5360   0.0000   0.0000   0.0000  -1.1997
  -3.500   0.0002   0.01394   0.00743  -0.0820  0.7423  0.0256  -1.8591   0.0000   0.0000   0.0000  420.6334
  -3.400   0.0119   0.01371   0.00705  -0.0816  0.7371  0.0221  -1.8434   0.0000   0.0000   0.0000   7.1781
  -3.300   0.0237   0.01395   0.00730  -0.0816  0.7337  0.0211  -1.7578   0.0000   0.0000   0.0000   3.7330
  -3.200   0.0340   0.01315   0.00643  -0.0812  0.7318  0.0195  -1.7557   0.0000   0.0000   0.0000   2.6678
  -3.100   0.0438   0.01232   0.00550  -0.0807  0.7295  0.0187  -1.7564   0.0000   0.0000   0.0000   2.1131
  -3.000   0.0540   0.01177   0.00487  -0.0804  0.7269  0.0180  -1.7349   0.0000   0.0000   0.0000   1.7554
  -2.900   0.0642   0.01135   0.00438  -0.0800  0.7240  0.0175  -1.7042   0.0000   0.0000   0.0000   1.5092
  -2.800   0.0746   0.01101   0.00397  -0.0797  0.7208  0.0170  -1.6670   0.0000   0.0000   0.0000   1.3299
  -2.700   0.0850   0.01074   0.00362  -0.0795  0.7174  0.0166  -1.6245   0.0000   0.0000   0.0000   1.1935
  -2.600   0.0956   0.01051   0.00332  -0.0792  0.7141  0.0162  -1.5777   0.0000   0.0000   0.0000   1.0863
  -2.500   0.1063   0.01034   0.00306  -0.0790  0.7107  0.0160  -1.5272   0.0000   0.0000   0.0000   0.9999
  -2.400   0.1170   0.01019   0.00284  -0.0788  0.7074  0.0158  -1.4737   0.0000   0.0000   0.0000   0.9291
  -2.300   0.1278   0.01009   0.00267  -0.0787  0.7041  0.0156  -1.4175   0.0000   0.0000   0.0000   0.8700
  -2.200   0.1387   0.01001   0.00252  -0.0785  0.7005  0.0156  -1.3592   0.0000   0.0000   0.0000   0.8200
  -2.100   0.1497   0.00996   0.00241  -0.0784  0.6965  0.0156  -1.2985   0.0000   0.0000   0.0000   0.7772
  -2.000   0.1608   0.00994   0.00231  -0.0783  0.6922  0.0156  -1.2352   0.0000   0.0000   0.0000   0.7401
  -1.900   0.1720   0.00993   0.00225  -0.0783  0.6882  0.0158  -1.1698   0.0000   0.0000   0.0000   0.7077
  -1.800   0.1832   0.00987   0.00216  -0.0782  0.6871  0.0161  -1.1031   0.0000   0.0000   0.0000   0.6793
  -1.700   0.1943   0.00982   0.00209  -0.0782  0.6857  0.0165  -1.0355   0.0000   0.0000   0.0000   0.6542
  -1.600   0.2054   0.00978   0.00203  -0.0781  0.6842  0.0171  -0.9673   0.0000   0.0000   0.0000   0.6319
  -1.500   0.2166   0.00974   0.00198  -0.0781  0.6825  0.0179  -0.8990   0.0000   0.0000   0.0000   0.6119
  -1.400   0.2277   0.00970   0.00194  -0.0780  0.6806  0.0189  -0.8319   0.0000   0.0000   0.0000   0.5939
  -1.300   0.2387   0.00966   0.00191  -0.0780  0.6786  0.0202  -0.7675   0.0000   0.0000   0.0000   0.5776
  -1.200   0.2489   0.00938   0.00185  -0.0779  0.6765  0.0722  -0.7121   0.0000   0.0000   0.0000   0.5637
  -1.100   0.2595   0.00921   0.00183  -0.0779  0.6743  0.1093  -0.6586   0.0000   0.0000   0.0000   0.5507
  -1.000   0.2699   0.00904   0.00182  -0.0779  0.6720  0.1542  -0.6082   0.0000   0.0000   0.0000   0.5389
  -0.900   0.2802   0.00886   0.00182  -0.0778  0.6696  0.2016  -0.5883   0.0000   0.0000   0.0000   0.5279
  -0.800   0.2905   0.00870   0.00182  -0.0778  0.6671  0.2511  -0.5952   0.0000   0.0000   0.0000   0.5178
  -0.700   0.3008   0.00855   0.00184  -0.0777  0.6647  0.2989  -0.6021   0.0000   0.0000   0.0000   0.5083
  -0.600   0.3109   0.00839   0.00186  -0.0776  0.6622  0.3521  -0.6089   0.0000   0.0000   0.0000   0.4995
  -0.500   0.3206   0.00818   0.00188  -0.0775  0.6596  0.4217  -0.6156   0.0000   0.0000   0.0000   0.4914
  -0.400   0.3395   0.00676   0.00220  -0.0785  0.6570  0.9743  -0.6278   0.0000   0.0000   0.0000   0.4806
  -0.300   0.3582   0.00679   0.00218  -0.0801  0.6536  0.9864  -0.6390   0.0000   0.0000   0.0000   0.4729
  -0.200   0.3807   0.00682   0.00215  -0.0826  0.6495  0.9938  -0.6519   0.0000   0.0000   0.0000   0.4662
  -0.100   0.4010   0.00688   0.00215  -0.0846  0.6450  0.9999  -0.6638   0.0000   0.0000   0.0000   0.4602
   0.000   0.4116   0.00696   0.00219  -0.0846  0.6404  1.0000  -0.6707   0.0000   0.0000   0.0000   0.4545
   0.100   0.4217   0.00696   0.00218  -0.0844  0.6396  1.0000  -0.6776   0.0000   0.0000   0.0000   0.4490
   0.200   0.4319   0.00697   0.00217  -0.0842  0.6385  1.0000  -0.6845   0.0000   0.0000   0.0000   0.4438
   0.300   0.4420   0.00698   0.00217  -0.0840  0.6374  1.0000  -0.6915   0.0000   0.0000   0.0000   0.4388
   0.400   0.4522   0.00699   0.00217  -0.0838  0.6362  1.0000  -0.6984   0.0000   0.0000   0.0000   0.4340
   0.500   0.4624   0.00701   0.00217  -0.0836  0.6347  1.0000  -0.7054   0.0000   0.0000   0.0000   0.4295
   0.600   0.4727   0.00703   0.00218  -0.0835  0.6332  1.0000  -0.7123   0.0000   0.0000   0.0000   0.4251
   0.700   0.4829   0.00705   0.00218  -0.0833  0.6315  1.0000  -0.7193   0.0000   0.0000   0.0000   0.4209
   0.800   0.4931   0.00707   0.00219  -0.0831  0.6297  1.0000  -0.7263   0.0000   0.0000   0.0000   0.4169
   0.900   0.5034   0.00709   0.00220  -0.0830  0.6278  1.0000  -0.7333   0.0000   0.0000   0.0000   0.4130
   1.000   0.5137   0.00711   0.00221  -0.0828  0.6258  1.0000  -0.7403   0.0000   0.0000   0.0000   0.4093
   1.100   0.5239   0.00714   0.00222  -0.0826  0.6238  1.0000  -0.7473   0.0000   0.0000   0.0000   0.4057
   1.200   0.5342   0.00717   0.00223  -0.0824  0.6218  1.0000  -0.7543   0.0000   0.0000   0.0000   0.4023
   1.300   0.5445   0.00720   0.00225  -0.0823  0.6197  1.0000  -0.7615   0.0000   0.0000   0.0000   0.3990
   1.400   0.5547   0.00723   0.00226  -0.0821  0.6174  1.0000  -0.7695   0.0000   0.0000   0.0000   0.3958
   1.500   0.5649   0.00726   0.00228  -0.0819  0.6152  1.0000  -0.7775   0.0000   0.0000   0.0000   0.3927
   1.600   0.5752   0.00730   0.00229  -0.0817  0.6128  1.0000  -0.7854   0.0000   0.0000   0.0000   0.3897
   1.700   0.5853   0.00735   0.00231  -0.0815  0.6101  1.0000  -0.7934   0.0000   0.0000   0.0000   0.3868
   1.800   0.5955   0.00739   0.00233  -0.0813  0.6072  1.0000  -0.8014   0.0000   0.0000   0.0000   0.3841
   1.900   0.6057   0.00745   0.00236  -0.0812  0.6038  1.0000  -0.8104   0.0000   0.0000   0.0000   0.3814
   2.000   0.6160   0.00753   0.00241  -0.0810  0.6000  1.0000  -0.8194   0.0000   0.0000   0.0000   0.3788
   2.100   0.6264   0.00763   0.00248  -0.0809  0.5957  1.0000  -0.8285   0.0000   0.0000   0.0000   0.3764
   2.200   0.6370   0.00774   0.00258  -0.0808  0.5917  1.0000  -0.8384   0.0000   0.0000   0.0000   0.3741
   2.300   0.6474   0.00775   0.00259  -0.0807  0.5909  1.0000  -0.8489   0.0000   0.0000   0.0000   0.3717
   2.400   0.6579   0.00776   0.00261  -0.0806  0.5899  1.0000  -0.8608   0.0000   0.0000   0.0000   0.3694
   2.500   0.6683   0.00777   0.00262  -0.0804  0.5887  1.0000  -0.8728   0.0000   0.0000   0.0000   0.3672
   2.600   0.6787   0.00778   0.00264  -0.0803  0.5873  1.0000  -0.8849   0.0000   0.0000   0.0000   0.3651
   2.700   0.6892   0.00779   0.00266  -0.0801  0.5856  1.0000  -0.8981   0.0000   0.0000   0.0000   0.3630
   2.800   0.6996   0.00781   0.00268  -0.0800  0.5837  1.0000  -0.9120   0.0000   0.0000   0.0000   0.3610
   2.900   0.7101   0.00782   0.00270  -0.0799  0.5815  1.0000  -0.9275   0.0000   0.0000   0.0000   0.3590
   3.000   0.7206   0.00783   0.00276  -0.0797  0.5793  1.0000  -0.9437   0.0000   0.0000   0.0000   0.3571
   3.100   0.7298   0.00773   0.00257  -0.0792  0.5668  1.0000  -0.9598   0.0000   0.0000   0.0000   0.3549
   3.200   0.7377   0.00782   0.00247  -0.0785  0.5458  1.0000  -0.9746   0.0000   0.0000   0.0000   0.3526
   3.300   0.7475   0.00776   0.00240  -0.0782  0.5352  1.0000  -0.9936   0.0000   0.0000   0.0000   0.3507
   3.400   0.7571   0.00778   0.00235  -0.0778  0.5220  1.0000  -1.0126   0.0000   0.0000   0.0000   0.3488
   3.500   0.7663   0.00786   0.00234  -0.0774  0.5096  1.0000  -1.0310   0.0000   0.0000   0.0000   0.3470
   3.600   0.7758   0.00794   0.00236  -0.0771  0.5009  1.0000  -1.0497   0.0000   0.0000   0.0000   0.3453
   3.700   0.7857   0.00802   0.00240  -0.0769  0.4941  1.0000  -1.0688   0.0000   0.0000   0.0000   0.3437
   3.800   0.7963   0.00804   0.00243  -0.0768  0.4910  1.0000  -1.0887   0.0000   0.0000   0.0000   0.3422
   3.900   0.8068   0.00808   0.00246  -0.0767  0.4861  1.0000  -1.1120   0.0000   0.0000   0.0000   0.3407
   4.000   0.8171   0.00813   0.00249  -0.0766  0.4793  1.0000  -1.1374   0.0000   0.0000   0.0000   0.3392
   4.100   0.8271   0.00820   0.00252  -0.0764  0.4711  1.0000  -1.1662   0.0000   0.0000   0.0000   0.3378
   4.200   0.8367   0.00829   0.00255  -0.0761  0.4619  1.0000  -1.1946   0.0000   0.0000   0.0000   0.3363
   4.300   0.8459   0.00840   0.00260  -0.0758  0.4514  1.0000  -1.2225   0.0000   0.0000   0.0000   0.3348
   4.400   0.8559   0.00848   0.00265  -0.0756  0.4438  1.0000  -1.2516   0.0000   0.0000   0.0000   0.3334
   4.500   0.8661   0.00854   0.00270  -0.0755  0.4364  1.0000  -1.2811   0.0000   0.0000   0.0000   0.3321
   4.600   0.8757   0.00864   0.00275  -0.0752  0.4241  1.0000  -1.3100   0.0000   0.0000   0.0000   0.3308
   4.700   0.8842   0.00882   0.00281  -0.0748  0.4072  1.0000  -1.3374   0.0000   0.0000   0.0000   0.3294
   4.800   0.8934   0.00896   0.00289  -0.0745  0.3934  1.0000  -1.3715   0.0000   0.0000   0.0000   0.3281
   4.900   0.9023   0.00912   0.00297  -0.0742  0.3748  1.0000  -1.4252   0.0000   0.0000   0.0000   0.3268
   5.000   0.9098   0.00939   0.00308  -0.0736  0.3507  1.0000  -1.4763   0.0000   0.0000   0.0000   0.3254
   5.100   0.9171   0.00969   0.00323  -0.0731  0.3211  1.0000  -1.5279   0.0000   0.0000   0.0000   0.3240
   5.200   0.9237   0.01007   0.00341  -0.0724  0.2874  1.0000  -1.6003   0.0000   0.0000   0.0000   0.3227
   5.400   0.9354   0.01099   0.00390  -0.0710  0.2133  1.0000  -1.7408   0.0000   0.0000   0.0000   0.3199
   5.500   0.9410   0.01147   0.00417  -0.0702  0.1780  1.0000  -1.8103   0.0000   0.0000   0.0000   0.3186
   5.600   0.9464   0.01197   0.00446  -0.0695  0.1421  1.0000  -1.8783   0.0000   0.0000   0.0000   0.3173
   5.700   0.9516   0.01249   0.00475  -0.0687  0.1071  1.0000  -1.9444   0.0000   0.0000   0.0000   0.3159
   5.800   0.9562   0.01305   0.00509  -0.0678  0.0725  1.0000  -2.0065   0.0000   0.0000   0.0000   0.3145
   5.900   0.9608   0.01361   0.00544  -0.0669  0.0418  1.0000  -2.0663   0.0000   0.0000   0.0000   0.3132
   6.000   0.9649   0.01422   0.00586  -0.0658  0.0128  1.0000  -2.1228   0.0000   0.0000   0.0000   0.3117
   6.100   0.9739   0.01438   0.00602  -0.0655  0.0119  1.0000  -2.2008   0.0000   0.0000   0.0000   0.3106
   6.200   0.9830   0.01454   0.00618  -0.0652  0.0113  1.0000  -2.2793   0.0000   0.0000   0.0000   0.3096
   6.300   0.9922   0.01469   0.00634  -0.0649  0.0108  1.0000  -2.3587   0.0000   0.0000   0.0000   0.3085
   6.400   1.0013   0.01484   0.00652  -0.0646  0.0104  1.0000  -2.4390   0.0000   0.0000   0.0000   0.3075
   6.500   1.0105   0.01498   0.00669  -0.0643  0.0101  1.0000  -2.5201   0.0000   0.0000   0.0000   0.3065
   6.600   1.0196   0.01513   0.00688  -0.0640  0.0100  1.0000  -2.6015   0.0000   0.0000   0.0000   0.3055
   6.700   1.0286   0.01529   0.00708  -0.0636  0.0098  1.0000  -2.6826   0.0000   0.0000   0.0000   0.3045
   6.800   1.0374   0.01545   0.00729  -0.0633  0.0098  1.0000  -2.7632   0.0000   0.0000   0.0000   0.3035
   6.900   1.0462   0.01563   0.00752  -0.0629  0.0097  1.0000  -2.8429   0.0000   0.0000   0.0000   0.3025
   7.000   1.0547   0.01582   0.00775  -0.0624  0.0097  1.0000  -2.9213   0.0000   0.0000   0.0000   0.3015
   7.100   1.0651   0.01583   0.00805  -0.0624  0.0106  1.0000  -3.1076   0.0000   0.0000   0.0000   0.3008
   7.200   1.0737   0.01601   0.00829  -0.0620  0.0106  1.0000  -3.1977   0.0000   0.0000   0.0000   0.2998
   7.300   1.0819   0.01622   0.00855  -0.0615  0.0106  1.0000  -3.2789   0.0000   0.0000   0.0000   0.2988
   7.400   1.0898   0.01645   0.00884  -0.0610  0.0106  1.0000  -3.3548   0.0000   0.0000   0.0000   0.2978
   7.500   1.0974   0.01671   0.00915  -0.0604  0.0105  1.0000  -3.4270   0.0000   0.0000   0.0000   0.2967
   7.600   1.1046   0.01699   0.00949  -0.0598  0.0105  1.0000  -3.4959   0.0000   0.0000   0.0000   0.2957
   7.700   1.1114   0.01729   0.00986  -0.0591  0.0105  1.0000  -3.5616   0.0000   0.0000   0.0000   0.2946
   7.800   1.1177   0.01763   0.01025  -0.0583  0.0106  1.0000  -3.6243   0.0000   0.0000   0.0000   0.2934
   7.900   1.1236   0.01798   0.01067  -0.0575  0.0106  1.0000  -3.6840   0.0000   0.0000   0.0000   0.2923
   8.000   1.1290   0.01836   0.01112  -0.0566  0.0107  1.0000  -3.7406   0.0000   0.0000   0.0000   0.2911
   8.100   1.1337   0.01878   0.01160  -0.0556  0.0107  1.0000  -3.7934   0.0000   0.0000   0.0000   0.2899
   8.200   1.1378   0.01921   0.01210  -0.0545  0.0108  1.0000  -3.8429   0.0000   0.0000   0.0000   0.2886
   8.300   1.1408   0.01966   0.01261  -0.0532  0.0109  1.0000  -3.8873   0.0000   0.0000   0.0000   0.2872
   8.400   1.1430   0.02012   0.01314  -0.0518  0.0110  1.0000  -3.9277   0.0000   0.0000   0.0000   0.2858
   8.500   1.1447   0.02062   0.01370  -0.0503  0.0111  1.0000  -3.9650   0.0000   0.0000   0.0000   0.2843
   8.600   1.1462   0.02114   0.01428  -0.0489  0.0112  1.0000  -4.0002   0.0000   0.0000   0.0000   0.2829
   8.700   1.1475   0.02170   0.01491  -0.0474  0.0113  1.0000  -4.0330   0.0000   0.0000   0.0000   0.2814
   8.800   1.1486   0.02230   0.01557  -0.0460  0.0114  1.0000  -4.0640   0.0000   0.0000   0.0000   0.2800
   8.900   1.1496   0.02294   0.01626  -0.0447  0.0115  1.0000  -4.0928   0.0000   0.0000   0.0000   0.2787
   9.000   1.1507   0.02361   0.01700  -0.0433  0.0117  1.0000  -4.1199   0.0000   0.0000   0.0000   0.2773
   9.100   1.1518   0.02434   0.01779  -0.0421  0.0118  1.0000  -4.1450   0.0000   0.0000   0.0000   0.2761
   9.200   1.1531   0.02512   0.01863  -0.0408  0.0120  1.0000  -4.1680   0.0000   0.0000   0.0000   0.2748
   9.300   1.1548   0.02596   0.01953  -0.0397  0.0122  1.0000  -4.1884   0.0000   0.0000   0.0000   0.2736
   9.400   1.1571   0.02690   0.02054  -0.0386  0.0124  1.0000  -4.2045   0.0000   0.0000   0.0000   0.2725
   9.500   1.1602   0.02803   0.02175  -0.0375  0.0126  1.0000  -4.2115   0.0000   0.0000   0.0000   0.2713
   9.700   1.1762   0.03058   0.02443  -0.0364  0.0139  1.0000  -4.2335   0.0000   0.0000   0.0000   0.2697
   9.800   1.1816   0.03068   0.02455  -0.0358  0.0142  1.0000  -4.3140   0.0000   0.0000   0.0000   0.2689
   9.900   1.1873   0.03083   0.02471  -0.0352  0.0146  1.0000  -4.3925   0.0000   0.0000   0.0000   0.2680
  10.000   1.1934   0.03105   0.02496  -0.0346  0.0152  1.0000  -4.4654   0.0000   0.0000   0.0000   0.2672
  13.800   1.0432   0.10486   0.10242  -0.0332  0.0319  1.0000  -3.6207   0.0000   0.0000   0.0000   0.2646
  13.900   1.0321   0.10855   0.10617  -0.0357  0.0320  1.0000  -3.5531   0.0000   0.0000   0.0000   0.2673
  14.000   1.0193   0.11286   0.11054  -0.0387  0.0321  1.0000  -3.4649   0.0000   0.0000   0.0000   0.2706
  14.100   1.0067   0.11749   0.11521  -0.0420  0.0322  1.0000  -3.3686   0.0000   0.0000   0.0000   0.2743
  14.200   0.9922   0.12304   0.12081  -0.0460  0.0323  1.0000  -3.2425   0.0000   0.0000   0.0000   0.2790
  14.300   0.9790   0.12872   0.12652  -0.0500  0.0323  1.0000  -3.1101   0.0000   0.0000   0.0000   0.2838
  14.400   0.9693   0.13399   0.13181  -0.0535  0.0321  1.0000  -2.9943   0.0000   0.0000   0.0000   0.2879
  14.500   0.9634   0.13827   0.13608  -0.0560  0.0318  1.0000  -2.9140   0.0000   0.0000   0.0000   0.2910
  14.600   0.9603   0.14133   0.13914  -0.0578  0.0314  1.0000  -2.8732   0.0000   0.0000   0.0000   0.2929
  14.700   0.9583   0.14393   0.14173  -0.0593  0.0311  1.0000  -2.8482   0.0000   0.0000   0.0000   0.2945
  14.800   0.9571   0.14625   0.14405  -0.0605  0.0308  1.0000  -2.8334   0.0000   0.0000   0.0000   0.2958
  14.900   0.9564   0.14837   0.14617  -0.0616  0.0305  1.0000  -2.8263   0.0000   0.0000   0.0000   0.2969
  15.000   0.9563   0.15031   0.14811  -0.0626  0.0302  1.0000  -2.8262   0.0000   0.0000   0.0000   0.2978
  15.100   0.9566   0.15211   0.14990  -0.0635  0.0299  1.0000  -2.8323   0.0000   0.0000   0.0000   0.2986
  15.200   0.9557   0.15436   0.15215  -0.0647  0.0296  1.0000  -2.8210   0.0000   0.0000   0.0000   0.2998
  15.300   0.9550   0.15655   0.15434  -0.0658  0.0293  1.0000  -2.8123   0.0000   0.0000   0.0000   0.3009
  15.400   0.9544   0.15870   0.15648  -0.0669  0.0290  1.0000  -2.8056   0.0000   0.0000   0.0000   0.3020
  15.500   0.9537   0.16086   0.15865  -0.0680  0.0287  1.0000  -2.7985   0.0000   0.0000   0.0000   0.3030
  15.600   0.9526   0.16316   0.16095  -0.0690  0.0283  1.0000  -2.7860   0.0000   0.0000   0.0000   0.3041
  15.700   0.9494   0.16609   0.16386  -0.0704  0.0278  1.0000  -2.7489   0.0000   0.0000   0.0000   0.3057
  15.800   0.9186   0.17980   0.17749  -0.0764  0.0263  1.0000  -2.2808   0.0000   0.0000   0.0000   0.3152
  15.900   0.9188   0.18244   0.18014  -0.0776  0.0263  1.0000  -2.2528   0.0000   0.0000   0.0000   0.3164
  16.000   0.9192   0.18504   0.18274  -0.0787  0.0263  1.0000  -2.2266   0.0000   0.0000   0.0000   0.3175
  16.100   0.9197   0.18761   0.18529  -0.0799  0.0263  1.0000  -2.2020   0.0000   0.0000   0.0000   0.3186
  16.200   0.9203   0.19013   0.18782  -0.0810  0.0263  1.0000  -2.1790   0.0000   0.0000   0.0000   0.3197
  16.300   0.9211   0.19262   0.19030  -0.0821  0.0263  1.0000  -2.1574   0.0000   0.0000   0.0000   0.3207
  16.400   0.9219   0.19508   0.19276  -0.0832  0.0262  1.0000  -2.1370   0.0000   0.0000   0.0000   0.3217
  16.500   0.9228   0.19750   0.19519  -0.0842  0.0262  1.0000  -2.1180   0.0000   0.0000   0.0000   0.3226
  16.600   0.9238   0.19990   0.19758  -0.0853  0.0262  1.0000  -2.1002   0.0000   0.0000   0.0000   0.3236
  16.700   0.9249   0.20226   0.19994  -0.0863  0.0261  1.0000  -2.0837   0.0000   0.0000   0.0000   0.3245
  16.800   0.9261   0.20458   0.20226  -0.0873  0.0261  1.0000  -2.0685   0.0000   0.0000   0.0000   0.3253
  16.900   0.9274   0.20686   0.20454  -0.0883  0.0260  1.0000  -2.0549   0.0000   0.0000   0.0000   0.3262
  17.000   0.9288   0.20907   0.20675  -0.0893  0.0260  1.0000  -2.0431   0.0000   0.0000   0.0000   0.3270
  17.100   0.9304   0.21121   0.20889  -0.0903  0.0259  1.0000  -2.0339   0.0000   0.0000   0.0000   0.3277
  17.200   0.9323   0.21321   0.21090  -0.0913  0.0257  1.0000  -2.0284   0.0000   0.0000   0.0000   0.3285
  17.300   0.9348   0.21501   0.21269  -0.0922  0.0255  1.0000  -2.0290   0.0000   0.0000   0.0000   0.3291
  17.400   0.9379   0.21661   0.21430  -0.0932  0.0250  1.0000  -2.0348   0.0000   0.0000   0.0000   0.3297
  17.500   0.9408   0.21836   0.21605  -0.0941  0.0245  1.0000  -2.0353   0.0000   0.0000   0.0000   0.3302
  17.600   0.9427   0.22054   0.21822  -0.0953  0.0239  1.0000  -2.0199   0.0000   0.0000   0.0000   0.3311
  17.700   0.9441   0.22286   0.22055  -0.0964  0.0233  1.0000  -2.0005   0.0000   0.0000   0.0000   0.3320
  17.800   0.9452   0.22524   0.22293  -0.0975  0.0228  1.0000  -1.9806   0.0000   0.0000   0.0000   0.3329
  17.900   0.9461   0.22763   0.22531  -0.0985  0.0224  1.0000  -1.9620   0.0000   0.0000   0.0000   0.3338
  18.000   0.9471   0.22999   0.22767  -0.0995  0.0219  1.0000  -1.9460   0.0000   0.0000   0.0000   0.3347
  18.100   0.9482   0.23233   0.23001  -0.1005  0.0215  1.0000  -1.9323   0.0000   0.0000   0.0000   0.3355
  18.200   0.9493   0.23464   0.23233  -0.1014  0.0211  1.0000  -1.9205   0.0000   0.0000   0.0000   0.3362
  18.300   0.9505   0.23694   0.23463  -0.1023  0.0207  1.0000  -1.9103   0.0000   0.0000   0.0000   0.3369
  18.400   0.9516   0.23922   0.23691  -0.1032  0.0203  1.0000  -1.9016   0.0000   0.0000   0.0000   0.3376
  18.500   0.9528   0.24148   0.23917  -0.1041  0.0200  1.0000  -1.8941   0.0000   0.0000   0.0000   0.3382
  18.600   0.9540   0.24373   0.24142  -0.1049  0.0197  1.0000  -1.8878   0.0000   0.0000   0.0000   0.3388
  18.700   0.9552   0.24597   0.24366  -0.1058  0.0194  1.0000  -1.8825   0.0000   0.0000   0.0000   0.3394
  18.800   0.9565   0.24819   0.24589  -0.1066  0.0191  1.0000  -1.8782   0.0000   0.0000   0.0000   0.3400
  18.900   0.9577   0.25040   0.24810  -0.1074  0.0188  1.0000  -1.8749   0.0000   0.0000   0.0000   0.3405
  19.000   0.9589   0.25260   0.25030  -0.1082  0.0185  1.0000  -1.8725   0.0000   0.0000   0.0000   0.3411
  19.100   0.9601   0.25479   0.25249  -0.1090  0.0183  1.0000  -1.8709   0.0000   0.0000   0.0000   0.3416
  19.200   0.9614   0.25697   0.25468  -0.1097  0.0180  1.0000  -1.8702   0.0000   0.0000   0.0000   0.3421
  19.300   0.9626   0.25913   0.25685  -0.1105  0.0178  1.0000  -1.8703   0.0000   0.0000   0.0000   0.3426
  19.400   0.9638   0.26129   0.25901  -0.1112  0.0175  1.0000  -1.8711   0.0000   0.0000   0.0000   0.3430
  19.500   0.9650   0.26344   0.26116  -0.1120  0.0173  1.0000  -1.8727   0.0000   0.0000   0.0000   0.3435
  19.600   0.9661   0.26557   0.26329  -0.1127  0.0171  1.0000  -1.8751   0.0000   0.0000   0.0000   0.3439
  19.700   0.9674   0.26763   0.26536  -0.1134  0.0169  1.0000  -1.8819   0.0000   0.0000   0.0000   0.3443
  19.800   0.9687   0.26960   0.26733  -0.1140  0.0166  1.0000  -1.8939   0.0000   0.0000   0.0000   0.3446
  19.900   0.9700   0.27153   0.26927  -0.1146  0.0164  1.0000  -1.9078   0.0000   0.0000   0.0000   0.3449
  20.000   0.9714   0.27344   0.27118  -0.1152  0.0161  1.0000  -1.9236   0.0000   0.0000   0.0000   0.3452
  20.100   0.9728   0.27531   0.27306  -0.1158  0.0159  1.0000  -1.9415   0.0000   0.0000   0.0000   0.3454
  20.200   0.9744   0.27697   0.27478  -0.1162  0.0156  1.0000  -1.9680   0.0000   0.0000   0.0000   0.3455
  20.300   0.9760   0.27869   0.27650  -0.1167  0.0154  1.0000  -1.9942   0.0000   0.0000   0.0000   0.3456
  20.400   0.9775   0.28042   0.27824  -0.1171  0.0152  1.0000  -2.0213   0.0000   0.0000   0.0000   0.3456
  20.500   0.9791   0.28213   0.27996  -0.1175  0.0150  1.0000  -2.0507   0.0000   0.0000   0.0000   0.3456
  20.600   0.9805   0.28388   0.28171  -0.1179  0.0148  1.0000  -2.0794   0.0000   0.0000   0.0000   0.3456
  20.700   0.9818   0.28568   0.28352  -0.1182  0.0146  1.0000  -2.1067   0.0000   0.0000   0.0000   0.3457
  20.800   0.9820   0.28780   0.28565  -0.1187  0.0144  1.0000  -2.1177   0.0000   0.0000   0.0000   0.3460
  20.900   0.9816   0.29020   0.28805  -0.1193  0.0142  1.0000  -2.1180   0.0000   0.0000   0.0000   0.3464
  21.000   0.9649   0.30015   0.29797  -0.1204  0.0133  1.0000  -1.8143   0.0000   0.0000   0.0000   0.3500
  21.100   0.9643   0.30240   0.30023  -0.1210  0.0133  1.0000  -1.8003   0.0000   0.0000   0.0000   0.3505
  21.200   0.9635   0.30461   0.30245  -0.1215  0.0133  1.0000  -1.7858   0.0000   0.0000   0.0000   0.3511
  21.300   0.9624   0.30676   0.30461  -0.1221  0.0133  1.0000  -1.7709   0.0000   0.0000   0.0000   0.3517
  21.400   0.9610   0.30885   0.30670  -0.1226  0.0133  1.0000  -1.7554   0.0000   0.0000   0.0000   0.3523
  21.500   0.9592   0.31084   0.30870  -0.1231  0.0133  1.0000  -1.7390   0.0000   0.0000   0.0000   0.3530
  21.600   0.9568   0.31270   0.31058  -0.1235  0.0132  1.0000  -1.7213   0.0000   0.0000   0.0000   0.3536
  21.700   0.9536   0.31438   0.31227  -0.1238  0.0132  1.0000  -1.7019   0.0000   0.0000   0.0000   0.3543
  21.900   0.8967   0.30443   0.30243  -0.1193  0.0132  1.0000  -1.5347   0.0000   0.0000   0.0000   0.3583
  22.000   0.8914   0.30445   0.30247  -0.1193  0.0132  1.0000  -1.5110   0.0000   0.0000   0.0000   0.3591
  22.100   0.8869   0.30463   0.30266  -0.1194  0.0132  1.0000  -1.4897   0.0000   0.0000   0.0000   0.3599
  22.200   0.8831   0.30490   0.30295  -0.1196  0.0132  1.0000  -1.4700   0.0000   0.0000   0.0000   0.3606
  22.300   0.8796   0.30523   0.30329  -0.1198  0.0132  1.0000  -1.4516   0.0000   0.0000   0.0000   0.3613
  22.400   0.8765   0.30561   0.30368  -0.1200  0.0132  1.0000  -1.4343   0.0000   0.0000   0.0000   0.3619
  22.500   0.8737   0.30603   0.30411  -0.1202  0.0132  1.0000  -1.4180   0.0000   0.0000   0.0000   0.3626
  22.600   0.8711   0.30648   0.30458  -0.1205  0.0132  1.0000  -1.4023   0.0000   0.0000   0.0000   0.3632
  22.700   0.8687   0.30696   0.30506  -0.1207  0.0132  1.0000  -1.3874   0.0000   0.0000   0.0000   0.3638
  22.800   0.8665   0.30746   0.30558  -0.1210  0.0132  1.0000  -1.3731   0.0000   0.0000   0.0000   0.3644
  22.900   0.8645   0.30797   0.30610  -0.1213  0.0132  1.0000  -1.3593   0.0000   0.0000   0.0000   0.3649
  23.000   0.8625   0.30850   0.30664  -0.1216  0.0132  1.0000  -1.3459   0.0000   0.0000   0.0000   0.3655
  23.100   0.8607   0.30904   0.30719  -0.1220  0.0132  1.0000  -1.3329   0.0000   0.0000   0.0000   0.3661
  23.200   0.8591   0.30959   0.30775  -0.1223  0.0132  1.0000  -1.3204   0.0000   0.0000   0.0000   0.3667
  23.300   0.8575   0.31015   0.30832  -0.1226  0.0131  1.0000  -1.3083   0.0000   0.0000   0.0000   0.3672
  23.400   0.8561   0.31072   0.30889  -0.1230  0.0131  1.0000  -1.2966   0.0000   0.0000   0.0000   0.3678
  23.500   0.8547   0.31129   0.30947  -0.1234  0.0131  1.0000  -1.2855   0.0000   0.0000   0.0000   0.3683
  23.600   0.8535   0.31187   0.31006  -0.1238  0.0131  1.0000  -1.2748   0.0000   0.0000   0.0000   0.3689
  23.700   0.8523   0.31245   0.31065  -0.1242  0.0131  1.0000  -1.2646   0.0000   0.0000   0.0000   0.3694
  23.800   0.8512   0.31303   0.31124  -0.1246  0.0130  1.0000  -1.2546   0.0000   0.0000   0.0000   0.3700
  23.900   0.8502   0.31362   0.31183  -0.1250  0.0130  1.0000  -1.2453   0.0000   0.0000   0.0000   0.3705
  24.000   0.8493   0.31421   0.31243  -0.1254  0.0130  1.0000  -1.2365   0.0000   0.0000   0.0000   0.3710
  24.100   0.8484   0.31481   0.31304  -0.1258  0.0130  1.0000  -1.2281   0.0000   0.0000   0.0000   0.3715
  24.200   0.8476   0.31542   0.31366  -0.1262  0.0129  1.0000  -1.2199   0.0000   0.0000   0.0000   0.3720
  24.300   0.8468   0.31605   0.31429  -0.1266  0.0129  1.0000  -1.2113   0.0000   0.0000   0.0000   0.3725
  24.400   0.8460   0.31667   0.31493  -0.1271  0.0129  1.0000  -1.2027   0.0000   0.0000   0.0000   0.3730
  24.500   0.8453   0.31731   0.31557  -0.1275  0.0128  1.0000  -1.1945   0.0000   0.0000   0.0000   0.3735
  24.600   0.8447   0.31794   0.31621  -0.1279  0.0128  1.0000  -1.1867   0.0000   0.0000   0.0000   0.3739
  24.700   0.8441   0.31858   0.31686  -0.1283  0.0128  1.0000  -1.1793   0.0000   0.0000   0.0000   0.3744
  24.800   0.8435   0.31925   0.31753  -0.1288  0.0127  1.0000  -1.1700   0.0000   0.0000   0.0000   0.3750
  24.900   0.8431   0.31994   0.31823  -0.1293  0.0126  1.0000  -1.1607   0.0000   0.0000   0.0000   0.3755
  25.000   0.8428   0.32065   0.31895  -0.1299  0.0125  1.0000  -1.1516   0.0000   0.0000   0.0000   0.3761
  25.100   0.8428   0.32144   0.31974  -0.1305  0.0123  1.0000  -1.1422   0.0000   0.0000   0.0000   0.3766
  25.200   0.8436   0.32240   0.32071  -0.1313  0.0119  1.0000  -1.1302   0.0000   0.0000   0.0000   0.3772
  25.300   0.8449   0.32355   0.32186  -0.1320  0.0110  1.0000  -1.1231   0.0000   0.0000   0.0000   0.3777
  25.400   0.8450   0.32439   0.32271  -0.1325  0.0100  1.0000  -1.1279   0.0000   0.0000   0.0000   0.3781
  25.500   0.8448   0.32508   0.32340  -0.1329  0.0091  1.0000  -1.1388   0.0000   0.0000   0.0000   0.3785
  25.600   0.8446   0.32568   0.32401  -0.1333  0.0084  1.0000  -1.1541   0.0000   0.0000   0.0000   0.3789
  25.700   0.8444   0.32622   0.32456  -0.1337  0.0077  1.0000  -1.1739   0.0000   0.0000   0.0000   0.3792
  25.800   0.8443   0.32670   0.32505  -0.1341  0.0072  1.0000  -1.1982   0.0000   0.0000   0.0000   0.3795
  25.900   0.8442   0.32713   0.32548  -0.1345  0.0067  1.0000  -1.2267   0.0000   0.0000   0.0000   0.3797
  26.000   0.8442   0.32749   0.32585  -0.1349  0.0064  1.0000  -1.2595   0.0000   0.0000   0.0000   0.3799
  26.100   0.8443   0.32780   0.32616  -0.1352  0.0061  1.0000  -1.2962   0.0000   0.0000   0.0000   0.3801
  26.200   0.8443   0.32805   0.32642  -0.1356  0.0058  1.0000  -1.3366   0.0000   0.0000   0.0000   0.3802
  26.300   0.8444   0.32824   0.32662  -0.1359  0.0056  1.0000  -1.3807   0.0000   0.0000   0.0000   0.3803
  26.400   0.8446   0.32837   0.32676  -0.1361  0.0054  1.0000  -1.4286   0.0000   0.0000   0.0000   0.3803
  26.500   0.8447   0.32842   0.32682  -0.1363  0.0052  1.0000  -1.4806   0.0000   0.0000   0.0000   0.3802
  28.300   0.8281   0.34462   0.34305  -0.1426  0.0043  1.0000  -1.0701   0.0000   0.0000   0.0000   0.3886
  28.400   0.8279   0.34541   0.34385  -0.1430  0.0043  1.0000  -1.0625   0.0000   0.0000   0.0000   0.3889
  28.500   0.8276   0.34620   0.34465  -0.1434  0.0043  1.0000  -1.0551   0.0000   0.0000   0.0000   0.3893
  28.600   0.8274   0.34700   0.34549  -0.1438  0.0043  1.0000  -1.0480   0.0000   0.0000   0.0000   0.3896
  28.700   0.8272   0.34780   0.34629  -0.1442  0.0043  1.0000  -1.0409   0.0000   0.0000   0.0000   0.3899
  28.800   0.8270   0.34859   0.34708  -0.1445  0.0043  1.0000  -1.0340   0.0000   0.0000   0.0000   0.3902
  28.900   0.8268   0.34937   0.34787  -0.1449  0.0043  1.0000  -1.0273   0.0000   0.0000   0.0000   0.3905
  29.000   0.8266   0.35016   0.34867  -0.1453  0.0042  1.0000  -1.0207   0.0000   0.0000   0.0000   0.3908
  29.100   0.8264   0.35095   0.34946  -0.1457  0.0042  1.0000  -1.0142   0.0000   0.0000   0.0000   0.3912
  29.200   0.8262   0.35173   0.35025  -0.1461  0.0042  1.0000  -1.0079   0.0000   0.0000   0.0000   0.3915
  29.300   0.8260   0.35252   0.35104  -0.1465  0.0042  1.0000  -1.0017   0.0000   0.0000   0.0000   0.3918


