xflr5 v6.61

 Calculated polar for: E193  (10.22%)

 1 1 Reynolds number fixed          Mach number fixed         

 xtrf =   1.000 (top)        1.000 (bottom)
 Mach =   0.000     Re =     0.688 e 6     Ncrit =   9.000

  alpha     CL        CD       CDp       Cm    Top Xtr Bot Xtr   Cpmin    Chinge    XCp    
 ------- -------- --------- --------- -------- ------- ------- -------- --------- ---------
 -10.000  -0.3574   0.10275   0.10070  -0.0321  1.0000  0.0098  -2.1233   0.0000   0.0000   0.0000   0.1512
  -9.900  -0.3556   0.10159   0.09953  -0.0324  1.0000  0.0099  -2.1105   0.0000   0.0000   0.0000   0.1498
  -9.800  -0.3537   0.10045   0.09840  -0.0328  1.0000  0.0100  -2.0950   0.0000   0.0000   0.0000   0.1484
  -9.700  -0.3519   0.09931   0.09727  -0.0332  1.0000  0.0101  -2.0806   0.0000   0.0000   0.0000   0.1470
  -9.600  -0.3502   0.09817   0.09614  -0.0335  1.0000  0.0102  -2.0669   0.0000   0.0000   0.0000   0.1457
  -9.500  -0.3484   0.09705   0.09502  -0.0338  1.0000  0.0103  -2.0527   0.0000   0.0000   0.0000   0.1443
  -9.400  -0.3468   0.09592   0.09390  -0.0342  1.0000  0.0104  -2.0401   0.0000   0.0000   0.0000   0.1430
  -9.300  -0.3453   0.09479   0.09278  -0.0345  1.0000  0.0105  -2.0291   0.0000   0.0000   0.0000   0.1418
  -9.200  -0.3440   0.09365   0.09165  -0.0348  1.0000  0.0106  -2.0197   0.0000   0.0000   0.0000   0.1405
  -9.100  -0.3428   0.09252   0.09053  -0.0351  1.0000  0.0108  -2.0118   0.0000   0.0000   0.0000   0.1393
  -9.000  -0.3417   0.09138   0.08940  -0.0355  1.0000  0.0109  -2.0052   0.0000   0.0000   0.0000   0.1381
  -8.900  -0.3407   0.09023   0.08825  -0.0358  1.0000  0.0110  -1.9998   0.0000   0.0000   0.0000   0.1369
  -8.800  -0.3397   0.08906   0.08710  -0.0362  1.0000  0.0111  -1.9955   0.0000   0.0000   0.0000   0.1357
  -8.700  -0.3389   0.08789   0.08593  -0.0365  1.0000  0.0112  -1.9927   0.0000   0.0000   0.0000   0.1346
  -8.600  -0.3383   0.08671   0.08477  -0.0368  1.0000  0.0113  -1.9913   0.0000   0.0000   0.0000   0.1336
  -8.500  -0.3379   0.08554   0.08361  -0.0371  1.0000  0.0115  -1.9913   0.0000   0.0000   0.0000   0.1327
  -8.400  -0.3377   0.08437   0.08245  -0.0374  1.0000  0.0116  -1.9928   0.0000   0.0000   0.0000   0.1319
  -8.300  -0.3378   0.08320   0.08130  -0.0377  1.0000  0.0117  -1.9958   0.0000   0.0000   0.0000   0.1313
  -8.200  -0.3381   0.08204   0.08015  -0.0379  1.0000  0.0118  -2.0003   0.0000   0.0000   0.0000   0.1309
  -8.100  -0.3389   0.08089   0.07902  -0.0381  1.0000  0.0119  -2.0063   0.0000   0.0000   0.0000   0.1307
  -8.000  -0.3400   0.07976   0.07790  -0.0382  1.0000  0.0120  -2.0141   0.0000   0.0000   0.0000   0.1309
  -7.900  -0.3418   0.07866   0.07681  -0.0382  1.0000  0.0121  -2.0239   0.0000   0.0000   0.0000   0.1315
  -7.800  -0.3443   0.07760   0.07578  -0.0381  1.0000  0.0122  -2.0360   0.0000   0.0000   0.0000   0.1329
  -7.700  -0.3400   0.07587   0.07406  -0.0402  0.9975  0.0124  -2.0395   0.0000   0.0000   0.0000   0.1255
  -7.600  -0.3339   0.07392   0.07211  -0.0429  0.9928  0.0126  -2.0438   0.0000   0.0000   0.0000   0.1151
  -7.500  -0.3266   0.07178   0.06997  -0.0463  0.9886  0.0128  -2.0507   0.0000   0.0000   0.0000   0.1018
  -7.400  -0.3194   0.06954   0.06774  -0.0500  0.9830  0.0131  -2.0625   0.0000   0.0000   0.0000   0.0872
  -7.300  -0.3099   0.06698   0.06517  -0.0546  0.9772  0.0133  -2.0766   0.0000   0.0000   0.0000   0.0674
  -7.100  -0.2897   0.06149   0.05964  -0.0644  0.9619  0.0139  -2.1190   0.0000   0.0000   0.0000   0.0210
  -7.000  -0.2779   0.05843   0.05654  -0.0698  0.9517  0.0143  -2.1480   0.0000   0.0000   0.0000  -0.0078
  -6.900  -0.2684   0.05555   0.05361  -0.0742  0.9375  0.0146  -2.1811   0.0000   0.0000   0.0000  -0.0331
  -6.800  -0.2595   0.05277   0.05074  -0.0779  0.9221  0.0149  -2.2165   0.0000   0.0000   0.0000  -0.0569
  -6.700  -0.2540   0.05041   0.04829  -0.0801  0.9046  0.0152  -2.2511   0.0000   0.0000   0.0000  -0.0721
  -6.600  -0.2494   0.04824   0.04601  -0.0816  0.8893  0.0155  -2.2843   0.0000   0.0000   0.0000  -0.0843
  -6.500  -0.2451   0.04620   0.04386  -0.0828  0.8754  0.0158  -2.3154   0.0000   0.0000   0.0000  -0.0948
  -6.300  -0.2350   0.04259   0.04003  -0.0842  0.8527  0.0167  -2.3571   0.0000   0.0000   0.0000  -0.1156
  -6.200  -0.2286   0.04104   0.03839  -0.0847  0.8432  0.0173  -2.3643   0.0000   0.0000   0.0000  -0.1277
  -6.100  -0.2210   0.03993   0.03718  -0.0848  0.8338  0.0181  -2.3503   0.0000   0.0000   0.0000  -0.1413
  -5.900  -0.1957   0.04078   0.03791  -0.0841  0.8176  0.0199  -2.1614   0.0000   0.0000   0.0000  -0.1881
  -5.800  -0.1881   0.03980   0.03684  -0.0844  0.8115  0.0201  -2.1440   0.0000   0.0000   0.0000  -0.2068
  -5.700  -0.1814   0.03864   0.03557  -0.0846  0.8049  0.0202  -2.1365   0.0000   0.0000   0.0000  -0.2246
  -5.600  -0.1748   0.03745   0.03427  -0.0847  0.7981  0.0202  -2.1306   0.0000   0.0000   0.0000  -0.2428
  -5.500  -0.1684   0.03629   0.03297  -0.0847  0.7910  0.0202  -2.1236   0.0000   0.0000   0.0000  -0.2619
  -5.400  -0.1618   0.03515   0.03170  -0.0847  0.7832  0.0203  -2.1149   0.0000   0.0000   0.0000  -0.2825
  -5.300  -0.1739   0.02658   0.02257  -0.0854  0.7783  0.0222  -2.5024   0.0000   0.0000   0.0000  -0.2501
  -5.200  -0.1668   0.02541   0.02134  -0.0855  0.7751  0.0232  -2.4497   0.0000   0.0000   0.0000  -0.2715
  -5.100  -0.1582   0.02485   0.02077  -0.0855  0.7711  0.0241  -2.3680   0.0000   0.0000   0.0000  -0.2998
  -5.000  -0.1491   0.02448   0.02037  -0.0855  0.7666  0.0249  -2.2804   0.0000   0.0000   0.0000  -0.3330
  -4.900  -0.1399   0.02416   0.02002  -0.0854  0.7618  0.0259  -2.1942   0.0000   0.0000   0.0000  -0.3707
  -4.800  -0.1306   0.02381   0.01962  -0.0854  0.7568  0.0270  -2.1161   0.0000   0.0000   0.0000  -0.4137
  -4.700  -0.1213   0.02343   0.01916  -0.0852  0.7516  0.0283  -2.0466   0.0000   0.0000   0.0000  -0.4632
  -4.600  -0.1119   0.02303   0.01867  -0.0851  0.7460  0.0298  -1.9853   0.0000   0.0000   0.0000  -0.5215
  -4.400  -0.0922   0.02205   0.01736  -0.0847  0.7344  0.0325  -1.8934   0.0000   0.0000   0.0000  -0.6811
  -4.300  -0.0796   0.02269   0.01803  -0.0845  0.7325  0.0355  -1.7930   0.0000   0.0000   0.0000  -0.8269
  -4.200  -0.0634   0.02515   0.02059  -0.0843  0.7298  0.0375  -1.6340   0.0000   0.0000   0.0000  -1.0957
  -4.100  -0.0530   0.02488   0.02022  -0.0840  0.7271  0.0377  -1.5893   0.0000   0.0000   0.0000  -1.3560
  -3.100   0.0404   0.01157   0.00526  -0.0802  0.6882  0.0227  -1.7036   0.0000   0.0000   0.0000   2.2555
  -3.000   0.0528   0.01197   0.00571  -0.0802  0.6871  0.0210  -1.6070   0.0000   0.0000   0.0000   1.7846
  -2.900   0.0618   0.01060   0.00419  -0.0794  0.6859  0.0178  -1.6843   0.0000   0.0000   0.0000   1.5472
  -2.800   0.0721   0.01009   0.00359  -0.0790  0.6846  0.0166  -1.6730   0.0000   0.0000   0.0000   1.3563
  -2.700   0.0827   0.00973   0.00315  -0.0787  0.6830  0.0156  -1.6470   0.0000   0.0000   0.0000   1.2106
  -2.600   0.0935   0.00946   0.00281  -0.0785  0.6812  0.0148  -1.6117   0.0000   0.0000   0.0000   1.0968
  -2.500   0.1045   0.00927   0.00254  -0.0783  0.6792  0.0142  -1.5685   0.0000   0.0000   0.0000   1.0058
  -2.400   0.1155   0.00912   0.00234  -0.0781  0.6770  0.0137  -1.5171   0.0000   0.0000   0.0000   0.9319
  -2.300   0.1266   0.00902   0.00217  -0.0780  0.6746  0.0133  -1.4572   0.0000   0.0000   0.0000   0.8711
  -2.200   0.1376   0.00893   0.00204  -0.0779  0.6722  0.0130  -1.3924   0.0000   0.0000   0.0000   0.8202
  -2.100   0.1487   0.00886   0.00192  -0.0779  0.6697  0.0128  -1.3250   0.0000   0.0000   0.0000   0.7769
  -2.000   0.1598   0.00881   0.00182  -0.0778  0.6671  0.0127  -1.2567   0.0000   0.0000   0.0000   0.7397
  -1.900   0.1708   0.00877   0.00174  -0.0777  0.6643  0.0126  -1.1882   0.0000   0.0000   0.0000   0.7074
  -1.800   0.1818   0.00874   0.00166  -0.0776  0.6614  0.0126  -1.1198   0.0000   0.0000   0.0000   0.6790
  -1.700   0.1928   0.00872   0.00158  -0.0775  0.6583  0.0126  -1.0517   0.0000   0.0000   0.0000   0.6540
  -1.600   0.2038   0.00870   0.00152  -0.0775  0.6549  0.0127  -0.9840   0.0000   0.0000   0.0000   0.6316
  -1.500   0.2148   0.00870   0.00147  -0.0774  0.6511  0.0130  -0.9165   0.0000   0.0000   0.0000   0.6116
  -1.400   0.2259   0.00869   0.00143  -0.0774  0.6471  0.0134  -0.8491   0.0000   0.0000   0.0000   0.5935
  -1.300   0.2370   0.00870   0.00141  -0.0773  0.6431  0.0142  -0.7816   0.0000   0.0000   0.0000   0.5771
  -1.200   0.2482   0.00869   0.00139  -0.0773  0.6402  0.0154  -0.7154   0.0000   0.0000   0.0000   0.5621
  -1.100   0.2595   0.00865   0.00138  -0.0773  0.6395  0.0170  -0.6530   0.0000   0.0000   0.0000   0.5484
  -1.000   0.2707   0.00862   0.00139  -0.0773  0.6387  0.0185  -0.5961   0.0000   0.0000   0.0000   0.5359
  -0.900   0.2819   0.00858   0.00139  -0.0773  0.6377  0.0201  -0.5914   0.0000   0.0000   0.0000   0.5244
  -0.800   0.2921   0.00827   0.00134  -0.0773  0.6365  0.0851  -0.5982   0.0000   0.0000   0.0000   0.5145
  -0.700   0.3025   0.00805   0.00133  -0.0773  0.6351  0.1381  -0.6052   0.0000   0.0000   0.0000   0.5052
  -0.600   0.3130   0.00786   0.00133  -0.0773  0.6335  0.1888  -0.6123   0.0000   0.0000   0.0000   0.4965
  -0.500   0.3234   0.00768   0.00133  -0.0772  0.6318  0.2440  -0.6193   0.0000   0.0000   0.0000   0.4884
  -0.300   0.3350   0.00623   0.00152  -0.0757  0.6282  0.7200  -0.6291   0.0000   0.0000   0.0000   0.4754
  -0.200   0.3409   0.00592   0.00158  -0.0744  0.6262  0.8303  -0.6341   0.0000   0.0000   0.0000   0.4674
  -0.100   0.3508   0.00576   0.00163  -0.0737  0.6242  0.9194  -0.6412   0.0000   0.0000   0.0000   0.4593
   0.000   0.3718   0.00575   0.00164  -0.0757  0.6220  0.9581  -0.6536   0.0000   0.0000   0.0000   0.4527
   0.100   0.3901   0.00577   0.00163  -0.0773  0.6197  0.9752  -0.6647   0.0000   0.0000   0.0000   0.4469
   0.200   0.4070   0.00579   0.00162  -0.0785  0.6174  0.9856  -0.6750   0.0000   0.0000   0.0000   0.4417
   0.300   0.4266   0.00581   0.00160  -0.0804  0.6149  0.9907  -0.6868   0.0000   0.0000   0.0000   0.4371
   0.400   0.4451   0.00583   0.00159  -0.0820  0.6122  0.9957  -0.6979   0.0000   0.0000   0.0000   0.4329
   0.500   0.4646   0.00585   0.00157  -0.0839  0.6093  1.0000  -0.7096   0.0000   0.0000   0.0000   0.4291
   0.600   0.4746   0.00589   0.00158  -0.0837  0.6062  1.0000  -0.7165   0.0000   0.0000   0.0000   0.4247
   0.700   0.4847   0.00594   0.00159  -0.0835  0.6028  1.0000  -0.7234   0.0000   0.0000   0.0000   0.4206
   0.800   0.4948   0.00599   0.00161  -0.0833  0.5992  1.0000  -0.7302   0.0000   0.0000   0.0000   0.4166
   0.900   0.5051   0.00605   0.00164  -0.0831  0.5954  1.0000  -0.7371   0.0000   0.0000   0.0000   0.4128
   1.000   0.5155   0.00611   0.00168  -0.0830  0.5918  1.0000  -0.7440   0.0000   0.0000   0.0000   0.4091
   1.100   0.5259   0.00612   0.00169  -0.0829  0.5913  1.0000  -0.7512   0.0000   0.0000   0.0000   0.4056
   1.200   0.5362   0.00613   0.00169  -0.0827  0.5906  1.0000  -0.7583   0.0000   0.0000   0.0000   0.4022
   1.300   0.5466   0.00613   0.00170  -0.0826  0.5898  1.0000  -0.7655   0.0000   0.0000   0.0000   0.3989
   1.400   0.5570   0.00614   0.00170  -0.0824  0.5889  1.0000  -0.7729   0.0000   0.0000   0.0000   0.3957
   1.500   0.5674   0.00615   0.00171  -0.0823  0.5877  1.0000  -0.7810   0.0000   0.0000   0.0000   0.3926
   1.600   0.5778   0.00616   0.00172  -0.0821  0.5864  1.0000  -0.7892   0.0000   0.0000   0.0000   0.3897
   1.700   0.5883   0.00617   0.00173  -0.0820  0.5849  1.0000  -0.7974   0.0000   0.0000   0.0000   0.3868
   1.800   0.5987   0.00619   0.00174  -0.0818  0.5832  1.0000  -0.8055   0.0000   0.0000   0.0000   0.3841
   1.900   0.6091   0.00620   0.00175  -0.0817  0.5814  1.0000  -0.8143   0.0000   0.0000   0.0000   0.3814
   2.000   0.6195   0.00622   0.00177  -0.0815  0.5794  1.0000  -0.8236   0.0000   0.0000   0.0000   0.3789
   2.100   0.6299   0.00624   0.00178  -0.0814  0.5772  1.0000  -0.8328   0.0000   0.0000   0.0000   0.3764
   2.200   0.6402   0.00627   0.00179  -0.0812  0.5747  1.0000  -0.8426   0.0000   0.0000   0.0000   0.3739
   2.300   0.6505   0.00629   0.00181  -0.0810  0.5720  1.0000  -0.8530   0.0000   0.0000   0.0000   0.3716
   2.400   0.6608   0.00632   0.00182  -0.0809  0.5692  1.0000  -0.8648   0.0000   0.0000   0.0000   0.3693
   2.500   0.6710   0.00636   0.00184  -0.0807  0.5662  1.0000  -0.8767   0.0000   0.0000   0.0000   0.3671
   2.600   0.6812   0.00640   0.00185  -0.0805  0.5627  1.0000  -0.8886   0.0000   0.0000   0.0000   0.3649
   2.700   0.6912   0.00645   0.00187  -0.0803  0.5587  1.0000  -0.9015   0.0000   0.0000   0.0000   0.3628
   2.800   0.7013   0.00651   0.00190  -0.0801  0.5542  1.0000  -0.9151   0.0000   0.0000   0.0000   0.3608
   2.900   0.7115   0.00658   0.00194  -0.0799  0.5494  1.0000  -0.9304   0.0000   0.0000   0.0000   0.3588
   3.000   0.7203   0.00652   0.00181  -0.0793  0.5222  1.0000  -0.9461   0.0000   0.0000   0.0000   0.3565
   3.100   0.7276   0.00670   0.00179  -0.0786  0.4913  1.0000  -0.9602   0.0000   0.0000   0.0000   0.3543
   3.200   0.7379   0.00674   0.00180  -0.0785  0.4832  1.0000  -0.9766   0.0000   0.0000   0.0000   0.3525
   3.300   0.7477   0.00681   0.00182  -0.0782  0.4727  1.0000  -0.9954   0.0000   0.0000   0.0000   0.3507
   3.400   0.7570   0.00693   0.00185  -0.0779  0.4599  1.0000  -1.0136   0.0000   0.0000   0.0000   0.3489
   3.500   0.7663   0.00704   0.00189  -0.0776  0.4462  1.0000  -1.0320   0.0000   0.0000   0.0000   0.3472
   3.600   0.7766   0.00710   0.00192  -0.0775  0.4399  1.0000  -1.0514   0.0000   0.0000   0.0000   0.3456
   3.700   0.7865   0.00717   0.00196  -0.0773  0.4297  1.0000  -1.0706   0.0000   0.0000   0.0000   0.3440
   3.800   0.7957   0.00731   0.00201  -0.0769  0.4148  1.0000  -1.0890   0.0000   0.0000   0.0000   0.3423
   3.900   0.8047   0.00747   0.00207  -0.0766  0.3989  1.0000  -1.1107   0.0000   0.0000   0.0000   0.3407
   4.000   0.8147   0.00755   0.00212  -0.0764  0.3894  1.0000  -1.1353   0.0000   0.0000   0.0000   0.3393
   4.100   0.8235   0.00773   0.00220  -0.0761  0.3699  1.0000  -1.1623   0.0000   0.0000   0.0000   0.3377
   4.200   0.8320   0.00795   0.00230  -0.0757  0.3479  1.0000  -1.1889   0.0000   0.0000   0.0000   0.3362
   4.300   0.8397   0.00823   0.00242  -0.0752  0.3196  1.0000  -1.2146   0.0000   0.0000   0.0000   0.3347
   4.400   0.8478   0.00850   0.00255  -0.0747  0.2924  1.0000  -1.2406   0.0000   0.0000   0.0000   0.3332
   4.500   0.8551   0.00884   0.00273  -0.0742  0.2620  1.0000  -1.2657   0.0000   0.0000   0.0000   0.3317
   4.600   0.8627   0.00915   0.00288  -0.0737  0.2359  1.0000  -1.2913   0.0000   0.0000   0.0000   0.3303
   4.700   0.8709   0.00942   0.00304  -0.0733  0.2120  1.0000  -1.3177   0.0000   0.0000   0.0000   0.3289
   4.800   0.8780   0.00978   0.00323  -0.0727  0.1826  1.0000  -1.3425   0.0000   0.0000   0.0000   0.3275
   4.900   0.8849   0.01016   0.00343  -0.0721  0.1538  1.0000  -1.3671   0.0000   0.0000   0.0000   0.3261
   5.000   0.8923   0.01049   0.00363  -0.0716  0.1291  1.0000  -1.4145   0.0000   0.0000   0.0000   0.3248
   5.100   0.8999   0.01080   0.00381  -0.0711  0.1049  1.0000  -1.4681   0.0000   0.0000   0.0000   0.3234
   5.200   0.9071   0.01115   0.00401  -0.0706  0.0817  1.0000  -1.5421   0.0000   0.0000   0.0000   0.3221
   5.300   0.9110   0.01180   0.00439  -0.0695  0.0367  1.0000  -1.6006   0.0000   0.0000   0.0000   0.3205
   5.400   0.9170   0.01226   0.00469  -0.0688  0.0127  1.0000  -1.6679   0.0000   0.0000   0.0000   0.3191
   5.500   0.9267   0.01238   0.00477  -0.0685  0.0117  1.0000  -1.7527   0.0000   0.0000   0.0000   0.3180
   5.600   0.9365   0.01248   0.00484  -0.0683  0.0105  1.0000  -1.8358   0.0000   0.0000   0.0000   0.3169
   5.700   0.9461   0.01261   0.00495  -0.0681  0.0091  1.0000  -1.9129   0.0000   0.0000   0.0000   0.3158
   5.800   0.9557   0.01273   0.00508  -0.0679  0.0083  1.0000  -1.9884   0.0000   0.0000   0.0000   0.3147
   5.900   0.9653   0.01286   0.00523  -0.0676  0.0078  1.0000  -2.0659   0.0000   0.0000   0.0000   0.3136
   6.000   0.9749   0.01298   0.00537  -0.0674  0.0076  1.0000  -2.1457   0.0000   0.0000   0.0000   0.3126
   6.100   0.9845   0.01310   0.00552  -0.0671  0.0075  1.0000  -2.2273   0.0000   0.0000   0.0000   0.3115
   6.200   0.9940   0.01323   0.00567  -0.0669  0.0074  1.0000  -2.3102   0.0000   0.0000   0.0000   0.3105
   6.300   1.0035   0.01335   0.00582  -0.0666  0.0073  1.0000  -2.3975   0.0000   0.0000   0.0000   0.3095
   6.400   1.0129   0.01349   0.00599  -0.0664  0.0073  1.0000  -2.4851   0.0000   0.0000   0.0000   0.3085
   6.500   1.0222   0.01363   0.00616  -0.0661  0.0074  1.0000  -2.5723   0.0000   0.0000   0.0000   0.3075
   6.600   1.0315   0.01377   0.00634  -0.0658  0.0074  1.0000  -2.6594   0.0000   0.0000   0.0000   0.3065
   6.700   1.0406   0.01393   0.00652  -0.0654  0.0075  1.0000  -2.7460   0.0000   0.0000   0.0000   0.3055
   6.800   1.0496   0.01409   0.00672  -0.0651  0.0075  1.0000  -2.8322   0.0000   0.0000   0.0000   0.3045
   6.900   1.0584   0.01427   0.00693  -0.0647  0.0076  1.0000  -2.9176   0.0000   0.0000   0.0000   0.3036
   7.000   1.0681   0.01434   0.00723  -0.0646  0.0080  1.0000  -3.0656   0.0000   0.0000   0.0000   0.3028
   7.100   1.0770   0.01451   0.00744  -0.0643  0.0081  1.0000  -3.1650   0.0000   0.0000   0.0000   0.3018
   7.200   1.0856   0.01469   0.00767  -0.0639  0.0082  1.0000  -3.2559   0.0000   0.0000   0.0000   0.3009
   7.300   1.0940   0.01490   0.00792  -0.0634  0.0083  1.0000  -3.3421   0.0000   0.0000   0.0000   0.2999
   7.400   1.1022   0.01512   0.00819  -0.0630  0.0084  1.0000  -3.4249   0.0000   0.0000   0.0000   0.2989
   7.500   1.1101   0.01535   0.00848  -0.0624  0.0085  1.0000  -3.5038   0.0000   0.0000   0.0000   0.2979
   7.600   1.1178   0.01561   0.00879  -0.0619  0.0086  1.0000  -3.5784   0.0000   0.0000   0.0000   0.2969
   7.700   1.1250   0.01589   0.00913  -0.0612  0.0087  1.0000  -3.6477   0.0000   0.0000   0.0000   0.2958
   7.800   1.1318   0.01620   0.00951  -0.0605  0.0089  1.0000  -3.7105   0.0000   0.0000   0.0000   0.2947
   7.900   1.1380   0.01655   0.00992  -0.0596  0.0091  1.0000  -3.7673   0.0000   0.0000   0.0000   0.2935
   8.000   1.1436   0.01694   0.01038  -0.0587  0.0093  1.0000  -3.8187   0.0000   0.0000   0.0000   0.2923
   8.100   1.1485   0.01736   0.01087  -0.0577  0.0095  1.0000  -3.8651   0.0000   0.0000   0.0000   0.2911
   8.200   1.1527   0.01782   0.01140  -0.0565  0.0097  1.0000  -3.9063   0.0000   0.0000   0.0000   0.2898
   8.300   1.1561   0.01832   0.01197  -0.0553  0.0100  1.0000  -3.9425   0.0000   0.0000   0.0000   0.2884
   8.400   1.1584   0.01884   0.01256  -0.0538  0.0103  1.0000  -3.9729   0.0000   0.0000   0.0000   0.2869
   8.500   1.1595   0.01938   0.01318  -0.0521  0.0105  1.0000  -3.9972   0.0000   0.0000   0.0000   0.2853
   8.600   1.1600   0.01996   0.01383  -0.0504  0.0108  1.0000  -4.0167   0.0000   0.0000   0.0000   0.2837
   8.700   1.1603   0.02061   0.01455  -0.0487  0.0111  1.0000  -4.0321   0.0000   0.0000   0.0000   0.2821
   8.800   1.1603   0.02133   0.01534  -0.0470  0.0114  1.0000  -4.0425   0.0000   0.0000   0.0000   0.2805
   8.900   1.1604   0.02216   0.01624  -0.0454  0.0118  1.0000  -4.0461   0.0000   0.0000   0.0000   0.2789
   9.000   1.1604   0.02319   0.01735  -0.0438  0.0122  1.0000  -4.0362   0.0000   0.0000   0.0000   0.2774
   9.100   1.1636   0.02485   0.01908  -0.0424  0.0142  1.0000  -3.9627   0.0000   0.0000   0.0000   0.2760
   9.200   1.1711   0.02466   0.01889  -0.0418  0.0149  1.0000  -4.0592   0.0000   0.0000   0.0000   0.2751
   9.400   1.2370   0.03333   0.02849  -0.0446  0.0353  1.0000  -3.6861   0.0000   0.0000   0.0000   0.2752
   9.500   1.2429   0.03404   0.02924  -0.0440  0.0344  1.0000  -3.7461   0.0000   0.0000   0.0000   0.2744
   9.600   1.2485   0.03476   0.02999  -0.0434  0.0336  1.0000  -3.8076   0.0000   0.0000   0.0000   0.2736
   9.700   1.2540   0.03549   0.03075  -0.0428  0.0328  1.0000  -3.8705   0.0000   0.0000   0.0000   0.2728
   9.800   1.2592   0.03624   0.03153  -0.0422  0.0321  1.0000  -3.9340   0.0000   0.0000   0.0000   0.2721
   9.900   1.2628   0.03699   0.03233  -0.0414  0.0315  1.0000  -3.9909   0.0000   0.0000   0.0000   0.2712
  10.000   1.2661   0.03779   0.03316  -0.0406  0.0309  1.0000  -4.0479   0.0000   0.0000   0.0000   0.2704
  10.100   1.2700   0.03869   0.03409  -0.0400  0.0302  1.0000  -4.1070   0.0000   0.0000   0.0000   0.2697
  10.200   1.2740   0.03984   0.03527  -0.0394  0.0294  1.0000  -4.1640   0.0000   0.0000   0.0000   0.2690
  10.300   1.2741   0.04289   0.03838  -0.0390  0.0280  1.0000  -4.1677   0.0000   0.0000   0.0000   0.2686
  10.400   1.2280   0.05304   0.04908  -0.0352  0.0263  1.0000  -3.7910   0.0000   0.0000   0.0000   0.2666
  10.500   1.2261   0.05408   0.05020  -0.0339  0.0263  1.0000  -3.8068   0.0000   0.0000   0.0000   0.2655
  10.600   1.2234   0.05505   0.05124  -0.0326  0.0263  1.0000  -3.8207   0.0000   0.0000   0.0000   0.2644
  10.700   1.2193   0.05592   0.05218  -0.0311  0.0263  1.0000  -3.8315   0.0000   0.0000   0.0000   0.2631
  10.800   1.2145   0.05676   0.05307  -0.0295  0.0263  1.0000  -3.8405   0.0000   0.0000   0.0000   0.2617
  10.900   1.2094   0.05759   0.05397  -0.0280  0.0263  1.0000  -3.8487   0.0000   0.0000   0.0000   0.2605
  11.000   1.2041   0.05842   0.05486  -0.0266  0.0262  1.0000  -3.8564   0.0000   0.0000   0.0000   0.2593
  11.100   1.1987   0.05927   0.05577  -0.0253  0.0262  1.0000  -3.8639   0.0000   0.0000   0.0000   0.2582
  11.200   1.1933   0.06012   0.05668  -0.0242  0.0262  1.0000  -3.8724   0.0000   0.0000   0.0000   0.2572
  11.300   1.1881   0.06096   0.05757  -0.0232  0.0261  1.0000  -3.8822   0.0000   0.0000   0.0000   0.2563
  11.400   1.1829   0.06175   0.05842  -0.0223  0.0261  1.0000  -3.8935   0.0000   0.0000   0.0000   0.2554
  11.500   1.1788   0.06238   0.05909  -0.0215  0.0260  1.0000  -3.9142   0.0000   0.0000   0.0000   0.2547
  11.600   1.1785   0.06232   0.05907  -0.0209  0.0258  1.0000  -3.9672   0.0000   0.0000   0.0000   0.2540
  11.700   1.2107   0.05757   0.05421  -0.0207  0.0238  1.0000  -4.2734   0.0000   0.0000   0.0000   0.2531
  11.800   1.2102   0.05819   0.05486  -0.0202  0.0232  1.0000  -4.3151   0.0000   0.0000   0.0000   0.2526
  11.900   1.2084   0.05905   0.05577  -0.0197  0.0228  1.0000  -4.3458   0.0000   0.0000   0.0000   0.2521
  12.000   1.2050   0.06012   0.05689  -0.0194  0.0224  1.0000  -4.3656   0.0000   0.0000   0.0000   0.2516
  12.100   1.2011   0.06130   0.05811  -0.0191  0.0221  1.0000  -4.3810   0.0000   0.0000   0.0000   0.2512
  12.200   1.1969   0.06255   0.05942  -0.0188  0.0217  1.0000  -4.3940   0.0000   0.0000   0.0000   0.2509
  12.300   1.1915   0.06395   0.06087  -0.0187  0.0215  1.0000  -4.3991   0.0000   0.0000   0.0000   0.2507
  12.400   1.1860   0.06538   0.06236  -0.0186  0.0213  1.0000  -4.4025   0.0000   0.0000   0.0000   0.2506
  12.500   1.1799   0.06686   0.06389  -0.0186  0.0211  1.0000  -4.4022   0.0000   0.0000   0.0000   0.2505
  12.600   1.1729   0.06850   0.06559  -0.0187  0.0210  1.0000  -4.3951   0.0000   0.0000   0.0000   0.2505
  12.700   1.1665   0.07019   0.06733  -0.0189  0.0208  1.0000  -4.3901   0.0000   0.0000   0.0000   0.2506
  12.800   1.1600   0.07197   0.06917  -0.0192  0.0207  1.0000  -4.3829   0.0000   0.0000   0.0000   0.2508
  12.900   1.1523   0.07394   0.07120  -0.0197  0.0206  1.0000  -4.3675   0.0000   0.0000   0.0000   0.2512
  13.000   1.1454   0.07593   0.07324  -0.0203  0.0205  1.0000  -4.3547   0.0000   0.0000   0.0000   0.2516
  13.100   1.1382   0.07801   0.07538  -0.0210  0.0204  1.0000  -4.3389   0.0000   0.0000   0.0000   0.2521
  13.200   1.1296   0.08032   0.07775  -0.0218  0.0204  1.0000  -4.3120   0.0000   0.0000   0.0000   0.2529
  13.300   1.1218   0.08263   0.08011  -0.0228  0.0204  1.0000  -4.2885   0.0000   0.0000   0.0000   0.2536
  13.400   1.1138   0.08503   0.08257  -0.0238  0.0204  1.0000  -4.2616   0.0000   0.0000   0.0000   0.2545
  13.500   1.1040   0.08775   0.08535  -0.0251  0.0204  1.0000  -4.2195   0.0000   0.0000   0.0000   0.2558
  13.600   1.0952   0.09043   0.08809  -0.0265  0.0205  1.0000  -4.1820   0.0000   0.0000   0.0000   0.2570
  13.700   1.0857   0.09331   0.09103  -0.0280  0.0206  1.0000  -4.1364   0.0000   0.0000   0.0000   0.2585
  13.800   1.0747   0.09655   0.09433  -0.0299  0.0208  1.0000  -4.0763   0.0000   0.0000   0.0000   0.2604
  13.900   1.0650   0.09974   0.09757  -0.0318  0.0209  1.0000  -4.0210   0.0000   0.0000   0.0000   0.2623
  14.000   1.0523   0.10360   0.10149  -0.0342  0.0213  1.0000  -3.9384   0.0000   0.0000   0.0000   0.2649
  14.100   1.0407   0.10746   0.10541  -0.0367  0.0216  1.0000  -3.8580   0.0000   0.0000   0.0000   0.2675
  14.200   1.0254   0.11232   0.11033  -0.0400  0.0222  1.0000  -3.7391   0.0000   0.0000   0.0000   0.2712
  14.300   1.0077   0.11805   0.11612  -0.0440  0.0231  1.0000  -3.5867   0.0000   0.0000   0.0000   0.2758
  14.400   0.9836   0.12545   0.12357  -0.0492  0.0243  1.0000  -3.3581   0.0000   0.0000   0.0000   0.2823
  14.500   0.9626   0.13297   0.13112  -0.0544  0.0250  1.0000  -3.1323   0.0000   0.0000   0.0000   0.2889
  14.600   0.9511   0.13890   0.13708  -0.0581  0.0252  1.0000  -2.9782   0.0000   0.0000   0.0000   0.2936
  14.700   0.9474   0.14334   0.14154  -0.0607  0.0249  1.0000  -2.8910   0.0000   0.0000   0.0000   0.2966
  14.800   0.9464   0.14690   0.14510  -0.0626  0.0245  1.0000  -2.8351   0.0000   0.0000   0.0000   0.2987
  14.900   0.9457   0.14999   0.14818  -0.0642  0.0241  1.0000  -2.7922   0.0000   0.0000   0.0000   0.3004
  15.000   0.9449   0.15297   0.15115  -0.0657  0.0236  1.0000  -2.7507   0.0000   0.0000   0.0000   0.3021
  15.100   0.9439   0.15589   0.15407  -0.0673  0.0232  1.0000  -2.7097   0.0000   0.0000   0.0000   0.3037
  15.200   0.9429   0.15877   0.15695  -0.0688  0.0228  1.0000  -2.6696   0.0000   0.0000   0.0000   0.3053
  15.300   0.9419   0.16161   0.15978  -0.0702  0.0224  1.0000  -2.6308   0.0000   0.0000   0.0000   0.3069
  15.400   0.9411   0.16439   0.16256  -0.0717  0.0220  1.0000  -2.5938   0.0000   0.0000   0.0000   0.3084
  15.500   0.9403   0.16712   0.16528  -0.0730  0.0216  1.0000  -2.5591   0.0000   0.0000   0.0000   0.3099
  15.600   0.9397   0.16979   0.16795  -0.0744  0.0212  1.0000  -2.5271   0.0000   0.0000   0.0000   0.3113
  15.700   0.9393   0.17240   0.17056  -0.0757  0.0208  1.0000  -2.4977   0.0000   0.0000   0.0000   0.3126
  15.800   0.9391   0.17495   0.17311  -0.0770  0.0205  1.0000  -2.4711   0.0000   0.0000   0.0000   0.3139
  15.900   0.9389   0.17746   0.17561  -0.0782  0.0201  1.0000  -2.4467   0.0000   0.0000   0.0000   0.3151
  16.000   0.9391   0.17986   0.17801  -0.0794  0.0197  1.0000  -2.4281   0.0000   0.0000   0.0000   0.3163
  16.100   0.9395   0.18212   0.18026  -0.0805  0.0193  1.0000  -2.4174   0.0000   0.0000   0.0000   0.3173
  16.200   0.9402   0.18429   0.18243  -0.0815  0.0189  1.0000  -2.4111   0.0000   0.0000   0.0000   0.3182
  16.300   0.9411   0.18637   0.18452  -0.0825  0.0185  1.0000  -2.4091   0.0000   0.0000   0.0000   0.3191
  16.400   0.9421   0.18839   0.18653  -0.0835  0.0181  1.0000  -2.4110   0.0000   0.0000   0.0000   0.3199
  16.500   0.9432   0.19034   0.18848  -0.0844  0.0177  1.0000  -2.4166   0.0000   0.0000   0.0000   0.3206
  16.600   0.9445   0.19222   0.19036  -0.0853  0.0174  1.0000  -2.4263   0.0000   0.0000   0.0000   0.3213
  16.700   0.9460   0.19401   0.19216  -0.0861  0.0171  1.0000  -2.4403   0.0000   0.0000   0.0000   0.3219
  16.800   0.9476   0.19573   0.19388  -0.0869  0.0168  1.0000  -2.4586   0.0000   0.0000   0.0000   0.3224
  16.900   0.9494   0.19738   0.19553  -0.0877  0.0165  1.0000  -2.4813   0.0000   0.0000   0.0000   0.3229
  17.000   0.9513   0.19894   0.19709  -0.0884  0.0162  1.0000  -2.5085   0.0000   0.0000   0.0000   0.3232
  17.100   0.9534   0.20043   0.19858  -0.0890  0.0159  1.0000  -2.5403   0.0000   0.0000   0.0000   0.3236
  17.200   0.9556   0.20184   0.20000  -0.0897  0.0157  1.0000  -2.5766   0.0000   0.0000   0.0000   0.3238
  17.300   0.9575   0.20337   0.20153  -0.0903  0.0155  1.0000  -2.6077   0.0000   0.0000   0.0000   0.3241
  17.400   0.9589   0.20515   0.20331  -0.0911  0.0152  1.0000  -2.6271   0.0000   0.0000   0.0000   0.3246
  17.500   0.9602   0.20697   0.20513  -0.0919  0.0150  1.0000  -2.6456   0.0000   0.0000   0.0000   0.3252
  17.600   0.9612   0.20890   0.20706  -0.0927  0.0147  1.0000  -2.6592   0.0000   0.0000   0.0000   0.3257
  17.700   0.9612   0.21119   0.20935  -0.0936  0.0144  1.0000  -2.6563   0.0000   0.0000   0.0000   0.3265
  24.400   0.8632   0.31624   0.31485  -0.1309  0.0057  1.0000  -1.5484   0.0000   0.0000   0.0000   0.3738
  24.500   0.8627   0.31661   0.31522  -0.1312  0.0056  1.0000  -1.5668   0.0000   0.0000   0.0000   0.3740
  24.600   0.8621   0.31696   0.31558  -0.1315  0.0055  1.0000  -1.5873   0.0000   0.0000   0.0000   0.3743
  24.700   0.8617   0.31728   0.31591  -0.1318  0.0054  1.0000  -1.6098   0.0000   0.0000   0.0000   0.3745
  24.800   0.8612   0.31759   0.31623  -0.1320  0.0053  1.0000  -1.6332   0.0000   0.0000   0.0000   0.3746
  24.900   0.8604   0.31799   0.31663  -0.1323  0.0052  1.0000  -1.6474   0.0000   0.0000   0.0000   0.3749
  25.000   0.8593   0.31840   0.31704  -0.1326  0.0051  1.0000  -1.6573   0.0000   0.0000   0.0000   0.3753
  25.300   0.8447   0.32196   0.32060  -0.1331  0.0045  1.0000  -1.3213   0.0000   0.0000   0.0000   0.3787
  25.400   0.8441   0.32268   0.32132  -0.1335  0.0045  1.0000  -1.3110   0.0000   0.0000   0.0000   0.3791
  25.500   0.8435   0.32341   0.32206  -0.1340  0.0045  1.0000  -1.3106   0.0000   0.0000   0.0000   0.3796
  25.600   0.8429   0.32416   0.32282  -0.1344  0.0044  1.0000  -1.3105   0.0000   0.0000   0.0000   0.3801
  25.700   0.8424   0.32494   0.32360  -0.1349  0.0044  1.0000  -1.3079   0.0000   0.0000   0.0000   0.3806
  25.800   0.8419   0.32575   0.32442  -0.1353  0.0044  1.0000  -1.3016   0.0000   0.0000   0.0000   0.3811
  25.900   0.8417   0.32660   0.32527  -0.1358  0.0043  1.0000  -1.2926   0.0000   0.0000   0.0000   0.3816
  26.000   0.8417   0.32745   0.32612  -0.1364  0.0042  1.0000  -1.2847   0.0000   0.0000   0.0000   0.3820
  26.100   0.8421   0.32828   0.32695  -0.1369  0.0041  1.0000  -1.2845   0.0000   0.0000   0.0000   0.3824
  26.200   0.8429   0.32906   0.32773  -0.1374  0.0039  1.0000  -1.2999   0.0000   0.0000   0.0000   0.3827
  26.300   0.8436   0.32994   0.32862  -0.1379  0.0037  1.0000  -1.3103   0.0000   0.0000   0.0000   0.3830
  26.400   0.8439   0.33089   0.32958  -0.1384  0.0035  1.0000  -1.3071   0.0000   0.0000   0.0000   0.3833
  26.500   0.8437   0.33181   0.33050  -0.1388  0.0033  1.0000  -1.2956   0.0000   0.0000   0.0000   0.3837
  26.600   0.8432   0.33269   0.33138  -0.1392  0.0032  1.0000  -1.2811   0.0000   0.0000   0.0000   0.3841
  26.700   0.8427   0.33353   0.33223  -0.1395  0.0032  1.0000  -1.2654   0.0000   0.0000   0.0000   0.3845
  26.800   0.8420   0.33436   0.33306  -0.1398  0.0032  1.0000  -1.2490   0.0000   0.0000   0.0000   0.3849
  26.900   0.8412   0.33518   0.33388  -0.1402  0.0033  1.0000  -1.2321   0.0000   0.0000   0.0000   0.3853
  27.000   0.8404   0.33597   0.33468  -0.1405  0.0034  1.0000  -1.2145   0.0000   0.0000   0.0000   0.3857
  27.100   0.8394   0.33676   0.33546  -0.1408  0.0035  1.0000  -1.1960   0.0000   0.0000   0.0000   0.3861
  27.200   0.8383   0.33753   0.33624  -0.1411  0.0036  1.0000  -1.1761   0.0000   0.0000   0.0000   0.3865
  27.300   0.8372   0.33830   0.33702  -0.1414  0.0037  1.0000  -1.1559   0.0000   0.0000   0.0000   0.3870
  27.400   0.8363   0.33909   0.33780  -0.1417  0.0038  1.0000  -1.1375   0.0000   0.0000   0.0000   0.3874


