xflr5 v6.61

 Calculated polar for: E193  (10.22%)

 1 1 Reynolds number fixed          Mach number fixed         

 xtrf =   1.000 (top)        1.000 (bottom)
 Mach =   0.000     Re =     0.563 e 6     Ncrit =   9.000

  alpha     CL        CD       CDp       Cm    Top Xtr Bot Xtr   Cpmin    Chinge    XCp    
 ------- -------- --------- --------- -------- ------- ------- -------- --------- ---------
 -10.000  -0.3446   0.10734   0.10507  -0.0298  1.0000  0.0141  -1.6032   0.0000   0.0000   0.0000   0.1547
  -9.900  -0.3430   0.10607   0.10380  -0.0303  1.0000  0.0143  -1.6073   0.0000   0.0000   0.0000   0.1529
  -9.800  -0.3414   0.10478   0.10253  -0.0308  1.0000  0.0145  -1.6119   0.0000   0.0000   0.0000   0.1512
  -9.700  -0.3398   0.10350   0.10125  -0.0313  1.0000  0.0148  -1.6171   0.0000   0.0000   0.0000   0.1494
  -9.600  -0.3384   0.10222   0.09998  -0.0317  1.0000  0.0150  -1.6230   0.0000   0.0000   0.0000   0.1477
  -9.500  -0.3370   0.10093   0.09870  -0.0322  1.0000  0.0152  -1.6295   0.0000   0.0000   0.0000   0.1459
  -9.400  -0.3356   0.09965   0.09743  -0.0327  1.0000  0.0154  -1.6367   0.0000   0.0000   0.0000   0.1442
  -9.300  -0.3344   0.09837   0.09615  -0.0332  1.0000  0.0156  -1.6447   0.0000   0.0000   0.0000   0.1425
  -9.200  -0.3332   0.09709   0.09489  -0.0337  1.0000  0.0159  -1.6535   0.0000   0.0000   0.0000   0.1408
  -9.100  -0.3322   0.09582   0.09362  -0.0341  1.0000  0.0161  -1.6631   0.0000   0.0000   0.0000   0.1392
  -9.000  -0.3313   0.09456   0.09237  -0.0346  1.0000  0.0164  -1.6737   0.0000   0.0000   0.0000   0.1375
  -8.900  -0.3304   0.09330   0.09113  -0.0351  1.0000  0.0166  -1.6851   0.0000   0.0000   0.0000   0.1360
  -8.800  -0.3296   0.09205   0.08988  -0.0355  1.0000  0.0169  -1.6973   0.0000   0.0000   0.0000   0.1344
  -8.700  -0.3288   0.09078   0.08863  -0.0360  1.0000  0.0172  -1.7102   0.0000   0.0000   0.0000   0.1327
  -8.600  -0.3280   0.08953   0.08739  -0.0365  1.0000  0.0174  -1.7236   0.0000   0.0000   0.0000   0.1310
  -8.500  -0.3272   0.08830   0.08617  -0.0370  1.0000  0.0177  -1.7370   0.0000   0.0000   0.0000   0.1294
  -8.400  -0.3263   0.08712   0.08500  -0.0374  1.0000  0.0180  -1.7491   0.0000   0.0000   0.0000   0.1278
  -8.300  -0.3254   0.08598   0.08388  -0.0379  1.0000  0.0183  -1.7603   0.0000   0.0000   0.0000   0.1263
  -8.200  -0.3237   0.08500   0.08291  -0.0382  1.0000  0.0187  -1.7617   0.0000   0.0000   0.0000   0.1248
  -8.100  -0.3216   0.08415   0.08207  -0.0385  1.0000  0.0190  -1.7569   0.0000   0.0000   0.0000   0.1233
  -8.000  -0.3196   0.08337   0.08130  -0.0387  1.0000  0.0193  -1.7493   0.0000   0.0000   0.0000   0.1219
  -7.900  -0.3185   0.08254   0.08049  -0.0389  1.0000  0.0196  -1.7457   0.0000   0.0000   0.0000   0.1210
  -7.800  -0.3185   0.08163   0.07960  -0.0390  1.0000  0.0197  -1.7479   0.0000   0.0000   0.0000   0.1208
  -7.700  -0.3196   0.08070   0.07869  -0.0390  1.0000  0.0198  -1.7544   0.0000   0.0000   0.0000   0.1215
  -7.600  -0.3218   0.07980   0.07781  -0.0387  1.0000  0.0198  -1.7642   0.0000   0.0000   0.0000   0.1232
  -7.500  -0.3146   0.07803   0.07605  -0.0414  0.9968  0.0199  -1.7685   0.0000   0.0000   0.0000   0.1120
  -7.400  -0.3067   0.07603   0.07406  -0.0445  0.9924  0.0200  -1.7774   0.0000   0.0000   0.0000   0.0983
  -7.300  -0.2977   0.07381   0.07183  -0.0484  0.9882  0.0200  -1.7906   0.0000   0.0000   0.0000   0.0810
  -7.200  -0.2887   0.07144   0.06945  -0.0524  0.9828  0.0201  -1.8079   0.0000   0.0000   0.0000   0.0618
  -7.100  -0.2782   0.06882   0.06683  -0.0571  0.9774  0.0201  -1.8294   0.0000   0.0000   0.0000   0.0381
  -7.000  -0.2661   0.06593   0.06391  -0.0623  0.9724  0.0202  -1.8560   0.0000   0.0000   0.0000   0.0089
  -6.900  -0.2564   0.06320   0.06115  -0.0666  0.9639  0.0202  -1.8866   0.0000   0.0000   0.0000  -0.0169
  -6.800  -0.2450   0.06020   0.05811  -0.0713  0.9549  0.0202  -1.9226   0.0000   0.0000   0.0000  -0.0481
  -6.700  -0.2341   0.05727   0.05511  -0.0754  0.9451  0.0202  -1.9615   0.0000   0.0000   0.0000  -0.0794
  -6.600  -0.2248   0.05457   0.05234  -0.0786  0.9321  0.0203  -1.9992   0.0000   0.0000   0.0000  -0.1073
  -6.500  -0.2170   0.05219   0.04985  -0.0810  0.9190  0.0203  -2.0323   0.0000   0.0000   0.0000  -0.1312
  -6.400  -0.2115   0.05022   0.04777  -0.0824  0.9037  0.0203  -2.0588   0.0000   0.0000   0.0000  -0.1475
  -6.300  -0.2069   0.04846   0.04589  -0.0833  0.8902  0.0203  -2.0803   0.0000   0.0000   0.0000  -0.1607
  -6.200  -0.2301   0.03847   0.03553  -0.0867  0.8746  0.0217  -2.5521   0.0000   0.0000   0.0000  -0.1347
  -6.100  -0.2274   0.03665   0.03358  -0.0869  0.8632  0.0224  -2.5483   0.0000   0.0000   0.0000  -0.1400
  -6.000  -0.2219   0.03561   0.03248  -0.0870  0.8543  0.0230  -2.4988   0.0000   0.0000   0.0000  -0.1498
  -5.900  -0.2154   0.03483   0.03164  -0.0870  0.8455  0.0236  -2.4377   0.0000   0.0000   0.0000  -0.1616
  -5.800  -0.2082   0.03434   0.03110  -0.0869  0.8367  0.0242  -2.3601   0.0000   0.0000   0.0000  -0.1752
  -5.700  -0.2009   0.03389   0.03058  -0.0868  0.8280  0.0249  -2.2847   0.0000   0.0000   0.0000  -0.1897
  -5.600  -0.1933   0.03335   0.02997  -0.0867  0.8199  0.0256  -2.2174   0.0000   0.0000   0.0000  -0.2063
  -5.500  -0.1854   0.03269   0.02926  -0.0867  0.8147  0.0265  -2.1576   0.0000   0.0000   0.0000  -0.2258
  -5.400  -0.1774   0.03196   0.02847  -0.0867  0.8087  0.0275  -2.1060   0.0000   0.0000   0.0000  -0.2471
  -5.300  -0.1692   0.03119   0.02762  -0.0867  0.8025  0.0287  -2.0613   0.0000   0.0000   0.0000  -0.2706
  -5.200  -0.1609   0.03042   0.02674  -0.0866  0.7962  0.0301  -2.0217   0.0000   0.0000   0.0000  -0.2968
  -5.100  -0.1521   0.02973   0.02594  -0.0864  0.7897  0.0317  -1.9842   0.0000   0.0000   0.0000  -0.3271
  -4.900  -0.1289   0.03012   0.02619  -0.0858  0.7775  0.0361  -1.8516   0.0000   0.0000   0.0000  -0.4258
  -4.800  -0.1146   0.03155   0.02755  -0.0854  0.7738  0.0374  -1.7484   0.0000   0.0000   0.0000  -0.5058
  -4.700  -0.1049   0.03116   0.02694  -0.0852  0.7698  0.0376  -1.7131   0.0000   0.0000   0.0000  -0.5742
  -4.600  -0.0957   0.03054   0.02622  -0.0851  0.7655  0.0377  -1.6838   0.0000   0.0000   0.0000  -0.6514
  -4.500  -0.1010   0.02342   0.01863  -0.0855  0.7622  0.0413  -1.8814   0.0000   0.0000   0.0000  -0.6088
  -4.400  -0.0925   0.02272   0.01791  -0.0855  0.7576  0.0431  -1.8151   0.0000   0.0000   0.0000  -0.6876
  -4.300  -0.0831   0.02238   0.01758  -0.0854  0.7529  0.0449  -1.7382   0.0000   0.0000   0.0000  -0.7926
  -4.200  -0.0736   0.02192   0.01708  -0.0853  0.7480  0.0463  -1.6811   0.0000   0.0000   0.0000  -0.9239
  -3.900  -0.0438   0.02048   0.01542  -0.0848  0.7337  0.0517  -1.5397   0.0000   0.0000   0.0000  -1.7080
  -3.800  -0.0332   0.02000   0.01488  -0.0846  0.7317  0.0536  -1.4983   0.0000   0.0000   0.0000  -2.3255
  -3.700  -0.0224   0.01959   0.01441  -0.0844  0.7294  0.0554  -1.4572   0.0000   0.0000   0.0000  -3.5556
  -3.600  -0.0114   0.01928   0.01404  -0.0841  0.7267  0.0569  -1.4149   0.0000   0.0000   0.0000  -7.1935
  -3.500  -0.0003   0.01908   0.01378  -0.0839  0.7236  0.0582  -1.3699   0.0000   0.0000   0.0000  -330.1721
  -3.300   0.0206   0.01245   0.00608  -0.0810  0.7187  0.0236  -1.8040   0.0000   0.0000   0.0000   4.2268
  -3.200   0.0324   0.01268   0.00629  -0.0809  0.7149  0.0215  -1.7270   0.0000   0.0000   0.0000   2.7704
  -3.100   0.0429   0.01212   0.00566  -0.0805  0.7113  0.0193  -1.7191   0.0000   0.0000   0.0000   2.1462
  -3.000   0.0525   0.01132   0.00473  -0.0799  0.7076  0.0181  -1.7269   0.0000   0.0000   0.0000   1.7889
  -2.900   0.0625   0.01083   0.00414  -0.0795  0.7036  0.0172  -1.7090   0.0000   0.0000   0.0000   1.5360
  -2.800   0.0726   0.01048   0.00369  -0.0791  0.6993  0.0164  -1.6805   0.0000   0.0000   0.0000   1.3506
  -2.700   0.0830   0.01021   0.00332  -0.0788  0.6946  0.0158  -1.6439   0.0000   0.0000   0.0000   1.2086
  -2.600   0.0938   0.01001   0.00303  -0.0786  0.6899  0.0153  -1.6013   0.0000   0.0000   0.0000   1.0963
  -2.500   0.1047   0.00982   0.00277  -0.0785  0.6877  0.0149  -1.5532   0.0000   0.0000   0.0000   1.0061
  -2.400   0.1157   0.00966   0.00256  -0.0783  0.6865  0.0146  -1.5007   0.0000   0.0000   0.0000   0.9324
  -2.300   0.1268   0.00954   0.00240  -0.0782  0.6852  0.0143  -1.4439   0.0000   0.0000   0.0000   0.8715
  -2.200   0.1380   0.00944   0.00226  -0.0781  0.6836  0.0141  -1.3823   0.0000   0.0000   0.0000   0.8203
  -2.100   0.1491   0.00936   0.00213  -0.0781  0.6819  0.0140  -1.3175   0.0000   0.0000   0.0000   0.7769
  -2.000   0.1603   0.00930   0.00203  -0.0780  0.6800  0.0139  -1.2506   0.0000   0.0000   0.0000   0.7396
  -1.900   0.1715   0.00925   0.00194  -0.0779  0.6779  0.0140  -1.1827   0.0000   0.0000   0.0000   0.7072
  -1.800   0.1826   0.00921   0.00186  -0.0779  0.6757  0.0140  -1.1143   0.0000   0.0000   0.0000   0.6787
  -1.700   0.1938   0.00917   0.00179  -0.0778  0.6733  0.0142  -1.0459   0.0000   0.0000   0.0000   0.6536
  -1.600   0.2049   0.00914   0.00172  -0.0778  0.6709  0.0146  -0.9774   0.0000   0.0000   0.0000   0.6312
  -1.500   0.2160   0.00912   0.00166  -0.0777  0.6684  0.0151  -0.9091   0.0000   0.0000   0.0000   0.6112
  -1.400   0.2270   0.00909   0.00162  -0.0777  0.6658  0.0159  -0.8411   0.0000   0.0000   0.0000   0.5932
  -1.300   0.2380   0.00907   0.00159  -0.0776  0.6631  0.0170  -0.7743   0.0000   0.0000   0.0000   0.5769
  -1.200   0.2490   0.00905   0.00157  -0.0775  0.6604  0.0183  -0.7108   0.0000   0.0000   0.0000   0.5621
  -1.100   0.2599   0.00903   0.00157  -0.0775  0.6574  0.0197  -0.6523   0.0000   0.0000   0.0000   0.5486
  -1.000   0.2701   0.00883   0.00153  -0.0774  0.6542  0.0654  -0.6015   0.0000   0.0000   0.0000   0.5368
  -0.900   0.2804   0.00865   0.00152  -0.0774  0.6506  0.1102  -0.5898   0.0000   0.0000   0.0000   0.5260
  -0.800   0.2908   0.00852   0.00153  -0.0773  0.6467  0.1563  -0.5966   0.0000   0.0000   0.0000   0.5159
  -0.700   0.3013   0.00838   0.00157  -0.0774  0.6425  0.2064  -0.6035   0.0000   0.0000   0.0000   0.5066
  -0.600   0.3117   0.00822   0.00159  -0.0774  0.6401  0.2586  -0.6104   0.0000   0.0000   0.0000   0.4979
  -0.500   0.3219   0.00800   0.00161  -0.0773  0.6392  0.3221  -0.6173   0.0000   0.0000   0.0000   0.4898
  -0.400   0.3310   0.00763   0.00165  -0.0772  0.6382  0.4408  -0.6238   0.0000   0.0000   0.0000   0.4826
  -0.300   0.3351   0.00626   0.00193  -0.0751  0.6372  0.9440  -0.6285   0.0000   0.0000   0.0000   0.4736
  -0.200   0.3540   0.00626   0.00191  -0.0767  0.6357  0.9666  -0.6399   0.0000   0.0000   0.0000   0.4661
  -0.100   0.3732   0.00625   0.00189  -0.0785  0.6341  0.9793  -0.6513   0.0000   0.0000   0.0000   0.4594
   0.000   0.3920   0.00626   0.00188  -0.0801  0.6324  0.9883  -0.6626   0.0000   0.0000   0.0000   0.4534
   0.100   0.4120   0.00626   0.00185  -0.0821  0.6307  0.9942  -0.6745   0.0000   0.0000   0.0000   0.4482
   0.200   0.4316   0.00626   0.00183  -0.0840  0.6288  0.9993  -0.6862   0.0000   0.0000   0.0000   0.4434
   0.300   0.4434   0.00627   0.00182  -0.0841  0.6269  1.0000  -0.6940   0.0000   0.0000   0.0000   0.4385
   0.400   0.4536   0.00629   0.00182  -0.0840  0.6250  1.0000  -0.7009   0.0000   0.0000   0.0000   0.4337
   0.500   0.4638   0.00631   0.00182  -0.0838  0.6229  1.0000  -0.7079   0.0000   0.0000   0.0000   0.4292
   0.600   0.4739   0.00633   0.00182  -0.0836  0.6208  1.0000  -0.7149   0.0000   0.0000   0.0000   0.4248
   0.700   0.4841   0.00636   0.00182  -0.0834  0.6186  1.0000  -0.7219   0.0000   0.0000   0.0000   0.4206
   0.800   0.4943   0.00639   0.00182  -0.0832  0.6163  1.0000  -0.7289   0.0000   0.0000   0.0000   0.4166
   0.900   0.5044   0.00642   0.00183  -0.0830  0.6140  1.0000  -0.7359   0.0000   0.0000   0.0000   0.4128
   1.000   0.5146   0.00646   0.00184  -0.0828  0.6115  1.0000  -0.7428   0.0000   0.0000   0.0000   0.4090
   1.100   0.5247   0.00650   0.00185  -0.0826  0.6088  1.0000  -0.7498   0.0000   0.0000   0.0000   0.4055
   1.200   0.5348   0.00654   0.00187  -0.0824  0.6058  1.0000  -0.7567   0.0000   0.0000   0.0000   0.4020
   1.300   0.5450   0.00660   0.00189  -0.0822  0.6025  1.0000  -0.7636   0.0000   0.0000   0.0000   0.3988
   1.400   0.5552   0.00667   0.00193  -0.0821  0.5987  1.0000  -0.7711   0.0000   0.0000   0.0000   0.3956
   1.500   0.5656   0.00675   0.00199  -0.0820  0.5945  1.0000  -0.7789   0.0000   0.0000   0.0000   0.3926
   1.600   0.5761   0.00681   0.00203  -0.0818  0.5915  1.0000  -0.7869   0.0000   0.0000   0.0000   0.3897
   1.700   0.5864   0.00681   0.00204  -0.0817  0.5908  1.0000  -0.7951   0.0000   0.0000   0.0000   0.3868
   1.800   0.5968   0.00682   0.00205  -0.0815  0.5900  1.0000  -0.8032   0.0000   0.0000   0.0000   0.3841
   1.900   0.6072   0.00683   0.00206  -0.0814  0.5889  1.0000  -0.8122   0.0000   0.0000   0.0000   0.3814
   2.000   0.6176   0.00684   0.00207  -0.0812  0.5877  1.0000  -0.8215   0.0000   0.0000   0.0000   0.3788
   2.100   0.6280   0.00686   0.00209  -0.0811  0.5862  1.0000  -0.8307   0.0000   0.0000   0.0000   0.3763
   2.200   0.6385   0.00687   0.00211  -0.0809  0.5846  1.0000  -0.8406   0.0000   0.0000   0.0000   0.3739
   2.300   0.6489   0.00689   0.00212  -0.0808  0.5828  1.0000  -0.8511   0.0000   0.0000   0.0000   0.3716
   2.400   0.6593   0.00691   0.00214  -0.0807  0.5808  1.0000  -0.8630   0.0000   0.0000   0.0000   0.3693
   2.500   0.6698   0.00692   0.00215  -0.0805  0.5786  1.0000  -0.8751   0.0000   0.0000   0.0000   0.3671
   2.600   0.6802   0.00694   0.00217  -0.0804  0.5762  1.0000  -0.8871   0.0000   0.0000   0.0000   0.3649
   2.700   0.6906   0.00697   0.00219  -0.0802  0.5736  1.0000  -0.9003   0.0000   0.0000   0.0000   0.3629
   2.800   0.7010   0.00699   0.00220  -0.0801  0.5708  1.0000  -0.9142   0.0000   0.0000   0.0000   0.3608
   2.900   0.7113   0.00703   0.00221  -0.0799  0.5676  1.0000  -0.9297   0.0000   0.0000   0.0000   0.3589
   3.000   0.7199   0.00708   0.00218  -0.0793  0.5527  1.0000  -0.9447   0.0000   0.0000   0.0000   0.3566
   3.100   0.7287   0.00704   0.00205  -0.0788  0.5288  1.0000  -0.9605   0.0000   0.0000   0.0000   0.3544
   3.200   0.7367   0.00716   0.00200  -0.0782  0.5058  1.0000  -0.9753   0.0000   0.0000   0.0000   0.3523
   3.300   0.7461   0.00726   0.00202  -0.0779  0.4935  1.0000  -0.9934   0.0000   0.0000   0.0000   0.3505
   3.400   0.7567   0.00728   0.00204  -0.0778  0.4896  1.0000  -1.0129   0.0000   0.0000   0.0000   0.3488
   3.500   0.7671   0.00732   0.00207  -0.0776  0.4841  1.0000  -1.0324   0.0000   0.0000   0.0000   0.3471
   3.600   0.7773   0.00738   0.00209  -0.0775  0.4765  1.0000  -1.0517   0.0000   0.0000   0.0000   0.3455
   3.700   0.7870   0.00746   0.00212  -0.0772  0.4666  1.0000  -1.0707   0.0000   0.0000   0.0000   0.3439
   3.800   0.7963   0.00758   0.00216  -0.0769  0.4551  1.0000  -1.0893   0.0000   0.0000   0.0000   0.3422
   3.900   0.8060   0.00767   0.00220  -0.0767  0.4455  1.0000  -1.1117   0.0000   0.0000   0.0000   0.3407
   4.000   0.8163   0.00772   0.00224  -0.0765  0.4396  1.0000  -1.1372   0.0000   0.0000   0.0000   0.3392
   4.100   0.8264   0.00780   0.00228  -0.0764  0.4304  1.0000  -1.1660   0.0000   0.0000   0.0000   0.3378
   4.200   0.8357   0.00792   0.00233  -0.0761  0.4171  1.0000  -1.1940   0.0000   0.0000   0.0000   0.3363
   4.300   0.8444   0.00809   0.00240  -0.0757  0.4006  1.0000  -1.2212   0.0000   0.0000   0.0000   0.3348
   4.400   0.8542   0.00819   0.00246  -0.0755  0.3894  1.0000  -1.2500   0.0000   0.0000   0.0000   0.3335
   4.500   0.8627   0.00840   0.00254  -0.0751  0.3675  1.0000  -1.2770   0.0000   0.0000   0.0000   0.3320
   4.600   0.8710   0.00862   0.00265  -0.0747  0.3454  1.0000  -1.3038   0.0000   0.0000   0.0000   0.3306
   4.700   0.8784   0.00893   0.00279  -0.0741  0.3163  1.0000  -1.3294   0.0000   0.0000   0.0000   0.3292
   4.800   0.8863   0.00920   0.00293  -0.0737  0.2902  1.0000  -1.3557   0.0000   0.0000   0.0000   0.3278
   4.900   0.8932   0.00958   0.00312  -0.0731  0.2581  1.0000  -1.3946   0.0000   0.0000   0.0000   0.3264
   5.000   0.8998   0.00998   0.00333  -0.0725  0.2247  1.0000  -1.4421   0.0000   0.0000   0.0000   0.3250
   5.100   0.9064   0.01039   0.00356  -0.0718  0.1936  1.0000  -1.4908   0.0000   0.0000   0.0000   0.3236
   5.200   0.9132   0.01078   0.00378  -0.0712  0.1631  1.0000  -1.5633   0.0000   0.0000   0.0000   0.3223
   5.300   0.9198   0.01117   0.00400  -0.0706  0.1332  1.0000  -1.6358   0.0000   0.0000   0.0000   0.3210
   5.400   0.9263   0.01159   0.00424  -0.0700  0.1048  1.0000  -1.7076   0.0000   0.0000   0.0000   0.3196
   5.500   0.9321   0.01206   0.00452  -0.0693  0.0746  1.0000  -1.7760   0.0000   0.0000   0.0000   0.3183
   5.600   0.9338   0.01289   0.00502  -0.0679  0.0210  1.0000  -1.8240   0.0000   0.0000   0.0000   0.3166
   5.700   0.9417   0.01316   0.00521  -0.0674  0.0124  1.0000  -1.9000   0.0000   0.0000   0.0000   0.3154
   5.800   0.9511   0.01330   0.00532  -0.0672  0.0113  1.0000  -1.9804   0.0000   0.0000   0.0000   0.3143
   5.900   0.9605   0.01344   0.00544  -0.0669  0.0103  1.0000  -2.0581   0.0000   0.0000   0.0000   0.3132
   6.000   0.9698   0.01359   0.00559  -0.0666  0.0095  1.0000  -2.1354   0.0000   0.0000   0.0000   0.3121
   6.100   0.9792   0.01372   0.00574  -0.0663  0.0090  1.0000  -2.2143   0.0000   0.0000   0.0000   0.3111
   6.200   0.9886   0.01385   0.00590  -0.0661  0.0088  1.0000  -2.2950   0.0000   0.0000   0.0000   0.3100
   6.300   0.9980   0.01398   0.00606  -0.0658  0.0086  1.0000  -2.3770   0.0000   0.0000   0.0000   0.3090
   6.400   1.0074   0.01412   0.00623  -0.0655  0.0085  1.0000  -2.4599   0.0000   0.0000   0.0000   0.3080
   6.500   1.0167   0.01426   0.00640  -0.0652  0.0084  1.0000  -2.5435   0.0000   0.0000   0.0000   0.3070
   6.600   1.0258   0.01440   0.00658  -0.0649  0.0084  1.0000  -2.6274   0.0000   0.0000   0.0000   0.3060
   6.700   1.0349   0.01456   0.00677  -0.0646  0.0084  1.0000  -2.7114   0.0000   0.0000   0.0000   0.3050
   6.800   1.0439   0.01472   0.00698  -0.0642  0.0084  1.0000  -2.7950   0.0000   0.0000   0.0000   0.3041
   6.900   1.0526   0.01490   0.00720  -0.0639  0.0084  1.0000  -2.8780   0.0000   0.0000   0.0000   0.3031
   7.000   1.0624   0.01497   0.00751  -0.0637  0.0090  1.0000  -3.0388   0.0000   0.0000   0.0000   0.3023
   7.100   1.0714   0.01512   0.00771  -0.0634  0.0091  1.0000  -3.1442   0.0000   0.0000   0.0000   0.3013
   7.200   1.0800   0.01530   0.00795  -0.0630  0.0092  1.0000  -3.2350   0.0000   0.0000   0.0000   0.3004
   7.300   1.0884   0.01549   0.00820  -0.0626  0.0092  1.0000  -3.3193   0.0000   0.0000   0.0000   0.2994
   7.400   1.0966   0.01571   0.00847  -0.0621  0.0093  1.0000  -3.3990   0.0000   0.0000   0.0000   0.2984
   7.500   1.1045   0.01595   0.00877  -0.0616  0.0093  1.0000  -3.4745   0.0000   0.0000   0.0000   0.2974
   7.600   1.1119   0.01622   0.00909  -0.0609  0.0094  1.0000  -3.5450   0.0000   0.0000   0.0000   0.2963
   7.700   1.1189   0.01652   0.00945  -0.0603  0.0095  1.0000  -3.6113   0.0000   0.0000   0.0000   0.2952
   7.800   1.1255   0.01684   0.00983  -0.0595  0.0096  1.0000  -3.6740   0.0000   0.0000   0.0000   0.2941
   7.900   1.1315   0.01719   0.01024  -0.0587  0.0097  1.0000  -3.7331   0.0000   0.0000   0.0000   0.2930
   8.000   1.1371   0.01757   0.01069  -0.0578  0.0098  1.0000  -3.7883   0.0000   0.0000   0.0000   0.2918
   8.100   1.1420   0.01798   0.01116  -0.0568  0.0099  1.0000  -3.8397   0.0000   0.0000   0.0000   0.2906
   8.200   1.1463   0.01841   0.01167  -0.0557  0.0101  1.0000  -3.8871   0.0000   0.0000   0.0000   0.2893
   8.300   1.1499   0.01888   0.01220  -0.0545  0.0102  1.0000  -3.9304   0.0000   0.0000   0.0000   0.2880
   8.400   1.1523   0.01935   0.01274  -0.0530  0.0104  1.0000  -3.9680   0.0000   0.0000   0.0000   0.2865
   8.500   1.1539   0.01985   0.01330  -0.0515  0.0105  1.0000  -4.0017   0.0000   0.0000   0.0000   0.2850
   8.600   1.1551   0.02038   0.01390  -0.0500  0.0107  1.0000  -4.0321   0.0000   0.0000   0.0000   0.2835
   8.700   1.1561   0.02096   0.01454  -0.0484  0.0109  1.0000  -4.0595   0.0000   0.0000   0.0000   0.2820
   8.800   1.1569   0.02158   0.01522  -0.0469  0.0111  1.0000  -4.0841   0.0000   0.0000   0.0000   0.2805
   8.900   1.1577   0.02225   0.01596  -0.0454  0.0113  1.0000  -4.1062   0.0000   0.0000   0.0000   0.2791
   9.000   1.1584   0.02298   0.01675  -0.0440  0.0115  1.0000  -4.1250   0.0000   0.0000   0.0000   0.2777
   9.100   1.1594   0.02378   0.01762  -0.0426  0.0118  1.0000  -4.1401   0.0000   0.0000   0.0000   0.2763
   9.200   1.1607   0.02469   0.01861  -0.0413  0.0121  1.0000  -4.1494   0.0000   0.0000   0.0000   0.2750
   9.300   1.1627   0.02585   0.01984  -0.0401  0.0124  1.0000  -4.1455   0.0000   0.0000   0.0000   0.2737
   9.400   1.1708   0.02776   0.02183  -0.0394  0.0140  1.0000  -4.0924   0.0000   0.0000   0.0000   0.2728
   9.500   1.1768   0.02768   0.02175  -0.0387  0.0144  1.0000  -4.1809   0.0000   0.0000   0.0000   0.2719
   9.600   1.1832   0.02768   0.02177  -0.0381  0.0150  1.0000  -4.2651   0.0000   0.0000   0.0000   0.2710
  15.600   0.9183   0.17521   0.17315  -0.0755  0.0261  1.0000  -2.2896   0.0000   0.0000   0.0000   0.3145
  15.700   0.9191   0.17761   0.17555  -0.0767  0.0260  1.0000  -2.2695   0.0000   0.0000   0.0000   0.3157
  15.800   0.9204   0.17983   0.17777  -0.0779  0.0259  1.0000  -2.2563   0.0000   0.0000   0.0000   0.3167
  15.900   0.9227   0.18172   0.17966  -0.0789  0.0257  1.0000  -2.2561   0.0000   0.0000   0.0000   0.3175
  16.000   0.9265   0.18314   0.18109  -0.0798  0.0252  1.0000  -2.2745   0.0000   0.0000   0.0000   0.3180
  16.100   0.9301   0.18475   0.18269  -0.0807  0.0246  1.0000  -2.2859   0.0000   0.0000   0.0000   0.3185
  16.200   0.9325   0.18674   0.18468  -0.0817  0.0240  1.0000  -2.2815   0.0000   0.0000   0.0000   0.3192
  16.300   0.9341   0.18896   0.18690  -0.0827  0.0234  1.0000  -2.2678   0.0000   0.0000   0.0000   0.3201
  16.400   0.9352   0.19133   0.18927  -0.0839  0.0229  1.0000  -2.2481   0.0000   0.0000   0.0000   0.3211
  16.500   0.9359   0.19380   0.19174  -0.0850  0.0224  1.0000  -2.2246   0.0000   0.0000   0.0000   0.3222
  16.600   0.9367   0.19624   0.19418  -0.0862  0.0219  1.0000  -2.2029   0.0000   0.0000   0.0000   0.3232
  16.700   0.9374   0.19865   0.19659  -0.0873  0.0215  1.0000  -2.1833   0.0000   0.0000   0.0000   0.3242
  16.800   0.9382   0.20103   0.19896  -0.0884  0.0211  1.0000  -2.1658   0.0000   0.0000   0.0000   0.3252
  16.900   0.9391   0.20337   0.20130  -0.0894  0.0207  1.0000  -2.1504   0.0000   0.0000   0.0000   0.3261
  17.000   0.9400   0.20569   0.20362  -0.0904  0.0203  1.0000  -2.1365   0.0000   0.0000   0.0000   0.3270
  17.100   0.9410   0.20797   0.20590  -0.0914  0.0199  1.0000  -2.1244   0.0000   0.0000   0.0000   0.3278
  17.200   0.9420   0.21023   0.20816  -0.0924  0.0196  1.0000  -2.1141   0.0000   0.0000   0.0000   0.3286
  17.300   0.9431   0.21246   0.21039  -0.0934  0.0193  1.0000  -2.1054   0.0000   0.0000   0.0000   0.3294
  17.400   0.9442   0.21467   0.21260  -0.0943  0.0190  1.0000  -2.0980   0.0000   0.0000   0.0000   0.3301
  17.500   0.9453   0.21685   0.21478  -0.0952  0.0187  1.0000  -2.0921   0.0000   0.0000   0.0000   0.3309
  17.600   0.9466   0.21902   0.21695  -0.0961  0.0184  1.0000  -2.0878   0.0000   0.0000   0.0000   0.3315
  17.700   0.9478   0.22116   0.21909  -0.0970  0.0181  1.0000  -2.0848   0.0000   0.0000   0.0000   0.3322
  17.800   0.9493   0.22319   0.22112  -0.0978  0.0178  1.0000  -2.0887   0.0000   0.0000   0.0000   0.3328
  17.900   0.9509   0.22510   0.22304  -0.0986  0.0175  1.0000  -2.0989   0.0000   0.0000   0.0000   0.3332
  18.000   0.9527   0.22698   0.22491  -0.0993  0.0171  1.0000  -2.1122   0.0000   0.0000   0.0000   0.3337
  18.100   0.9545   0.22880   0.22674  -0.1000  0.0168  1.0000  -2.1286   0.0000   0.0000   0.0000   0.3341
  18.200   0.9564   0.23056   0.22850  -0.1007  0.0165  1.0000  -2.1483   0.0000   0.0000   0.0000   0.3344
  18.300   0.9584   0.23227   0.23022  -0.1014  0.0163  1.0000  -2.1717   0.0000   0.0000   0.0000   0.3346
  18.400   0.9605   0.23394   0.23189  -0.1020  0.0160  1.0000  -2.1978   0.0000   0.0000   0.0000   0.3349
  18.500   0.9626   0.23557   0.23353  -0.1025  0.0158  1.0000  -2.2261   0.0000   0.0000   0.0000   0.3350
  18.600   0.9647   0.23720   0.23516  -0.1031  0.0155  1.0000  -2.2555   0.0000   0.0000   0.0000   0.3352
  18.700   0.9668   0.23880   0.23676  -0.1037  0.0153  1.0000  -2.2877   0.0000   0.0000   0.0000   0.3354
  18.800   0.9690   0.24036   0.23833  -0.1042  0.0151  1.0000  -2.3224   0.0000   0.0000   0.0000   0.3354
  18.900   0.9706   0.24215   0.24012  -0.1048  0.0149  1.0000  -2.3470   0.0000   0.0000   0.0000   0.3357
  19.000   0.9718   0.24413   0.24211  -0.1055  0.0147  1.0000  -2.3631   0.0000   0.0000   0.0000   0.3361
  19.100   0.9725   0.24632   0.24430  -0.1062  0.0144  1.0000  -2.3717   0.0000   0.0000   0.0000   0.3366
  19.200   0.9711   0.24949   0.24747  -0.1070  0.0140  1.0000  -2.3408   0.0000   0.0000   0.0000   0.3375
  19.500   0.9590   0.26501   0.26295  -0.1111  0.0133  1.0000  -1.9533   0.0000   0.0000   0.0000   0.3431
  19.600   0.9599   0.26745   0.26539  -0.1119  0.0133  1.0000  -1.9406   0.0000   0.0000   0.0000   0.3437
  19.700   0.9608   0.26988   0.26783  -0.1127  0.0132  1.0000  -1.9281   0.0000   0.0000   0.0000   0.3443
  19.800   0.9616   0.27230   0.27026  -0.1135  0.0132  1.0000  -1.9158   0.0000   0.0000   0.0000   0.3449
  19.900   0.9624   0.27473   0.27268  -0.1143  0.0132  1.0000  -1.9037   0.0000   0.0000   0.0000   0.3455
  20.000   0.9632   0.27714   0.27510  -0.1150  0.0132  1.0000  -1.8918   0.0000   0.0000   0.0000   0.3460
  20.100   0.9638   0.27955   0.27751  -0.1158  0.0132  1.0000  -1.8799   0.0000   0.0000   0.0000   0.3466
  20.200   0.9644   0.28195   0.27992  -0.1165  0.0132  1.0000  -1.8682   0.0000   0.0000   0.0000   0.3472
  20.300   0.9650   0.28434   0.28231  -0.1173  0.0132  1.0000  -1.8565   0.0000   0.0000   0.0000   0.3477
  20.400   0.9654   0.28672   0.28469  -0.1180  0.0132  1.0000  -1.8448   0.0000   0.0000   0.0000   0.3483
  20.500   0.9658   0.28905   0.28708  -0.1187  0.0132  1.0000  -1.8299   0.0000   0.0000   0.0000   0.3488
  20.600   0.9661   0.29139   0.28942  -0.1194  0.0132  1.0000  -1.8182   0.0000   0.0000   0.0000   0.3494
  20.700   0.9663   0.29372   0.29176  -0.1201  0.0132  1.0000  -1.8065   0.0000   0.0000   0.0000   0.3500
  20.800   0.9663   0.29603   0.29408  -0.1208  0.0131  1.0000  -1.7949   0.0000   0.0000   0.0000   0.3505
  20.900   0.9663   0.29832   0.29637  -0.1215  0.0131  1.0000  -1.7831   0.0000   0.0000   0.0000   0.3511
  21.000   0.9660   0.30059   0.29864  -0.1221  0.0131  1.0000  -1.7711   0.0000   0.0000   0.0000   0.3516
  21.100   0.9656   0.30282   0.30088  -0.1227  0.0131  1.0000  -1.7588   0.0000   0.0000   0.0000   0.3522
  21.200   0.9649   0.30501   0.30308  -0.1233  0.0131  1.0000  -1.7463   0.0000   0.0000   0.0000   0.3528
  21.300   0.9641   0.30715   0.30523  -0.1239  0.0131  1.0000  -1.7333   0.0000   0.0000   0.0000   0.3534
  21.400   0.9629   0.30923   0.30732  -0.1244  0.0131  1.0000  -1.7197   0.0000   0.0000   0.0000   0.3540
  21.500   0.9613   0.31123   0.30932  -0.1249  0.0131  1.0000  -1.7053   0.0000   0.0000   0.0000   0.3546
  21.600   0.9592   0.31312   0.31122  -0.1254  0.0131  1.0000  -1.6898   0.0000   0.0000   0.0000   0.3552
  21.700   0.9565   0.31485   0.31296  -0.1258  0.0131  1.0000  -1.6725   0.0000   0.0000   0.0000   0.3559
  21.800   0.9048   0.30519   0.30340  -0.1213  0.0131  1.0000  -1.5273   0.0000   0.0000   0.0000   0.3594
  21.900   0.8981   0.30493   0.30315  -0.1212  0.0131  1.0000  -1.5008   0.0000   0.0000   0.0000   0.3603
  22.000   0.8929   0.30495   0.30318  -0.1213  0.0130  1.0000  -1.4783   0.0000   0.0000   0.0000   0.3611
  22.100   0.8885   0.30511   0.30336  -0.1214  0.0130  1.0000  -1.4582   0.0000   0.0000   0.0000   0.3618
  22.200   0.8847   0.30537   0.30363  -0.1215  0.0130  1.0000  -1.4399   0.0000   0.0000   0.0000   0.3625
  22.300   0.8814   0.30569   0.30396  -0.1217  0.0130  1.0000  -1.4229   0.0000   0.0000   0.0000   0.3632
  22.400   0.8784   0.30605   0.30434  -0.1219  0.0130  1.0000  -1.4072   0.0000   0.0000   0.0000   0.3638
  22.500   0.8757   0.30646   0.30476  -0.1222  0.0130  1.0000  -1.3927   0.0000   0.0000   0.0000   0.3645
  22.600   0.8733   0.30690   0.30520  -0.1225  0.0130  1.0000  -1.3789   0.0000   0.0000   0.0000   0.3651
  22.700   0.8711   0.30736   0.30568  -0.1228  0.0129  1.0000  -1.3661   0.0000   0.0000   0.0000   0.3657
  22.800   0.8691   0.30785   0.30617  -0.1231  0.0129  1.0000  -1.3543   0.0000   0.0000   0.0000   0.3663
  22.900   0.8673   0.30835   0.30668  -0.1234  0.0129  1.0000  -1.3434   0.0000   0.0000   0.0000   0.3668
  23.000   0.8658   0.30887   0.30721  -0.1238  0.0128  1.0000  -1.3338   0.0000   0.0000   0.0000   0.3674
  23.100   0.8644   0.30941   0.30776  -0.1241  0.0128  1.0000  -1.3249   0.0000   0.0000   0.0000   0.3679
  23.200   0.8633   0.30997   0.30832  -0.1246  0.0127  1.0000  -1.3169   0.0000   0.0000   0.0000   0.3685
  23.300   0.8624   0.31056   0.30892  -0.1250  0.0126  1.0000  -1.3083   0.0000   0.0000   0.0000   0.3691
  23.400   0.8617   0.31124   0.30961  -0.1256  0.0124  1.0000  -1.2980   0.0000   0.0000   0.0000   0.3697
  23.500   0.8617   0.31204   0.31042  -0.1263  0.0121  1.0000  -1.2874   0.0000   0.0000   0.0000   0.3704
  23.600   0.8620   0.31297   0.31135  -0.1269  0.0116  1.0000  -1.2739   0.0000   0.0000   0.0000   0.3710
  23.700   0.8618   0.31380   0.31219  -0.1274  0.0110  1.0000  -1.2605   0.0000   0.0000   0.0000   0.3715
  23.800   0.8610   0.31452   0.31291  -0.1279  0.0106  1.0000  -1.2498   0.0000   0.0000   0.0000   0.3720
  23.900   0.8600   0.31517   0.31358  -0.1282  0.0103  1.0000  -1.2406   0.0000   0.0000   0.0000   0.3725
  24.000   0.8590   0.31581   0.31422  -0.1286  0.0100  1.0000  -1.2326   0.0000   0.0000   0.0000   0.3729
  24.100   0.8580   0.31644   0.31486  -0.1290  0.0097  1.0000  -1.2260   0.0000   0.0000   0.0000   0.3734
  24.200   0.8571   0.31706   0.31548  -0.1293  0.0094  1.0000  -1.2205   0.0000   0.0000   0.0000   0.3738
  24.300   0.8562   0.31767   0.31611  -0.1297  0.0091  1.0000  -1.2163   0.0000   0.0000   0.0000   0.3743
  24.400   0.8554   0.31828   0.31672  -0.1301  0.0089  1.0000  -1.2134   0.0000   0.0000   0.0000   0.3747
  24.500   0.8547   0.31888   0.31732  -0.1304  0.0086  1.0000  -1.2119   0.0000   0.0000   0.0000   0.3751
  24.600   0.8539   0.31947   0.31792  -0.1308  0.0083  1.0000  -1.2119   0.0000   0.0000   0.0000   0.3755
  24.700   0.8533   0.32005   0.31851  -0.1312  0.0080  1.0000  -1.2137   0.0000   0.0000   0.0000   0.3759
  24.800   0.8527   0.32061   0.31908  -0.1315  0.0078  1.0000  -1.2174   0.0000   0.0000   0.0000   0.3763
  24.900   0.8521   0.32117   0.31964  -0.1319  0.0075  1.0000  -1.2234   0.0000   0.0000   0.0000   0.3767
  25.000   0.8517   0.32170   0.32018  -0.1323  0.0072  1.0000  -1.2322   0.0000   0.0000   0.0000   0.3770
  25.100   0.8512   0.32221   0.32070  -0.1327  0.0070  1.0000  -1.2438   0.0000   0.0000   0.0000   0.3774
  25.200   0.8509   0.32269   0.32118  -0.1330  0.0067  1.0000  -1.2588   0.0000   0.0000   0.0000   0.3777
  25.300   0.8506   0.32314   0.32164  -0.1334  0.0065  1.0000  -1.2774   0.0000   0.0000   0.0000   0.3780
  25.400   0.8504   0.32355   0.32206  -0.1338  0.0063  1.0000  -1.2998   0.0000   0.0000   0.0000   0.3782
  25.500   0.8503   0.32392   0.32244  -0.1341  0.0061  1.0000  -1.3262   0.0000   0.0000   0.0000   0.3784
  25.600   0.8502   0.32425   0.32277  -0.1344  0.0059  1.0000  -1.3583   0.0000   0.0000   0.0000   0.3786
  25.700   0.8501   0.32453   0.32306  -0.1347  0.0057  1.0000  -1.3977   0.0000   0.0000   0.0000   0.3788
  25.800   0.8502   0.32475   0.32329  -0.1350  0.0055  1.0000  -1.4406   0.0000   0.0000   0.0000   0.3789
  25.900   0.8502   0.32492   0.32347  -0.1353  0.0054  1.0000  -1.4870   0.0000   0.0000   0.0000   0.3789
  26.000   0.8501   0.32504   0.32360  -0.1355  0.0052  1.0000  -1.5350   0.0000   0.0000   0.0000   0.3789
  26.100   0.8387   0.32748   0.32600  -0.1354  0.0044  1.0000  -1.2788   0.0000   0.0000   0.0000   0.3814
  26.200   0.8383   0.32840   0.32693  -0.1359  0.0043  1.0000  -1.2556   0.0000   0.0000   0.0000   0.3819
  26.300   0.8380   0.32928   0.32781  -0.1364  0.0043  1.0000  -1.2478   0.0000   0.0000   0.0000   0.3824
  26.400   0.8377   0.33015   0.32869  -0.1368  0.0042  1.0000  -1.2410   0.0000   0.0000   0.0000   0.3828
  26.500   0.8375   0.33100   0.32954  -0.1373  0.0042  1.0000  -1.2344   0.0000   0.0000   0.0000   0.3832
  26.600   0.8372   0.33184   0.33038  -0.1377  0.0041  1.0000  -1.2272   0.0000   0.0000   0.0000   0.3836
  26.700   0.8368   0.33266   0.33121  -0.1381  0.0041  1.0000  -1.2187   0.0000   0.0000   0.0000   0.3840
  26.800   0.8364   0.33348   0.33204  -0.1385  0.0041  1.0000  -1.2087   0.0000   0.0000   0.0000   0.3844
  26.900   0.8360   0.33430   0.33286  -0.1388  0.0041  1.0000  -1.1974   0.0000   0.0000   0.0000   0.3848
  27.000   0.8355   0.33511   0.33367  -0.1392  0.0041  1.0000  -1.1854   0.0000   0.0000   0.0000   0.3852
  27.100   0.8350   0.33592   0.33449  -0.1395  0.0041  1.0000  -1.1730   0.0000   0.0000   0.0000   0.3855
  27.200   0.8344   0.33673   0.33530  -0.1399  0.0041  1.0000  -1.1607   0.0000   0.0000   0.0000   0.3859
  27.300   0.8339   0.33753   0.33610  -0.1403  0.0041  1.0000  -1.1487   0.0000   0.0000   0.0000   0.3863
  27.400   0.8335   0.33833   0.33691  -0.1406  0.0041  1.0000  -1.1371   0.0000   0.0000   0.0000   0.3866
  27.500   0.8330   0.33913   0.33771  -0.1410  0.0041  1.0000  -1.1260   0.0000   0.0000   0.0000   0.3870
  27.600   0.8326   0.33993   0.33851  -0.1413  0.0041  1.0000  -1.1153   0.0000   0.0000   0.0000   0.3873
  27.700   0.8322   0.34072   0.33931  -0.1417  0.0041  1.0000  -1.1051   0.0000   0.0000   0.0000   0.3877
  27.800   0.8318   0.34152   0.34010  -0.1420  0.0041  1.0000  -1.0953   0.0000   0.0000   0.0000   0.3880
  27.900   0.8314   0.34231   0.34090  -0.1424  0.0041  1.0000  -1.0859   0.0000   0.0000   0.0000   0.3883
  28.000   0.8311   0.34310   0.34170  -0.1428  0.0041  1.0000  -1.0768   0.0000   0.0000   0.0000   0.3887
  28.100   0.8308   0.34389   0.34249  -0.1431  0.0041  1.0000  -1.0681   0.0000   0.0000   0.0000   0.3890
  28.200   0.8305   0.34468   0.34329  -0.1435  0.0041  1.0000  -1.0596   0.0000   0.0000   0.0000   0.3893


