xflr5 v6.61

 Calculated polar for: E193  (10.22%)

 1 1 Reynolds number fixed          Mach number fixed         

 xtrf =   1.000 (top)        1.000 (bottom)
 Mach =   0.000     Re =     0.300 e 6     Ncrit =   9.000

  alpha     CL        CD       CDp       Cm    Top Xtr Bot Xtr   Cpmin    Chinge    XCp    
 ------- -------- --------- --------- -------- ------- ------- -------- --------- ---------
 -10.000  -0.3415   0.11040   0.10734  -0.0292  1.0000  0.0277  -1.3883   0.0000   0.0000   0.0000   0.1559
  -9.900  -0.3396   0.10919   0.10613  -0.0296  1.0000  0.0281  -1.3878   0.0000   0.0000   0.0000   0.1542
  -9.800  -0.3379   0.10797   0.10492  -0.0301  1.0000  0.0286  -1.3882   0.0000   0.0000   0.0000   0.1525
  -9.700  -0.3361   0.10675   0.10371  -0.0305  1.0000  0.0290  -1.3894   0.0000   0.0000   0.0000   0.1507
  -9.600  -0.3345   0.10553   0.10250  -0.0310  1.0000  0.0295  -1.3915   0.0000   0.0000   0.0000   0.1489
  -9.500  -0.3329   0.10430   0.10129  -0.0315  1.0000  0.0299  -1.3945   0.0000   0.0000   0.0000   0.1471
  -9.400  -0.3314   0.10308   0.10008  -0.0320  1.0000  0.0304  -1.3985   0.0000   0.0000   0.0000   0.1453
  -9.300  -0.3300   0.10186   0.09887  -0.0325  1.0000  0.0309  -1.4034   0.0000   0.0000   0.0000   0.1434
  -9.200  -0.3286   0.10065   0.09767  -0.0330  1.0000  0.0314  -1.4096   0.0000   0.0000   0.0000   0.1416
  -9.100  -0.3274   0.09944   0.09648  -0.0335  1.0000  0.0319  -1.4170   0.0000   0.0000   0.0000   0.1397
  -9.000  -0.3263   0.09825   0.09530  -0.0341  1.0000  0.0325  -1.4259   0.0000   0.0000   0.0000   0.1378
  -8.900  -0.3253   0.09708   0.09414  -0.0346  1.0000  0.0330  -1.4364   0.0000   0.0000   0.0000   0.1358
  -8.800  -0.3245   0.09592   0.09300  -0.0352  1.0000  0.0335  -1.4485   0.0000   0.0000   0.0000   0.1338
  -8.700  -0.3237   0.09477   0.09186  -0.0358  1.0000  0.0340  -1.4615   0.0000   0.0000   0.0000   0.1318
  -8.600  -0.3229   0.09363   0.09074  -0.0364  1.0000  0.0344  -1.4754   0.0000   0.0000   0.0000   0.1296
  -8.500  -0.3221   0.09254   0.08966  -0.0371  1.0000  0.0349  -1.4903   0.0000   0.0000   0.0000   0.1274
  -8.400  -0.3212   0.09153   0.08867  -0.0378  1.0000  0.0353  -1.5044   0.0000   0.0000   0.0000   0.1251
  -8.300  -0.3205   0.09059   0.08775  -0.0384  1.0000  0.0358  -1.5187   0.0000   0.0000   0.0000   0.1229
  -8.200  -0.3193   0.08976   0.08694  -0.0390  1.0000  0.0362  -1.5274   0.0000   0.0000   0.0000   0.1209
  -8.100  -0.3182   0.08898   0.08618  -0.0394  1.0000  0.0365  -1.5328   0.0000   0.0000   0.0000   0.1192
  -8.000  -0.3178   0.08816   0.08538  -0.0398  1.0000  0.0368  -1.5391   0.0000   0.0000   0.0000   0.1180
  -7.900  -0.3180   0.08730   0.08454  -0.0401  1.0000  0.0369  -1.5470   0.0000   0.0000   0.0000   0.1174
  -7.800  -0.3189   0.08641   0.08368  -0.0402  1.0000  0.0371  -1.5564   0.0000   0.0000   0.0000   0.1173
  -7.700  -0.3206   0.08552   0.08282  -0.0403  1.0000  0.0371  -1.5672   0.0000   0.0000   0.0000   0.1181
  -7.600  -0.3235   0.08469   0.08202  -0.0401  1.0000  0.0372  -1.5794   0.0000   0.0000   0.0000   0.1199
  -7.200  -0.3268   0.08011   0.07755  -0.0434  0.9960  0.0374  -1.6367   0.0000   0.0000   0.0000   0.1117
  -7.100  -0.3149   0.07750   0.07493  -0.0484  0.9922  0.0375  -1.6540   0.0000   0.0000   0.0000   0.0909
  -7.000  -0.3025   0.07476   0.07216  -0.0534  0.9888  0.0376  -1.6747   0.0000   0.0000   0.0000   0.0676
  -6.900  -0.2904   0.07199   0.06935  -0.0582  0.9854  0.0376  -1.6980   0.0000   0.0000   0.0000   0.0436
  -6.800  -0.2800   0.06938   0.06671  -0.0622  0.9803  0.0377  -1.7219   0.0000   0.0000   0.0000   0.0220
  -6.700  -0.2686   0.06673   0.06399  -0.0661  0.9762  0.0377  -1.7454   0.0000   0.0000   0.0000  -0.0024
  -6.600  -0.2567   0.06410   0.06130  -0.0700  0.9730  0.0378  -1.7667   0.0000   0.0000   0.0000  -0.0290
  -6.500  -0.2665   0.05501   0.05211  -0.0766  0.9637  0.0393  -2.0241   0.0000   0.0000   0.0000  -0.0437
  -6.400  -0.2612   0.05199   0.04905  -0.0789  0.9578  0.0402  -2.0332   0.0000   0.0000   0.0000  -0.0582
  -6.300  -0.2516   0.04996   0.04699  -0.0808  0.9535  0.0411  -2.0039   0.0000   0.0000   0.0000  -0.0778
  -6.200  -0.2403   0.04864   0.04565  -0.0822  0.9499  0.0418  -1.9459   0.0000   0.0000   0.0000  -0.0986
  -6.100  -0.2328   0.04753   0.04453  -0.0826  0.9418  0.0425  -1.9035   0.0000   0.0000   0.0000  -0.1114
  -6.000  -0.2230   0.04628   0.04325  -0.0837  0.9352  0.0432  -1.8602   0.0000   0.0000   0.0000  -0.1321
  -5.900  -0.2121   0.04493   0.04184  -0.0851  0.9293  0.0441  -1.8208   0.0000   0.0000   0.0000  -0.1580
  -5.800  -0.2014   0.04354   0.04039  -0.0864  0.9233  0.0451  -1.7877   0.0000   0.0000   0.0000  -0.1859
  -5.700  -0.1938   0.04230   0.03908  -0.0869  0.9140  0.0460  -1.7645   0.0000   0.0000   0.0000  -0.2056
  -5.600  -0.1849   0.04098   0.03768  -0.0876  0.9056  0.0471  -1.7425   0.0000   0.0000   0.0000  -0.2312
  -5.500  -0.1758   0.03964   0.03623  -0.0884  0.8980  0.0483  -1.7231   0.0000   0.0000   0.0000  -0.2604
  -5.400  -0.1677   0.03840   0.03488  -0.0888  0.8900  0.0496  -1.7073   0.0000   0.0000   0.0000  -0.2874
  -5.300  -0.1601   0.03724   0.03362  -0.0889  0.8813  0.0510  -1.6935   0.0000   0.0000   0.0000  -0.3133
  -5.200  -0.1518   0.03614   0.03239  -0.0890  0.8731  0.0526  -1.6788   0.0000   0.0000   0.0000  -0.3450
  -5.100  -0.1426   0.03523   0.03133  -0.0890  0.8655  0.0545  -1.6602   0.0000   0.0000   0.0000  -0.3835
  -5.000  -0.1247   0.03758   0.03335  -0.0882  0.8583  0.0594  -1.5710   0.0000   0.0000   0.0000  -0.4674
  -4.900  -0.1147   0.03769   0.03335  -0.0879  0.8516  0.0600  -1.5352   0.0000   0.0000   0.0000  -0.5268
  -4.800  -0.1063   0.03698   0.03251  -0.0878  0.8448  0.0602  -1.5162   0.0000   0.0000   0.0000  -0.5864
  -4.700  -0.0981   0.03608   0.03148  -0.0876  0.8384  0.0603  -1.5001   0.0000   0.0000   0.0000  -0.6550
  -4.300  -0.0785   0.02650   0.02148  -0.0885  0.8172  0.0696  -1.5015   0.0000   0.0000   0.0000  -0.8904
  -4.200  -0.0693   0.02577   0.02069  -0.0883  0.8126  0.0710  -1.4671   0.0000   0.0000   0.0000  -1.0389
  -4.100  -0.0599   0.02502   0.01986  -0.0881  0.8079  0.0724  -1.4370   0.0000   0.0000   0.0000  -1.2373
  -4.000  -0.0503   0.02423   0.01897  -0.0878  0.8031  0.0736  -1.4114   0.0000   0.0000   0.0000  -1.5155
  -3.900  -0.0363   0.01889   0.01259  -0.0855  0.8002  0.0327  -1.8200   0.0000   0.0000   0.0000  -2.1394
  -3.800  -0.0265   0.01706   0.01044  -0.0848  0.7960  0.0282  -1.8960   0.0000   0.0000   0.0000  -2.9925
  -3.700  -0.0158   0.01562   0.00867  -0.0840  0.7919  0.0243  -1.9761   0.0000   0.0000   0.0000  -5.1375
  -3.600  -0.0048   0.01526   0.00817  -0.0836  0.7875  0.0228  -1.9478   0.0000   0.0000   0.0000  -17.2436
  -3.500   0.0062   0.01515   0.00798  -0.0834  0.7826  0.0219  -1.8892   0.0000   0.0000   0.0000  13.7929
  -3.400   0.0174   0.01509   0.00789  -0.0832  0.7783  0.0212  -1.8228   0.0000   0.0000   0.0000   5.0866
  -3.300   0.0284   0.01502   0.00781  -0.0831  0.7755  0.0207  -1.7547   0.0000   0.0000   0.0000   3.2091
  -3.200   0.0388   0.01456   0.00728  -0.0828  0.7724  0.0201  -1.7170   0.0000   0.0000   0.0000   2.4074
  -3.100   0.0485   0.01374   0.00637  -0.0824  0.7692  0.0197  -1.7097   0.0000   0.0000   0.0000   1.9669
  -3.000   0.0585   0.01319   0.00575  -0.0820  0.7658  0.0194  -1.6834   0.0000   0.0000   0.0000   1.6680
  -2.900   0.0685   0.01276   0.00526  -0.0817  0.7623  0.0192  -1.6491   0.0000   0.0000   0.0000   1.4544
  -2.800   0.0787   0.01242   0.00484  -0.0814  0.7587  0.0190  -1.6094   0.0000   0.0000   0.0000   1.2946
  -2.700   0.0889   0.01213   0.00447  -0.0811  0.7550  0.0188  -1.5656   0.0000   0.0000   0.0000   1.1704
  -2.600   0.0993   0.01190   0.00416  -0.0808  0.7513  0.0187  -1.5182   0.0000   0.0000   0.0000   1.0711
  -2.500   0.1098   0.01171   0.00388  -0.0806  0.7475  0.0187  -1.4678   0.0000   0.0000   0.0000   0.9900
  -2.400   0.1205   0.01157   0.00365  -0.0803  0.7434  0.0187  -1.4147   0.0000   0.0000   0.0000   0.9225
  -2.300   0.1313   0.01148   0.00346  -0.0802  0.7388  0.0187  -1.3591   0.0000   0.0000   0.0000   0.8655
  -2.200   0.1424   0.01142   0.00332  -0.0801  0.7344  0.0188  -1.3015   0.0000   0.0000   0.0000   0.8168
  -2.100   0.1532   0.01131   0.00316  -0.0799  0.7324  0.0191  -1.2432   0.0000   0.0000   0.0000   0.7754
  -2.000   0.1641   0.01122   0.00303  -0.0798  0.7301  0.0194  -1.1838   0.0000   0.0000   0.0000   0.7394
  -1.900   0.1751   0.01114   0.00291  -0.0797  0.7277  0.0199  -1.1239   0.0000   0.0000   0.0000   0.7079
  -1.800   0.1861   0.01108   0.00284  -0.0796  0.7251  0.0212  -1.0656   0.0000   0.0000   0.0000   0.6800
  -1.700   0.1970   0.01102   0.00277  -0.0794  0.7225  0.0257  -1.0060   0.0000   0.0000   0.0000   0.6553
  -1.600   0.2078   0.01093   0.00270  -0.0793  0.7197  0.0343  -0.9441   0.0000   0.0000   0.0000   0.6336
  -1.500   0.2172   0.01049   0.00262  -0.0793  0.7170  0.1202  -0.8874   0.0000   0.0000   0.0000   0.6164
  -1.400   0.2272   0.01025   0.00259  -0.0792  0.7142  0.1740  -0.8303   0.0000   0.0000   0.0000   0.5998
  -1.300   0.2375   0.01009   0.00258  -0.0791  0.7114  0.2159  -0.7750   0.0000   0.0000   0.0000   0.5842
  -1.200   0.2476   0.00993   0.00257  -0.0790  0.7086  0.2624  -0.7225   0.0000   0.0000   0.0000   0.5700
  -1.100   0.2577   0.00978   0.00258  -0.0789  0.7058  0.3100  -0.6723   0.0000   0.0000   0.0000   0.5569
  -1.000   0.2678   0.00964   0.00259  -0.0788  0.7029  0.3567  -0.6239   0.0000   0.0000   0.0000   0.5448
  -0.900   0.2778   0.00952   0.00262  -0.0787  0.6999  0.4058  -0.5838   0.0000   0.0000   0.0000   0.5335
  -0.800   0.2876   0.00938   0.00266  -0.0785  0.6966  0.4624  -0.5904   0.0000   0.0000   0.0000   0.5231
  -0.700   0.2970   0.00924   0.00273  -0.0782  0.6929  0.5263  -0.5967   0.0000   0.0000   0.0000   0.5134
  -0.600   0.3060   0.00911   0.00284  -0.0779  0.6889  0.5981  -0.6028   0.0000   0.0000   0.0000   0.5044
  -0.500   0.3615   0.00816   0.00300  -0.0861  0.6875  1.0000  -0.6331   0.0000   0.0000   0.0000   0.4878
  -0.400   0.3714   0.00817   0.00299  -0.0858  0.6861  1.0000  -0.6397   0.0000   0.0000   0.0000   0.4807
  -0.300   0.3813   0.00818   0.00299  -0.0856  0.6846  1.0000  -0.6464   0.0000   0.0000   0.0000   0.4740
  -0.200   0.3913   0.00820   0.00298  -0.0854  0.6828  1.0000  -0.6531   0.0000   0.0000   0.0000   0.4677
  -0.100   0.4012   0.00822   0.00298  -0.0852  0.6807  1.0000  -0.6598   0.0000   0.0000   0.0000   0.4616
   0.000   0.4112   0.00824   0.00297  -0.0850  0.6784  1.0000  -0.6665   0.0000   0.0000   0.0000   0.4559
   0.100   0.4212   0.00827   0.00297  -0.0848  0.6760  1.0000  -0.6732   0.0000   0.0000   0.0000   0.4503
   0.200   0.4312   0.00829   0.00297  -0.0846  0.6734  1.0000  -0.6800   0.0000   0.0000   0.0000   0.4451
   0.300   0.4412   0.00832   0.00296  -0.0843  0.6707  1.0000  -0.6868   0.0000   0.0000   0.0000   0.4400
   0.400   0.4512   0.00835   0.00296  -0.0841  0.6681  1.0000  -0.6936   0.0000   0.0000   0.0000   0.4352
   0.500   0.4613   0.00837   0.00296  -0.0839  0.6655  1.0000  -0.7005   0.0000   0.0000   0.0000   0.4305
   0.600   0.4713   0.00841   0.00296  -0.0837  0.6629  1.0000  -0.7073   0.0000   0.0000   0.0000   0.4261
   0.700   0.4814   0.00845   0.00297  -0.0835  0.6605  1.0000  -0.7142   0.0000   0.0000   0.0000   0.4219
   0.800   0.4916   0.00850   0.00298  -0.0833  0.6580  1.0000  -0.7210   0.0000   0.0000   0.0000   0.4178
   0.900   0.5017   0.00855   0.00300  -0.0831  0.6555  1.0000  -0.7279   0.0000   0.0000   0.0000   0.4139
   1.000   0.5119   0.00861   0.00302  -0.0829  0.6528  1.0000  -0.7347   0.0000   0.0000   0.0000   0.4102
   1.100   0.5221   0.00869   0.00306  -0.0827  0.6498  1.0000  -0.7415   0.0000   0.0000   0.0000   0.4066
   1.200   0.5325   0.00879   0.00313  -0.0826  0.6465  1.0000  -0.7489   0.0000   0.0000   0.0000   0.4032
   1.300   0.5429   0.00892   0.00324  -0.0825  0.6427  1.0000  -0.7566   0.0000   0.0000   0.0000   0.4000
   1.400   0.5532   0.00903   0.00334  -0.0824  0.6400  1.0000  -0.7642   0.0000   0.0000   0.0000   0.3969
   1.500   0.5635   0.00905   0.00336  -0.0823  0.6390  1.0000  -0.7721   0.0000   0.0000   0.0000   0.3938
   1.600   0.5737   0.00908   0.00339  -0.0821  0.6378  1.0000  -0.7800   0.0000   0.0000   0.0000   0.3908
   1.700   0.5840   0.00911   0.00342  -0.0819  0.6365  1.0000  -0.7879   0.0000   0.0000   0.0000   0.3880
   1.800   0.5943   0.00914   0.00345  -0.0818  0.6349  1.0000  -0.7968   0.0000   0.0000   0.0000   0.3852
   1.900   0.6046   0.00917   0.00348  -0.0816  0.6331  1.0000  -0.8058   0.0000   0.0000   0.0000   0.3825
   2.000   0.6148   0.00920   0.00351  -0.0815  0.6311  1.0000  -0.8148   0.0000   0.0000   0.0000   0.3799
   2.100   0.6251   0.00923   0.00354  -0.0813  0.6289  1.0000  -0.8241   0.0000   0.0000   0.0000   0.3774
   2.200   0.6355   0.00926   0.00357  -0.0811  0.6265  1.0000  -0.8344   0.0000   0.0000   0.0000   0.3749
   2.300   0.6458   0.00929   0.00359  -0.0810  0.6240  1.0000  -0.8449   0.0000   0.0000   0.0000   0.3725
   2.400   0.6562   0.00933   0.00362  -0.0808  0.6216  1.0000  -0.8568   0.0000   0.0000   0.0000   0.3702
   2.500   0.6666   0.00936   0.00365  -0.0807  0.6191  1.0000  -0.8687   0.0000   0.0000   0.0000   0.3680
   2.600   0.6770   0.00940   0.00368  -0.0805  0.6167  1.0000  -0.8807   0.0000   0.0000   0.0000   0.3659
   2.700   0.6873   0.00943   0.00370  -0.0804  0.6142  1.0000  -0.8939   0.0000   0.0000   0.0000   0.3637
   2.800   0.6977   0.00947   0.00373  -0.0802  0.6116  1.0000  -0.9078   0.0000   0.0000   0.0000   0.3617
   2.900   0.7081   0.00952   0.00375  -0.0801  0.6089  1.0000  -0.9229   0.0000   0.0000   0.0000   0.3597
   3.000   0.7186   0.00956   0.00383  -0.0799  0.6060  1.0000  -0.9391   0.0000   0.0000   0.0000   0.3577
   3.100   0.7290   0.00963   0.00387  -0.0798  0.6028  1.0000  -0.9553   0.0000   0.0000   0.0000   0.3559
   3.200   0.7395   0.00973   0.00394  -0.0797  0.5990  1.0000  -0.9716   0.0000   0.0000   0.0000   0.3541
   3.300   0.7500   0.00990   0.00409  -0.0796  0.5941  1.0000  -0.9901   0.0000   0.0000   0.0000   0.3524
   3.400   0.7601   0.00989   0.00407  -0.0794  0.5900  1.0000  -1.0094   0.0000   0.0000   0.0000   0.3506
   3.500   0.7698   0.00974   0.00392  -0.0790  0.5853  1.0000  -1.0288   0.0000   0.0000   0.0000   0.3486
   3.600   0.7795   0.00961   0.00377  -0.0785  0.5780  1.0000  -1.0483   0.0000   0.0000   0.0000   0.3467
   3.700   0.7891   0.00951   0.00363  -0.0781  0.5689  1.0000  -1.0678   0.0000   0.0000   0.0000   0.3448
   3.800   0.7984   0.00947   0.00349  -0.0776  0.5583  1.0000  -1.0872   0.0000   0.0000   0.0000   0.3429
   3.900   0.8075   0.00956   0.00344  -0.0771  0.5454  1.0000  -1.1094   0.0000   0.0000   0.0000   0.3411
   4.000   0.8172   0.00952   0.00341  -0.0768  0.5379  1.0000  -1.1340   0.0000   0.0000   0.0000   0.3395
   4.100   0.8271   0.00949   0.00338  -0.0765  0.5294  1.0000  -1.1629   0.0000   0.0000   0.0000   0.3379
   4.200   0.8368   0.00952   0.00336  -0.0762  0.5202  1.0000  -1.1917   0.0000   0.0000   0.0000   0.3364
   4.300   0.8466   0.00957   0.00337  -0.0760  0.5126  1.0000  -1.2205   0.0000   0.0000   0.0000   0.3350
   4.400   0.8563   0.00963   0.00338  -0.0757  0.5058  1.0000  -1.2493   0.0000   0.0000   0.0000   0.3335
   4.500   0.8659   0.00972   0.00341  -0.0754  0.4986  1.0000  -1.2780   0.0000   0.0000   0.0000   0.3321
   4.600   0.8759   0.00979   0.00347  -0.0752  0.4930  1.0000  -1.3074   0.0000   0.0000   0.0000   0.3308
   4.700   0.8863   0.00982   0.00352  -0.0751  0.4886  1.0000  -1.3374   0.0000   0.0000   0.0000   0.3295
   4.800   0.8965   0.00986   0.00357  -0.0749  0.4823  1.0000  -1.3880   0.0000   0.0000   0.0000   0.3283
   4.900   0.9065   0.00992   0.00361  -0.0747  0.4744  1.0000  -1.4444   0.0000   0.0000   0.0000   0.3270
   5.000   0.9159   0.01000   0.00365  -0.0744  0.4646  1.0000  -1.5007   0.0000   0.0000   0.0000   0.3258
   5.100   0.9248   0.01012   0.00368  -0.0740  0.4535  1.0000  -1.5566   0.0000   0.0000   0.0000   0.3244
   5.200   0.9341   0.01023   0.00374  -0.0737  0.4437  1.0000  -1.6190   0.0000   0.0000   0.0000   0.3232
   5.300   0.9440   0.01030   0.00380  -0.0735  0.4333  1.0000  -1.7075   0.0000   0.0000   0.0000   0.3221
   5.400   0.9528   0.01044   0.00386  -0.0731  0.4176  1.0000  -1.7927   0.0000   0.0000   0.0000   0.3208
   5.500   0.9602   0.01065   0.00394  -0.0725  0.3987  1.0000  -1.8726   0.0000   0.0000   0.0000   0.3195
   5.600   0.9687   0.01082   0.00402  -0.0721  0.3771  1.0000  -1.9576   0.0000   0.0000   0.0000   0.3183
   5.700   0.9747   0.01117   0.00417  -0.0713  0.3469  1.0000  -2.0315   0.0000   0.0000   0.0000   0.3169
   5.800   0.9796   0.01161   0.00438  -0.0704  0.3079  1.0000  -2.1008   0.0000   0.0000   0.0000   0.3155
   5.900   0.9840   0.01214   0.00465  -0.0695  0.2660  1.0000  -2.1662   0.0000   0.0000   0.0000   0.3141
   6.000   0.9881   0.01271   0.00497  -0.0685  0.2255  1.0000  -2.2294   0.0000   0.0000   0.0000   0.3127
   6.100   0.9924   0.01327   0.00531  -0.0676  0.1883  1.0000  -2.2919   0.0000   0.0000   0.0000   0.3114
   6.200   0.9961   0.01389   0.00568  -0.0666  0.1480  1.0000  -2.3501   0.0000   0.0000   0.0000   0.3101
   6.300   0.9970   0.01475   0.00619  -0.0653  0.0953  1.0000  -2.3948   0.0000   0.0000   0.0000   0.3086
   6.400   0.9975   0.01562   0.00673  -0.0639  0.0482  1.0000  -2.4367   0.0000   0.0000   0.0000   0.3070
   6.500   1.0009   0.01625   0.00719  -0.0628  0.0221  1.0000  -2.4889   0.0000   0.0000   0.0000   0.3056
   6.600   1.0084   0.01653   0.00745  -0.0622  0.0171  1.0000  -2.5563   0.0000   0.0000   0.0000   0.3045
   6.700   1.0168   0.01673   0.00767  -0.0618  0.0142  1.0000  -2.6234   0.0000   0.0000   0.0000   0.3034
   6.800   1.0253   0.01693   0.00789  -0.0613  0.0131  1.0000  -2.6885   0.0000   0.0000   0.0000   0.3023
   6.900   1.0335   0.01714   0.00814  -0.0609  0.0128  1.0000  -2.7584   0.0000   0.0000   0.0000   0.3013
   7.000   1.0415   0.01737   0.00841  -0.0603  0.0126  1.0000  -2.8282   0.0000   0.0000   0.0000   0.3002
   7.100   1.0517   0.01737   0.00875  -0.0604  0.0153  1.0000  -3.0358   0.0000   0.0000   0.0000   0.2996
   7.200   1.0606   0.01750   0.00894  -0.0601  0.0164  1.0000  -3.1595   0.0000   0.0000   0.0000   0.2987
   7.300   1.0682   0.01776   0.00925  -0.0595  0.0149  1.0000  -3.2243   0.0000   0.0000   0.0000   0.2976
   7.400   1.0752   0.01807   0.00965  -0.0588  0.0138  1.0000  -3.2726   0.0000   0.0000   0.0000   0.2964
   7.500   1.0817   0.01841   0.01008  -0.0580  0.0133  1.0000  -3.3194   0.0000   0.0000   0.0000   0.2952
   7.600   1.0884   0.01872   0.01046  -0.0573  0.0132  1.0000  -3.3842   0.0000   0.0000   0.0000   0.2941
   7.700   1.0946   0.01905   0.01088  -0.0565  0.0131  1.0000  -3.4458   0.0000   0.0000   0.0000   0.2930
   7.800   1.1004   0.01941   0.01132  -0.0557  0.0130  1.0000  -3.5044   0.0000   0.0000   0.0000   0.2919
   7.900   1.1056   0.01980   0.01178  -0.0548  0.0129  1.0000  -3.5598   0.0000   0.0000   0.0000   0.2907
   8.000   1.1101   0.02022   0.01227  -0.0538  0.0129  1.0000  -3.6114   0.0000   0.0000   0.0000   0.2894
   8.100   1.1136   0.02065   0.01278  -0.0526  0.0129  1.0000  -3.6585   0.0000   0.0000   0.0000   0.2881
   8.200   1.1163   0.02111   0.01330  -0.0513  0.0129  1.0000  -3.7018   0.0000   0.0000   0.0000   0.2867
   8.300   1.1184   0.02159   0.01385  -0.0500  0.0129  1.0000  -3.7419   0.0000   0.0000   0.0000   0.2853
   8.400   1.1200   0.02211   0.01444  -0.0486  0.0129  1.0000  -3.7793   0.0000   0.0000   0.0000   0.2839
   8.500   1.1212   0.02267   0.01506  -0.0472  0.0129  1.0000  -3.8143   0.0000   0.0000   0.0000   0.2824
   8.600   1.1223   0.02326   0.01571  -0.0458  0.0129  1.0000  -3.8477   0.0000   0.0000   0.0000   0.2811
   8.700   1.1232   0.02389   0.01640  -0.0445  0.0129  1.0000  -3.8790   0.0000   0.0000   0.0000   0.2797
   8.800   1.1240   0.02456   0.01712  -0.0432  0.0129  1.0000  -3.9086   0.0000   0.0000   0.0000   0.2784
   8.900   1.1247   0.02526   0.01789  -0.0419  0.0130  1.0000  -3.9365   0.0000   0.0000   0.0000   0.2771
   9.000   1.1255   0.02601   0.01870  -0.0407  0.0130  1.0000  -3.9628   0.0000   0.0000   0.0000   0.2759
   9.100   1.1265   0.02682   0.01956  -0.0396  0.0130  1.0000  -3.9872   0.0000   0.0000   0.0000   0.2747
   9.200   1.1277   0.02767   0.02047  -0.0385  0.0131  1.0000  -4.0091   0.0000   0.0000   0.0000   0.2735
   9.300   1.1293   0.02861   0.02147  -0.0374  0.0132  1.0000  -4.0272   0.0000   0.0000   0.0000   0.2724
   9.400   1.1317   0.02975   0.02268  -0.0363  0.0133  1.0000  -4.0351   0.0000   0.0000   0.0000   0.2712
   9.500   1.1367   0.03049   0.02350  -0.0356  0.0134  1.0000  -4.0795   0.0000   0.0000   0.0000   0.2703
   9.600   1.1423   0.03103   0.02408  -0.0350  0.0135  1.0000  -4.1406   0.0000   0.0000   0.0000   0.2695
   9.700   1.1480   0.03155   0.02463  -0.0345  0.0137  1.0000  -4.2033   0.0000   0.0000   0.0000   0.2687
   9.800   1.1538   0.03206   0.02518  -0.0339  0.0139  1.0000  -4.2671   0.0000   0.0000   0.0000   0.2679
   9.900   1.1596   0.03257   0.02573  -0.0334  0.0141  1.0000  -4.3315   0.0000   0.0000   0.0000   0.2672
  10.000   1.1654   0.03308   0.02628  -0.0328  0.0143  1.0000  -4.3958   0.0000   0.0000   0.0000   0.2664
  10.100   1.1712   0.03360   0.02684  -0.0323  0.0145  1.0000  -4.4596   0.0000   0.0000   0.0000   0.2657
  10.200   1.1770   0.03413   0.02742  -0.0318  0.0147  1.0000  -4.5222   0.0000   0.0000   0.0000   0.2650
  10.300   1.1830   0.03469   0.02803  -0.0312  0.0151  1.0000  -4.5825   0.0000   0.0000   0.0000   0.2642
  10.400   1.1893   0.03530   0.02871  -0.0307  0.0154  1.0000  -4.6380   0.0000   0.0000   0.0000   0.2635
  10.500   1.1967   0.03604   0.02954  -0.0301  0.0160  1.0000  -4.6811   0.0000   0.0000   0.0000   0.2627
  10.700   1.2290   0.04247   0.03671  -0.0293  0.0216  1.0000  -4.4625   0.0000   0.0000   0.0000   0.2612
  10.800   1.2295   0.04517   0.03962  -0.0284  0.0231  1.0000  -4.4003   0.0000   0.0000   0.0000   0.2604
  10.900   1.2256   0.04791   0.04255  -0.0273  0.0243  1.0000  -4.3366   0.0000   0.0000   0.0000   0.2594
  14.200   0.9914   0.12559   0.12287  -0.0433  0.0461  1.0000  -3.0912   0.0000   0.0000   0.0000   0.2765
  14.300   0.9821   0.12935   0.12663  -0.0457  0.0456  1.0000  -3.0243   0.0000   0.0000   0.0000   0.2793
  15.300   0.9209   0.17116   0.16838  -0.0717  0.0414  1.0000  -2.1983   0.0000   0.0000   0.0000   0.3108
  15.400   0.9226   0.17330   0.17051  -0.0731  0.0403  1.0000  -2.1807   0.0000   0.0000   0.0000   0.3120
  15.500   0.9230   0.17572   0.17293  -0.0745  0.0394  1.0000  -2.1552   0.0000   0.0000   0.0000   0.3134
  15.600   0.9229   0.17823   0.17543  -0.0759  0.0386  1.0000  -2.1270   0.0000   0.0000   0.0000   0.3148
  15.700   0.9230   0.18066   0.17786  -0.0772  0.0379  1.0000  -2.1029   0.0000   0.0000   0.0000   0.3161
  15.800   0.9232   0.18302   0.18021  -0.0784  0.0372  1.0000  -2.0826   0.0000   0.0000   0.0000   0.3173
  15.900   0.9236   0.18531   0.18250  -0.0795  0.0365  1.0000  -2.0654   0.0000   0.0000   0.0000   0.3184
  16.000   0.9242   0.18755   0.18474  -0.0806  0.0359  1.0000  -2.0511   0.0000   0.0000   0.0000   0.3194
  16.100   0.9249   0.18974   0.18692  -0.0816  0.0353  1.0000  -2.0393   0.0000   0.0000   0.0000   0.3204
  16.200   0.9257   0.19188   0.18906  -0.0826  0.0348  1.0000  -2.0299   0.0000   0.0000   0.0000   0.3212
  16.300   0.9266   0.19398   0.19116  -0.0835  0.0342  1.0000  -2.0226   0.0000   0.0000   0.0000   0.3220
  16.400   0.9277   0.19604   0.19322  -0.0845  0.0337  1.0000  -2.0174   0.0000   0.0000   0.0000   0.3228
  16.500   0.9289   0.19806   0.19524  -0.0853  0.0333  1.0000  -2.0143   0.0000   0.0000   0.0000   0.3235
  16.600   0.9301   0.20004   0.19722  -0.0862  0.0328  1.0000  -2.0134   0.0000   0.0000   0.0000   0.3241
  16.700   0.9316   0.20199   0.19917  -0.0870  0.0324  1.0000  -2.0148   0.0000   0.0000   0.0000   0.3247
  16.800   0.9331   0.20389   0.20107  -0.0877  0.0319  1.0000  -2.0184   0.0000   0.0000   0.0000   0.3252
  16.900   0.9348   0.20576   0.20294  -0.0885  0.0316  1.0000  -2.0243   0.0000   0.0000   0.0000   0.3257
  17.000   0.9365   0.20759   0.20478  -0.0892  0.0312  1.0000  -2.0321   0.0000   0.0000   0.0000   0.3261
  17.100   0.9384   0.20939   0.20658  -0.0898  0.0308  1.0000  -2.0422   0.0000   0.0000   0.0000   0.3265
  17.200   0.9404   0.21115   0.20834  -0.0904  0.0305  1.0000  -2.0548   0.0000   0.0000   0.0000   0.3268
  17.300   0.9425   0.21287   0.21007  -0.0910  0.0301  1.0000  -2.0699   0.0000   0.0000   0.0000   0.3270
  17.400   0.9447   0.21457   0.21177  -0.0915  0.0298  1.0000  -2.0873   0.0000   0.0000   0.0000   0.3271
  17.500   0.9468   0.21627   0.21347  -0.0920  0.0295  1.0000  -2.1053   0.0000   0.0000   0.0000   0.3273
  17.600   0.9491   0.21794   0.21515  -0.0925  0.0292  1.0000  -2.1257   0.0000   0.0000   0.0000   0.3274
  17.700   0.9514   0.21960   0.21681  -0.0929  0.0289  1.0000  -2.1485   0.0000   0.0000   0.0000   0.3274
  17.800   0.9538   0.22125   0.21847  -0.0933  0.0286  1.0000  -2.1735   0.0000   0.0000   0.0000   0.3274
  17.900   0.9560   0.22301   0.22023  -0.0937  0.0283  1.0000  -2.1967   0.0000   0.0000   0.0000   0.3274
  18.000   0.9569   0.22519   0.22242  -0.0943  0.0279  1.0000  -2.2032   0.0000   0.0000   0.0000   0.3278
  18.100   0.9566   0.22797   0.22520  -0.0950  0.0275  1.0000  -2.1942   0.0000   0.0000   0.0000   0.3284
  18.200   0.9432   0.23773   0.23490  -0.0973  0.0263  1.0000  -1.9599   0.0000   0.0000   0.0000   0.3324
  18.300   0.9443   0.24013   0.23731  -0.0982  0.0263  1.0000  -1.9469   0.0000   0.0000   0.0000   0.3331
  18.400   0.9455   0.24253   0.23971  -0.0990  0.0263  1.0000  -1.9342   0.0000   0.0000   0.0000   0.3338
  18.500   0.9466   0.24492   0.24210  -0.0999  0.0263  1.0000  -1.9217   0.0000   0.0000   0.0000   0.3344
  18.600   0.9477   0.24730   0.24448  -0.1008  0.0263  1.0000  -1.9096   0.0000   0.0000   0.0000   0.3351
  18.700   0.9488   0.24967   0.24686  -0.1016  0.0263  1.0000  -1.8977   0.0000   0.0000   0.0000   0.3357
  18.800   0.9499   0.25203   0.24922  -0.1024  0.0263  1.0000  -1.8861   0.0000   0.0000   0.0000   0.3364
  18.900   0.9510   0.25439   0.25158  -0.1033  0.0262  1.0000  -1.8747   0.0000   0.0000   0.0000   0.3370
  19.000   0.9520   0.25673   0.25392  -0.1041  0.0262  1.0000  -1.8635   0.0000   0.0000   0.0000   0.3376
  19.100   0.9531   0.25906   0.25626  -0.1049  0.0262  1.0000  -1.8526   0.0000   0.0000   0.0000   0.3382
  19.200   0.9541   0.26138   0.25858  -0.1058  0.0262  1.0000  -1.8420   0.0000   0.0000   0.0000   0.3388
  19.300   0.9551   0.26369   0.26089  -0.1066  0.0261  1.0000  -1.8315   0.0000   0.0000   0.0000   0.3394
  19.400   0.9560   0.26598   0.26318  -0.1074  0.0261  1.0000  -1.8213   0.0000   0.0000   0.0000   0.3400
  19.500   0.9570   0.26825   0.26546  -0.1082  0.0261  1.0000  -1.8113   0.0000   0.0000   0.0000   0.3406
  19.600   0.9579   0.27049   0.26771  -0.1090  0.0260  1.0000  -1.8016   0.0000   0.0000   0.0000   0.3412
  19.700   0.9588   0.27271   0.26993  -0.1098  0.0260  1.0000  -1.7922   0.0000   0.0000   0.0000   0.3418
  19.800   0.9596   0.27490   0.27212  -0.1106  0.0259  1.0000  -1.7830   0.0000   0.0000   0.0000   0.3424
  19.900   0.9605   0.27705   0.27428  -0.1114  0.0259  1.0000  -1.7743   0.0000   0.0000   0.0000   0.3430
  20.000   0.9613   0.27915   0.27638  -0.1122  0.0258  1.0000  -1.7658   0.0000   0.0000   0.0000   0.3436
  20.100   0.9622   0.28119   0.27842  -0.1130  0.0257  1.0000  -1.7578   0.0000   0.0000   0.0000   0.3442
  20.200   0.9631   0.28315   0.28039  -0.1139  0.0255  1.0000  -1.7500   0.0000   0.0000   0.0000   0.3448
  20.300   0.9640   0.28503   0.28228  -0.1147  0.0253  1.0000  -1.7417   0.0000   0.0000   0.0000   0.3454
  20.400   0.9640   0.28699   0.28424  -0.1158  0.0250  1.0000  -1.7222   0.0000   0.0000   0.0000   0.3464
  20.500   0.9639   0.28902   0.28627  -0.1169  0.0247  1.0000  -1.6989   0.0000   0.0000   0.0000   0.3475
  20.600   0.9640   0.29113   0.28838  -0.1180  0.0243  1.0000  -1.6761   0.0000   0.0000   0.0000   0.3484
  20.700   0.9641   0.29332   0.29058  -0.1189  0.0238  1.0000  -1.6554   0.0000   0.0000   0.0000   0.3493
  20.800   0.9641   0.29555   0.29287  -0.1198  0.0234  1.0000  -1.6337   0.0000   0.0000   0.0000   0.3500
  20.900   0.9641   0.29776   0.29510  -0.1205  0.0229  1.0000  -1.6169   0.0000   0.0000   0.0000   0.3507
  21.000   0.9638   0.29997   0.29730  -0.1212  0.0225  1.0000  -1.6028   0.0000   0.0000   0.0000   0.3513
  21.100   0.9634   0.30214   0.29948  -0.1219  0.0222  1.0000  -1.5900   0.0000   0.0000   0.0000   0.3519
  21.200   0.9628   0.30426   0.30162  -0.1225  0.0218  1.0000  -1.5780   0.0000   0.0000   0.0000   0.3525
  21.300   0.9619   0.30634   0.30371  -0.1230  0.0215  1.0000  -1.5663   0.0000   0.0000   0.0000   0.3531
  21.400   0.9608   0.30836   0.30574  -0.1235  0.0212  1.0000  -1.5548   0.0000   0.0000   0.0000   0.3536
  21.500   0.9593   0.31030   0.30769  -0.1240  0.0209  1.0000  -1.5432   0.0000   0.0000   0.0000   0.3542
  21.600   0.9573   0.31215   0.30954  -0.1244  0.0206  1.0000  -1.5310   0.0000   0.0000   0.0000   0.3548
  21.700   0.9548   0.31385   0.31126  -0.1248  0.0204  1.0000  -1.5178   0.0000   0.0000   0.0000   0.3554
  21.800   0.9510   0.31526   0.31269  -0.1250  0.0201  1.0000  -1.5017   0.0000   0.0000   0.0000   0.3561
  21.900   0.9068   0.30709   0.30461  -0.1209  0.0203  1.0000  -1.3845   0.0000   0.0000   0.0000   0.3587
  22.000   0.8997   0.30675   0.30429  -0.1207  0.0201  1.0000  -1.3610   0.0000   0.0000   0.0000   0.3595
  22.100   0.8942   0.30670   0.30426  -0.1207  0.0199  1.0000  -1.3419   0.0000   0.0000   0.0000   0.3603
  22.200   0.8896   0.30681   0.30439  -0.1207  0.0197  1.0000  -1.3253   0.0000   0.0000   0.0000   0.3610
  22.300   0.8857   0.30700   0.30460  -0.1208  0.0194  1.0000  -1.3106   0.0000   0.0000   0.0000   0.3616
  22.400   0.8821   0.30726   0.30487  -0.1209  0.0192  1.0000  -1.2973   0.0000   0.0000   0.0000   0.3622
  22.500   0.8790   0.30756   0.30519  -0.1211  0.0190  1.0000  -1.2853   0.0000   0.0000   0.0000   0.3628
  22.600   0.8762   0.30791   0.30556  -0.1212  0.0188  1.0000  -1.2743   0.0000   0.0000   0.0000   0.3634
  22.700   0.8736   0.30829   0.30595  -0.1215  0.0186  1.0000  -1.2643   0.0000   0.0000   0.0000   0.3640
  22.800   0.8712   0.30869   0.30636  -0.1217  0.0184  1.0000  -1.2551   0.0000   0.0000   0.0000   0.3645
  22.900   0.8690   0.30912   0.30680  -0.1219  0.0182  1.0000  -1.2467   0.0000   0.0000   0.0000   0.3650
  23.000   0.8670   0.30956   0.30725  -0.1222  0.0180  1.0000  -1.2390   0.0000   0.0000   0.0000   0.3655
  23.100   0.8651   0.31001   0.30772  -0.1224  0.0178  1.0000  -1.2320   0.0000   0.0000   0.0000   0.3660
  23.200   0.8633   0.31048   0.30820  -0.1227  0.0176  1.0000  -1.2256   0.0000   0.0000   0.0000   0.3665
  23.300   0.8617   0.31095   0.30868  -0.1229  0.0175  1.0000  -1.2198   0.0000   0.0000   0.0000   0.3670
  23.400   0.8602   0.31144   0.30918  -0.1232  0.0173  1.0000  -1.2146   0.0000   0.0000   0.0000   0.3674
  23.500   0.8588   0.31193   0.30968  -0.1235  0.0171  1.0000  -1.2100   0.0000   0.0000   0.0000   0.3679
  23.600   0.8574   0.31242   0.31019  -0.1238  0.0170  1.0000  -1.2059   0.0000   0.0000   0.0000   0.3683
  23.700   0.8562   0.31292   0.31070  -0.1241  0.0168  1.0000  -1.2024   0.0000   0.0000   0.0000   0.3687
  23.800   0.8550   0.31342   0.31121  -0.1244  0.0166  1.0000  -1.1994   0.0000   0.0000   0.0000   0.3692
  23.900   0.8539   0.31392   0.31172  -0.1247  0.0165  1.0000  -1.1973   0.0000   0.0000   0.0000   0.3695
  24.000   0.8530   0.31439   0.31220  -0.1250  0.0163  1.0000  -1.1990   0.0000   0.0000   0.0000   0.3699
  24.100   0.8523   0.31478   0.31260  -0.1252  0.0160  1.0000  -1.2078   0.0000   0.0000   0.0000   0.3702
  24.200   0.8517   0.31507   0.31290  -0.1254  0.0156  1.0000  -1.2251   0.0000   0.0000   0.0000   0.3703
  24.300   0.8515   0.31525   0.31309  -0.1256  0.0153  1.0000  -1.2517   0.0000   0.0000   0.0000   0.3703
  24.400   0.8514   0.31530   0.31316  -0.1256  0.0149  1.0000  -1.2897   0.0000   0.0000   0.0000   0.3701
  24.500   0.8518   0.31524   0.31311  -0.1254  0.0144  1.0000  -1.3430   0.0000   0.0000   0.0000   0.3696
  24.600   0.8514   0.31561   0.31351  -0.1245  0.0138  1.0000  -1.3973   0.0000   0.0000   0.0000   0.3685
  24.700   0.8418   0.31830   0.31617  -0.1245  0.0133  1.0000  -1.2412   0.0000   0.0000   0.0000   0.3704
  24.800   0.8408   0.31886   0.31674  -0.1250  0.0132  1.0000  -1.2291   0.0000   0.0000   0.0000   0.3710
  24.900   0.8399   0.31945   0.31733  -0.1255  0.0132  1.0000  -1.2181   0.0000   0.0000   0.0000   0.3716
  25.000   0.8391   0.32006   0.31795  -0.1259  0.0132  1.0000  -1.2081   0.0000   0.0000   0.0000   0.3721
  25.100   0.8384   0.32071   0.31861  -0.1263  0.0132  1.0000  -1.1990   0.0000   0.0000   0.0000   0.3726
  25.200   0.8377   0.32136   0.31927  -0.1268  0.0132  1.0000  -1.1900   0.0000   0.0000   0.0000   0.3731
  25.300   0.8371   0.32200   0.31992  -0.1272  0.0132  1.0000  -1.1810   0.0000   0.0000   0.0000   0.3736
  25.400   0.8364   0.32265   0.32057  -0.1276  0.0131  1.0000  -1.1720   0.0000   0.0000   0.0000   0.3741
  25.500   0.8358   0.32329   0.32123  -0.1281  0.0131  1.0000  -1.1699   0.0000   0.0000   0.0000   0.3745
  25.600   0.8352   0.32394   0.32188  -0.1285  0.0131  1.0000  -1.1706   0.0000   0.0000   0.0000   0.3750
  25.700   0.8346   0.32459   0.32253  -0.1290  0.0131  1.0000  -1.1698   0.0000   0.0000   0.0000   0.3756
  25.800   0.8340   0.32524   0.32319  -0.1294  0.0130  1.0000  -1.1672   0.0000   0.0000   0.0000   0.3761
  25.900   0.8335   0.32590   0.32385  -0.1299  0.0130  1.0000  -1.1616   0.0000   0.0000   0.0000   0.3766
  26.000   0.8330   0.32656   0.32452  -0.1305  0.0129  1.0000  -1.1525   0.0000   0.0000   0.0000   0.3772
  26.100   0.8326   0.32724   0.32521  -0.1310  0.0129  1.0000  -1.1404   0.0000   0.0000   0.0000   0.3777
  26.200   0.8321   0.32797   0.32594  -0.1317  0.0127  1.0000  -1.1201   0.0000   0.0000   0.0000   0.3785
  26.300   0.8321   0.32884   0.32681  -0.1325  0.0125  1.0000  -1.0958   0.0000   0.0000   0.0000   0.3793
  26.400   0.8339   0.33033   0.32830  -0.1337  0.0115  1.0000  -1.0567   0.0000   0.0000   0.0000   0.3803
  26.500   0.8346   0.33151   0.32949  -0.1343  0.0100  1.0000  -1.0395   0.0000   0.0000   0.0000   0.3807
  26.600   0.8345   0.33228   0.33027  -0.1347  0.0091  1.0000  -1.0423   0.0000   0.0000   0.0000   0.3811
  26.700   0.8343   0.33298   0.33098  -0.1352  0.0084  1.0000  -1.0491   0.0000   0.0000   0.0000   0.3815
  26.800   0.8341   0.33363   0.33163  -0.1356  0.0079  1.0000  -1.0583   0.0000   0.0000   0.0000   0.3818
  26.900   0.8340   0.33425   0.33226  -0.1359  0.0074  1.0000  -1.0695   0.0000   0.0000   0.0000   0.3821
  27.000   0.8338   0.33484   0.33286  -0.1363  0.0071  1.0000  -1.0826   0.0000   0.0000   0.0000   0.3824
  27.100   0.8337   0.33540   0.33343  -0.1367  0.0067  1.0000  -1.0973   0.0000   0.0000   0.0000   0.3827
  27.200   0.8336   0.33594   0.33397  -0.1371  0.0065  1.0000  -1.1138   0.0000   0.0000   0.0000   0.3829
  27.300   0.8335   0.33646   0.33449  -0.1375  0.0062  1.0000  -1.1319   0.0000   0.0000   0.0000   0.3832
  27.400   0.8334   0.33694   0.33499  -0.1378  0.0060  1.0000  -1.1519   0.0000   0.0000   0.0000   0.3834
  27.500   0.8333   0.33739   0.33545  -0.1382  0.0058  1.0000  -1.1736   0.0000   0.0000   0.0000   0.3836
  27.600   0.8333   0.33781   0.33587  -0.1385  0.0056  1.0000  -1.1974   0.0000   0.0000   0.0000   0.3838
  27.700   0.8332   0.33820   0.33627  -0.1388  0.0055  1.0000  -1.2230   0.0000   0.0000   0.0000   0.3839
  27.800   0.8331   0.33855   0.33663  -0.1391  0.0053  1.0000  -1.2504   0.0000   0.0000   0.0000   0.3840
  27.900   0.8330   0.33887   0.33696  -0.1394  0.0052  1.0000  -1.2793   0.0000   0.0000   0.0000   0.3841
  28.000   0.8329   0.33918   0.33728  -0.1395  0.0051  1.0000  -1.3091   0.0000   0.0000   0.0000   0.3841
  28.100   0.8319   0.33965   0.33776  -0.1396  0.0049  1.0000  -1.3216   0.0000   0.0000   0.0000   0.3841
  28.200   0.8256   0.34206   0.34012  -0.1393  0.0045  1.0000  -1.1478   0.0000   0.0000   0.0000   0.3853
  28.300   0.8253   0.34286   0.34093  -0.1397  0.0045  1.0000  -1.1388   0.0000   0.0000   0.0000   0.3856
  28.400   0.8250   0.34366   0.34174  -0.1401  0.0045  1.0000  -1.1302   0.0000   0.0000   0.0000   0.3860
  28.500   0.8247   0.34449   0.34262  -0.1405  0.0045  1.0000  -1.1210   0.0000   0.0000   0.0000   0.3864
  28.600   0.8245   0.34529   0.34343  -0.1409  0.0045  1.0000  -1.1128   0.0000   0.0000   0.0000   0.3868
  28.700   0.8242   0.34609   0.34423  -0.1413  0.0045  1.0000  -1.1049   0.0000   0.0000   0.0000   0.3871
  28.800   0.8240   0.34689   0.34504  -0.1417  0.0045  1.0000  -1.0973   0.0000   0.0000   0.0000   0.3875
  28.900   0.8238   0.34769   0.34584  -0.1421  0.0044  1.0000  -1.0899   0.0000   0.0000   0.0000   0.3878
  29.000   0.8236   0.34848   0.34664  -0.1425  0.0044  1.0000  -1.0827   0.0000   0.0000   0.0000   0.3881
  29.100   0.8234   0.34928   0.34744  -0.1429  0.0044  1.0000  -1.0757   0.0000   0.0000   0.0000   0.3885
  29.200   0.8232   0.35007   0.34824  -0.1433  0.0044  1.0000  -1.0688   0.0000   0.0000   0.0000   0.3888
  29.300   0.8230   0.35086   0.34904  -0.1437  0.0044  1.0000  -1.0621   0.0000   0.0000   0.0000   0.3891
  29.400   0.8229   0.35166   0.34983  -0.1441  0.0044  1.0000  -1.0555   0.0000   0.0000   0.0000   0.3894
  29.500   0.8227   0.35245   0.35063  -0.1445  0.0044  1.0000  -1.0491   0.0000   0.0000   0.0000   0.3898
  29.600   0.8225   0.35324   0.35143  -0.1449  0.0044  1.0000  -1.0428   0.0000   0.0000   0.0000   0.3901
  29.700   0.8224   0.35403   0.35222  -0.1453  0.0044  1.0000  -1.0366   0.0000   0.0000   0.0000   0.3904
  29.800   0.8222   0.35482   0.35302  -0.1457  0.0044  1.0000  -1.0302   0.0000   0.0000   0.0000   0.3907
  29.900   0.8221   0.35561   0.35381  -0.1461  0.0044  1.0000  -1.0240   0.0000   0.0000   0.0000   0.3910
  30.000   0.8219   0.35640   0.35461  -0.1465  0.0044  1.0000  -1.0179   0.0000   0.0000   0.0000   0.3914


