xflr5 v6.61

 Calculated polar for: E216  (10.4%)

 1 1 Reynolds number fixed          Mach number fixed         

 xtrf =   1.000 (top)        1.000 (bottom)
 Mach =   0.000     Re =     0.688 e 6     Ncrit =   9.000

  alpha     CL        CD       CDp       Cm    Top Xtr Bot Xtr   Cpmin    Chinge    XCp    
 ------- -------- --------- --------- -------- ------- ------- -------- --------- ---------
 -10.000  -0.2681   0.11208   0.10993  -0.0549  0.9894  0.0091  -2.0383   0.0000   0.0000   0.0000   0.0289
  -9.900  -0.2630   0.11075   0.10860  -0.0561  0.9891  0.0092  -2.0173   0.0000   0.0000   0.0000   0.0201
  -9.800  -0.2577   0.10943   0.10728  -0.0574  0.9888  0.0094  -1.9957   0.0000   0.0000   0.0000   0.0107
  -9.700  -0.2519   0.10821   0.10606  -0.0586  0.9886  0.0095  -1.9634   0.0000   0.0000   0.0000   0.0006
  -9.600  -0.2493   0.10711   0.10497  -0.0588  0.9871  0.0096  -1.9393   0.0000   0.0000   0.0000  -0.0027
  -9.500  -0.2458   0.10599   0.10385  -0.0593  0.9858  0.0098  -1.9128   0.0000   0.0000   0.0000  -0.0081
  -9.400  -0.2413   0.10481   0.10267  -0.0601  0.9847  0.0099  -1.8858   0.0000   0.0000   0.0000  -0.0160
  -9.300  -0.2364   0.10359   0.10145  -0.0610  0.9838  0.0101  -1.8601   0.0000   0.0000   0.0000  -0.0253
  -9.200  -0.2314   0.10234   0.10021  -0.0621  0.9829  0.0103  -1.8361   0.0000   0.0000   0.0000  -0.0356
  -9.100  -0.2262   0.10106   0.09893  -0.0632  0.9821  0.0104  -1.8140   0.0000   0.0000   0.0000  -0.0470
  -9.000  -0.2210   0.09977   0.09764  -0.0644  0.9814  0.0106  -1.7940   0.0000   0.0000   0.0000  -0.0592
  -8.900  -0.2157   0.09846   0.09633  -0.0657  0.9808  0.0108  -1.7759   0.0000   0.0000   0.0000  -0.0722
  -8.800  -0.2105   0.09714   0.09501  -0.0669  0.9801  0.0111  -1.7601   0.0000   0.0000   0.0000  -0.0859
  -8.700  -0.2053   0.09580   0.09368  -0.0682  0.9796  0.0113  -1.7461   0.0000   0.0000   0.0000  -0.1006
  -8.600  -0.1999   0.09444   0.09232  -0.0696  0.9791  0.0115  -1.7337   0.0000   0.0000   0.0000  -0.1167
  -8.500  -0.1944   0.09305   0.09093  -0.0710  0.9786  0.0118  -1.7231   0.0000   0.0000   0.0000  -0.1344
  -8.400  -0.1887   0.09163   0.08950  -0.0726  0.9781  0.0121  -1.7140   0.0000   0.0000   0.0000  -0.1542
  -8.300  -0.1826   0.09014   0.08802  -0.0743  0.9777  0.0124  -1.7063   0.0000   0.0000   0.0000  -0.1768
  -8.200  -0.1762   0.08861   0.08649  -0.0761  0.9772  0.0127  -1.7003   0.0000   0.0000   0.0000  -0.2020
  -8.100  -0.1698   0.08705   0.08493  -0.0779  0.9768  0.0130  -1.6965   0.0000   0.0000   0.0000  -0.2301
  -8.000  -0.1631   0.08545   0.08333  -0.0799  0.9765  0.0134  -1.6948   0.0000   0.0000   0.0000  -0.2615
  -7.900  -0.1564   0.08383   0.08171  -0.0819  0.9761  0.0138  -1.6954   0.0000   0.0000   0.0000  -0.2961
  -7.800  -0.1613   0.08304   0.08093  -0.0804  0.9718  0.0139  -1.7064   0.0000   0.0000   0.0000  -0.2697
  -7.700  -0.1592   0.08173   0.07963  -0.0811  0.9696  0.0143  -1.7133   0.0000   0.0000   0.0000  -0.2803
  -7.600  -0.1556   0.08028   0.07818  -0.0823  0.9679  0.0146  -1.7209   0.0000   0.0000   0.0000  -0.3003
  -7.500  -0.1511   0.07874   0.07664  -0.0838  0.9665  0.0150  -1.7301   0.0000   0.0000   0.0000  -0.3262
  -7.400  -0.1459   0.07714   0.07504  -0.0855  0.9653  0.0155  -1.7405   0.0000   0.0000   0.0000  -0.3582
  -7.300  -0.1403   0.07547   0.07337  -0.0874  0.9641  0.0160  -1.7527   0.0000   0.0000   0.0000  -0.3962
  -7.200  -0.1340   0.07377   0.07168  -0.0895  0.9631  0.0166  -1.7660   0.0000   0.0000   0.0000  -0.4418
  -7.100  -0.1265   0.07219   0.07010  -0.0916  0.9622  0.0172  -1.7696   0.0000   0.0000   0.0000  -0.4986
  -7.000  -0.1170   0.07096   0.06886  -0.0935  0.9614  0.0181  -1.7513   0.0000   0.0000   0.0000  -0.5758
  -6.900  -0.1032   0.07060   0.06851  -0.0951  0.9609  0.0191  -1.6782   0.0000   0.0000   0.0000  -0.7008
  -6.800  -0.0935   0.06937   0.06727  -0.0974  0.9602  0.0193  -1.6582   0.0000   0.0000   0.0000  -0.8238
  -6.700  -0.0849   0.06765   0.06555  -0.1001  0.9595  0.0194  -1.6622   0.0000   0.0000   0.0000  -0.9639
  -6.600  -0.0965   0.06735   0.06527  -0.0967  0.9526  0.0194  -1.6803   0.0000   0.0000   0.0000  -0.7817
  -6.500  -0.0926   0.06571   0.06364  -0.0982  0.9494  0.0195  -1.6933   0.0000   0.0000   0.0000  -0.8413
  -6.400  -0.0853   0.06364   0.06157  -0.1009  0.9472  0.0195  -1.7110   0.0000   0.0000   0.0000  -0.9654
  -6.300  -0.0766   0.06130   0.05923  -0.1043  0.9454  0.0196  -1.7354   0.0000   0.0000   0.0000  -1.1473
  -6.200  -0.0666   0.05864   0.05656  -0.1085  0.9440  0.0196  -1.7688   0.0000   0.0000   0.0000  -1.4195
  -6.100  -0.0548   0.05539   0.05330  -0.1139  0.9427  0.0196  -1.8186   0.0000   0.0000   0.0000  -1.8758
  -6.000  -0.0373   0.04927   0.04714  -0.1248  0.9414  0.0197  -1.9580   0.0000   0.0000   0.0000  -3.1670
  -5.900  -0.0134   0.03091   0.02807  -0.1552  0.9389  0.0216  -2.5983   0.0000   0.0000   0.0000  -11.5109
  -5.800   0.0006   0.02945   0.02657  -0.1578  0.9385  0.0228  -2.5158   0.0000   0.0000   0.0000  252.8532
  -5.700   0.0148   0.02882   0.02592  -0.1594  0.9382  0.0239  -2.4059   0.0000   0.0000   0.0000  11.2071
  -5.600   0.0100   0.02867   0.02577  -0.1566  0.9325  0.0242  -2.3783   0.0000   0.0000   0.0000  16.0991
  -5.500   0.0172   0.02839   0.02549  -0.1563  0.9298  0.0250  -2.2947   0.0000   0.0000   0.0000   9.4924
  -5.400   0.0280   0.02797   0.02506  -0.1569  0.9283  0.0261  -2.2054   0.0000   0.0000   0.0000   5.9437
  -5.300   0.0403   0.02739   0.02444  -0.1579  0.9271  0.0276  -2.1245   0.0000   0.0000   0.0000   4.2249
  -5.200   0.0537   0.02671   0.02370  -0.1590  0.9261  0.0296  -2.0523   0.0000   0.0000   0.0000   3.2512
  -5.100   0.0677   0.02618   0.02312  -0.1600  0.9252  0.0319  -1.9826   0.0000   0.0000   0.0000   2.6455
  -5.000   0.0809   0.02647   0.02338  -0.1600  0.9242  0.0345  -1.8946   0.0000   0.0000   0.0000   2.2531
  -4.900   0.0928   0.02860   0.02558  -0.1580  0.9233  0.0364  -1.7549   0.0000   0.0000   0.0000   1.9756
  -4.800   0.1081   0.02854   0.02534  -0.1589  0.9225  0.0368  -1.6898   0.0000   0.0000   0.0000   1.7379
  -4.700   0.1343   0.02059   0.01688  -0.1688  0.9227  0.0423  -1.8127   0.0000   0.0000   0.0000   1.5227
  -4.600   0.1483   0.02009   0.01640  -0.1697  0.9221  0.0443  -1.7293   0.0000   0.0000   0.0000   1.4080
  -4.100   0.2447   0.01240   0.00755  -0.1778  0.9213  0.0216  -1.8681   0.0000   0.0000   0.0000   0.9845
  -4.000   0.2628   0.01146   0.00651  -0.1790  0.9211  0.0174  -1.8893   0.0000   0.0000   0.0000   0.9386
  -3.900   0.2817   0.01057   0.00547  -0.1805  0.9208  0.0156  -1.8868   0.0000   0.0000   0.0000   0.8980
  -3.800   0.2994   0.01000   0.00478  -0.1819  0.9204  0.0144  -1.8545   0.0000   0.0000   0.0000   0.8638
  -3.700   0.3164   0.00960   0.00428  -0.1830  0.9197  0.0136  -1.8072   0.0000   0.0000   0.0000   0.8343
  -3.600   0.3326   0.00931   0.00391  -0.1840  0.9190  0.0130  -1.7472   0.0000   0.0000   0.0000   0.8086
  -3.500   0.3485   0.00909   0.00362  -0.1849  0.9182  0.0125  -1.6742   0.0000   0.0000   0.0000   0.7856
  -3.400   0.3646   0.00890   0.00338  -0.1859  0.9176  0.0123  -1.5928   0.0000   0.0000   0.0000   0.7646
  -3.300   0.3805   0.00875   0.00317  -0.1869  0.9169  0.0120  -1.5080   0.0000   0.0000   0.0000   0.7455
  -3.200   0.3967   0.00861   0.00299  -0.1879  0.9163  0.0119  -1.4211   0.0000   0.0000   0.0000   0.7277
  -3.100   0.4131   0.00848   0.00282  -0.1890  0.9155  0.0119  -1.3329   0.0000   0.0000   0.0000   0.7112
  -3.000   0.4300   0.00836   0.00266  -0.1901  0.9146  0.0120  -1.2434   0.0000   0.0000   0.0000   0.6957
  -2.900   0.4473   0.00825   0.00252  -0.1914  0.9137  0.0122  -1.1524   0.0000   0.0000   0.0000   0.6811
  -2.800   0.4652   0.00816   0.00239  -0.1928  0.9127  0.0126  -1.0599   0.0000   0.0000   0.0000   0.6675
  -2.700   0.4833   0.00807   0.00228  -0.1943  0.9117  0.0134  -0.9664   0.0000   0.0000   0.0000   0.6548
  -2.600   0.4833   0.00808   0.00228  -0.1918  0.9069  0.0139  -0.9304   0.0000   0.0000   0.0000   0.6494
  -2.500   0.4922   0.00804   0.00225  -0.1912  0.9037  0.0151  -0.8680   0.0000   0.0000   0.0000   0.6409
  -2.400   0.5034   0.00799   0.00222  -0.1912  0.9008  0.0165  -0.8037   0.0000   0.0000   0.0000   0.6320
  -2.300   0.5162   0.00792   0.00218  -0.1915  0.8983  0.0181  -0.7411   0.0000   0.0000   0.0000   0.6230
  -2.200   0.5316   0.00779   0.00212  -0.1925  0.8961  0.0288  -0.6774   0.0000   0.0000   0.0000   0.6139
  -2.100   0.5499   0.00749   0.00202  -0.1943  0.8943  0.0838  -0.6429   0.0000   0.0000   0.0000   0.6049
  -2.000   0.5678   0.00728   0.00197  -0.1959  0.8923  0.1251  -0.6539   0.0000   0.0000   0.0000   0.5965
  -1.900   0.5860   0.00707   0.00192  -0.1976  0.8903  0.1708  -0.6651   0.0000   0.0000   0.0000   0.5886
  -1.800   0.6034   0.00691   0.00189  -0.1991  0.8882  0.2096  -0.6760   0.0000   0.0000   0.0000   0.5812
  -1.700   0.6205   0.00677   0.00186  -0.2006  0.8860  0.2484  -0.6867   0.0000   0.0000   0.0000   0.5742
  -1.600   0.6394   0.00640   0.00200  -0.2027  0.8841  0.3883  -0.6984   0.0000   0.0000   0.0000   0.5679
  -1.500   0.6551   0.00634   0.00197  -0.2037  0.8814  0.4060  -0.7085   0.0000   0.0000   0.0000   0.5618
  -1.400   0.6636   0.00633   0.00199  -0.2031  0.8781  0.4170  -0.7149   0.0000   0.0000   0.0000   0.5568
  -1.300   0.6734   0.00631   0.00200  -0.2028  0.8742  0.4264  -0.7228   0.0000   0.0000   0.0000   0.5517
  -1.200   0.6848   0.00630   0.00199  -0.2028  0.8700  0.4346  -0.7318   0.0000   0.0000   0.0000   0.5466
  -1.100   0.6974   0.00629   0.00197  -0.2031  0.8657  0.4409  -0.7413   0.0000   0.0000   0.0000   0.5415
  -1.000   0.7110   0.00627   0.00194  -0.2036  0.8613  0.4520  -0.7515   0.0000   0.0000   0.0000   0.5365
  -0.900   0.7255   0.00622   0.00192  -0.2043  0.8571  0.4688  -0.7621   0.0000   0.0000   0.0000   0.5317
  -0.800   0.7399   0.00621   0.00191  -0.2050  0.8527  0.4816  -0.7727   0.0000   0.0000   0.0000   0.5270
  -0.600   0.7637   0.00622   0.00191  -0.2053  0.8446  0.4965  -0.7926   0.0000   0.0000   0.0000   0.5185
  -0.500   0.7740   0.00622   0.00192  -0.2051  0.8403  0.5036  -0.8021   0.0000   0.0000   0.0000   0.5145
  -0.400   0.7852   0.00621   0.00194  -0.2051  0.8351  0.5189  -0.8122   0.0000   0.0000   0.0000   0.5106
  -0.300   0.7971   0.00620   0.00195  -0.2052  0.8295  0.5318  -0.8227   0.0000   0.0000   0.0000   0.5068
  -0.200   0.8093   0.00621   0.00195  -0.2054  0.8236  0.5423  -0.8334   0.0000   0.0000   0.0000   0.5030
  -0.100   0.8216   0.00623   0.00194  -0.2056  0.8175  0.5500  -0.8442   0.0000   0.0000   0.0000   0.4994
   0.000   0.8339   0.00628   0.00194  -0.2059  0.8111  0.5549  -0.8550   0.0000   0.0000   0.0000   0.4958
   0.100   0.8443   0.00628   0.00196  -0.2057  0.8076  0.5644  -0.8658   0.0000   0.0000   0.0000   0.4925
   0.200   0.8551   0.00628   0.00199  -0.2056  0.8030  0.5762  -0.8770   0.0000   0.0000   0.0000   0.4892
   0.300   0.8659   0.00628   0.00202  -0.2055  0.7972  0.5861  -0.8884   0.0000   0.0000   0.0000   0.4859
   0.400   0.8769   0.00631   0.00204  -0.2054  0.7906  0.5959  -0.8998   0.0000   0.0000   0.0000   0.4828
   0.500   0.8879   0.00635   0.00205  -0.2054  0.7833  0.6046  -0.9113   0.0000   0.0000   0.0000   0.4797
   0.600   0.8986   0.00641   0.00206  -0.2052  0.7752  0.6111  -0.9226   0.0000   0.0000   0.0000   0.4766
   0.700   0.9094   0.00644   0.00209  -0.2051  0.7691  0.6218  -0.9340   0.0000   0.0000   0.0000   0.4737
   0.800   0.9201   0.00645   0.00213  -0.2050  0.7645  0.6341  -0.9453   0.0000   0.0000   0.0000   0.4709
   0.900   0.9308   0.00646   0.00217  -0.2049  0.7592  0.6440  -0.9568   0.0000   0.0000   0.0000   0.4681
   1.000   0.9414   0.00649   0.00220  -0.2048  0.7531  0.6526  -0.9697   0.0000   0.0000   0.0000   0.4653
   1.100   0.9519   0.00654   0.00223  -0.2046  0.7462  0.6599  -0.9826   0.0000   0.0000   0.0000   0.4627
   1.200   0.9619   0.00662   0.00225  -0.2043  0.7383  0.6658  -0.9952   0.0000   0.0000   0.0000   0.4600
   1.300   0.9716   0.00670   0.00229  -0.2040  0.7290  0.6738  -1.0076   0.0000   0.0000   0.0000   0.4574
   1.400   0.9822   0.00671   0.00234  -0.2038  0.7242  0.6869  -1.0216   0.0000   0.0000   0.0000   0.4549
   1.500   0.9926   0.00673   0.00238  -0.2036  0.7179  0.6980  -1.0364   0.0000   0.0000   0.0000   0.4525
   1.600   1.0027   0.00677   0.00242  -0.2034  0.7103  0.7078  -1.0511   0.0000   0.0000   0.0000   0.4500
   1.700   1.0125   0.00684   0.00250  -0.2031  0.7020  0.7159  -1.0656   0.0000   0.0000   0.0000   0.4476
   1.800   1.0217   0.00694   0.00254  -0.2026  0.6927  0.7215  -1.0797   0.0000   0.0000   0.0000   0.4453
   1.900   1.0310   0.00702   0.00259  -0.2022  0.6833  0.7304  -1.0938   0.0000   0.0000   0.0000   0.4430
   2.000   1.0414   0.00704   0.00263  -0.2020  0.6782  0.7408  -1.1088   0.0000   0.0000   0.0000   0.4407
   2.100   1.0515   0.00708   0.00268  -0.2018  0.6712  0.7502  -1.1237   0.0000   0.0000   0.0000   0.4385
   2.200   1.0609   0.00715   0.00273  -0.2014  0.6615  0.7595  -1.1381   0.0000   0.0000   0.0000   0.4363
   2.300   1.0692   0.00728   0.00279  -0.2008  0.6494  0.7680  -1.1533   0.0000   0.0000   0.0000   0.4342
   2.400   1.0774   0.00741   0.00285  -0.2001  0.6366  0.7745  -1.1691   0.0000   0.0000   0.0000   0.4320
   2.500   1.0872   0.00744   0.00290  -0.1998  0.6288  0.7868  -1.1863   0.0000   0.0000   0.0000   0.4299
   2.600   1.0960   0.00752   0.00296  -0.1993  0.6173  0.7975  -1.2027   0.0000   0.0000   0.0000   0.4279
   2.700   1.1035   0.00767   0.00304  -0.1985  0.6029  0.8072  -1.2199   0.0000   0.0000   0.0000   0.4258
   2.800   1.1111   0.00781   0.00311  -0.1977  0.5880  0.8156  -1.2379   0.0000   0.0000   0.0000   0.4238
   2.900   1.1205   0.00790   0.00317  -0.1973  0.5762  0.8222  -1.2580   0.0000   0.0000   0.0000   0.4218
   3.000   1.1278   0.00805   0.00325  -0.1965  0.5597  0.8318  -1.2759   0.0000   0.0000   0.0000   0.4198
   3.100   1.1338   0.00824   0.00335  -0.1954  0.5409  0.8419  -1.2925   0.0000   0.0000   0.0000   0.4178
   3.200   1.1425   0.00833   0.00341  -0.1949  0.5286  0.8517  -1.3120   0.0000   0.0000   0.0000   0.4159
   3.300   1.1496   0.00851   0.00351  -0.1941  0.5107  0.8609  -1.3300   0.0000   0.0000   0.0000   0.4140
   3.500   1.1636   0.00879   0.00368  -0.1923  0.4796  0.8826  -1.3658   0.0000   0.0000   0.0000   0.4103
   3.600   1.1698   0.00896   0.00377  -0.1913  0.4629  0.8957  -1.3829   0.0000   0.0000   0.0000   0.4084
   3.800   1.1818   0.00920   0.00391  -0.1891  0.4354  0.9261  -1.4213   0.0000   0.0000   0.0000   0.4047
   3.900   1.1864   0.00925   0.00394  -0.1877  0.4251  0.9546  -1.4403   0.0000   0.0000   0.0000   0.4027
   4.000   1.1947   0.00937   0.00401  -0.1871  0.4141  1.0000  -1.4687   0.0000   0.0000   0.0000   0.4011
   4.100   1.2038   0.00955   0.00411  -0.1868  0.4023  1.0000  -1.4985   0.0000   0.0000   0.0000   0.3995
   4.200   1.2138   0.00966   0.00419  -0.1866  0.3946  1.0000  -1.5301   0.0000   0.0000   0.0000   0.3979
   4.300   1.2241   0.00975   0.00427  -0.1865  0.3883  1.0000  -1.5620   0.0000   0.0000   0.0000   0.3964
   4.400   1.2337   0.00989   0.00436  -0.1863  0.3788  1.0000  -1.5933   0.0000   0.0000   0.0000   0.3949
   4.500   1.2423   0.01010   0.00448  -0.1858  0.3661  1.0000  -1.6231   0.0000   0.0000   0.0000   0.3934
   4.600   1.2507   0.01031   0.00461  -0.1854  0.3504  1.0000  -1.6528   0.0000   0.0000   0.0000   0.3919
   4.700   1.2605   0.01043   0.00470  -0.1852  0.3427  1.0000  -1.6847   0.0000   0.0000   0.0000   0.3905
   4.800   1.2694   0.01061   0.00481  -0.1848  0.3308  1.0000  -1.7156   0.0000   0.0000   0.0000   0.3890
   4.900   1.2773   0.01086   0.00496  -0.1843  0.3161  1.0000  -1.7449   0.0000   0.0000   0.0000   0.3876
   5.000   1.2860   0.01104   0.00508  -0.1839  0.3035  1.0000  -1.7757   0.0000   0.0000   0.0000   0.3862
   5.100   1.2952   0.01119   0.00519  -0.1835  0.2949  1.0000  -1.8073   0.0000   0.0000   0.0000   0.3848
   5.200   1.3033   0.01141   0.00532  -0.1830  0.2820  1.0000  -1.8513   0.0000   0.0000   0.0000   0.3834
   5.300   1.3106   0.01170   0.00550  -0.1824  0.2641  1.0000  -1.9249   0.0000   0.0000   0.0000   0.3820
   5.400   1.3192   0.01188   0.00563  -0.1820  0.2532  1.0000  -2.0047   0.0000   0.0000   0.0000   0.3806
   5.500   1.3264   0.01217   0.00581  -0.1813  0.2368  1.0000  -2.0795   0.0000   0.0000   0.0000   0.3792
   5.600   1.3337   0.01245   0.00599  -0.1807  0.2196  1.0000  -2.1559   0.0000   0.0000   0.0000   0.3779
   5.700   1.3573   0.01149   0.00589  -0.1827  0.3016  1.0000  -2.3355   0.0000   0.0000   0.0000   0.3769
   5.800   1.3709   0.01132   0.00591  -0.1831  0.3221  1.0000  -2.4467   0.0000   0.0000   0.0000   0.3757
   5.900   1.3805   0.01141   0.00602  -0.1829  0.3201  1.0000  -2.5402   0.0000   0.0000   0.0000   0.3745
   6.000   1.3883   0.01163   0.00618  -0.1823  0.3082  1.0000  -2.6263   0.0000   0.0000   0.0000   0.3732
   6.100   1.3973   0.01176   0.00630  -0.1819  0.3018  1.0000  -2.7186   0.0000   0.0000   0.0000   0.3719
   6.200   1.4062   0.01190   0.00643  -0.1815  0.2947  1.0000  -2.8108   0.0000   0.0000   0.0000   0.3707
   6.300   1.4142   0.01209   0.00658  -0.1810  0.2856  1.0000  -2.9003   0.0000   0.0000   0.0000   0.3694
   6.400   1.4214   0.01234   0.00676  -0.1803  0.2747  1.0000  -2.9869   0.0000   0.0000   0.0000   0.3682
   6.500   1.4290   0.01257   0.00693  -0.1797  0.2621  1.0000  -3.0757   0.0000   0.0000   0.0000   0.3669
   6.600   1.4377   0.01272   0.00707  -0.1793  0.2558  1.0000  -3.1707   0.0000   0.0000   0.0000   0.3657
   6.700   1.4450   0.01295   0.00725  -0.1786  0.2444  1.0000  -3.2606   0.0000   0.0000   0.0000   0.3645
   6.800   1.4509   0.01331   0.00749  -0.1777  0.2281  1.0000  -3.3438   0.0000   0.0000   0.0000   0.3633
   6.900   1.4584   0.01354   0.00767  -0.1771  0.2164  1.0000  -3.4358   0.0000   0.0000   0.0000   0.3621
   7.000   1.4651   0.01382   0.00787  -0.1764  0.2038  1.0000  -3.5250   0.0000   0.0000   0.0000   0.3609
   7.100   1.4707   0.01419   0.00813  -0.1754  0.1882  1.0000  -3.6091   0.0000   0.0000   0.0000   0.3596
   7.200   1.4783   0.01439   0.00831  -0.1748  0.1798  1.0000  -3.7039   0.0000   0.0000   0.0000   0.3585
   7.300   1.4857   0.01462   0.00850  -0.1742  0.1723  1.0000  -3.7983   0.0000   0.0000   0.0000   0.3573
   7.400   1.4919   0.01492   0.00873  -0.1734  0.1626  1.0000  -3.8880   0.0000   0.0000   0.0000   0.3561
   7.500   1.4980   0.01524   0.00898  -0.1725  0.1504  1.0000  -3.9774   0.0000   0.0000   0.0000   0.3550
   7.600   1.5056   0.01544   0.00917  -0.1719  0.1444  1.0000  -4.0751   0.0000   0.0000   0.0000   0.3538
   7.700   1.5124   0.01569   0.00939  -0.1712  0.1370  1.0000  -4.1698   0.0000   0.0000   0.0000   0.3527
   7.800   1.5181   0.01603   0.00965  -0.1703  0.1274  1.0000  -4.2594   0.0000   0.0000   0.0000   0.3515
   7.900   1.5242   0.01636   0.00992  -0.1695  0.1162  1.0000  -4.3510   0.0000   0.0000   0.0000   0.3504
   8.000   1.5312   0.01659   0.01014  -0.1688  0.1109  1.0000  -4.4490   0.0000   0.0000   0.0000   0.3493
   8.100   1.5370   0.01691   0.01040  -0.1680  0.1032  1.0000  -4.5407   0.0000   0.0000   0.0000   0.3482
   8.200   1.5420   0.01730   0.01070  -0.1670  0.0933  1.0000  -4.6282   0.0000   0.0000   0.0000   0.3470
   8.300   1.5486   0.01757   0.01095  -0.1663  0.0861  1.0000  -4.7245   0.0000   0.0000   0.0000   0.3460
   8.400   1.5547   0.01786   0.01121  -0.1655  0.0801  1.0000  -4.8187   0.0000   0.0000   0.0000   0.3449
   8.500   1.5588   0.01830   0.01155  -0.1643  0.0714  1.0000  -4.9009   0.0000   0.0000   0.0000   0.3437
   8.600   1.5636   0.01869   0.01187  -0.1633  0.0610  1.0000  -4.9835   0.0000   0.0000   0.0000   0.3426
   8.800   1.5453   0.02173   0.01450  -0.1563  0.0087  1.0000  -4.7171   0.0000   0.0000   0.0000   0.3390
   8.900   1.5510   0.02208   0.01491  -0.1554  0.0086  1.0000  -4.7834   0.0000   0.0000   0.0000   0.3379
   9.000   1.5564   0.02244   0.01533  -0.1545  0.0086  1.0000  -4.8493   0.0000   0.0000   0.0000   0.3368
   9.100   1.5612   0.02283   0.01577  -0.1534  0.0085  1.0000  -4.9137   0.0000   0.0000   0.0000   0.3357
   9.200   1.5656   0.02323   0.01623  -0.1523  0.0085  1.0000  -4.9765   0.0000   0.0000   0.0000   0.3345
   9.300   1.5686   0.02375   0.01689  -0.1510  0.0084  1.0000  -5.0042   0.0000   0.0000   0.0000   0.3333
   9.400   1.5725   0.02421   0.01741  -0.1498  0.0084  1.0000  -5.0616   0.0000   0.0000   0.0000   0.3322
   9.500   1.5764   0.02469   0.01795  -0.1487  0.0085  1.0000  -5.1191   0.0000   0.0000   0.0000   0.3311
   9.600   1.5799   0.02519   0.01852  -0.1475  0.0085  1.0000  -5.1750   0.0000   0.0000   0.0000   0.3300
   9.700   1.5829   0.02574   0.01913  -0.1462  0.0086  1.0000  -5.2275   0.0000   0.0000   0.0000   0.3288
   9.800   1.5853   0.02633   0.01978  -0.1449  0.0086  1.0000  -5.2759   0.0000   0.0000   0.0000   0.3277
   9.900   1.5873   0.02695   0.02048  -0.1436  0.0087  1.0000  -5.3216   0.0000   0.0000   0.0000   0.3265
  10.000   1.5891   0.02761   0.02120  -0.1422  0.0088  1.0000  -5.3655   0.0000   0.0000   0.0000   0.3254
  10.100   1.5907   0.02830   0.02197  -0.1408  0.0089  1.0000  -5.4073   0.0000   0.0000   0.0000   0.3243
  10.200   1.5919   0.02903   0.02277  -0.1394  0.0090  1.0000  -5.4467   0.0000   0.0000   0.0000   0.3232
  10.300   1.5924   0.02981   0.02362  -0.1380  0.0091  1.0000  -5.4828   0.0000   0.0000   0.0000   0.3221
  10.400   1.5926   0.03062   0.02450  -0.1365  0.0091  1.0000  -5.5186   0.0000   0.0000   0.0000   0.3210
  10.500   1.5930   0.03144   0.02540  -0.1351  0.0092  1.0000  -5.5552   0.0000   0.0000   0.0000   0.3199
  10.600   1.5934   0.03228   0.02631  -0.1338  0.0093  1.0000  -5.5926   0.0000   0.0000   0.0000   0.3189
  10.700   1.5938   0.03314   0.02724  -0.1325  0.0093  1.0000  -5.6307   0.0000   0.0000   0.0000   0.3179
  10.800   1.5936   0.03404   0.02820  -0.1311  0.0093  1.0000  -5.6670   0.0000   0.0000   0.0000   0.3168
  10.900   1.5933   0.03495   0.02918  -0.1298  0.0094  1.0000  -5.7036   0.0000   0.0000   0.0000   0.3159
  11.000   1.5934   0.03586   0.03015  -0.1285  0.0094  1.0000  -5.7423   0.0000   0.0000   0.0000   0.3149
  11.100   1.5936   0.03677   0.03112  -0.1274  0.0094  1.0000  -5.7825   0.0000   0.0000   0.0000   0.3140
  11.200   1.5936   0.03766   0.03208  -0.1262  0.0094  1.0000  -5.8231   0.0000   0.0000   0.0000   0.3130
  11.300   1.5933   0.03859   0.03307  -0.1250  0.0094  1.0000  -5.8633   0.0000   0.0000   0.0000   0.3121
  11.400   1.5929   0.03955   0.03410  -0.1238  0.0093  1.0000  -5.9036   0.0000   0.0000   0.0000   0.3112
  11.500   1.5929   0.04052   0.03513  -0.1228  0.0093  1.0000  -5.9470   0.0000   0.0000   0.0000   0.3104
  11.600   1.5935   0.04149   0.03615  -0.1218  0.0092  1.0000  -5.9936   0.0000   0.0000   0.0000   0.3096
  11.700   1.5943   0.04246   0.03718  -0.1209  0.0092  1.0000  -6.0427   0.0000   0.0000   0.0000   0.3088
  11.800   1.5952   0.04343   0.03821  -0.1200  0.0091  1.0000  -6.0936   0.0000   0.0000   0.0000   0.3080
  11.900   1.5959   0.04444   0.03928  -0.1192  0.0090  1.0000  -6.1441   0.0000   0.0000   0.0000   0.3073
  12.000   1.5960   0.04551   0.04040  -0.1184  0.0090  1.0000  -6.1919   0.0000   0.0000   0.0000   0.3065
  12.100   1.5962   0.04658   0.04153  -0.1176  0.0089  1.0000  -6.2406   0.0000   0.0000   0.0000   0.3058
  12.200   1.5967   0.04766   0.04266  -0.1168  0.0088  1.0000  -6.2907   0.0000   0.0000   0.0000   0.3052
  12.300   1.5973   0.04875   0.04381  -0.1161  0.0088  1.0000  -6.3409   0.0000   0.0000   0.0000   0.3045
  12.400   1.5978   0.04986   0.04498  -0.1154  0.0087  1.0000  -6.3899   0.0000   0.0000   0.0000   0.3038
  12.500   1.5983   0.05102   0.04620  -0.1147  0.0086  1.0000  -6.4362   0.0000   0.0000   0.0000   0.3032
  12.600   1.5978   0.05228   0.04753  -0.1140  0.0086  1.0000  -6.4753   0.0000   0.0000   0.0000   0.3026
  12.700   1.5969   0.05362   0.04893  -0.1133  0.0086  1.0000  -6.5084   0.0000   0.0000   0.0000   0.3020
  12.800   1.5960   0.05500   0.05039  -0.1127  0.0086  1.0000  -6.5369   0.0000   0.0000   0.0000   0.3014
  12.900   1.5949   0.05644   0.05192  -0.1120  0.0087  1.0000  -6.5588   0.0000   0.0000   0.0000   0.3009
  13.000   1.5936   0.05798   0.05354  -0.1113  0.0088  1.0000  -6.5720   0.0000   0.0000   0.0000   0.3003
  13.100   1.5921   0.05956   0.05521  -0.1106  0.0089  1.0000  -6.5818   0.0000   0.0000   0.0000   0.2997
  13.200   1.5901   0.06120   0.05695  -0.1100  0.0090  1.0000  -6.5870   0.0000   0.0000   0.0000   0.2992
  13.300   1.5870   0.06295   0.05880  -0.1094  0.0091  1.0000  -6.5874   0.0000   0.0000   0.0000   0.2988
  13.400   1.5835   0.06475   0.06069  -0.1089  0.0092  1.0000  -6.5852   0.0000   0.0000   0.0000   0.2985
  13.500   1.5800   0.06656   0.06260  -0.1085  0.0093  1.0000  -6.5817   0.0000   0.0000   0.0000   0.2981
  13.600   1.5764   0.06839   0.06452  -0.1081  0.0094  1.0000  -6.5768   0.0000   0.0000   0.0000   0.2978
  13.700   1.5727   0.07024   0.06647  -0.1077  0.0095  1.0000  -6.5703   0.0000   0.0000   0.0000   0.2975
  13.800   1.5682   0.07216   0.06848  -0.1074  0.0096  1.0000  -6.5611   0.0000   0.0000   0.0000   0.2974
  13.900   1.5628   0.07417   0.07058  -0.1073  0.0097  1.0000  -6.5484   0.0000   0.0000   0.0000   0.2973
  14.000   1.5575   0.07619   0.07269  -0.1073  0.0098  1.0000  -6.5349   0.0000   0.0000   0.0000   0.2973
  14.100   1.5522   0.07823   0.07482  -0.1073  0.0098  1.0000  -6.5204   0.0000   0.0000   0.0000   0.2973
  14.200   1.5467   0.08018   0.07687  -0.1073  0.0099  1.0000  -6.5043   0.0000   0.0000   0.0000   0.2974
  14.300   1.5399   0.08223   0.07900  -0.1076  0.0100  1.0000  -6.4843   0.0000   0.0000   0.0000   0.2977
  14.400   1.5333   0.08433   0.08119  -0.1080  0.0101  1.0000  -6.4633   0.0000   0.0000   0.0000   0.2980
  14.500   1.5269   0.08647   0.08341  -0.1084  0.0102  1.0000  -6.4417   0.0000   0.0000   0.0000   0.2984
  14.600   1.5204   0.08868   0.08572  -0.1090  0.0102  1.0000  -6.4184   0.0000   0.0000   0.0000   0.2988
  14.700   1.5129   0.09115   0.08826  -0.1098  0.0103  1.0000  -6.3914   0.0000   0.0000   0.0000   0.2995
  14.800   1.5057   0.09364   0.09084  -0.1106  0.0103  1.0000  -6.3637   0.0000   0.0000   0.0000   0.3002
  14.900   1.4987   0.09616   0.09345  -0.1116  0.0104  1.0000  -6.3348   0.0000   0.0000   0.0000   0.3010
  15.000   1.4912   0.09885   0.09622  -0.1127  0.0105  1.0000  -6.3034   0.0000   0.0000   0.0000   0.3019
  15.100   1.4832   0.10172   0.09916  -0.1140  0.0105  1.0000  -6.2691   0.0000   0.0000   0.0000   0.3030
  15.200   1.4757   0.10458   0.10211  -0.1154  0.0106  1.0000  -6.2342   0.0000   0.0000   0.0000   0.3041
  15.300   1.4682   0.10754   0.10514  -0.1168  0.0106  1.0000  -6.1973   0.0000   0.0000   0.0000   0.3052
  15.400   1.4597   0.11077   0.10845  -0.1186  0.0107  1.0000  -6.1564   0.0000   0.0000   0.0000   0.3067
  15.500   1.4518   0.11400   0.11176  -0.1204  0.0107  1.0000  -6.1147   0.0000   0.0000   0.0000   0.3082
  15.600   1.4440   0.11729   0.11512  -0.1222  0.0108  1.0000  -6.0709   0.0000   0.0000   0.0000   0.3097
  15.700   1.4353   0.12092   0.11882  -0.1244  0.0108  1.0000  -6.0227   0.0000   0.0000   0.0000   0.3115
  15.800   1.4271   0.12453   0.12251  -0.1265  0.0109  1.0000  -5.9731   0.0000   0.0000   0.0000   0.3133
  15.900   1.4189   0.12822   0.12627  -0.1288  0.0109  1.0000  -5.9208   0.0000   0.0000   0.0000   0.3152
  16.000   1.4099   0.13230   0.13042  -0.1314  0.0109  1.0000  -5.8632   0.0000   0.0000   0.0000   0.3175
  16.100   1.4015   0.13633   0.13451  -0.1338  0.0110  1.0000  -5.8038   0.0000   0.0000   0.0000   0.3196
  16.200   1.3927   0.14059   0.13884  -0.1365  0.0110  1.0000  -5.7396   0.0000   0.0000   0.0000   0.3220
  16.300   1.3835   0.14513   0.14345  -0.1394  0.0110  1.0000  -5.6700   0.0000   0.0000   0.0000   0.3246
  16.400   1.3747   0.14967   0.14805  -0.1422  0.0110  1.0000  -5.5968   0.0000   0.0000   0.0000   0.3271
  16.500   1.3650   0.15472   0.15316  -0.1454  0.0111  1.0000  -5.5142   0.0000   0.0000   0.0000   0.3301
  16.600   1.3556   0.15981   0.15831  -0.1485  0.0111  1.0000  -5.4265   0.0000   0.0000   0.0000   0.3330
  16.700   1.3454   0.16539   0.16395  -0.1519  0.0111  1.0000  -5.3265   0.0000   0.0000   0.0000   0.3362
  16.800   1.3349   0.17123   0.16985  -0.1553  0.0111  1.0000  -5.2154   0.0000   0.0000   0.0000   0.3396
  16.900   1.3233   0.17776   0.17644  -0.1590  0.0112  1.0000  -5.0833   0.0000   0.0000   0.0000   0.3434
  17.000   1.3109   0.18482   0.18355  -0.1629  0.0112  1.0000  -4.9281   0.0000   0.0000   0.0000   0.3475
  17.100   1.2953   0.19358   0.19236  -0.1674  0.0113  1.0000  -4.7133   0.0000   0.0000   0.0000   0.3526


