xflr5 v6.61

 Calculated polar for: E216  (10.4%)

 1 1 Reynolds number fixed          Mach number fixed         

 xtrf =   1.000 (top)        1.000 (bottom)
 Mach =   0.000     Re =     0.100 e 6     Ncrit =   9.000

  alpha     CL        CD       CDp       Cm    Top Xtr Bot Xtr   Cpmin    Chinge    XCp    
 ------- -------- --------- --------- -------- ------- ------- -------- --------- ---------
 -10.000  -0.3299   0.13361   0.12843  -0.0313  1.0000  0.0656  -1.1807   0.0000   0.0000   0.0000   0.1439
  -9.900  -0.3285   0.13260   0.12744  -0.0310  1.0000  0.0663  -1.1715   0.0000   0.0000   0.0000   0.1447
  -9.800  -0.3274   0.13162   0.12648  -0.0307  1.0000  0.0670  -1.1640   0.0000   0.0000   0.0000   0.1455
  -9.700  -0.3265   0.13068   0.12555  -0.0303  1.0000  0.0677  -1.1578   0.0000   0.0000   0.0000   0.1463
  -9.600  -0.3259   0.12976   0.12465  -0.0300  1.0000  0.0684  -1.1529   0.0000   0.0000   0.0000   0.1472
  -9.500  -0.3254   0.12886   0.12376  -0.0297  1.0000  0.0691  -1.1490   0.0000   0.0000   0.0000   0.1480
  -9.400  -0.3250   0.12797   0.12289  -0.0295  1.0000  0.0699  -1.1462   0.0000   0.0000   0.0000   0.1490
  -9.300  -0.3248   0.12709   0.12203  -0.0292  1.0000  0.0706  -1.1441   0.0000   0.0000   0.0000   0.1499
  -9.200  -0.3248   0.12622   0.12118  -0.0289  1.0000  0.0714  -1.1430   0.0000   0.0000   0.0000   0.1509
  -9.100  -0.3249   0.12536   0.12034  -0.0286  1.0000  0.0722  -1.1426   0.0000   0.0000   0.0000   0.1519
  -9.000  -0.3252   0.12452   0.11952  -0.0284  1.0000  0.0730  -1.1431   0.0000   0.0000   0.0000   0.1530
  -8.900  -0.3256   0.12370   0.11871  -0.0281  1.0000  0.0738  -1.1444   0.0000   0.0000   0.0000   0.1541
  -8.800  -0.3262   0.12289   0.11793  -0.0278  1.0000  0.0747  -1.1465   0.0000   0.0000   0.0000   0.1552
  -8.700  -0.3270   0.12210   0.11716  -0.0276  1.0000  0.0755  -1.1495   0.0000   0.0000   0.0000   0.1564
  -8.600  -0.3281   0.12134   0.11642  -0.0273  1.0000  0.0764  -1.1535   0.0000   0.0000   0.0000   0.1576
  -8.500  -0.3293   0.12061   0.11572  -0.0271  1.0000  0.0773  -1.1586   0.0000   0.0000   0.0000   0.1588
  -8.400  -0.3309   0.11993   0.11506  -0.0269  1.0000  0.0782  -1.1651   0.0000   0.0000   0.0000   0.1600
  -8.300  -0.3329   0.11932   0.11447  -0.0267  1.0000  0.0791  -1.1733   0.0000   0.0000   0.0000   0.1613
  -8.200  -0.3353   0.11879   0.11397  -0.0265  1.0000  0.0800  -1.1837   0.0000   0.0000   0.0000   0.1627
  -8.100  -0.3385   0.11839   0.11360  -0.0264  1.0000  0.0809  -1.1967   0.0000   0.0000   0.0000   0.1640
  -8.000  -0.3424   0.11816   0.11339  -0.0263  1.0000  0.0818  -1.2127   0.0000   0.0000   0.0000   0.1655
  -7.900  -0.3470   0.11810   0.11337  -0.0262  1.0000  0.0826  -1.2316   0.0000   0.0000   0.0000   0.1670
  -7.800  -0.3523   0.11820   0.11351  -0.0261  1.0000  0.0833  -1.2520   0.0000   0.0000   0.0000   0.1687
  -7.700  -0.3579   0.11837   0.11372  -0.0260  1.0000  0.0839  -1.2721   0.0000   0.0000   0.0000   0.1705
  -7.600  -0.3634   0.11853   0.11391  -0.0257  1.0000  0.0843  -1.2906   0.0000   0.0000   0.0000   0.1726
  -7.500  -0.3691   0.11862   0.11403  -0.0253  1.0000  0.0847  -1.3080   0.0000   0.0000   0.0000   0.1749
  -7.400  -0.3750   0.11862   0.11408  -0.0249  1.0000  0.0849  -1.3243   0.0000   0.0000   0.0000   0.1775
  -7.300  -0.3799   0.11852   0.11401  -0.0243  1.0000  0.0851  -1.3364   0.0000   0.0000   0.0000   0.1801
  -7.200  -0.3848   0.11835   0.11387  -0.0236  1.0000  0.0853  -1.3475   0.0000   0.0000   0.0000   0.1828
  -7.100  -0.3899   0.11813   0.11368  -0.0230  1.0000  0.0854  -1.3585   0.0000   0.0000   0.0000   0.1855
  -7.000  -0.3949   0.11785   0.11343  -0.0223  1.0000  0.0855  -1.3694   0.0000   0.0000   0.0000   0.1882
  -6.900  -0.3994   0.11747   0.11308  -0.0218  1.0000  0.0856  -1.3802   0.0000   0.0000   0.0000   0.1902
  -6.800  -0.4024   0.11691   0.11255  -0.0217  1.0000  0.0857  -1.3904   0.0000   0.0000   0.0000   0.1909
  -6.700  -0.4048   0.11624   0.11190  -0.0219  1.0000  0.0858  -1.4005   0.0000   0.0000   0.0000   0.1910
  -6.600  -0.4067   0.11549   0.11117  -0.0221  1.0000  0.0859  -1.4105   0.0000   0.0000   0.0000   0.1908
  -6.500  -0.4084   0.11465   0.11036  -0.0225  1.0000  0.0860  -1.4205   0.0000   0.0000   0.0000   0.1902
  -6.400  -0.4096   0.11374   0.10947  -0.0230  1.0000  0.0860  -1.4306   0.0000   0.0000   0.0000   0.1893
  -6.300  -0.4106   0.11276   0.10850  -0.0236  1.0000  0.0861  -1.4407   0.0000   0.0000   0.0000   0.1880
  -6.200  -0.4111   0.11169   0.10746  -0.0243  1.0000  0.0862  -1.4510   0.0000   0.0000   0.0000   0.1864
  -6.100  -0.4233   0.10556   0.10141  -0.0239  1.0000  0.0877  -1.5131   0.0000   0.0000   0.0000   0.1892
  -6.000  -0.4237   0.10314   0.09901  -0.0216  1.0000  0.0888  -1.4925   0.0000   0.0000   0.0000   0.1946
  -5.900  -0.4223   0.10159   0.09747  -0.0198  1.0000  0.0896  -1.4655   0.0000   0.0000   0.0000   0.1990
  -5.800  -0.4211   0.10035   0.09624  -0.0183  1.0000  0.0903  -1.4429   0.0000   0.0000   0.0000   0.2023
  -5.700  -0.4198   0.09925   0.09516  -0.0171  1.0000  0.0911  -1.4213   0.0000   0.0000   0.0000   0.2052
  -5.600  -0.4188   0.09825   0.09417  -0.0160  1.0000  0.0918  -1.4029   0.0000   0.0000   0.0000   0.2077
  -5.500  -0.4182   0.09730   0.09323  -0.0152  1.0000  0.0926  -1.3881   0.0000   0.0000   0.0000   0.2097
  -5.400  -0.4179   0.09638   0.09233  -0.0145  1.0000  0.0934  -1.3759   0.0000   0.0000   0.0000   0.2114
  -5.300  -0.4177   0.09547   0.09144  -0.0139  1.0000  0.0942  -1.3653   0.0000   0.0000   0.0000   0.2128
  -5.200  -0.4176   0.09456   0.09055  -0.0135  1.0000  0.0951  -1.3567   0.0000   0.0000   0.0000   0.2139
  -5.100  -0.4175   0.09365   0.08966  -0.0132  1.0000  0.0959  -1.3497   0.0000   0.0000   0.0000   0.2146
  -5.000  -0.4174   0.09272   0.08874  -0.0131  1.0000  0.0969  -1.3442   0.0000   0.0000   0.0000   0.2150
  -4.900  -0.4173   0.09176   0.08781  -0.0131  1.0000  0.0979  -1.3400   0.0000   0.0000   0.0000   0.2150
  -4.800  -0.4169   0.09078   0.08683  -0.0133  1.0000  0.0990  -1.3369   0.0000   0.0000   0.0000   0.2146
  -4.700  -0.4162   0.08975   0.08582  -0.0137  1.0000  0.1001  -1.3349   0.0000   0.0000   0.0000   0.2137
  -4.600  -0.4152   0.08867   0.08476  -0.0143  1.0000  0.1014  -1.3340   0.0000   0.0000   0.0000   0.2123
  -4.500  -0.4138   0.08754   0.08364  -0.0151  1.0000  0.1028  -1.3343   0.0000   0.0000   0.0000   0.2102
  -4.400  -0.3996   0.08563   0.08171  -0.0197  0.9975  0.1059  -1.3296   0.0000   0.0000   0.0000   0.1975
  -4.300  -0.3341   0.08329   0.07909  -0.0478  0.9907  0.1175  -1.4034   0.0000   0.0000   0.0000   0.1032
  -4.200  -0.3279   0.07593   0.07173  -0.0544  0.9893  0.1201  -1.4663   0.0000   0.0000   0.0000   0.0802
  -4.100  -0.3214   0.07342   0.06926  -0.0544  0.9866  0.1217  -1.4397   0.0000   0.0000   0.0000   0.0770
  -4.000  -0.3134   0.07194   0.06780  -0.0541  0.9835  0.1229  -1.4070   0.0000   0.0000   0.0000   0.0735
  -3.900  -0.3028   0.07050   0.06637  -0.0546  0.9806  0.1242  -1.3750   0.0000   0.0000   0.0000   0.0655
  -3.800  -0.2891   0.06895   0.06481  -0.0562  0.9781  0.1257  -1.3445   0.0000   0.0000   0.0000   0.0514
  -3.700  -0.1932   0.04814   0.04271  -0.0915  0.9822  0.0615  -1.9142   0.0000   0.0000   0.0000  -0.2312
  -3.600  -0.1774   0.04677   0.04136  -0.0925  0.9800  0.0551  -1.8912   0.0000   0.0000   0.0000  -0.2795
  -3.500  -0.1427   0.04200   0.03618  -0.1004  0.9799  0.0500  -1.9433   0.0000   0.0000   0.0000  -0.4637
  -3.400  -0.0991   0.03688   0.03022  -0.1091  0.9810  0.0440  -2.0538   0.0000   0.0000   0.0000  -0.8666
  -3.300  -0.0683   0.03447   0.02724  -0.1133  0.9804  0.0410  -2.0906   0.0000   0.0000   0.0000  -1.4332
  -3.200  -0.0445   0.03348   0.02593  -0.1159  0.9790  0.0396  -2.0607   0.0000   0.0000   0.0000  -2.3906
  -3.100  -0.0230   0.03301   0.02524  -0.1178  0.9774  0.0386  -1.9966   0.0000   0.0000   0.0000  -4.9311
  -3.000  -0.0032   0.03314   0.02506  -0.1193  0.9758  0.0373  -1.9345   0.0000   0.0000   0.0000  -37.6489
  -2.800   0.0302   0.03153   0.02313  -0.1219  0.9708  0.0368  -1.8593   0.0000   0.0000   0.0000   4.3377
  -2.700   0.0488   0.03069   0.02215  -0.1235  0.9691  0.0368  -1.8223   0.0000   0.0000   0.0000   2.8071
  -2.600   0.0672   0.03002   0.02141  -0.1250  0.9675  0.0369  -1.7796   0.0000   0.0000   0.0000   2.1287
  -2.500   0.0871   0.02918   0.02045  -0.1267  0.9664  0.0375  -1.7435   0.0000   0.0000   0.0000   1.7199
  -2.400   0.1076   0.02847   0.01964  -0.1287  0.9653  0.0387  -1.7036   0.0000   0.0000   0.0000   1.4568
  -2.300   0.1288   0.02795   0.01901  -0.1307  0.9641  0.0409  -1.6557   0.0000   0.0000   0.0000   1.2742
  -2.200   0.1501   0.02762   0.01861  -0.1328  0.9627  0.0448  -1.5982   0.0000   0.0000   0.0000   1.1424
  -2.100   0.1715   0.02739   0.01830  -0.1348  0.9613  0.0519  -1.5406   0.0000   0.0000   0.0000   1.0422
  -2.000   0.1977   0.02655   0.01786  -0.1380  0.9609  0.1331  -1.5185   0.0000   0.0000   0.0000   0.9533
  -1.900   0.2204   0.02625   0.01803  -0.1408  0.9598  0.2472  -1.4433   0.0000   0.0000   0.0000   0.8933
  -1.800   0.2359   0.02618   0.01827  -0.1420  0.9567  0.3157  -1.3701   0.0000   0.0000   0.0000   0.8560
  -1.700   0.2465   0.02617   0.01826  -0.1422  0.9517  0.3384  -1.3131   0.0000   0.0000   0.0000   0.8302
  -1.600   0.2615   0.02616   0.01835  -0.1430  0.9482  0.3618  -1.2439   0.0000   0.0000   0.0000   0.8000
  -1.500   0.2781   0.02623   0.01848  -0.1442  0.9453  0.3963  -1.1710   0.0000   0.0000   0.0000   0.7712
  -1.400   0.2949   0.02636   0.01880  -0.1454  0.9428  0.4470  -1.0958   0.0000   0.0000   0.0000   0.7452
  -1.300   0.3108   0.02656   0.01920  -0.1461  0.9408  0.4935  -1.0236   0.0000   0.0000   0.0000   0.7221
  -1.200   0.3260   0.02673   0.01957  -0.1466  0.9391  0.5286  -0.9559   0.0000   0.0000   0.0000   0.7015
  -1.100   0.3444   0.02698   0.01979  -0.1479  0.9377  0.5548  -0.8858   0.0000   0.0000   0.0000   0.6808
  -1.000   0.3456   0.02691   0.01981  -0.1463  0.9314  0.5663  -0.8594   0.0000   0.0000   0.0000   0.6745
  -0.900   0.3552   0.02693   0.01990  -0.1460  0.9271  0.5820  -0.8128   0.0000   0.0000   0.0000   0.6621
  -0.800   0.3689   0.02699   0.01996  -0.1464  0.9236  0.6008  -0.7575   0.0000   0.0000   0.0000   0.6478
  -0.700   0.3848   0.02699   0.01998  -0.1473  0.9207  0.6198  -0.6987   0.0000   0.0000   0.0000   0.6333
  -0.600   0.3997   0.02695   0.02002  -0.1477  0.9181  0.6384  -0.6416   0.0000   0.0000   0.0000   0.6199
  -0.500   0.4176   0.02697   0.02004  -0.1487  0.9159  0.6590  -0.5799   0.0000   0.0000   0.0000   0.6064
  -0.400   0.4357   0.02693   0.02001  -0.1498  0.9141  0.6776  -0.5921   0.0000   0.0000   0.0000   0.5940
  -0.300   0.4526   0.02690   0.02004  -0.1505  0.9124  0.6956  -0.6038   0.0000   0.0000   0.0000   0.5825
  -0.200   0.4530   0.02700   0.02017  -0.1487  0.9054  0.7076  -0.6051   0.0000   0.0000   0.0000   0.5781
  -0.100   0.4622   0.02709   0.02025  -0.1485  0.9001  0.7219  -0.6117   0.0000   0.0000   0.0000   0.5709
   0.000   0.4712   0.02703   0.02027  -0.1479  0.8963  0.7363  -0.6187   0.0000   0.0000   0.0000   0.5633
   0.100   0.4823   0.02700   0.02026  -0.1476  0.8930  0.7549  -0.6279   0.0000   0.0000   0.0000   0.5554
   0.200   0.4975   0.02698   0.02022  -0.1483  0.8904  0.7755  -0.6396   0.0000   0.0000   0.0000   0.5471
   0.300   0.5086   0.02680   0.02009  -0.1477  0.8879  0.7941  -0.6493   0.0000   0.0000   0.0000   0.5395
   0.400   0.5238   0.02667   0.01996  -0.1481  0.8859  0.8162  -0.6614   0.0000   0.0000   0.0000   0.5317
   0.500   0.5372   0.02646   0.01978  -0.1480  0.8841  0.8375  -0.6726   0.0000   0.0000   0.0000   0.5243
   0.600   0.5513   0.02627   0.01960  -0.1481  0.8823  0.8632  -0.6843   0.0000   0.0000   0.0000   0.5172
   0.700   0.5389   0.02647   0.01986  -0.1441  0.8721  0.8796  -0.6784   0.0000   0.0000   0.0000   0.5159
   0.800   0.5413   0.02629   0.01971  -0.1423  0.8663  0.9120  -0.6824   0.0000   0.0000   0.0000   0.5112
   0.900   0.5507   0.02592   0.01937  -0.1419  0.8612  1.0000  -0.6906   0.0000   0.0000   0.0000   0.5059
   1.000   0.5743   0.02587   0.01924  -0.1445  0.8588  1.0000  -0.7074   0.0000   0.0000   0.0000   0.4998
   1.100   0.5968   0.02581   0.01910  -0.1469  0.8567  1.0000  -0.7252   0.0000   0.0000   0.0000   0.4941
   1.200   0.6182   0.02576   0.01898  -0.1489  0.8548  1.0000  -0.7424   0.0000   0.0000   0.0000   0.4888
   1.300   0.6393   0.02568   0.01885  -0.1509  0.8531  1.0000  -0.7596   0.0000   0.0000   0.0000   0.4837
   1.400   0.6607   0.02556   0.01868  -0.1527  0.8515  1.0000  -0.7773   0.0000   0.0000   0.0000   0.4788
   1.500   0.6825   0.02540   0.01847  -0.1546  0.8500  1.0000  -0.7954   0.0000   0.0000   0.0000   0.4740
   1.600   0.7047   0.02520   0.01824  -0.1565  0.8487  1.0000  -0.8139   0.0000   0.0000   0.0000   0.4694
   1.800   0.7065   0.02596   0.01897  -0.1537  0.8313  1.0000  -0.8201   0.0000   0.0000   0.0000   0.4647
   1.900   0.7232   0.02583   0.01881  -0.1546  0.8276  1.0000  -0.8364   0.0000   0.0000   0.0000   0.4609
   2.000   0.7407   0.02565   0.01862  -0.1556  0.8245  1.0000  -0.8538   0.0000   0.0000   0.0000   0.4570
   2.100   0.7591   0.02544   0.01838  -0.1567  0.8220  1.0000  -0.8720   0.0000   0.0000   0.0000   0.4533
   2.200   0.7781   0.02520   0.01813  -0.1579  0.8199  1.0000  -0.8907   0.0000   0.0000   0.0000   0.4497
   2.300   0.7977   0.02492   0.01784  -0.1592  0.8181  1.0000  -0.9101   0.0000   0.0000   0.0000   0.4462
   2.400   0.8181   0.02458   0.01748  -0.1605  0.8165  1.0000  -0.9316   0.0000   0.0000   0.0000   0.4427
   2.500   0.8392   0.02417   0.01707  -0.1619  0.8151  1.0000  -0.9550   0.0000   0.0000   0.0000   0.4393
   2.600   0.8610   0.02373   0.01661  -0.1634  0.8138  1.0000  -0.9792   0.0000   0.0000   0.0000   0.4361
   2.700   0.8836   0.02327   0.01616  -0.1650  0.8125  1.0000  -1.0041   0.0000   0.0000   0.0000   0.4330
   2.800   0.9066   0.02283   0.01582  -0.1668  0.8113  1.0000  -1.0294   0.0000   0.0000   0.0000   0.4300
   3.000   0.8969   0.02408   0.01708  -0.1618  0.7901  1.0000  -1.0314   0.0000   0.0000   0.0000   0.4263
   3.100   0.9143   0.02377   0.01677  -0.1626  0.7871  1.0000  -1.0522   0.0000   0.0000   0.0000   0.4236
   3.200   0.9332   0.02340   0.01640  -0.1636  0.7845  1.0000  -1.0774   0.0000   0.0000   0.0000   0.4210
   3.300   0.9536   0.02296   0.01596  -0.1648  0.7821  1.0000  -1.1043   0.0000   0.0000   0.0000   0.4184
   3.400   0.9756   0.02246   0.01545  -0.1663  0.7799  1.0000  -1.1330   0.0000   0.0000   0.0000   0.4159
   3.500   0.9996   0.02191   0.01491  -0.1681  0.7778  1.0000  -1.1638   0.0000   0.0000   0.0000   0.4135
   3.600   1.0250   0.02137   0.01438  -0.1702  0.7756  1.0000  -1.2008   0.0000   0.0000   0.0000   0.4113
   3.700   1.0501   0.02089   0.01390  -0.1723  0.7732  1.0000  -1.2375   0.0000   0.0000   0.0000   0.4092
   3.800   1.0609   0.02095   0.01396  -0.1722  0.7676  1.0000  -1.2587   0.0000   0.0000   0.0000   0.4073
   3.900   1.0548   0.02150   0.01455  -0.1692  0.7574  1.0000  -1.2611   0.0000   0.0000   0.0000   0.4053
   4.000   1.0680   0.02139   0.01445  -0.1694  0.7513  1.0000  -1.2851   0.0000   0.0000   0.0000   0.4033
   4.100   1.0868   0.02106   0.01413  -0.1704  0.7463  1.0000  -1.3156   0.0000   0.0000   0.0000   0.4014
   4.200   1.1079   0.02064   0.01372  -0.1718  0.7416  1.0000  -1.3496   0.0000   0.0000   0.0000   0.3996
   4.300   1.1304   0.02020   0.01327  -0.1734  0.7370  1.0000  -1.3915   0.0000   0.0000   0.0000   0.3978
   4.400   1.1557   0.01974   0.01279  -0.1755  0.7323  1.0000  -1.4406   0.0000   0.0000   0.0000   0.3961
   4.500   1.1730   0.01962   0.01266  -0.1764  0.7259  1.0000  -1.4828   0.0000   0.0000   0.0000   0.3945
   4.600   1.1734   0.01993   0.01301  -0.1744  0.7171  1.0000  -1.4987   0.0000   0.0000   0.0000   0.3927
   4.700   1.1828   0.01995   0.01305  -0.1739  0.7088  1.0000  -1.5289   0.0000   0.0000   0.0000   0.3909
   4.800   1.1975   0.01979   0.01290  -0.1742  0.7012  1.0000  -1.5678   0.0000   0.0000   0.0000   0.3893
   4.900   1.2159   0.01955   0.01263  -0.1752  0.6940  1.0000  -1.6130   0.0000   0.0000   0.0000   0.3877
   5.000   1.2395   0.01929   0.01230  -0.1771  0.6867  1.0000  -1.6666   0.0000   0.0000   0.0000   0.3864
   5.100   1.2485   0.01943   0.01246  -0.1766  0.6786  1.0000  -1.6968   0.0000   0.0000   0.0000   0.3848
   5.200   1.2533   0.01961   0.01269  -0.1753  0.6698  1.0000  -1.7204   0.0000   0.0000   0.0000   0.3831
   5.300   1.2627   0.01966   0.01276  -0.1748  0.6608  1.0000  -1.7518   0.0000   0.0000   0.0000   0.3816
   5.400   1.2760   0.01961   0.01268  -0.1749  0.6519  1.0000  -1.7900   0.0000   0.0000   0.0000   0.3801
   5.500   1.2949   0.01949   0.01247  -0.1760  0.6427  1.0000  -1.8576   0.0000   0.0000   0.0000   0.3788
   5.600   1.3069   0.01961   0.01257  -0.1760  0.6335  1.0000  -1.9196   0.0000   0.0000   0.0000   0.3774
   5.700   1.3112   0.01979   0.01281  -0.1746  0.6241  1.0000  -1.9610   0.0000   0.0000   0.0000   0.3758
   5.800   1.3188   0.01989   0.01292  -0.1738  0.6141  1.0000  -2.0222   0.0000   0.0000   0.0000   0.3742
   5.900   1.3307   0.01991   0.01290  -0.1736  0.6039  1.0000  -2.1155   0.0000   0.0000   0.0000   0.3728
   6.000   1.3493   0.02000   0.01337  -0.1746  0.5894  1.0000  -2.3168   0.0000   0.0000   0.0000   0.3715
   6.100   1.3524   0.02020   0.01368  -0.1730  0.5801  1.0000  -2.3824   0.0000   0.0000   0.0000   0.3700
   6.200   1.3582   0.02036   0.01390  -0.1719  0.5695  1.0000  -2.4597   0.0000   0.0000   0.0000   0.3685
   6.300   1.3673   0.02047   0.01399  -0.1713  0.5584  1.0000  -2.5522   0.0000   0.0000   0.0000   0.3670
   6.400   1.3807   0.02060   0.01401  -0.1715  0.5466  1.0000  -2.6642   0.0000   0.0000   0.0000   0.3658
   6.500   1.3889   0.02084   0.01424  -0.1708  0.5363  1.0000  -2.7520   0.0000   0.0000   0.0000   0.3645
   6.600   1.3936   0.02103   0.01451  -0.1696  0.5260  1.0000  -2.8240   0.0000   0.0000   0.0000   0.3630
   6.700   1.4003   0.02119   0.01469  -0.1686  0.5146  1.0000  -2.9063   0.0000   0.0000   0.0000   0.3616
   6.800   1.4096   0.02137   0.01476  -0.1681  0.5025  1.0000  -3.0028   0.0000   0.0000   0.0000   0.3602
   6.900   1.4197   0.02165   0.01495  -0.1677  0.4902  1.0000  -3.1019   0.0000   0.0000   0.0000   0.3590
   7.000   1.4236   0.02185   0.01525  -0.1664  0.4799  1.0000  -3.1722   0.0000   0.0000   0.0000   0.3576
   7.100   1.4289   0.02206   0.01547  -0.1652  0.4683  1.0000  -3.2506   0.0000   0.0000   0.0000   0.3562
   7.200   1.4359   0.02229   0.01562  -0.1643  0.4563  1.0000  -3.3385   0.0000   0.0000   0.0000   0.3548
   7.300   1.4450   0.02265   0.01583  -0.1638  0.4432  1.0000  -3.4364   0.0000   0.0000   0.0000   0.3537
   7.400   1.4485   0.02286   0.01616  -0.1624  0.4331  1.0000  -3.5064   0.0000   0.0000   0.0000   0.3523
   7.500   1.4530   0.02310   0.01642  -0.1611  0.4212  1.0000  -3.5829   0.0000   0.0000   0.0000   0.3509
   7.600   1.4581   0.02340   0.01663  -0.1600  0.4089  1.0000  -3.6640   0.0000   0.0000   0.0000   0.3495
   7.700   1.4651   0.02383   0.01690  -0.1592  0.3956  1.0000  -3.7541   0.0000   0.0000   0.0000   0.3483
   7.800   1.4684   0.02406   0.01725  -0.1577  0.3855  1.0000  -3.8246   0.0000   0.0000   0.0000   0.3470
   7.900   1.4724   0.02435   0.01756  -0.1564  0.3739  1.0000  -3.8994   0.0000   0.0000   0.0000   0.3456
   8.000   1.4765   0.02472   0.01784  -0.1551  0.3623  1.0000  -3.9768   0.0000   0.0000   0.0000   0.3443
   8.100   1.4821   0.02524   0.01820  -0.1542  0.3494  1.0000  -4.0609   0.0000   0.0000   0.0000   0.3431
   8.200   1.4847   0.02550   0.01858  -0.1526  0.3398  1.0000  -4.1283   0.0000   0.0000   0.0000   0.3418
   8.300   1.4871   0.02583   0.01893  -0.1511  0.3287  1.0000  -4.1968   0.0000   0.0000   0.0000   0.3404
   8.400   1.4893   0.02625   0.01926  -0.1495  0.3173  1.0000  -4.2653   0.0000   0.0000   0.0000   0.3391
   8.500   1.4927   0.02686   0.01969  -0.1483  0.3044  1.0000  -4.3389   0.0000   0.0000   0.0000   0.3378
   8.600   1.4945   0.02716   0.02012  -0.1467  0.2949  1.0000  -4.4035   0.0000   0.0000   0.0000   0.3365
   8.700   1.4961   0.02755   0.02053  -0.1451  0.2840  1.0000  -4.4679   0.0000   0.0000   0.0000   0.3352
   8.800   1.4969   0.02806   0.02093  -0.1434  0.2732  1.0000  -4.5295   0.0000   0.0000   0.0000   0.3338
   8.900   1.4994   0.02876   0.02147  -0.1421  0.2607  1.0000  -4.5979   0.0000   0.0000   0.0000   0.3326
   9.000   1.5012   0.02913   0.02196  -0.1406  0.2516  1.0000  -4.6622   0.0000   0.0000   0.0000   0.3314
   9.100   1.5025   0.02961   0.02245  -0.1390  0.2416  1.0000  -4.7245   0.0000   0.0000   0.0000   0.3301
   9.200   1.5029   0.03022   0.02296  -0.1374  0.2321  1.0000  -4.7830   0.0000   0.0000   0.0000   0.3289
   9.300   1.5057   0.03108   0.02366  -0.1362  0.2203  1.0000  -4.8496   0.0000   0.0000   0.0000   0.3277
   9.400   1.5081   0.03153   0.02424  -0.1349  0.2126  1.0000  -4.9140   0.0000   0.0000   0.0000   0.3265
   9.500   1.5097   0.03207   0.02483  -0.1335  0.2042  1.0000  -4.9752   0.0000   0.0000   0.0000   0.3254
   9.600   1.5100   0.03272   0.02543  -0.1319  0.1961  1.0000  -5.0310   0.0000   0.0000   0.0000   0.3242
   9.700   1.5111   0.03370   0.02622  -0.1306  0.1858  1.0000  -5.0877   0.0000   0.0000   0.0000   0.3231
   9.800   1.5128   0.03428   0.02686  -0.1293  0.1783  1.0000  -5.1479   0.0000   0.0000   0.0000   0.3219
   9.900   1.5085   0.03427   0.02710  -0.1276  0.1708  1.0000  -5.1766   0.0000   0.0000   0.0000   0.3209
  10.000   1.5067   0.03483   0.02761  -0.1261  0.1616  1.0000  -5.2257   0.0000   0.0000   0.0000   0.3198
  10.100   1.5038   0.03567   0.02832  -0.1245  0.1530  1.0000  -5.2669   0.0000   0.0000   0.0000   0.3188
  10.200   1.5044   0.03636   0.02900  -0.1234  0.1442  1.0000  -5.3223   0.0000   0.0000   0.0000   0.3178
  10.300   1.5067   0.03690   0.02963  -0.1224  0.1359  1.0000  -5.3851   0.0000   0.0000   0.0000   0.3169
  10.400   1.5063   0.03767   0.03038  -0.1212  0.1281  1.0000  -5.4336   0.0000   0.0000   0.0000   0.3159
  10.500   1.5036   0.03866   0.03129  -0.1198  0.1211  1.0000  -5.4673   0.0000   0.0000   0.0000   0.3150
  10.600   1.5028   0.03959   0.03221  -0.1186  0.1131  1.0000  -5.5027   0.0000   0.0000   0.0000   0.3140
  10.700   1.5034   0.04036   0.03306  -0.1175  0.1027  1.0000  -5.5399   0.0000   0.0000   0.0000   0.3131
  10.800   1.4980   0.04163   0.03421  -0.1161  0.0935  1.0000  -5.5462   0.0000   0.0000   0.0000   0.3123
  10.900   1.4916   0.04312   0.03567  -0.1144  0.0788  1.0000  -5.5082   0.0000   0.0000   0.0000   0.3113
  11.000   1.4806   0.04499   0.03737  -0.1126  0.0673  1.0000  -5.4523   0.0000   0.0000   0.0000   0.3104
  11.100   1.4695   0.04714   0.03949  -0.1105  0.0544  1.0000  -5.3277   0.0000   0.0000   0.0000   0.3095
  11.200   1.4633   0.04880   0.04110  -0.1092  0.0487  1.0000  -5.2870   0.0000   0.0000   0.0000   0.3087
  11.300   1.4552   0.05070   0.04298  -0.1078  0.0453  1.0000  -5.2449   0.0000   0.0000   0.0000   0.3080
  11.400   1.4464   0.05293   0.04521  -0.1062  0.0423  1.0000  -5.1747   0.0000   0.0000   0.0000   0.3071
  11.500   1.4476   0.05404   0.04643  -0.1054  0.0407  1.0000  -5.1735   0.0000   0.0000   0.0000   0.3063
  11.600   1.4482   0.05526   0.04774  -0.1045  0.0392  1.0000  -5.1725   0.0000   0.0000   0.0000   0.3055
  11.700   1.4491   0.05649   0.04906  -0.1037  0.0380  1.0000  -5.1755   0.0000   0.0000   0.0000   0.3047
  11.800   1.4506   0.05770   0.05035  -0.1029  0.0368  1.0000  -5.1832   0.0000   0.0000   0.0000   0.3040
  11.900   1.4523   0.05891   0.05164  -0.1022  0.0359  1.0000  -5.1945   0.0000   0.0000   0.0000   0.3032
  12.000   1.4542   0.06013   0.05294  -0.1015  0.0351  1.0000  -5.2083   0.0000   0.0000   0.0000   0.3024
  12.100   1.4565   0.06134   0.05423  -0.1008  0.0344  1.0000  -5.2249   0.0000   0.0000   0.0000   0.3017
  12.200   1.4593   0.06255   0.05552  -0.1002  0.0339  1.0000  -5.2438   0.0000   0.0000   0.0000   0.3009
  12.300   1.4622   0.06377   0.05683  -0.0995  0.0334  1.0000  -5.2635   0.0000   0.0000   0.0000   0.3002
  12.400   1.4647   0.06505   0.05820  -0.0989  0.0330  1.0000  -5.2819   0.0000   0.0000   0.0000   0.2995
  12.500   1.4672   0.06636   0.05961  -0.0984  0.0326  1.0000  -5.3001   0.0000   0.0000   0.0000   0.2988
  12.600   1.4694   0.06772   0.06107  -0.0978  0.0324  1.0000  -5.3168   0.0000   0.0000   0.0000   0.2981
  12.700   1.4710   0.06913   0.06259  -0.0973  0.0321  1.0000  -5.3312   0.0000   0.0000   0.0000   0.2975
  12.800   1.4722   0.07059   0.06417  -0.0968  0.0320  1.0000  -5.3432   0.0000   0.0000   0.0000   0.2970
  12.900   1.4728   0.07212   0.06582  -0.0963  0.0319  1.0000  -5.3525   0.0000   0.0000   0.0000   0.2964
  13.000   1.4726   0.07370   0.06753  -0.0958  0.0318  1.0000  -5.3582   0.0000   0.0000   0.0000   0.2960
  13.100   1.4715   0.07535   0.06931  -0.0954  0.0318  1.0000  -5.3600   0.0000   0.0000   0.0000   0.2956
  13.200   1.4695   0.07706   0.07115  -0.0951  0.0318  1.0000  -5.3584   0.0000   0.0000   0.0000   0.2952
  13.300   1.4666   0.07884   0.07305  -0.0948  0.0318  1.0000  -5.3529   0.0000   0.0000   0.0000   0.2950
  13.400   1.4630   0.08067   0.07502  -0.0946  0.0318  1.0000  -5.3440   0.0000   0.0000   0.0000   0.2948
  13.500   1.4589   0.08254   0.07703  -0.0945  0.0318  1.0000  -5.3325   0.0000   0.0000   0.0000   0.2948
  13.600   1.4542   0.08443   0.07904  -0.0945  0.0319  1.0000  -5.3182   0.0000   0.0000   0.0000   0.2948
  13.700   1.4487   0.08633   0.08107  -0.0946  0.0320  1.0000  -5.3007   0.0000   0.0000   0.0000   0.2949
  13.800   1.4425   0.08831   0.08318  -0.0948  0.0321  1.0000  -5.2801   0.0000   0.0000   0.0000   0.2951
  13.900   1.4361   0.09037   0.08537  -0.0951  0.0321  1.0000  -5.2574   0.0000   0.0000   0.0000   0.2954
  14.000   1.4294   0.09254   0.08766  -0.0955  0.0322  1.0000  -5.2326   0.0000   0.0000   0.0000   0.2959
  14.100   1.4221   0.09482   0.09007  -0.0962  0.0323  1.0000  -5.2046   0.0000   0.0000   0.0000   0.2965
  14.200   1.4146   0.09722   0.09258  -0.0969  0.0324  1.0000  -5.1742   0.0000   0.0000   0.0000   0.2972
  14.300   1.4069   0.09972   0.09520  -0.0978  0.0326  1.0000  -5.1416   0.0000   0.0000   0.0000   0.2980
  14.400   1.3987   0.10237   0.09796  -0.0989  0.0327  1.0000  -5.1057   0.0000   0.0000   0.0000   0.2990
  14.500   1.3902   0.10516   0.10086  -0.1002  0.0328  1.0000  -5.0671   0.0000   0.0000   0.0000   0.3002
  14.600   1.3815   0.10809   0.10391  -0.1016  0.0329  1.0000  -5.0253   0.0000   0.0000   0.0000   0.3015
  14.700   1.3719   0.11127   0.10720  -0.1033  0.0330  1.0000  -4.9772   0.0000   0.0000   0.0000   0.3031
  14.800   1.3621   0.11462   0.11066  -0.1052  0.0332  1.0000  -4.9255   0.0000   0.0000   0.0000   0.3048
  14.900   1.3520   0.11817   0.11430  -0.1074  0.0333  1.0000  -4.8696   0.0000   0.0000   0.0000   0.3068
  15.000   1.3414   0.12197   0.11820  -0.1097  0.0335  1.0000  -4.8083   0.0000   0.0000   0.0000   0.3090
  15.100   1.3307   0.12599   0.12232  -0.1123  0.0337  1.0000  -4.7417   0.0000   0.0000   0.0000   0.3114
  15.200   1.3192   0.13038   0.12680  -0.1151  0.0338  1.0000  -4.6668   0.0000   0.0000   0.0000   0.3142
  15.300   1.3073   0.13508   0.13158  -0.1183  0.0340  1.0000  -4.5837   0.0000   0.0000   0.0000   0.3173
  15.400   1.2944   0.14030   0.13688  -0.1218  0.0343  1.0000  -4.4876   0.0000   0.0000   0.0000   0.3208
  15.500   1.2807   0.14609   0.14275  -0.1256  0.0346  1.0000  -4.3758   0.0000   0.0000   0.0000   0.3247
  15.600   1.2657   0.15260   0.14932  -0.1299  0.0349  1.0000  -4.2428   0.0000   0.0000   0.0000   0.3292
  15.700   1.2492   0.16015   0.15692  -0.1347  0.0354  1.0000  -4.0788   0.0000   0.0000   0.0000   0.3345
  15.800   1.2316   0.16867   0.16547  -0.1398  0.0360  1.0000  -3.8821   0.0000   0.0000   0.0000   0.3403
  15.900   1.2155   0.17732   0.17412  -0.1445  0.0367  1.0000  -3.6757   0.0000   0.0000   0.0000   0.3458
  16.000   1.2034   0.18491   0.18170  -0.1482  0.0374  1.0000  -3.4969   0.0000   0.0000   0.0000   0.3501
  16.100   1.1947   0.19129   0.18806  -0.1510  0.0380  1.0000  -3.3549   0.0000   0.0000   0.0000   0.3534
  16.200   1.1883   0.19671   0.19346  -0.1533  0.0385  1.0000  -3.2447   0.0000   0.0000   0.0000   0.3560
  16.300   1.1831   0.20157   0.19830  -0.1552  0.0390  1.0000  -3.1538   0.0000   0.0000   0.0000   0.3581
  16.400   1.1789   0.20605   0.20277  -0.1569  0.0395  1.0000  -3.0759   0.0000   0.0000   0.0000   0.3600
  16.500   1.1752   0.21028   0.20699  -0.1584  0.0400  1.0000  -3.0075   0.0000   0.0000   0.0000   0.3616
  16.600   1.1720   0.21433   0.21104  -0.1598  0.0405  1.0000  -2.9462   0.0000   0.0000   0.0000   0.3630
  16.700   1.1690   0.21828   0.21498  -0.1610  0.0410  1.0000  -2.8901   0.0000   0.0000   0.0000   0.3643
  16.800   1.1658   0.22229   0.21898  -0.1619  0.0417  1.0000  -2.8360   0.0000   0.0000   0.0000   0.3653
  16.900   1.1673   0.22480   0.22155  -0.1618  0.0427  1.0000  -2.8212   0.0000   0.0000   0.0000   0.3649
  17.000   1.1710   0.22670   0.22346  -0.1627  0.0435  1.0000  -2.8139   0.0000   0.0000   0.0000   0.3650
  17.100   1.1449   0.24497   0.24148  -0.1713  0.0554  1.0000  -2.2579   0.0000   0.0000   0.0000   0.3765
  17.200   1.1452   0.24820   0.24472  -0.1715  0.0585  1.0000  -2.2347   0.0000   0.0000   0.0000   0.3765
  17.300   1.1486   0.26368   0.26027  -0.1699  0.0874  1.0000  -2.0459   0.0000   0.0000   0.0000   0.3749
  17.400   1.1479   0.26652   0.26311  -0.1708  0.0874  1.0000  -2.0251   0.0000   0.0000   0.0000   0.3756
  17.500   1.1471   0.26926   0.26586  -0.1717  0.0873  1.0000  -2.0041   0.0000   0.0000   0.0000   0.3764
  17.600   1.1461   0.27189   0.26849  -0.1726  0.0872  1.0000  -1.9828   0.0000   0.0000   0.0000   0.3772
  17.700   1.1449   0.27439   0.27099  -0.1736  0.0870  1.0000  -1.9608   0.0000   0.0000   0.0000   0.3780
  17.800   1.1434   0.27669   0.27329  -0.1746  0.0868  1.0000  -1.9376   0.0000   0.0000   0.0000   0.3790
  17.900   1.1393   0.27867   0.27527  -0.1761  0.0863  1.0000  -1.9007   0.0000   0.0000   0.0000   0.3808
  18.000   1.1294   0.27977   0.27636  -0.1789  0.0848  1.0000  -1.8303   0.0000   0.0000   0.0000   0.3844
  18.100   1.1217   0.28169   0.27827  -0.1810  0.0827  1.0000  -1.7738   0.0000   0.0000   0.0000   0.3873
  18.200   1.1180   0.28408   0.28066  -0.1820  0.0814  1.0000  -1.7433   0.0000   0.0000   0.0000   0.3886
  18.300   1.1148   0.28646   0.28305  -0.1827  0.0804  1.0000  -1.7188   0.0000   0.0000   0.0000   0.3895
  18.400   1.1117   0.28878   0.28538  -0.1832  0.0794  1.0000  -1.6970   0.0000   0.0000   0.0000   0.3904
  18.500   1.1082   0.29101   0.28762  -0.1836  0.0785  1.0000  -1.6763   0.0000   0.0000   0.0000   0.3911
  18.600   1.1042   0.29310   0.28973  -0.1838  0.0777  1.0000  -1.6558   0.0000   0.0000   0.0000   0.3918
  18.700   1.0993   0.29501   0.29165  -0.1839  0.0769  1.0000  -1.6346   0.0000   0.0000   0.0000   0.3924
  18.800   1.0654   0.29231   0.28904  -0.1801  0.0767  1.0000  -1.5520   0.0000   0.0000   0.0000   0.3943
  18.900   1.0457   0.29061   0.28739  -0.1780  0.0761  1.0000  -1.5008   0.0000   0.0000   0.0000   0.3956
  19.000   1.0351   0.29027   0.28708  -0.1771  0.0755  1.0000  -1.4698   0.0000   0.0000   0.0000   0.3964
  19.100   1.0270   0.29025   0.28709  -0.1765  0.0748  1.0000  -1.4452   0.0000   0.0000   0.0000   0.3971
  19.200   1.0204   0.29040   0.28726  -0.1760  0.0741  1.0000  -1.4245   0.0000   0.0000   0.0000   0.3977
  19.300   1.0148   0.29064   0.28752  -0.1757  0.0733  1.0000  -1.4069   0.0000   0.0000   0.0000   0.3982
  19.400   1.0099   0.29093   0.28783  -0.1753  0.0726  1.0000  -1.3919   0.0000   0.0000   0.0000   0.3986
  19.500   1.0056   0.29126   0.28818  -0.1751  0.0719  1.0000  -1.3792   0.0000   0.0000   0.0000   0.3990
  19.600   1.0019   0.29163   0.28856  -0.1748  0.0712  1.0000  -1.3688   0.0000   0.0000   0.0000   0.3992
  19.700   0.9986   0.29201   0.28896  -0.1746  0.0705  1.0000  -1.3606   0.0000   0.0000   0.0000   0.3994
  19.800   0.9958   0.29241   0.28938  -0.1743  0.0698  1.0000  -1.3547   0.0000   0.0000   0.0000   0.3995
  19.900   0.9934   0.29283   0.28981  -0.1741  0.0691  1.0000  -1.3510   0.0000   0.0000   0.0000   0.3996
  20.000   0.9914   0.29326   0.29027  -0.1738  0.0685  1.0000  -1.3499   0.0000   0.0000   0.0000   0.3995
  20.100   0.9898   0.29373   0.29075  -0.1735  0.0678  1.0000  -1.3514   0.0000   0.0000   0.0000   0.3993
  20.200   0.9894   0.29425   0.29140  -0.1730  0.0671  1.0000  -1.3521   0.0000   0.0000   0.0000   0.3987
  20.300   0.9892   0.29491   0.29208  -0.1726  0.0665  1.0000  -1.3613   0.0000   0.0000   0.0000   0.3981
  20.400   0.9899   0.29580   0.29299  -0.1720  0.0659  1.0000  -1.3759   0.0000   0.0000   0.0000   0.3973
  20.500   0.9922   0.29719   0.29440  -0.1714  0.0653  1.0000  -1.3984   0.0000   0.0000   0.0000   0.3961
  20.600   0.9986   0.30009   0.29732  -0.1705  0.0646  1.0000  -1.4382   0.0000   0.0000   0.0000   0.3939


