xflr5 v6.61

 Calculated polar for: E216  (10.4%)

 1 1 Reynolds number fixed          Mach number fixed         

 xtrf =   1.000 (top)        1.000 (bottom)
 Mach =   0.000     Re =     0.625 e 6     Ncrit =   9.000

  alpha     CL        CD       CDp       Cm    Top Xtr Bot Xtr   Cpmin    Chinge    XCp    
 ------- -------- --------- --------- -------- ------- ------- -------- --------- ---------
 -10.000  -0.2746   0.11624   0.11402  -0.0494  0.9901  0.0104  -1.7272   0.0000   0.0000   0.0000   0.0546
  -9.900  -0.2694   0.11493   0.11271  -0.0506  0.9898  0.0105  -1.7093   0.0000   0.0000   0.0000   0.0466
  -9.800  -0.2641   0.11360   0.11137  -0.0519  0.9895  0.0107  -1.6927   0.0000   0.0000   0.0000   0.0379
  -9.700  -0.2586   0.11224   0.11002  -0.0532  0.9891  0.0109  -1.6772   0.0000   0.0000   0.0000   0.0285
  -9.600  -0.2530   0.11087   0.10864  -0.0545  0.9888  0.0111  -1.6630   0.0000   0.0000   0.0000   0.0183
  -9.500  -0.2472   0.10947   0.10725  -0.0560  0.9886  0.0113  -1.6501   0.0000   0.0000   0.0000   0.0073
  -9.400  -0.2448   0.10823   0.10601  -0.0563  0.9869  0.0115  -1.6430   0.0000   0.0000   0.0000   0.0037
  -9.300  -0.2413   0.10692   0.10471  -0.0571  0.9856  0.0117  -1.6354   0.0000   0.0000   0.0000  -0.0028
  -9.200  -0.2371   0.10557   0.10335  -0.0581  0.9845  0.0120  -1.6280   0.0000   0.0000   0.0000  -0.0114
  -9.100  -0.2326   0.10418   0.10197  -0.0592  0.9835  0.0122  -1.6213   0.0000   0.0000   0.0000  -0.0211
  -9.000  -0.2279   0.10278   0.10057  -0.0604  0.9826  0.0125  -1.6158   0.0000   0.0000   0.0000  -0.0318
  -8.900  -0.2231   0.10136   0.09915  -0.0617  0.9818  0.0128  -1.6116   0.0000   0.0000   0.0000  -0.0432
  -8.800  -0.2183   0.09994   0.09773  -0.0629  0.9810  0.0131  -1.6087   0.0000   0.0000   0.0000  -0.0553
  -8.700  -0.2135   0.09850   0.09629  -0.0643  0.9803  0.0134  -1.6069   0.0000   0.0000   0.0000  -0.0684
  -8.600  -0.2084   0.09704   0.09483  -0.0657  0.9797  0.0137  -1.6065   0.0000   0.0000   0.0000  -0.0828
  -8.500  -0.2031   0.09554   0.09334  -0.0672  0.9791  0.0141  -1.6074   0.0000   0.0000   0.0000  -0.0987
  -8.400  -0.1977   0.09403   0.09182  -0.0688  0.9786  0.0144  -1.6099   0.0000   0.0000   0.0000  -0.1162
  -8.300  -0.1920   0.09247   0.09027  -0.0705  0.9780  0.0148  -1.6142   0.0000   0.0000   0.0000  -0.1359
  -8.200  -0.1858   0.09085   0.08865  -0.0724  0.9775  0.0153  -1.6204   0.0000   0.0000   0.0000  -0.1585
  -8.100  -0.1794   0.08920   0.08699  -0.0744  0.9771  0.0158  -1.6288   0.0000   0.0000   0.0000  -0.1841
  -8.000  -0.1726   0.08752   0.08531  -0.0765  0.9766  0.0163  -1.6391   0.0000   0.0000   0.0000  -0.2133
  -7.900  -0.1652   0.08587   0.08367  -0.0787  0.9762  0.0169  -1.6487   0.0000   0.0000   0.0000  -0.2471
  -7.800  -0.1567   0.08439   0.08218  -0.0808  0.9759  0.0177  -1.6498   0.0000   0.0000   0.0000  -0.2873
  -7.700  -0.1632   0.08384   0.08165  -0.0786  0.9706  0.0178  -1.6584   0.0000   0.0000   0.0000  -0.2517
  -7.600  -0.1564   0.08303   0.08084  -0.0795  0.9689  0.0185  -1.6351   0.0000   0.0000   0.0000  -0.2788
  -7.500  -0.1481   0.08238   0.08019  -0.0807  0.9675  0.0191  -1.5990   0.0000   0.0000   0.0000  -0.3165
  -7.400  -0.1413   0.08125   0.07907  -0.0822  0.9662  0.0193  -1.5867   0.0000   0.0000   0.0000  -0.3540
  -7.300  -0.1349   0.07986   0.07768  -0.0839  0.9651  0.0194  -1.5860   0.0000   0.0000   0.0000  -0.3948
  -7.200  -0.1285   0.07832   0.07614  -0.0858  0.9640  0.0195  -1.5907   0.0000   0.0000   0.0000  -0.4414
  -7.100  -0.1220   0.07669   0.07451  -0.0878  0.9629  0.0195  -1.5989   0.0000   0.0000   0.0000  -0.4943
  -7.000  -0.1154   0.07498   0.07280  -0.0899  0.9620  0.0195  -1.6098   0.0000   0.0000   0.0000  -0.5555
  -6.900  -0.1086   0.07320   0.07102  -0.0922  0.9611  0.0196  -1.6231   0.0000   0.0000   0.0000  -0.6266
  -6.800  -0.1016   0.07134   0.06916  -0.0947  0.9602  0.0196  -1.6388   0.0000   0.0000   0.0000  -0.7110
  -6.700  -0.0940   0.06935   0.06717  -0.0975  0.9595  0.0196  -1.6573   0.0000   0.0000   0.0000  -0.8183
  -6.200  -0.0752   0.04522   0.04291  -0.1298  0.9412  0.0205  -2.3916   0.0000   0.0000   0.0000  -1.5115
  -6.100  -0.0612   0.03778   0.03523  -0.1423  0.9398  0.0219  -2.5697   0.0000   0.0000   0.0000  -2.1194
  -6.000  -0.0476   0.03633   0.03375  -0.1453  0.9393  0.0228  -2.4904   0.0000   0.0000   0.0000  -2.8576
  -5.900  -0.0340   0.03559   0.03299  -0.1472  0.9390  0.0237  -2.3867   0.0000   0.0000   0.0000  -4.1598
  -5.800  -0.0206   0.03523   0.03264  -0.1485  0.9386  0.0246  -2.2708   0.0000   0.0000   0.0000  -7.0819
  -5.700  -0.0062   0.03447   0.03185  -0.1505  0.9382  0.0258  -2.1778   0.0000   0.0000   0.0000  -24.2840
  -5.600  -0.0135   0.03409   0.03145  -0.1476  0.9316  0.0260  -2.1767   0.0000   0.0000   0.0000  -10.8962
  -5.500  -0.0047   0.03320   0.03051  -0.1484  0.9289  0.0271  -2.1243   0.0000   0.0000   0.0000  -32.0797
  -5.400   0.0077   0.03209   0.02933  -0.1500  0.9273  0.0286  -2.0726   0.0000   0.0000   0.0000  20.0289
  -5.300   0.0215   0.03098   0.02815  -0.1518  0.9261  0.0307  -2.0242   0.0000   0.0000   0.0000   7.4222
  -5.200   0.0356   0.03039   0.02749  -0.1528  0.9252  0.0331  -1.9658   0.0000   0.0000   0.0000   4.6065
  -5.100   0.0487   0.03162   0.02873  -0.1518  0.9243  0.0356  -1.8539   0.0000   0.0000   0.0000   3.4094
  -5.000   0.0636   0.03300   0.03008  -0.1512  0.9235  0.0367  -1.7417   0.0000   0.0000   0.0000   2.6618
  -4.900   0.0900   0.02410   0.02057  -0.1626  0.9232  0.0398  -1.9332   0.0000   0.0000   0.0000   2.0813
  -4.800   0.1053   0.02272   0.01913  -0.1646  0.9227  0.0416  -1.8732   0.0000   0.0000   0.0000   1.8340
  -4.700   0.1181   0.02241   0.01877  -0.1653  0.9220  0.0440  -1.7786   0.0000   0.0000   0.0000   1.6675
  -4.600   0.1331   0.02170   0.01803  -0.1665  0.9214  0.0455  -1.7116   0.0000   0.0000   0.0000   1.5164
  -4.500   0.1488   0.02092   0.01720  -0.1678  0.9209  0.0473  -1.6518   0.0000   0.0000   0.0000   1.3910
  -4.100   0.2327   0.01333   0.00838  -0.1754  0.9210  0.0212  -1.8869   0.0000   0.0000   0.0000   1.0123
  -4.000   0.2514   0.01217   0.00710  -0.1768  0.9209  0.0175  -1.9151   0.0000   0.0000   0.0000   0.9613
  -3.900   0.2700   0.01128   0.00607  -0.1784  0.9208  0.0160  -1.9060   0.0000   0.0000   0.0000   0.9177
  -3.800   0.2879   0.01069   0.00537  -0.1797  0.9205  0.0149  -1.8714   0.0000   0.0000   0.0000   0.8809
  -3.700   0.3051   0.01026   0.00483  -0.1809  0.9200  0.0141  -1.8230   0.0000   0.0000   0.0000   0.8490
  -3.600   0.3218   0.00992   0.00441  -0.1820  0.9194  0.0135  -1.7647   0.0000   0.0000   0.0000   0.8212
  -3.500   0.3379   0.00966   0.00408  -0.1830  0.9187  0.0131  -1.6977   0.0000   0.0000   0.0000   0.7967
  -3.400   0.3535   0.00945   0.00381  -0.1838  0.9180  0.0128  -1.6224   0.0000   0.0000   0.0000   0.7748
  -3.300   0.3690   0.00928   0.00358  -0.1847  0.9173  0.0126  -1.5417   0.0000   0.0000   0.0000   0.7549
  -3.200   0.3847   0.00913   0.00338  -0.1856  0.9166  0.0125  -1.4575   0.0000   0.0000   0.0000   0.7365
  -3.100   0.4007   0.00899   0.00320  -0.1865  0.9160  0.0125  -1.3713   0.0000   0.0000   0.0000   0.7194
  -3.000   0.4169   0.00886   0.00303  -0.1876  0.9153  0.0126  -1.2837   0.0000   0.0000   0.0000   0.7034
  -2.900   0.4335   0.00874   0.00287  -0.1887  0.9145  0.0128  -1.1949   0.0000   0.0000   0.0000   0.6885
  -2.800   0.4506   0.00863   0.00272  -0.1899  0.9137  0.0132  -1.1045   0.0000   0.0000   0.0000   0.6744
  -2.700   0.4682   0.00853   0.00259  -0.1912  0.9128  0.0140  -1.0121   0.0000   0.0000   0.0000   0.6612
  -2.600   0.4862   0.00843   0.00249  -0.1927  0.9118  0.0153  -0.9197   0.0000   0.0000   0.0000   0.6488
  -2.500   0.4870   0.00844   0.00251  -0.1903  0.9072  0.0160  -0.8824   0.0000   0.0000   0.0000   0.6432
  -2.400   0.4960   0.00839   0.00249  -0.1898  0.9039  0.0173  -0.8242   0.0000   0.0000   0.0000   0.6349
  -2.300   0.5074   0.00833   0.00245  -0.1898  0.9012  0.0188  -0.7644   0.0000   0.0000   0.0000   0.6262
  -2.200   0.5221   0.00808   0.00237  -0.1907  0.8990  0.0577  -0.7028   0.0000   0.0000   0.0000   0.6172
  -2.100   0.5370   0.00788   0.00230  -0.1917  0.8969  0.0911  -0.6440   0.0000   0.0000   0.0000   0.6086
  -2.000   0.5539   0.00765   0.00224  -0.1931  0.8950  0.1330  -0.6467   0.0000   0.0000   0.0000   0.6001
  -1.900   0.5715   0.00744   0.00219  -0.1947  0.8931  0.1749  -0.6576   0.0000   0.0000   0.0000   0.5920
  -1.800   0.5893   0.00728   0.00215  -0.1962  0.8912  0.2127  -0.6687   0.0000   0.0000   0.0000   0.5842
  -1.700   0.6070   0.00713   0.00211  -0.1978  0.8892  0.2474  -0.6797   0.0000   0.0000   0.0000   0.5768
  -1.600   0.6266   0.00673   0.00226  -0.2001  0.8876  0.3976  -0.6918   0.0000   0.0000   0.0000   0.5702
  -1.500   0.6433   0.00666   0.00222  -0.2013  0.8855  0.4140  -0.7023   0.0000   0.0000   0.0000   0.5637
  -1.400   0.6600   0.00660   0.00218  -0.2025  0.8831  0.4260  -0.7129   0.0000   0.0000   0.0000   0.5575
  -1.300   0.6721   0.00659   0.00218  -0.2027  0.8801  0.4345  -0.7220   0.0000   0.0000   0.0000   0.5521
  -1.200   0.6803   0.00660   0.00219  -0.2020  0.8763  0.4402  -0.7292   0.0000   0.0000   0.0000   0.5474
  -1.100   0.6905   0.00659   0.00218  -0.2018  0.8721  0.4479  -0.7375   0.0000   0.0000   0.0000   0.5425
  -1.000   0.7030   0.00655   0.00218  -0.2021  0.8679  0.4645  -0.7470   0.0000   0.0000   0.0000   0.5376
  -0.900   0.7164   0.00651   0.00216  -0.2025  0.8637  0.4781  -0.7571   0.0000   0.0000   0.0000   0.5327
  -0.800   0.7306   0.00648   0.00214  -0.2032  0.8595  0.4889  -0.7676   0.0000   0.0000   0.0000   0.5280
  -0.700   0.7450   0.00647   0.00210  -0.2038  0.8554  0.4961  -0.7782   0.0000   0.0000   0.0000   0.5234
  -0.600   0.7596   0.00647   0.00207  -0.2046  0.8512  0.5039  -0.7901   0.0000   0.0000   0.0000   0.5189
  -0.500   0.7728   0.00645   0.00208  -0.2050  0.8470  0.5195  -0.8013   0.0000   0.0000   0.0000   0.5148
  -0.400   0.7824   0.00644   0.00211  -0.2047  0.8431  0.5315  -0.8104   0.0000   0.0000   0.0000   0.5110
  -0.300   0.7928   0.00644   0.00213  -0.2045  0.8383  0.5419  -0.8201   0.0000   0.0000   0.0000   0.5072
  -0.200   0.8040   0.00645   0.00213  -0.2044  0.8329  0.5499  -0.8302   0.0000   0.0000   0.0000   0.5034
  -0.100   0.8159   0.00646   0.00212  -0.2045  0.8271  0.5552  -0.8407   0.0000   0.0000   0.0000   0.4997
   0.000   0.8286   0.00647   0.00212  -0.2048  0.8214  0.5661  -0.8517   0.0000   0.0000   0.0000   0.4962
   0.100   0.8413   0.00648   0.00212  -0.2052  0.8155  0.5780  -0.8638   0.0000   0.0000   0.0000   0.4927
   0.200   0.8535   0.00649   0.00214  -0.2053  0.8102  0.5880  -0.8759   0.0000   0.0000   0.0000   0.4893
   0.300   0.8636   0.00650   0.00217  -0.2051  0.8062  0.5972  -0.8867   0.0000   0.0000   0.0000   0.4861
   0.400   0.8740   0.00652   0.00219  -0.2049  0.8010  0.6056  -0.8978   0.0000   0.0000   0.0000   0.4830
   0.500   0.8848   0.00655   0.00221  -0.2048  0.7947  0.6118  -0.9092   0.0000   0.0000   0.0000   0.4799
   0.600   0.8960   0.00656   0.00222  -0.2048  0.7879  0.6245  -0.9208   0.0000   0.0000   0.0000   0.4768
   0.700   0.9072   0.00660   0.00225  -0.2047  0.7805  0.6365  -0.9325   0.0000   0.0000   0.0000   0.4739
   0.800   0.9182   0.00665   0.00227  -0.2047  0.7724  0.6464  -0.9440   0.0000   0.0000   0.0000   0.4710
   0.900   0.9287   0.00667   0.00231  -0.2045  0.7677  0.6548  -0.9553   0.0000   0.0000   0.0000   0.4682
   1.000   0.9392   0.00670   0.00234  -0.2043  0.7629  0.6619  -0.9681   0.0000   0.0000   0.0000   0.4654
   1.100   0.9498   0.00673   0.00236  -0.2042  0.7573  0.6673  -0.9810   0.0000   0.0000   0.0000   0.4627
   1.200   0.9604   0.00676   0.00239  -0.2041  0.7508  0.6780  -0.9940   0.0000   0.0000   0.0000   0.4601
   1.300   0.9708   0.00680   0.00243  -0.2038  0.7435  0.6901  -1.0069   0.0000   0.0000   0.0000   0.4575
   1.400   0.9806   0.00687   0.00247  -0.2035  0.7350  0.7008  -1.0202   0.0000   0.0000   0.0000   0.4549
   1.500   0.9906   0.00693   0.00252  -0.2032  0.7272  0.7103  -1.0348   0.0000   0.0000   0.0000   0.4525
   1.600   1.0010   0.00696   0.00255  -0.2030  0.7218  0.7179  -1.0496   0.0000   0.0000   0.0000   0.4500
   1.700   1.0113   0.00701   0.00263  -0.2028  0.7151  0.7241  -1.0645   0.0000   0.0000   0.0000   0.4477
   1.800   1.0212   0.00705   0.00267  -0.2026  0.7073  0.7351  -1.0791   0.0000   0.0000   0.0000   0.4453
   1.900   1.0307   0.00711   0.00271  -0.2022  0.6987  0.7447  -1.0934   0.0000   0.0000   0.0000   0.4430
   2.000   1.0395   0.00721   0.00276  -0.2016  0.6891  0.7538  -1.1072   0.0000   0.0000   0.0000   0.4407
   2.100   1.0492   0.00727   0.00281  -0.2013  0.6816  0.7628  -1.1218   0.0000   0.0000   0.0000   0.4385
   2.200   1.0595   0.00731   0.00285  -0.2011  0.6756  0.7708  -1.1368   0.0000   0.0000   0.0000   0.4363
   2.300   1.0694   0.00736   0.00290  -0.2008  0.6680  0.7796  -1.1533   0.0000   0.0000   0.0000   0.4342
   2.400   1.0784   0.00742   0.00296  -0.2003  0.6590  0.7912  -1.1698   0.0000   0.0000   0.0000   0.4320
   2.500   1.0865   0.00753   0.00302  -0.1996  0.6484  0.8016  -1.1855   0.0000   0.0000   0.0000   0.4299
   2.600   1.0946   0.00765   0.00308  -0.1989  0.6369  0.8110  -1.2012   0.0000   0.0000   0.0000   0.4278
   2.700   1.1046   0.00769   0.00313  -0.1987  0.6298  0.8189  -1.2206   0.0000   0.0000   0.0000   0.4258
   2.800   1.1138   0.00778   0.00318  -0.1982  0.6191  0.8264  -1.2403   0.0000   0.0000   0.0000   0.4238
   2.900   1.1210   0.00790   0.00325  -0.1974  0.6055  0.8366  -1.2581   0.0000   0.0000   0.0000   0.4218
   3.000   1.1272   0.00806   0.00334  -0.1963  0.5895  0.8466  -1.2749   0.0000   0.0000   0.0000   0.4197
   3.100   1.1361   0.00812   0.00339  -0.1958  0.5791  0.8561  -1.2947   0.0000   0.0000   0.0000   0.4178
   3.200   1.1439   0.00827   0.00346  -0.1951  0.5634  0.8649  -1.3132   0.0000   0.0000   0.0000   0.4159
   3.300   1.1490   0.00847   0.00356  -0.1938  0.5448  0.8755  -1.3290   0.0000   0.0000   0.0000   0.4139
   3.400   1.1561   0.00853   0.00361  -0.1929  0.5331  0.8884  -1.3470   0.0000   0.0000   0.0000   0.4120
   3.500   1.1628   0.00867   0.00369  -0.1919  0.5173  0.9014  -1.3647   0.0000   0.0000   0.0000   0.4101
   3.600   1.1669   0.00885   0.00377  -0.1904  0.4991  0.9159  -1.3796   0.0000   0.0000   0.0000   0.4081
   3.700   1.1721   0.00892   0.00381  -0.1891  0.4865  0.9363  -1.3959   0.0000   0.0000   0.0000   0.4061
   3.800   1.1772   0.00897   0.00383  -0.1878  0.4723  1.0000  -1.4155   0.0000   0.0000   0.0000   0.4042
   3.900   1.1844   0.00924   0.00396  -0.1871  0.4521  1.0000  -1.4376   0.0000   0.0000   0.0000   0.4025
   4.000   1.1936   0.00940   0.00405  -0.1868  0.4384  1.0000  -1.4670   0.0000   0.0000   0.0000   0.4009
   4.100   1.2032   0.00954   0.00414  -0.1865  0.4267  1.0000  -1.4976   0.0000   0.0000   0.0000   0.3993
   4.200   1.2123   0.00971   0.00424  -0.1862  0.4156  1.0000  -1.5277   0.0000   0.0000   0.0000   0.3977
   4.300   1.2210   0.00989   0.00435  -0.1858  0.4041  1.0000  -1.5573   0.0000   0.0000   0.0000   0.3962
   4.400   1.2306   0.01002   0.00444  -0.1855  0.3951  1.0000  -1.5885   0.0000   0.0000   0.0000   0.3947
   4.500   1.2406   0.01013   0.00452  -0.1853  0.3879  1.0000  -1.6204   0.0000   0.0000   0.0000   0.3932
   4.600   1.2499   0.01028   0.00462  -0.1850  0.3773  1.0000  -1.6514   0.0000   0.0000   0.0000   0.3917
   4.700   1.2580   0.01051   0.00476  -0.1845  0.3635  1.0000  -1.6808   0.0000   0.0000   0.0000   0.3902
   4.800   1.2663   0.01072   0.00489  -0.1840  0.3493  1.0000  -1.7107   0.0000   0.0000   0.0000   0.3888
   4.900   1.2758   0.01085   0.00498  -0.1838  0.3408  1.0000  -1.7424   0.0000   0.0000   0.0000   0.3873
   5.000   1.2845   0.01102   0.00510  -0.1833  0.3296  1.0000  -1.7732   0.0000   0.0000   0.0000   0.3859
   5.100   1.2924   0.01125   0.00525  -0.1828  0.3168  1.0000  -1.8028   0.0000   0.0000   0.0000   0.3845
   5.200   1.3008   0.01145   0.00538  -0.1823  0.3041  1.0000  -1.8382   0.0000   0.0000   0.0000   0.3831
   5.300   1.3097   0.01160   0.00549  -0.1820  0.2952  1.0000  -1.9182   0.0000   0.0000   0.0000   0.3817
   5.400   1.3174   0.01185   0.00564  -0.1814  0.2806  1.0000  -1.9941   0.0000   0.0000   0.0000   0.3804
   5.500   1.3243   0.01215   0.00583  -0.1807  0.2619  1.0000  -2.0680   0.0000   0.0000   0.0000   0.3790
   5.600   1.3326   0.01235   0.00597  -0.1802  0.2505  1.0000  -2.1481   0.0000   0.0000   0.0000   0.3776
   5.700   1.3552   0.01153   0.00596  -0.1821  0.3237  1.0000  -2.3233   0.0000   0.0000   0.0000   0.3766
   5.800   1.3688   0.01138   0.00599  -0.1825  0.3416  1.0000  -2.4348   0.0000   0.0000   0.0000   0.3755
   5.900   1.3780   0.01150   0.00612  -0.1822  0.3359  1.0000  -2.5266   0.0000   0.0000   0.0000   0.3742
   6.000   1.3858   0.01171   0.00627  -0.1816  0.3255  1.0000  -2.6128   0.0000   0.0000   0.0000   0.3729
   6.100   1.3930   0.01196   0.00645  -0.1809  0.3135  1.0000  -2.6968   0.0000   0.0000   0.0000   0.3716
   6.200   1.4013   0.01213   0.00660  -0.1804  0.3038  1.0000  -2.7861   0.0000   0.0000   0.0000   0.3703
   6.300   1.4102   0.01227   0.00673  -0.1800  0.2975  1.0000  -2.8793   0.0000   0.0000   0.0000   0.3691
   6.400   1.4184   0.01245   0.00687  -0.1795  0.2889  1.0000  -2.9703   0.0000   0.0000   0.0000   0.3679
   6.500   1.4257   0.01269   0.00705  -0.1788  0.2786  1.0000  -3.0577   0.0000   0.0000   0.0000   0.3666
   6.600   1.4327   0.01295   0.00725  -0.1781  0.2660  1.0000  -3.1446   0.0000   0.0000   0.0000   0.3654
   6.700   1.4411   0.01312   0.00740  -0.1777  0.2582  1.0000  -3.2388   0.0000   0.0000   0.0000   0.3642
   6.800   1.4488   0.01333   0.00757  -0.1771  0.2480  1.0000  -3.3306   0.0000   0.0000   0.0000   0.3630
   6.900   1.4546   0.01367   0.00780  -0.1762  0.2331  1.0000  -3.4144   0.0000   0.0000   0.0000   0.3618
   7.000   1.4613   0.01396   0.00802  -0.1754  0.2187  1.0000  -3.5031   0.0000   0.0000   0.0000   0.3605
   7.100   1.4682   0.01422   0.00822  -0.1747  0.2071  1.0000  -3.5936   0.0000   0.0000   0.0000   0.3594
   7.200   1.4735   0.01459   0.00848  -0.1738  0.1926  1.0000  -3.6769   0.0000   0.0000   0.0000   0.3581
   7.300   1.4805   0.01485   0.00869  -0.1730  0.1813  1.0000  -3.7689   0.0000   0.0000   0.0000   0.3570
   7.400   1.4878   0.01507   0.00888  -0.1724  0.1742  1.0000  -3.8639   0.0000   0.0000   0.0000   0.3558
   7.500   1.4942   0.01536   0.00911  -0.1716  0.1648  1.0000  -3.9546   0.0000   0.0000   0.0000   0.3546
   7.600   1.4999   0.01570   0.00938  -0.1707  0.1532  1.0000  -4.0426   0.0000   0.0000   0.0000   0.3535
   7.700   1.5073   0.01593   0.00959  -0.1701  0.1455  1.0000  -4.1394   0.0000   0.0000   0.0000   0.3523
   7.800   1.5142   0.01618   0.00981  -0.1694  0.1385  1.0000  -4.2350   0.0000   0.0000   0.0000   0.3512
   7.900   1.5199   0.01652   0.01008  -0.1685  0.1294  1.0000  -4.3248   0.0000   0.0000   0.0000   0.3501
   8.000   1.5254   0.01688   0.01036  -0.1676  0.1179  1.0000  -4.4137   0.0000   0.0000   0.0000   0.3489
   8.100   1.5324   0.01712   0.01059  -0.1669  0.1120  1.0000  -4.5116   0.0000   0.0000   0.0000   0.3478
   8.200   1.5382   0.01744   0.01086  -0.1661  0.1044  1.0000  -4.6039   0.0000   0.0000   0.0000   0.3467
   8.300   1.5429   0.01784   0.01117  -0.1651  0.0951  1.0000  -4.6902   0.0000   0.0000   0.0000   0.3456
   8.400   1.5490   0.01815   0.01145  -0.1643  0.0868  1.0000  -4.7833   0.0000   0.0000   0.0000   0.3445
   8.500   1.5550   0.01844   0.01172  -0.1634  0.0812  1.0000  -4.8768   0.0000   0.0000   0.0000   0.3434
   8.600   1.5590   0.01888   0.01207  -0.1623  0.0726  1.0000  -4.9582   0.0000   0.0000   0.0000   0.3423
   8.700   1.5631   0.01933   0.01242  -0.1612  0.0607  1.0000  -5.0342   0.0000   0.0000   0.0000   0.3411
   8.800   1.5396   0.02202   0.01467  -0.1553  0.0095  1.0000  -4.7074   0.0000   0.0000   0.0000   0.3388
   8.900   1.5449   0.02239   0.01511  -0.1544  0.0093  1.0000  -4.7682   0.0000   0.0000   0.0000   0.3377
   9.000   1.5499   0.02278   0.01555  -0.1534  0.0092  1.0000  -4.8293   0.0000   0.0000   0.0000   0.3365
   9.100   1.5546   0.02317   0.01600  -0.1523  0.0091  1.0000  -4.8898   0.0000   0.0000   0.0000   0.3354
   9.200   1.5589   0.02358   0.01647  -0.1512  0.0091  1.0000  -4.9496   0.0000   0.0000   0.0000   0.3342
   9.300   1.5621   0.02411   0.01713  -0.1499  0.0089  1.0000  -4.9777   0.0000   0.0000   0.0000   0.3330
   9.400   1.5660   0.02458   0.01767  -0.1487  0.0089  1.0000  -5.0309   0.0000   0.0000   0.0000   0.3319
   9.500   1.5698   0.02507   0.01822  -0.1476  0.0089  1.0000  -5.0857   0.0000   0.0000   0.0000   0.3308
   9.600   1.5731   0.02560   0.01881  -0.1464  0.0089  1.0000  -5.1388   0.0000   0.0000   0.0000   0.3296
   9.700   1.5758   0.02617   0.01944  -0.1451  0.0090  1.0000  -5.1884   0.0000   0.0000   0.0000   0.3285
   9.800   1.5780   0.02677   0.02011  -0.1437  0.0090  1.0000  -5.2358   0.0000   0.0000   0.0000   0.3274
   9.900   1.5801   0.02740   0.02081  -0.1424  0.0091  1.0000  -5.2818   0.0000   0.0000   0.0000   0.3262
  10.000   1.5820   0.02807   0.02155  -0.1411  0.0091  1.0000  -5.3264   0.0000   0.0000   0.0000   0.3251
  10.100   1.5836   0.02876   0.02231  -0.1398  0.0092  1.0000  -5.3694   0.0000   0.0000   0.0000   0.3240
  10.200   1.5847   0.02950   0.02312  -0.1384  0.0093  1.0000  -5.4093   0.0000   0.0000   0.0000   0.3229
  10.300   1.5851   0.03029   0.02398  -0.1369  0.0093  1.0000  -5.4458   0.0000   0.0000   0.0000   0.3218
  10.400   1.5854   0.03110   0.02487  -0.1355  0.0094  1.0000  -5.4810   0.0000   0.0000   0.0000   0.3207
  10.500   1.5856   0.03195   0.02580  -0.1341  0.0095  1.0000  -5.5150   0.0000   0.0000   0.0000   0.3197
  10.600   1.5857   0.03283   0.02675  -0.1327  0.0096  1.0000  -5.5474   0.0000   0.0000   0.0000   0.3186
  10.700   1.5854   0.03375   0.02774  -0.1313  0.0097  1.0000  -5.5783   0.0000   0.0000   0.0000   0.3176
  10.800   1.5847   0.03470   0.02877  -0.1299  0.0098  1.0000  -5.6080   0.0000   0.0000   0.0000   0.3166
  10.900   1.5841   0.03566   0.02980  -0.1286  0.0098  1.0000  -5.6389   0.0000   0.0000   0.0000   0.3156
  11.000   1.5839   0.03662   0.03083  -0.1273  0.0099  1.0000  -5.6712   0.0000   0.0000   0.0000   0.3146
  11.100   1.5834   0.03757   0.03185  -0.1261  0.0099  1.0000  -5.7037   0.0000   0.0000   0.0000   0.3137
  11.200   1.5828   0.03854   0.03290  -0.1248  0.0100  1.0000  -5.7360   0.0000   0.0000   0.0000   0.3127
  11.300   1.5820   0.03957   0.03399  -0.1236  0.0100  1.0000  -5.7676   0.0000   0.0000   0.0000   0.3118
  11.400   1.5816   0.04060   0.03509  -0.1225  0.0100  1.0000  -5.8015   0.0000   0.0000   0.0000   0.3109
  11.500   1.5817   0.04164   0.03619  -0.1214  0.0100  1.0000  -5.8383   0.0000   0.0000   0.0000   0.3101
  11.600   1.5821   0.04268   0.03730  -0.1205  0.0100  1.0000  -5.8777   0.0000   0.0000   0.0000   0.3093
  11.700   1.5828   0.04372   0.03841  -0.1195  0.0100  1.0000  -5.9193   0.0000   0.0000   0.0000   0.3085
  11.800   1.5836   0.04477   0.03953  -0.1187  0.0099  1.0000  -5.9624   0.0000   0.0000   0.0000   0.3077
  11.900   1.5838   0.04587   0.04069  -0.1178  0.0099  1.0000  -6.0042   0.0000   0.0000   0.0000   0.3070
  12.000   1.5840   0.04699   0.04187  -0.1170  0.0099  1.0000  -6.0470   0.0000   0.0000   0.0000   0.3062
  12.100   1.5845   0.04809   0.04304  -0.1162  0.0098  1.0000  -6.0923   0.0000   0.0000   0.0000   0.3055
  12.200   1.5852   0.04920   0.04420  -0.1155  0.0097  1.0000  -6.1396   0.0000   0.0000   0.0000   0.3049
  12.300   1.5859   0.05030   0.04536  -0.1148  0.0096  1.0000  -6.1883   0.0000   0.0000   0.0000   0.3042
  12.400   1.5867   0.05141   0.04654  -0.1141  0.0096  1.0000  -6.2377   0.0000   0.0000   0.0000   0.3035
  12.500   1.5872   0.05256   0.04774  -0.1135  0.0095  1.0000  -6.2865   0.0000   0.0000   0.0000   0.3029
  12.600   1.5870   0.05378   0.04902  -0.1128  0.0094  1.0000  -6.3308   0.0000   0.0000   0.0000   0.3023
  12.700   1.5865   0.05503   0.05034  -0.1122  0.0093  1.0000  -6.3736   0.0000   0.0000   0.0000   0.3018
  12.800   1.5862   0.05629   0.05166  -0.1117  0.0092  1.0000  -6.4167   0.0000   0.0000   0.0000   0.3013
  12.900   1.5859   0.05757   0.05300  -0.1111  0.0092  1.0000  -6.4587   0.0000   0.0000   0.0000   0.3007
  13.000   1.5855   0.05888   0.05437  -0.1106  0.0091  1.0000  -6.4982   0.0000   0.0000   0.0000   0.3002
  13.100   1.5849   0.06023   0.05580  -0.1101  0.0091  1.0000  -6.5336   0.0000   0.0000   0.0000   0.2997
  13.200   1.5834   0.06170   0.05735  -0.1096  0.0091  1.0000  -6.5610   0.0000   0.0000   0.0000   0.2993
  13.300   1.5810   0.06329   0.05901  -0.1092  0.0091  1.0000  -6.5803   0.0000   0.0000   0.0000   0.2989
  13.400   1.5786   0.06491   0.06072  -0.1087  0.0091  1.0000  -6.5945   0.0000   0.0000   0.0000   0.2985
  13.500   1.5759   0.06660   0.06249  -0.1083  0.0092  1.0000  -6.6021   0.0000   0.0000   0.0000   0.2982
  13.600   1.5729   0.06834   0.06433  -0.1079  0.0093  1.0000  -6.6045   0.0000   0.0000   0.0000   0.2979
  13.700   1.5695   0.07012   0.06620  -0.1076  0.0093  1.0000  -6.6047   0.0000   0.0000   0.0000   0.2976
  13.800   1.5651   0.07201   0.06818  -0.1074  0.0094  1.0000  -6.6003   0.0000   0.0000   0.0000   0.2975
  13.900   1.5604   0.07393   0.07020  -0.1072  0.0095  1.0000  -6.5939   0.0000   0.0000   0.0000   0.2974
  14.000   1.5559   0.07586   0.07221  -0.1072  0.0095  1.0000  -6.5874   0.0000   0.0000   0.0000   0.2973
  14.100   1.5514   0.07779   0.07423  -0.1071  0.0096  1.0000  -6.5796   0.0000   0.0000   0.0000   0.2973
  14.200   1.5466   0.07973   0.07626  -0.1072  0.0097  1.0000  -6.5698   0.0000   0.0000   0.0000   0.2973
  14.300   1.5404   0.08172   0.07834  -0.1075  0.0097  1.0000  -6.5550   0.0000   0.0000   0.0000   0.2976
  14.400   1.5344   0.08371   0.08042  -0.1078  0.0098  1.0000  -6.5396   0.0000   0.0000   0.0000   0.2978
  14.500   1.5287   0.08572   0.08252  -0.1081  0.0099  1.0000  -6.5238   0.0000   0.0000   0.0000   0.2981
  14.600   1.5230   0.08781   0.08469  -0.1086  0.0099  1.0000  -6.5065   0.0000   0.0000   0.0000   0.2985
  14.700   1.5161   0.09015   0.08711  -0.1093  0.0100  1.0000  -6.4844   0.0000   0.0000   0.0000   0.2991
  14.800   1.5094   0.09252   0.08957  -0.1101  0.0100  1.0000  -6.4614   0.0000   0.0000   0.0000   0.2997
  14.900   1.5030   0.09492   0.09205  -0.1109  0.0101  1.0000  -6.4380   0.0000   0.0000   0.0000   0.3003
  15.000   1.4964   0.09743   0.09464  -0.1119  0.0101  1.0000  -6.4124   0.0000   0.0000   0.0000   0.3011
  15.100   1.4888   0.10018   0.09748  -0.1132  0.0102  1.0000  -6.3819   0.0000   0.0000   0.0000   0.3021
  15.200   1.4817   0.10293   0.10031  -0.1144  0.0102  1.0000  -6.3514   0.0000   0.0000   0.0000   0.3031
  15.300   1.4748   0.10572   0.10318  -0.1157  0.0103  1.0000  -6.3198   0.0000   0.0000   0.0000   0.3041
  15.400   1.4670   0.10876   0.10630  -0.1173  0.0103  1.0000  -6.2834   0.0000   0.0000   0.0000   0.3054
  15.500   1.4592   0.11191   0.10952  -0.1190  0.0104  1.0000  -6.2450   0.0000   0.0000   0.0000   0.3068
  15.600   1.4518   0.11505   0.11273  -0.1207  0.0104  1.0000  -6.2060   0.0000   0.0000   0.0000   0.3082
  15.700   1.4439   0.11840   0.11616  -0.1226  0.0105  1.0000  -6.1628   0.0000   0.0000   0.0000   0.3098
  15.800   1.4356   0.12197   0.11980  -0.1248  0.0105  1.0000  -6.1156   0.0000   0.0000   0.0000   0.3115
  15.900   1.4279   0.12549   0.12339  -0.1268  0.0105  1.0000  -6.0680   0.0000   0.0000   0.0000   0.3133
  16.000   1.4196   0.12927   0.12724  -0.1291  0.0106  1.0000  -6.0153   0.0000   0.0000   0.0000   0.3152
  16.100   1.4109   0.13327   0.13131  -0.1316  0.0106  1.0000  -5.9580   0.0000   0.0000   0.0000   0.3174
  16.200   1.4028   0.13722   0.13534  -0.1340  0.0106  1.0000  -5.8997   0.0000   0.0000   0.0000   0.3195
  16.300   1.3938   0.14160   0.13978  -0.1368  0.0107  1.0000  -5.8332   0.0000   0.0000   0.0000   0.3219
  16.400   1.3849   0.14605   0.14430  -0.1396  0.0107  1.0000  -5.7632   0.0000   0.0000   0.0000   0.3244
  16.500   1.3762   0.15060   0.14891  -0.1424  0.0107  1.0000  -5.6893   0.0000   0.0000   0.0000   0.3269
  16.600   1.3662   0.15572   0.15410  -0.1456  0.0107  1.0000  -5.6026   0.0000   0.0000   0.0000   0.3299
  16.700   1.3569   0.16079   0.15923  -0.1486  0.0108  1.0000  -5.5132   0.0000   0.0000   0.0000   0.3328
  16.800   1.3462   0.16653   0.16503  -0.1521  0.0108  1.0000  -5.4067   0.0000   0.0000   0.0000   0.3361
  16.900   1.3357   0.17238   0.17094  -0.1555  0.0108  1.0000  -5.2922   0.0000   0.0000   0.0000   0.3395
  17.000   1.3235   0.17916   0.17777  -0.1594  0.0109  1.0000  -5.1498   0.0000   0.0000   0.0000   0.3435
  17.100   1.3105   0.18643   0.18511  -0.1633  0.0110  1.0000  -4.9827   0.0000   0.0000   0.0000   0.3476
  17.300   1.1967   0.24964   0.24839  -0.1859  0.0220  1.0000  -2.5217   0.0000   0.0000   0.0000   0.3809
  17.400   1.1958   0.25289   0.25164  -0.1869  0.0215  1.0000  -2.4962   0.0000   0.0000   0.0000   0.3817
  17.500   1.1947   0.25614   0.25490  -0.1880  0.0210  1.0000  -2.4707   0.0000   0.0000   0.0000   0.3826
  17.600   1.1933   0.25944   0.25819  -0.1891  0.0205  1.0000  -2.4443   0.0000   0.0000   0.0000   0.3836
  17.700   1.1920   0.26261   0.26136  -0.1901  0.0200  1.0000  -2.4221   0.0000   0.0000   0.0000   0.3844
  17.800   1.1907   0.26566   0.26442  -0.1910  0.0195  1.0000  -2.4043   0.0000   0.0000   0.0000   0.3852
  17.900   1.1894   0.26858   0.26734  -0.1918  0.0190  1.0000  -2.3909   0.0000   0.0000   0.0000   0.3860
  18.000   1.1883   0.27137   0.27013  -0.1926  0.0186  1.0000  -2.3826   0.0000   0.0000   0.0000   0.3866
  18.100   1.1872   0.27399   0.27275  -0.1933  0.0181  1.0000  -2.3800   0.0000   0.0000   0.0000   0.3872
  18.200   1.1862   0.27643   0.27519  -0.1939  0.0177  1.0000  -2.3842   0.0000   0.0000   0.0000   0.3877
  18.300   1.1855   0.27864   0.27741  -0.1945  0.0173  1.0000  -2.3967   0.0000   0.0000   0.0000   0.3880
  18.400   1.1850   0.28061   0.27938  -0.1949  0.0169  1.0000  -2.4186   0.0000   0.0000   0.0000   0.3883
  18.500   1.1847   0.28232   0.28110  -0.1953  0.0164  1.0000  -2.4506   0.0000   0.0000   0.0000   0.3884
  18.600   1.1851   0.28365   0.28244  -0.1955  0.0160  1.0000  -2.4981   0.0000   0.0000   0.0000   0.3883
  18.700   1.1861   0.28453   0.28333  -0.1956  0.0156  1.0000  -2.5646   0.0000   0.0000   0.0000   0.3880
  18.800   1.1871   0.28532   0.28413  -0.1957  0.0153  1.0000  -2.6352   0.0000   0.0000   0.0000   0.3876
  18.900   1.1855   0.28703   0.28585  -0.1960  0.0149  1.0000  -2.6644   0.0000   0.0000   0.0000   0.3879
  19.000   1.1828   0.28888   0.28770  -0.1962  0.0147  1.0000  -2.6833   0.0000   0.0000   0.0000   0.3882
  19.100   1.1781   0.29097   0.28980  -0.1963  0.0144  1.0000  -2.6826   0.0000   0.0000   0.0000   0.3888
  19.200   1.1694   0.29329   0.29213  -0.1962  0.0141  1.0000  -2.6496   0.0000   0.0000   0.0000   0.3898


