xflr5 v6.61

 Calculated polar for: E216  (10.4%)

 1 1 Reynolds number fixed          Mach number fixed         

 xtrf =   1.000 (top)        1.000 (bottom)
 Mach =   0.000     Re =     0.200 e 6     Ncrit =   9.000

  alpha     CL        CD       CDp       Cm    Top Xtr Bot Xtr   Cpmin    Chinge    XCp    
 ------- -------- --------- --------- -------- ------- ------- -------- --------- ---------
 -10.000  -0.3472   0.13761   0.13396  -0.0304  1.0000  0.0367  -1.3743   0.0000   0.0000   0.0000   0.1521
  -9.900  -0.3474   0.13669   0.13306  -0.0302  1.0000  0.0367  -1.3798   0.0000   0.0000   0.0000   0.1527
  -9.800  -0.3477   0.13577   0.13215  -0.0301  1.0000  0.0368  -1.3855   0.0000   0.0000   0.0000   0.1533
  -9.700  -0.3480   0.13485   0.13124  -0.0299  1.0000  0.0368  -1.3913   0.0000   0.0000   0.0000   0.1540
  -9.600  -0.3484   0.13392   0.13033  -0.0298  1.0000  0.0368  -1.3972   0.0000   0.0000   0.0000   0.1547
  -9.500  -0.3489   0.13300   0.12942  -0.0296  1.0000  0.0368  -1.4032   0.0000   0.0000   0.0000   0.1555
  -9.400  -0.3494   0.13207   0.12850  -0.0294  1.0000  0.0368  -1.4095   0.0000   0.0000   0.0000   0.1562
  -9.300  -0.3500   0.13114   0.12759  -0.0292  1.0000  0.0368  -1.4158   0.0000   0.0000   0.0000   0.1571
  -9.200  -0.3506   0.13021   0.12668  -0.0290  1.0000  0.0369  -1.4223   0.0000   0.0000   0.0000   0.1580
  -9.100  -0.3514   0.12929   0.12577  -0.0288  1.0000  0.0369  -1.4290   0.0000   0.0000   0.0000   0.1589
  -9.000  -0.3523   0.12837   0.12487  -0.0286  1.0000  0.0369  -1.4358   0.0000   0.0000   0.0000   0.1598
  -8.900  -0.3532   0.12745   0.12396  -0.0284  1.0000  0.0369  -1.4427   0.0000   0.0000   0.0000   0.1609
  -8.800  -0.3542   0.12654   0.12307  -0.0281  1.0000  0.0369  -1.4499   0.0000   0.0000   0.0000   0.1619
  -8.700  -0.3656   0.12043   0.11701  -0.0287  1.0000  0.0381  -1.5799   0.0000   0.0000   0.0000   0.1631
  -8.600  -0.3676   0.11859   0.11520  -0.0283  1.0000  0.0385  -1.5888   0.0000   0.0000   0.0000   0.1648
  -8.500  -0.3674   0.11720   0.11382  -0.0276  1.0000  0.0389  -1.5759   0.0000   0.0000   0.0000   0.1666
  -8.400  -0.3666   0.11604   0.11267  -0.0269  1.0000  0.0392  -1.5561   0.0000   0.0000   0.0000   0.1685
  -8.300  -0.3660   0.11502   0.11165  -0.0262  1.0000  0.0396  -1.5379   0.0000   0.0000   0.0000   0.1703
  -8.200  -0.3654   0.11407   0.11072  -0.0256  1.0000  0.0399  -1.5195   0.0000   0.0000   0.0000   0.1722
  -8.100  -0.3649   0.11317   0.10983  -0.0249  1.0000  0.0402  -1.5022   0.0000   0.0000   0.0000   0.1740
  -8.000  -0.3646   0.11231   0.10898  -0.0243  1.0000  0.0405  -1.4865   0.0000   0.0000   0.0000   0.1758
  -7.900  -0.3646   0.11148   0.10817  -0.0236  1.0000  0.0409  -1.4728   0.0000   0.0000   0.0000   0.1777
  -7.800  -0.3648   0.11067   0.10737  -0.0230  1.0000  0.0412  -1.4609   0.0000   0.0000   0.0000   0.1795
  -7.700  -0.3652   0.10987   0.10659  -0.0225  1.0000  0.0415  -1.4508   0.0000   0.0000   0.0000   0.1812
  -7.600  -0.3579   0.10845   0.10516  -0.0238  0.9989  0.0421  -1.4280   0.0000   0.0000   0.0000   0.1763
  -7.500  -0.3509   0.10706   0.10378  -0.0251  0.9977  0.0426  -1.4096   0.0000   0.0000   0.0000   0.1710
  -7.400  -0.3441   0.10566   0.10237  -0.0266  0.9965  0.0432  -1.3942   0.0000   0.0000   0.0000   0.1652
  -7.300  -0.3377   0.10425   0.10096  -0.0280  0.9949  0.0438  -1.3818   0.0000   0.0000   0.0000   0.1594
  -7.200  -0.3316   0.10286   0.09957  -0.0295  0.9932  0.0445  -1.3720   0.0000   0.0000   0.0000   0.1533
  -7.100  -0.3253   0.10146   0.09817  -0.0312  0.9916  0.0451  -1.3640   0.0000   0.0000   0.0000   0.1465
  -7.000  -0.3188   0.10004   0.09675  -0.0329  0.9901  0.0458  -1.3576   0.0000   0.0000   0.0000   0.1389
  -6.900  -0.3119   0.09860   0.09531  -0.0349  0.9888  0.0466  -1.3527   0.0000   0.0000   0.0000   0.1302
  -6.800  -0.3075   0.09723   0.09394  -0.0362  0.9863  0.0473  -1.3512   0.0000   0.0000   0.0000   0.1243
  -6.700  -0.3036   0.09589   0.09262  -0.0375  0.9837  0.0479  -1.3515   0.0000   0.0000   0.0000   0.1186
  -6.600  -0.2991   0.09454   0.09127  -0.0390  0.9814  0.0487  -1.3529   0.0000   0.0000   0.0000   0.1117
  -6.500  -0.2943   0.09317   0.08990  -0.0407  0.9793  0.0495  -1.3558   0.0000   0.0000   0.0000   0.1038
  -6.400  -0.2894   0.09180   0.08853  -0.0426  0.9776  0.0503  -1.3605   0.0000   0.0000   0.0000   0.0949
  -6.300  -0.2840   0.09044   0.08717  -0.0447  0.9761  0.0512  -1.3673   0.0000   0.0000   0.0000   0.0846
  -6.200  -0.2860   0.08949   0.08623  -0.0447  0.9723  0.0517  -1.3774   0.0000   0.0000   0.0000   0.0859
  -6.100  -0.2852   0.08832   0.08508  -0.0456  0.9686  0.0525  -1.3884   0.0000   0.0000   0.0000   0.0825
  -6.000  -0.2800   0.08676   0.08352  -0.0480  0.9657  0.0535  -1.4020   0.0000   0.0000   0.0000   0.0708
  -5.900  -0.2711   0.08497   0.08173  -0.0519  0.9632  0.0550  -1.4212   0.0000   0.0000   0.0000   0.0510
  -5.800  -0.2535   0.08324   0.07999  -0.0590  0.9608  0.0573  -1.4483   0.0000   0.0000   0.0000   0.0092
  -5.700  -0.2320   0.08148   0.07820  -0.0665  0.9592  0.0584  -1.4566   0.0000   0.0000   0.0000  -0.0452
  -5.600  -0.2340   0.08035   0.07709  -0.0667  0.9531  0.0586  -1.4703   0.0000   0.0000   0.0000  -0.0433
  -5.500  -0.2246   0.07821   0.07493  -0.0706  0.9491  0.0588  -1.4873   0.0000   0.0000   0.0000  -0.0730
  -5.400  -0.2113   0.07543   0.07211  -0.0761  0.9462  0.0589  -1.5110   0.0000   0.0000   0.0000  -0.1192
  -5.300  -0.1961   0.07218   0.06881  -0.0824  0.9440  0.0590  -1.5427   0.0000   0.0000   0.0000  -0.1795
  -5.200  -0.1963   0.06254   0.05913  -0.0919  0.9421  0.0616  -1.7173   0.0000   0.0000   0.0000  -0.2276
  -5.100  -0.1868   0.06047   0.05707  -0.0936  0.9410  0.0629  -1.6859   0.0000   0.0000   0.0000  -0.2608
  -5.000  -0.1765   0.05956   0.05618  -0.0938  0.9401  0.0638  -1.6291   0.0000   0.0000   0.0000  -0.2916
  -4.900  -0.1647   0.05849   0.05510  -0.0948  0.9393  0.0649  -1.5792   0.0000   0.0000   0.0000  -0.3363
  -4.800  -0.1514   0.05715   0.05374  -0.0968  0.9386  0.0662  -1.5379   0.0000   0.0000   0.0000  -0.4007
  -4.600  -0.1424   0.05475   0.05132  -0.0979  0.9313  0.0680  -1.5106   0.0000   0.0000   0.0000  -0.4488
  -4.500  -0.1324   0.05309   0.04962  -0.1000  0.9282  0.0694  -1.4970   0.0000   0.0000   0.0000  -0.5169
  -4.400  -0.1179   0.05103   0.04749  -0.1034  0.9261  0.0713  -1.4859   0.0000   0.0000   0.0000  -0.6401
  -4.300  -0.0999   0.04864   0.04500  -0.1077  0.9245  0.0735  -1.4798   0.0000   0.0000   0.0000  -0.8440
  -4.200   0.0057   0.03203   0.02676  -0.1366  0.9376  0.0345  -2.0230   0.0000   0.0000   0.0000  24.3680
  -4.100   0.0311   0.02881   0.02312  -0.1411  0.9381  0.0314  -2.0724   0.0000   0.0000   0.0000   4.8444
  -4.000   0.0544   0.02671   0.02066  -0.1441  0.9383  0.0289  -2.0971   0.0000   0.0000   0.0000   2.9340
  -3.900   0.0767   0.02502   0.01843  -0.1465  0.9384  0.0266  -2.1300   0.0000   0.0000   0.0000   2.1856
  -3.800   0.0976   0.02373   0.01686  -0.1484  0.9384  0.0248  -2.1337   0.0000   0.0000   0.0000   1.7902
  -3.700   0.1171   0.02287   0.01582  -0.1499  0.9381  0.0237  -2.1076   0.0000   0.0000   0.0000   1.5456
  -3.600   0.1361   0.02228   0.01512  -0.1513  0.9377  0.0229  -2.0567   0.0000   0.0000   0.0000   1.3757
  -3.500   0.1364   0.02202   0.01483  -0.1493  0.9316  0.0227  -2.0354   0.0000   0.0000   0.0000   1.3578
  -3.400   0.1501   0.02161   0.01437  -0.1498  0.9292  0.0223  -1.9818   0.0000   0.0000   0.0000   1.2595
  -3.300   0.1655   0.02121   0.01391  -0.1507  0.9273  0.0220  -1.9216   0.0000   0.0000   0.0000   1.1704
  -3.200   0.1818   0.02081   0.01346  -0.1517  0.9258  0.0218  -1.8582   0.0000   0.0000   0.0000   1.0932
  -3.100   0.1987   0.02043   0.01302  -0.1529  0.9245  0.0217  -1.7934   0.0000   0.0000   0.0000   1.0272
  -3.000   0.2158   0.02007   0.01259  -0.1541  0.9234  0.0218  -1.7281   0.0000   0.0000   0.0000   0.9709
  -2.900   0.2332   0.01975   0.01219  -0.1554  0.9223  0.0220  -1.6623   0.0000   0.0000   0.0000   0.9224
  -2.800   0.2506   0.01946   0.01181  -0.1566  0.9213  0.0226  -1.5958   0.0000   0.0000   0.0000   0.8805
  -2.700   0.2681   0.01921   0.01145  -0.1578  0.9202  0.0235  -1.5283   0.0000   0.0000   0.0000   0.8437
  -2.600   0.2857   0.01898   0.01113  -0.1590  0.9192  0.0253  -1.4594   0.0000   0.0000   0.0000   0.8111
  -2.500   0.3032   0.01875   0.01086  -0.1602  0.9181  0.0286  -1.3883   0.0000   0.0000   0.0000   0.7823
  -2.400   0.3212   0.01851   0.01063  -0.1615  0.9171  0.0357  -1.3160   0.0000   0.0000   0.0000   0.7563
  -2.300   0.3416   0.01796   0.01042  -0.1637  0.9166  0.1103  -1.2329   0.0000   0.0000   0.0000   0.7324
  -2.200   0.3611   0.01753   0.01034  -0.1657  0.9160  0.1895  -1.1465   0.0000   0.0000   0.0000   0.7118
  -2.100   0.3793   0.01728   0.01026  -0.1673  0.9152  0.2386  -1.0655   0.0000   0.0000   0.0000   0.6936
  -2.000   0.3970   0.01708   0.01020  -0.1687  0.9144  0.2706  -0.9891   0.0000   0.0000   0.0000   0.6771
  -1.900   0.4143   0.01694   0.01013  -0.1699  0.9136  0.2951  -0.9174   0.0000   0.0000   0.0000   0.6622
  -1.800   0.4314   0.01680   0.01009  -0.1711  0.9129  0.3213  -0.8484   0.0000   0.0000   0.0000   0.6485
  -1.700   0.4484   0.01669   0.01002  -0.1723  0.9123  0.3406  -0.7824   0.0000   0.0000   0.0000   0.6358
  -1.600   0.4492   0.01680   0.01020  -0.1704  0.9061  0.3529  -0.7555   0.0000   0.0000   0.0000   0.6307
  -1.500   0.4587   0.01676   0.01025  -0.1701  0.9021  0.3782  -0.7089   0.0000   0.0000   0.0000   0.6222
  -1.400   0.4721   0.01662   0.01032  -0.1706  0.8995  0.4260  -0.6535   0.0000   0.0000   0.0000   0.6125
  -1.300   0.4861   0.01648   0.01039  -0.1712  0.8972  0.4752  -0.6154   0.0000   0.0000   0.0000   0.6030
  -1.200   0.5004   0.01638   0.01040  -0.1716  0.8951  0.5129  -0.6248   0.0000   0.0000   0.0000   0.5938
  -1.100   0.5151   0.01624   0.01037  -0.1722  0.8933  0.5356  -0.6345   0.0000   0.0000   0.0000   0.5848
  -1.000   0.5308   0.01611   0.01024  -0.1729  0.8918  0.5483  -0.6454   0.0000   0.0000   0.0000   0.5762
  -0.900   0.5466   0.01600   0.01013  -0.1737  0.8904  0.5556  -0.6566   0.0000   0.0000   0.0000   0.5680
  -0.800   0.5621   0.01581   0.01002  -0.1744  0.8892  0.5722  -0.6677   0.0000   0.0000   0.0000   0.5604
  -0.700   0.5779   0.01564   0.00990  -0.1751  0.8881  0.5879  -0.6789   0.0000   0.0000   0.0000   0.5531
  -0.600   0.5942   0.01547   0.00974  -0.1760  0.8871  0.6028  -0.6905   0.0000   0.0000   0.0000   0.5460
  -0.500   0.6112   0.01529   0.00954  -0.1770  0.8861  0.6153  -0.7025   0.0000   0.0000   0.0000   0.5393
  -0.400   0.6275   0.01503   0.00936  -0.1778  0.8853  0.6303  -0.7143   0.0000   0.0000   0.0000   0.5328
  -0.300   0.6443   0.01479   0.00916  -0.1786  0.8844  0.6441  -0.7269   0.0000   0.0000   0.0000   0.5267
  -0.200   0.6618   0.01458   0.00895  -0.1797  0.8836  0.6582  -0.7406   0.0000   0.0000   0.0000   0.5208
  -0.100   0.6799   0.01438   0.00874  -0.1809  0.8827  0.6709  -0.7546   0.0000   0.0000   0.0000   0.5153
   0.000   0.6797   0.01456   0.00898  -0.1786  0.8761  0.6813  -0.7576   0.0000   0.0000   0.0000   0.5118
   0.100   0.6852   0.01460   0.00908  -0.1774  0.8706  0.6930  -0.7641   0.0000   0.0000   0.0000   0.5078
   0.200   0.6969   0.01451   0.00902  -0.1773  0.8676  0.7064  -0.7743   0.0000   0.0000   0.0000   0.5033
   0.300   0.7107   0.01439   0.00889  -0.1777  0.8652  0.7187  -0.7858   0.0000   0.0000   0.0000   0.4987
   0.400   0.7247   0.01421   0.00874  -0.1780  0.8630  0.7307  -0.7976   0.0000   0.0000   0.0000   0.4942
   0.500   0.7388   0.01399   0.00857  -0.1783  0.8609  0.7433  -0.8102   0.0000   0.0000   0.0000   0.4898
   0.600   0.7543   0.01376   0.00837  -0.1789  0.8591  0.7572  -0.8244   0.0000   0.0000   0.0000   0.4855
   0.700   0.7714   0.01355   0.00815  -0.1798  0.8574  0.7708  -0.8397   0.0000   0.0000   0.0000   0.4814
   0.800   0.7875   0.01330   0.00794  -0.1805  0.8557  0.7839  -0.8545   0.0000   0.0000   0.0000   0.4774
   0.900   0.8032   0.01307   0.00774  -0.1811  0.8539  0.7975  -0.8690   0.0000   0.0000   0.0000   0.4736
   1.000   0.8202   0.01287   0.00756  -0.1821  0.8523  0.8113  -0.8843   0.0000   0.0000   0.0000   0.4699
   1.100   0.8393   0.01270   0.00738  -0.1835  0.8507  0.8232  -0.9010   0.0000   0.0000   0.0000   0.4665
   1.200   0.8552   0.01248   0.00718  -0.1842  0.8487  0.8356  -0.9158   0.0000   0.0000   0.0000   0.4631
   1.300   0.8536   0.01258   0.00734  -0.1814  0.8420  0.8485  -0.9197   0.0000   0.0000   0.0000   0.4601
   1.400   0.8587   0.01258   0.00735  -0.1800  0.8361  0.8627  -0.9286   0.0000   0.0000   0.0000   0.4571
   1.500   0.8668   0.01245   0.00724  -0.1791  0.8313  0.8771  -0.9397   0.0000   0.0000   0.0000   0.4540
   1.600   0.8761   0.01227   0.00708  -0.1784  0.8270  0.8947  -0.9518   0.0000   0.0000   0.0000   0.4509
   1.700   0.8871   0.01206   0.00688  -0.1780  0.8232  0.9134  -0.9651   0.0000   0.0000   0.0000   0.4479
   1.800   0.8983   0.01181   0.00663  -0.1777  0.8197  0.9395  -0.9786   0.0000   0.0000   0.0000   0.4449
   1.900   0.9154   0.01154   0.00636  -0.1788  0.8164  1.0000  -0.9980   0.0000   0.0000   0.0000   0.4423
   2.000   0.9370   0.01143   0.00621  -0.1809  0.8133  1.0000  -1.0214   0.0000   0.0000   0.0000   0.4399
   2.100   0.9523   0.01143   0.00618  -0.1818  0.8087  1.0000  -1.0399   0.0000   0.0000   0.0000   0.4377
   2.200   0.9599   0.01152   0.00634  -0.1812  0.8024  1.0000  -1.0523   0.0000   0.0000   0.0000   0.4354
   2.300   0.9709   0.01154   0.00635  -0.1811  0.7962  1.0000  -1.0675   0.0000   0.0000   0.0000   0.4331
   2.400   0.9842   0.01151   0.00630  -0.1815  0.7903  1.0000  -1.0847   0.0000   0.0000   0.0000   0.4309
   2.500   1.0002   0.01145   0.00620  -0.1824  0.7849  1.0000  -1.1042   0.0000   0.0000   0.0000   0.4287
   2.600   1.0175   0.01139   0.00610  -0.1836  0.7799  1.0000  -1.1264   0.0000   0.0000   0.0000   0.4267
   2.700   1.0355   0.01136   0.00600  -0.1850  0.7750  1.0000  -1.1508   0.0000   0.0000   0.0000   0.4247
   2.800   1.0509   0.01138   0.00598  -0.1858  0.7695  1.0000  -1.1727   0.0000   0.0000   0.0000   0.4228
   2.900   1.0580   0.01146   0.00609  -0.1850  0.7629  1.0000  -1.1873   0.0000   0.0000   0.0000   0.4207
   3.000   1.0674   0.01152   0.00614  -0.1846  0.7558  1.0000  -1.2050   0.0000   0.0000   0.0000   0.4187
   3.100   1.0795   0.01153   0.00613  -0.1848  0.7485  1.0000  -1.2276   0.0000   0.0000   0.0000   0.4168
   3.200   1.0935   0.01154   0.00608  -0.1853  0.7414  1.0000  -1.2523   0.0000   0.0000   0.0000   0.4149
   3.300   1.1088   0.01155   0.00603  -0.1860  0.7343  1.0000  -1.2785   0.0000   0.0000   0.0000   0.4132
   3.400   1.1230   0.01161   0.00603  -0.1866  0.7271  1.0000  -1.3036   0.0000   0.0000   0.0000   0.4114
   3.500   1.1305   0.01169   0.00613  -0.1859  0.7202  1.0000  -1.3217   0.0000   0.0000   0.0000   0.4096
   3.600   1.1399   0.01176   0.00620  -0.1855  0.7123  1.0000  -1.3419   0.0000   0.0000   0.0000   0.4077
   3.700   1.1509   0.01181   0.00622  -0.1854  0.7040  1.0000  -1.3639   0.0000   0.0000   0.0000   0.4060
   3.800   1.1633   0.01187   0.00622  -0.1855  0.6957  1.0000  -1.3884   0.0000   0.0000   0.0000   0.4043
   3.900   1.1766   0.01196   0.00622  -0.1859  0.6873  1.0000  -1.4183   0.0000   0.0000   0.0000   0.4027
   4.000   1.1870   0.01206   0.00631  -0.1857  0.6802  1.0000  -1.4463   0.0000   0.0000   0.0000   0.4010
   4.100   1.1956   0.01214   0.00642  -0.1852  0.6730  1.0000  -1.4751   0.0000   0.0000   0.0000   0.3993
   4.200   1.2050   0.01223   0.00650  -0.1848  0.6649  1.0000  -1.5054   0.0000   0.0000   0.0000   0.3977
   4.300   1.2153   0.01232   0.00655  -0.1846  0.6562  1.0000  -1.5373   0.0000   0.0000   0.0000   0.3961
   4.400   1.2265   0.01243   0.00659  -0.1845  0.6470  1.0000  -1.5708   0.0000   0.0000   0.0000   0.3945
   4.500   1.2383   0.01259   0.00665  -0.1846  0.6372  1.0000  -1.6053   0.0000   0.0000   0.0000   0.3930
   4.600   1.2462   0.01267   0.00677  -0.1840  0.6300  1.0000  -1.6339   0.0000   0.0000   0.0000   0.3914
   4.700   1.2547   0.01277   0.00687  -0.1834  0.6212  1.0000  -1.6637   0.0000   0.0000   0.0000   0.3898
   4.800   1.2639   0.01289   0.00696  -0.1830  0.6116  1.0000  -1.6947   0.0000   0.0000   0.0000   0.3883
   4.900   1.2736   0.01303   0.00703  -0.1826  0.6018  1.0000  -1.7268   0.0000   0.0000   0.0000   0.3868
   5.000   1.2839   0.01322   0.00712  -0.1824  0.5911  1.0000  -1.7599   0.0000   0.0000   0.0000   0.3854
   5.100   1.2921   0.01332   0.00725  -0.1818  0.5834  1.0000  -1.7898   0.0000   0.0000   0.0000   0.3839
   5.200   1.3004   0.01343   0.00737  -0.1812  0.5744  1.0000  -1.8199   0.0000   0.0000   0.0000   0.3824
   5.300   1.3089   0.01357   0.00748  -0.1807  0.5645  1.0000  -1.8506   0.0000   0.0000   0.0000   0.3809
   5.400   1.3177   0.01375   0.00759  -0.1802  0.5545  1.0000  -1.9239   0.0000   0.0000   0.0000   0.3795
   5.500   1.3266   0.01397   0.00771  -0.1797  0.5439  1.0000  -2.0045   0.0000   0.0000   0.0000   0.3781
   5.600   1.3347   0.01409   0.00785  -0.1791  0.5352  1.0000  -2.0824   0.0000   0.0000   0.0000   0.3767
   5.700   1.3421   0.01422   0.00798  -0.1784  0.5240  1.0000  -2.1585   0.0000   0.0000   0.0000   0.3753
   5.800   1.3501   0.01445   0.00857  -0.1777  0.5132  1.0000  -2.2933   0.0000   0.0000   0.0000   0.3738
   5.900   1.3572   0.01470   0.00874  -0.1769  0.5010  1.0000  -2.3794   0.0000   0.0000   0.0000   0.3724
   6.000   1.3650   0.01492   0.00893  -0.1762  0.4902  1.0000  -2.4656   0.0000   0.0000   0.0000   0.3710
   6.100   1.3727   0.01505   0.00910  -0.1755  0.4807  1.0000  -2.5513   0.0000   0.0000   0.0000   0.3697
   6.200   1.3800   0.01523   0.00927  -0.1748  0.4698  1.0000  -2.6354   0.0000   0.0000   0.0000   0.3683
   6.300   1.3864   0.01548   0.00945  -0.1739  0.4582  1.0000  -2.7163   0.0000   0.0000   0.0000   0.3670
   6.400   1.3925   0.01579   0.00965  -0.1729  0.4455  1.0000  -2.7958   0.0000   0.0000   0.0000   0.3656
   6.500   1.4002   0.01593   0.00984  -0.1723  0.4366  1.0000  -2.8832   0.0000   0.0000   0.0000   0.3643
   6.600   1.4073   0.01612   0.01002  -0.1715  0.4257  1.0000  -2.9683   0.0000   0.0000   0.0000   0.3630
   6.700   1.4134   0.01637   0.01022  -0.1706  0.4144  1.0000  -3.0498   0.0000   0.0000   0.0000   0.3617
   6.800   1.4183   0.01668   0.01045  -0.1694  0.4032  1.0000  -3.1265   0.0000   0.0000   0.0000   0.3603
   6.900   1.4250   0.01691   0.01067  -0.1686  0.3936  1.0000  -3.2111   0.0000   0.0000   0.0000   0.3590
   7.000   1.4320   0.01709   0.01087  -0.1678  0.3843  1.0000  -3.2985   0.0000   0.0000   0.0000   0.3578
   7.100   1.4378   0.01732   0.01108  -0.1668  0.3733  1.0000  -3.3807   0.0000   0.0000   0.0000   0.3565
   7.200   1.4419   0.01764   0.01133  -0.1655  0.3619  1.0000  -3.4560   0.0000   0.0000   0.0000   0.3551
   7.300   1.4457   0.01801   0.01161  -0.1642  0.3498  1.0000  -3.5299   0.0000   0.0000   0.0000   0.3537
   7.400   1.4529   0.01819   0.01183  -0.1635  0.3405  1.0000  -3.6203   0.0000   0.0000   0.0000   0.3526
   7.500   1.4583   0.01845   0.01207  -0.1625  0.3291  1.0000  -3.7033   0.0000   0.0000   0.0000   0.3513
   7.600   1.4619   0.01881   0.01235  -0.1612  0.3175  1.0000  -3.7779   0.0000   0.0000   0.0000   0.3500
   7.700   1.4644   0.01923   0.01269  -0.1597  0.3054  1.0000  -3.8472   0.0000   0.0000   0.0000   0.3486
   7.800   1.4716   0.01944   0.01294  -0.1590  0.2968  1.0000  -3.9399   0.0000   0.0000   0.0000   0.3475
   7.900   1.4772   0.01973   0.01322  -0.1581  0.2864  1.0000  -4.0257   0.0000   0.0000   0.0000   0.3463
   8.000   1.4811   0.02011   0.01353  -0.1569  0.2758  1.0000  -4.1028   0.0000   0.0000   0.0000   0.3451
   8.100   1.4834   0.02056   0.01391  -0.1554  0.2647  1.0000  -4.1724   0.0000   0.0000   0.0000   0.3438
   8.200   1.4897   0.02084   0.01421  -0.1546  0.2561  1.0000  -4.2625   0.0000   0.0000   0.0000   0.3426
   8.300   1.4947   0.02116   0.01453  -0.1536  0.2457  1.0000  -4.3468   0.0000   0.0000   0.0000   0.3415
   8.400   1.4973   0.02162   0.01490  -0.1523  0.2340  1.0000  -4.4196   0.0000   0.0000   0.0000   0.3402
   8.500   1.4985   0.02217   0.01535  -0.1507  0.2212  1.0000  -4.4845   0.0000   0.0000   0.0000   0.3390
   8.600   1.5044   0.02246   0.01566  -0.1500  0.2104  1.0000  -4.5753   0.0000   0.0000   0.0000   0.3379
   8.700   1.5069   0.02295   0.01606  -0.1487  0.1979  1.0000  -4.6487   0.0000   0.0000   0.0000   0.3367
   8.800   1.5075   0.02357   0.01656  -0.1471  0.1847  1.0000  -4.7115   0.0000   0.0000   0.0000   0.3355
   8.900   1.5130   0.02392   0.01690  -0.1463  0.1743  1.0000  -4.8009   0.0000   0.0000   0.0000   0.3345
   9.000   1.5159   0.02442   0.01733  -0.1452  0.1634  1.0000  -4.8769   0.0000   0.0000   0.0000   0.3334
   9.100   1.5169   0.02502   0.01785  -0.1437  0.1535  1.0000  -4.9420   0.0000   0.0000   0.0000   0.3322
   9.200   1.5207   0.02548   0.01830  -0.1427  0.1454  1.0000  -5.0209   0.0000   0.0000   0.0000   0.3311
   9.300   1.5257   0.02587   0.01870  -0.1418  0.1376  1.0000  -5.1075   0.0000   0.0000   0.0000   0.3301
   9.400   1.5288   0.02639   0.01916  -0.1408  0.1292  1.0000  -5.1835   0.0000   0.0000   0.0000   0.3291
   9.500   1.5303   0.02702   0.01971  -0.1395  0.1208  1.0000  -5.2499   0.0000   0.0000   0.0000   0.3280
   9.600   1.5347   0.02743   0.02015  -0.1387  0.1067  1.0000  -5.2868   0.0000   0.0000   0.0000   0.3271
   9.700   1.5347   0.02821   0.02079  -0.1373  0.0935  1.0000  -5.3254   0.0000   0.0000   0.0000   0.3260
   9.800   1.5315   0.02930   0.02166  -0.1356  0.0690  1.0000  -5.3176   0.0000   0.0000   0.0000   0.3249
   9.900   1.5156   0.03157   0.02351  -0.1322  0.0331  1.0000  -5.1783   0.0000   0.0000   0.0000   0.3234
  10.000   1.5065   0.03330   0.02522  -0.1294  0.0244  1.0000  -5.0661   0.0000   0.0000   0.0000   0.3220
  10.100   1.5066   0.03418   0.02620  -0.1280  0.0229  1.0000  -5.0707   0.0000   0.0000   0.0000   0.3209
  10.200   1.5068   0.03505   0.02715  -0.1267  0.0218  1.0000  -5.0858   0.0000   0.0000   0.0000   0.3198
  10.300   1.5070   0.03593   0.02811  -0.1254  0.0210  1.0000  -5.1064   0.0000   0.0000   0.0000   0.3188
  10.400   1.5069   0.03683   0.02909  -0.1241  0.0204  1.0000  -5.1293   0.0000   0.0000   0.0000   0.3177
  10.500   1.5066   0.03775   0.03009  -0.1229  0.0200  1.0000  -5.1538   0.0000   0.0000   0.0000   0.3168
  10.600   1.5062   0.03869   0.03111  -0.1217  0.0196  1.0000  -5.1794   0.0000   0.0000   0.0000   0.3158
  10.700   1.5058   0.03964   0.03214  -0.1205  0.0193  1.0000  -5.2058   0.0000   0.0000   0.0000   0.3149
  10.800   1.5049   0.04061   0.03319  -0.1193  0.0191  1.0000  -5.2308   0.0000   0.0000   0.0000   0.3140
  10.900   1.5038   0.04162   0.03427  -0.1182  0.0188  1.0000  -5.2556   0.0000   0.0000   0.0000   0.3131
  11.000   1.5029   0.04266   0.03538  -0.1171  0.0187  1.0000  -5.2808   0.0000   0.0000   0.0000   0.3122
  11.100   1.5022   0.04372   0.03651  -0.1160  0.0185  1.0000  -5.3066   0.0000   0.0000   0.0000   0.3114
  11.200   1.5015   0.04481   0.03767  -0.1150  0.0184  1.0000  -5.3325   0.0000   0.0000   0.0000   0.3105
  11.300   1.5007   0.04594   0.03888  -0.1140  0.0182  1.0000  -5.3574   0.0000   0.0000   0.0000   0.3098
  11.400   1.5000   0.04709   0.04011  -0.1131  0.0181  1.0000  -5.3826   0.0000   0.0000   0.0000   0.3090
  11.500   1.4996   0.04825   0.04134  -0.1122  0.0181  1.0000  -5.4084   0.0000   0.0000   0.0000   0.3082
  11.600   1.4995   0.04942   0.04258  -0.1114  0.0180  1.0000  -5.4348   0.0000   0.0000   0.0000   0.3075
  11.700   1.4997   0.05060   0.04383  -0.1106  0.0179  1.0000  -5.4616   0.0000   0.0000   0.0000   0.3068
  11.800   1.5000   0.05178   0.04509  -0.1098  0.0179  1.0000  -5.4884   0.0000   0.0000   0.0000   0.3060
  11.900   1.5003   0.05300   0.04638  -0.1090  0.0179  1.0000  -5.5143   0.0000   0.0000   0.0000   0.3053
  12.000   1.5007   0.05423   0.04769  -0.1083  0.0178  1.0000  -5.5397   0.0000   0.0000   0.0000   0.3046
  12.100   1.5015   0.05545   0.04899  -0.1076  0.0179  1.0000  -5.5653   0.0000   0.0000   0.0000   0.3039
  12.200   1.5025   0.05668   0.05030  -0.1069  0.0179  1.0000  -5.5909   0.0000   0.0000   0.0000   0.3032
  12.300   1.5038   0.05792   0.05163  -0.1062  0.0179  1.0000  -5.6158   0.0000   0.0000   0.0000   0.3025
  12.400   1.5051   0.05918   0.05298  -0.1055  0.0179  1.0000  -5.6397   0.0000   0.0000   0.0000   0.3019
  12.500   1.5065   0.06046   0.05436  -0.1049  0.0180  1.0000  -5.6620   0.0000   0.0000   0.0000   0.3012
  12.600   1.5078   0.06177   0.05578  -0.1042  0.0181  1.0000  -5.6824   0.0000   0.0000   0.0000   0.3005
  12.700   1.5090   0.06312   0.05724  -0.1036  0.0182  1.0000  -5.7005   0.0000   0.0000   0.0000   0.2999
  12.800   1.5099   0.06453   0.05876  -0.1030  0.0183  1.0000  -5.7159   0.0000   0.0000   0.0000   0.2992
  12.900   1.5103   0.06598   0.06033  -0.1024  0.0184  1.0000  -5.7281   0.0000   0.0000   0.0000   0.2987
  13.000   1.5100   0.06752   0.06199  -0.1019  0.0185  1.0000  -5.7363   0.0000   0.0000   0.0000   0.2981
  13.100   1.5090   0.06912   0.06372  -0.1014  0.0186  1.0000  -5.7407   0.0000   0.0000   0.0000   0.2977
  13.200   1.5073   0.07078   0.06550  -0.1010  0.0188  1.0000  -5.7419   0.0000   0.0000   0.0000   0.2973
  13.300   1.5052   0.07249   0.06734  -0.1006  0.0189  1.0000  -5.7402   0.0000   0.0000   0.0000   0.2969
  13.400   1.5026   0.07425   0.06922  -0.1002  0.0190  1.0000  -5.7358   0.0000   0.0000   0.0000   0.2966
  13.500   1.4995   0.07606   0.07115  -0.1000  0.0192  1.0000  -5.7289   0.0000   0.0000   0.0000   0.2964
  13.600   1.4954   0.07795   0.07317  -0.0998  0.0193  1.0000  -5.7172   0.0000   0.0000   0.0000   0.2963
  13.700   1.4904   0.07989   0.07524  -0.0998  0.0195  1.0000  -5.7018   0.0000   0.0000   0.0000   0.2963
  13.800   1.4849   0.08181   0.07728  -0.0998  0.0196  1.0000  -5.6844   0.0000   0.0000   0.0000   0.2963
  13.900   1.4792   0.08375   0.07934  -0.0999  0.0197  1.0000  -5.6655   0.0000   0.0000   0.0000   0.2965
  14.000   1.4734   0.08577   0.08147  -0.1001  0.0198  1.0000  -5.6449   0.0000   0.0000   0.0000   0.2967
  14.100   1.4669   0.08790   0.08372  -0.1005  0.0199  1.0000  -5.6217   0.0000   0.0000   0.0000   0.2971
  14.200   1.4602   0.09014   0.08607  -0.1011  0.0201  1.0000  -5.5969   0.0000   0.0000   0.0000   0.2976
  14.300   1.4536   0.09244   0.08849  -0.1017  0.0202  1.0000  -5.5710   0.0000   0.0000   0.0000   0.2981
  14.400   1.4468   0.09484   0.09099  -0.1024  0.0203  1.0000  -5.5434   0.0000   0.0000   0.0000   0.2987
  14.500   1.4394   0.09739   0.09364  -0.1034  0.0204  1.0000  -5.5132   0.0000   0.0000   0.0000   0.2996
  14.600   1.4321   0.10000   0.09635  -0.1044  0.0205  1.0000  -5.4817   0.0000   0.0000   0.0000   0.3005
  14.700   1.4248   0.10270   0.09916  -0.1056  0.0206  1.0000  -5.4485   0.0000   0.0000   0.0000   0.3014
  14.800   1.4168   0.10557   0.10213  -0.1070  0.0207  1.0000  -5.4123   0.0000   0.0000   0.0000   0.3026
  14.900   1.4088   0.10854   0.10519  -0.1085  0.0208  1.0000  -5.3743   0.0000   0.0000   0.0000   0.3039
  15.000   1.4009   0.11160   0.10835  -0.1101  0.0209  1.0000  -5.3343   0.0000   0.0000   0.0000   0.3053
  15.100   1.3924   0.11487   0.11170  -0.1119  0.0210  1.0000  -5.2908   0.0000   0.0000   0.0000   0.3069
  15.200   1.3839   0.11825   0.11518  -0.1139  0.0210  1.0000  -5.2449   0.0000   0.0000   0.0000   0.3087
  15.300   1.3755   0.12175   0.11876  -0.1159  0.0211  1.0000  -5.1963   0.0000   0.0000   0.0000   0.3105
  15.400   1.3664   0.12551   0.12261  -0.1183  0.0212  1.0000  -5.1429   0.0000   0.0000   0.0000   0.3126
  15.500   1.3575   0.12937   0.12655  -0.1207  0.0212  1.0000  -5.0866   0.0000   0.0000   0.0000   0.3148
  15.600   1.3482   0.13349   0.13074  -0.1233  0.0213  1.0000  -5.0250   0.0000   0.0000   0.0000   0.3172
  15.700   1.3386   0.13783   0.13516  -0.1261  0.0214  1.0000  -4.9580   0.0000   0.0000   0.0000   0.3198
  15.800   1.3288   0.14239   0.13979  -0.1291  0.0214  1.0000  -4.8850   0.0000   0.0000   0.0000   0.3226
  15.900   1.3184   0.14734   0.14482  -0.1323  0.0215  1.0000  -4.8025   0.0000   0.0000   0.0000   0.3257
  16.000   1.3079   0.15256   0.15011  -0.1356  0.0215  1.0000  -4.7114   0.0000   0.0000   0.0000   0.3289
  16.100   1.2963   0.15835   0.15596  -0.1393  0.0216  1.0000  -4.6046   0.0000   0.0000   0.0000   0.3326
  16.200   1.2839   0.16470   0.16237  -0.1432  0.0217  1.0000  -4.4796   0.0000   0.0000   0.0000   0.3367
  16.300   1.2705   0.17178   0.16950  -0.1474  0.0218  1.0000  -4.3290   0.0000   0.0000   0.0000   0.3412
  16.400   1.2549   0.18015   0.17792  -0.1521  0.0219  1.0000  -4.1334   0.0000   0.0000   0.0000   0.3464
  16.500   1.2377   0.18980   0.18759  -0.1570  0.0222  1.0000  -3.8852   0.0000   0.0000   0.0000   0.3522
  16.600   1.2218   0.19947   0.19725  -0.1612  0.0226  1.0000  -3.6218   0.0000   0.0000   0.0000   0.3576
  16.700   1.2105   0.20736   0.20512  -0.1643  0.0232  1.0000  -3.4149   0.0000   0.0000   0.0000   0.3615
  16.800   1.2023   0.21374   0.21149  -0.1667  0.0237  1.0000  -3.2633   0.0000   0.0000   0.0000   0.3644
  16.900   1.1951   0.21955   0.21729  -0.1688  0.0242  1.0000  -3.1336   0.0000   0.0000   0.0000   0.3670
  17.000   1.1860   0.22595   0.22366  -0.1708  0.0250  1.0000  -2.9814   0.0000   0.0000   0.0000   0.3697
  17.400   1.1739   0.25139   0.24905  -0.1767  0.0455  1.0000  -2.3193   0.0000   0.0000   0.0000   0.3764
  17.500   1.1734   0.25420   0.25186  -0.1774  0.0454  1.0000  -2.3062   0.0000   0.0000   0.0000   0.3769
  17.600   1.1737   0.25663   0.25440  -0.1777  0.0451  1.0000  -2.2963   0.0000   0.0000   0.0000   0.3770
  17.700   1.1737   0.25919   0.25696  -0.1782  0.0449  1.0000  -2.2919   0.0000   0.0000   0.0000   0.3772
  17.800   1.1732   0.26185   0.25963  -0.1787  0.0446  1.0000  -2.2860   0.0000   0.0000   0.0000   0.3775
  17.900   1.1718   0.26470   0.26249  -0.1792  0.0443  1.0000  -2.2756   0.0000   0.0000   0.0000   0.3779
  18.000   1.1697   0.26779   0.26558  -0.1796  0.0440  1.0000  -2.2612   0.0000   0.0000   0.0000   0.3785
  18.700   1.1230   0.29452   0.29231  -0.1831  0.0423  1.0000  -1.9032   0.0000   0.0000   0.0000   0.3874
  18.900   1.0525   0.28670   0.28453  -0.1754  0.0423  1.0000  -1.7201   0.0000   0.0000   0.0000   0.3914
  19.000   1.0447   0.28707   0.28491  -0.1751  0.0423  1.0000  -1.6876   0.0000   0.0000   0.0000   0.3923


