xflr5 v6.61

 Calculated polar for: E216  (10.4%)

 1 1 Reynolds number fixed          Mach number fixed         

 xtrf =   1.000 (top)        1.000 (bottom)
 Mach =   0.000     Re =     1.000 e 6     Ncrit =   9.000

  alpha     CL        CD       CDp       Cm    Top Xtr Bot Xtr   Cpmin    Chinge    XCp    
 ------- -------- --------- --------- -------- ------- ------- -------- --------- ---------
 -10.000  -0.2098   0.11266   0.11081  -0.0641  0.9864  0.0075  -1.5368   0.0000   0.0000   0.0000  -0.0763
  -9.900  -0.2066   0.11128   0.10943  -0.0647  0.9854  0.0075  -1.5437   0.0000   0.0000   0.0000  -0.0841
  -9.800  -0.2030   0.10986   0.10800  -0.0656  0.9846  0.0075  -1.5507   0.0000   0.0000   0.0000  -0.0941
  -9.700  -0.1990   0.10840   0.10654  -0.0665  0.9838  0.0075  -1.5578   0.0000   0.0000   0.0000  -0.1057
  -9.600  -0.1947   0.10691   0.10506  -0.0676  0.9831  0.0075  -1.5652   0.0000   0.0000   0.0000  -0.1187
  -9.500  -0.1902   0.10540   0.10355  -0.0687  0.9825  0.0075  -1.5728   0.0000   0.0000   0.0000  -0.1332
  -9.400  -0.1855   0.10388   0.10203  -0.0699  0.9819  0.0075  -1.5807   0.0000   0.0000   0.0000  -0.1491
  -9.300  -0.1807   0.10234   0.10049  -0.0711  0.9813  0.0075  -1.5889   0.0000   0.0000   0.0000  -0.1664
  -9.200  -0.1758   0.10079   0.09894  -0.0724  0.9808  0.0075  -1.5975   0.0000   0.0000   0.0000  -0.1851
  -9.100  -0.1709   0.09923   0.09738  -0.0737  0.9803  0.0075  -1.6065   0.0000   0.0000   0.0000  -0.2051
  -9.000  -0.1659   0.09768   0.09583  -0.0751  0.9799  0.0075  -1.6158   0.0000   0.0000   0.0000  -0.2267
  -8.900  -0.1609   0.09612   0.09427  -0.0764  0.9795  0.0075  -1.6256   0.0000   0.0000   0.0000  -0.2499
  -8.800  -0.1558   0.09456   0.09271  -0.0778  0.9791  0.0075  -1.6359   0.0000   0.0000   0.0000  -0.2747
  -8.700  -0.1507   0.09299   0.09114  -0.0792  0.9787  0.0075  -1.6467   0.0000   0.0000   0.0000  -0.3018
  -8.600  -0.1455   0.09142   0.08956  -0.0807  0.9783  0.0075  -1.6581   0.0000   0.0000   0.0000  -0.3316
  -8.500  -0.1400   0.08981   0.08796  -0.0823  0.9780  0.0075  -1.6700   0.0000   0.0000   0.0000  -0.3652
  -8.400  -0.1342   0.08815   0.08630  -0.0839  0.9776  0.0075  -1.6826   0.0000   0.0000   0.0000  -0.4038
  -8.300  -0.1283   0.08648   0.08462  -0.0857  0.9773  0.0075  -1.6959   0.0000   0.0000   0.0000  -0.4471
  -8.200  -0.1223   0.08478   0.08293  -0.0874  0.9770  0.0076  -1.7099   0.0000   0.0000   0.0000  -0.4957
  -8.100  -0.1162   0.08307   0.08122  -0.0893  0.9766  0.0076  -1.7249   0.0000   0.0000   0.0000  -0.5504
  -8.000  -0.1101   0.08134   0.07949  -0.0912  0.9763  0.0076  -1.7409   0.0000   0.0000   0.0000  -0.6121
  -7.900  -0.1039   0.07960   0.07775  -0.0931  0.9761  0.0076  -1.7580   0.0000   0.0000   0.0000  -0.6822
  -7.800  -0.1116   0.07905   0.07722  -0.0906  0.9712  0.0076  -1.7732   0.0000   0.0000   0.0000  -0.5935
  -7.700  -0.1092   0.07761   0.07577  -0.0914  0.9693  0.0076  -1.7912   0.0000   0.0000   0.0000  -0.6191
  -7.600  -0.1055   0.07603   0.07419  -0.0926  0.9678  0.0076  -1.8105   0.0000   0.0000   0.0000  -0.6612
  -7.500  -0.1011   0.07436   0.07253  -0.0941  0.9664  0.0076  -1.8314   0.0000   0.0000   0.0000  -0.7154
  -7.400  -0.1199   0.06572   0.06391  -0.1010  0.9631  0.0081  -2.4666   0.0000   0.0000   0.0000  -0.6218
  -7.300  -0.1225   0.06143   0.05963  -0.1056  0.9613  0.0084  -2.6902   0.0000   0.0000   0.0000  -0.6404
  -7.200  -0.1174   0.05711   0.05530  -0.1115  0.9601  0.0086  -2.8463   0.0000   0.0000   0.0000  -0.7299
  -7.100  -0.1088   0.05269   0.05089  -0.1185  0.9593  0.0089  -2.9791   0.0000   0.0000   0.0000  -0.8715
  -7.000  -0.1237   0.05264   0.05085  -0.1139  0.9511  0.0087  -3.0047   0.0000   0.0000   0.0000  -0.6983
  -6.900  -0.1200   0.04736   0.04556  -0.1206  0.9476  0.0088  -3.2111   0.0000   0.0000   0.0000  -0.7833
  -6.800  -0.0987   0.03621   0.03416  -0.1412  0.9445  0.0085  -3.5711   0.0000   0.0000   0.0000  -1.2139
  -6.700  -0.0823   0.03052   0.02819  -0.1520  0.9429  0.0090  -3.7175   0.0000   0.0000   0.0000  -1.6374
  -6.600  -0.0675   0.02829   0.02583  -0.1563  0.9422  0.0094  -3.6776   0.0000   0.0000   0.0000  -2.1125
  -6.500  -0.0531   0.02701   0.02447  -0.1589  0.9417  0.0097  -3.5839   0.0000   0.0000   0.0000  -2.8023
  -6.400  -0.0388   0.02608   0.02347  -0.1610  0.9412  0.0101  -3.4725   0.0000   0.0000   0.0000  -3.9764
  -6.300  -0.0246   0.02529   0.02263  -0.1628  0.9408  0.0105  -3.3560   0.0000   0.0000   0.0000  -6.4955
  -6.200  -0.0103   0.02456   0.02184  -0.1645  0.9404  0.0109  -3.2403   0.0000   0.0000   0.0000  -15.9428
  -6.100   0.0037   0.02393   0.02117  -0.1660  0.9399  0.0114  -3.1226   0.0000   0.0000   0.0000  45.5888
  -6.000   0.0178   0.02334   0.02054  -0.1674  0.9395  0.0119  -3.0062   0.0000   0.0000   0.0000   9.8225
  -5.900   0.0322   0.02273   0.01987  -0.1688  0.9391  0.0126  -2.8961   0.0000   0.0000   0.0000   5.5884
  -5.800   0.0468   0.02210   0.01919  -0.1703  0.9387  0.0134  -2.7911   0.0000   0.0000   0.0000   3.9445
  -5.700   0.0618   0.02149   0.01852  -0.1717  0.9384  0.0143  -2.6904   0.0000   0.0000   0.0000   3.0749
  -5.600   0.0768   0.02096   0.01794  -0.1730  0.9380  0.0154  -2.5907   0.0000   0.0000   0.0000   2.5372
  -5.500   0.0825   0.02071   0.01766  -0.1720  0.9355  0.0162  -2.5253   0.0000   0.0000   0.0000   2.3668
  -5.400   0.0862   0.02061   0.01754  -0.1705  0.9319  0.0170  -2.4625   0.0000   0.0000   0.0000   2.2573
  -5.300   0.0959   0.02090   0.01785  -0.1699  0.9301  0.0182  -2.3534   0.0000   0.0000   0.0000   2.0471
  -5.200   0.1047   0.02263   0.01970  -0.1680  0.9284  0.0192  -2.1781   0.0000   0.0000   0.0000   1.8780
  -5.100   0.1300   0.01693   0.01342  -0.1753  0.9281  0.0223  -2.3099   0.0000   0.0000   0.0000   1.6169
  -5.000   0.1430   0.01642   0.01292  -0.1762  0.9270  0.0240  -2.2049   0.0000   0.0000   0.0000   1.4993
  -4.900   0.1561   0.01617   0.01265  -0.1770  0.9258  0.0254  -2.0997   0.0000   0.0000   0.0000   1.3989
  -4.800   0.1705   0.01552   0.01185  -0.1779  0.9248  0.0261  -2.0375   0.0000   0.0000   0.0000   1.3068
  -4.700   0.1827   0.01555   0.01191  -0.1783  0.9236  0.0284  -1.9221   0.0000   0.0000   0.0000   1.2381
  -4.600   0.1953   0.01563   0.01202  -0.1786  0.9225  0.0314  -1.8156   0.0000   0.0000   0.0000   1.1760
  -4.500   0.2077   0.01624   0.01269  -0.1785  0.9213  0.0347  -1.7007   0.0000   0.0000   0.0000   1.1195
  -4.400   0.2183   0.01860   0.01521  -0.1768  0.9200  0.0367  -1.5400   0.0000   0.0000   0.0000   1.0691
  -4.300   0.2432   0.01377   0.01000  -0.1829  0.9201  0.0438  -1.5757   0.0000   0.0000   0.0000   1.0105
  -4.200   0.2591   0.01346   0.00969  -0.1841  0.9193  0.0465  -1.4890   0.0000   0.0000   0.0000   0.9682
  -4.000   0.3032   0.00961   0.00515  -0.1872  0.9189  0.0220  -1.7019   0.0000   0.0000   0.0000   0.8741
  -3.900   0.3256   0.00837   0.00368  -0.1893  0.9187  0.0145  -1.7990   0.0000   0.0000   0.0000   0.8374
  -3.800   0.3444   0.00791   0.00307  -0.1908  0.9181  0.0126  -1.7804   0.0000   0.0000   0.0000   0.8096
  -3.700   0.3616   0.00769   0.00276  -0.1920  0.9173  0.0117  -1.7084   0.0000   0.0000   0.0000   0.7863
  -3.600   0.3790   0.00752   0.00254  -0.1933  0.9163  0.0111  -1.6203   0.0000   0.0000   0.0000   0.7651
  -3.500   0.3968   0.00738   0.00236  -0.1948  0.9153  0.0106  -1.5276   0.0000   0.0000   0.0000   0.7454
  -3.400   0.4149   0.00726   0.00220  -0.1963  0.9141  0.0103  -1.4335   0.0000   0.0000   0.0000   0.7273
  -3.300   0.4331   0.00716   0.00206  -0.1978  0.9128  0.0101  -1.3398   0.0000   0.0000   0.0000   0.7106
  -3.200   0.4471   0.00708   0.00195  -0.1984  0.9108  0.0100  -1.2602   0.0000   0.0000   0.0000   0.6974
  -3.100   0.4529   0.00705   0.00190  -0.1971  0.9074  0.0099  -1.2067   0.0000   0.0000   0.0000   0.6887
  -3.000   0.4621   0.00700   0.00182  -0.1966  0.9042  0.0099  -1.1428   0.0000   0.0000   0.0000   0.6788
  -2.900   0.4746   0.00695   0.00174  -0.1968  0.9015  0.0100  -1.0690   0.0000   0.0000   0.0000   0.6678
  -2.800   0.4886   0.00690   0.00166  -0.1974  0.8988  0.0102  -0.9906   0.0000   0.0000   0.0000   0.6569
  -2.700   0.5035   0.00685   0.00159  -0.1982  0.8961  0.0106  -0.9091   0.0000   0.0000   0.0000   0.6463
  -2.600   0.5188   0.00680   0.00151  -0.1991  0.8933  0.0114  -0.8265   0.0000   0.0000   0.0000   0.6361
  -2.500   0.5345   0.00675   0.00145  -0.2000  0.8904  0.0130  -0.7482   0.0000   0.0000   0.0000   0.6265
  -2.400   0.5501   0.00671   0.00141  -0.2010  0.8874  0.0150  -0.6799   0.0000   0.0000   0.0000   0.6175
  -2.300   0.5654   0.00668   0.00140  -0.2019  0.8841  0.0168  -0.6470   0.0000   0.0000   0.0000   0.6090
  -2.200   0.5794   0.00665   0.00139  -0.2025  0.8812  0.0184  -0.6560   0.0000   0.0000   0.0000   0.6013
  -2.100   0.5897   0.00658   0.00137  -0.2024  0.8787  0.0274  -0.6633   0.0000   0.0000   0.0000   0.5948
  -2.000   0.6021   0.00638   0.00133  -0.2028  0.8758  0.0716  -0.6716   0.0000   0.0000   0.0000   0.5883
  -1.900   0.6145   0.00625   0.00131  -0.2032  0.8723  0.1028  -0.6799   0.0000   0.0000   0.0000   0.5819
  -1.800   0.6278   0.00610   0.00130  -0.2038  0.8685  0.1434  -0.6887   0.0000   0.0000   0.0000   0.5758
  -1.700   0.6452   0.00558   0.00137  -0.2058  0.8647  0.3192  -0.6995   0.0000   0.0000   0.0000   0.5700
  -1.600   0.6585   0.00554   0.00136  -0.2063  0.8600  0.3399  -0.7084   0.0000   0.0000   0.0000   0.5642
  -1.500   0.6720   0.00550   0.00136  -0.2069  0.8548  0.3657  -0.7174   0.0000   0.0000   0.0000   0.5585
  -1.400   0.6852   0.00549   0.00135  -0.2073  0.8490  0.3791  -0.7266   0.0000   0.0000   0.0000   0.5532
  -1.300   0.6962   0.00549   0.00136  -0.2073  0.8457  0.3866  -0.7353   0.0000   0.0000   0.0000   0.5482
  -1.200   0.7071   0.00548   0.00136  -0.2072  0.8423  0.3972  -0.7440   0.0000   0.0000   0.0000   0.5434
  -1.100   0.7184   0.00546   0.00137  -0.2073  0.8380  0.4115  -0.7529   0.0000   0.0000   0.0000   0.5387
  -1.000   0.7300   0.00545   0.00138  -0.2073  0.8328  0.4219  -0.7620   0.0000   0.0000   0.0000   0.5341
  -0.900   0.7416   0.00546   0.00138  -0.2074  0.8269  0.4308  -0.7711   0.0000   0.0000   0.0000   0.5297
  -0.800   0.7530   0.00549   0.00138  -0.2074  0.8202  0.4383  -0.7801   0.0000   0.0000   0.0000   0.5253
  -0.700   0.7640   0.00554   0.00138  -0.2074  0.8125  0.4432  -0.7895   0.0000   0.0000   0.0000   0.5212
  -0.600   0.7752   0.00553   0.00140  -0.2074  0.8083  0.4588  -0.7995   0.0000   0.0000   0.0000   0.5171
  -0.500   0.7864   0.00552   0.00142  -0.2074  0.8042  0.4721  -0.8096   0.0000   0.0000   0.0000   0.5132
  -0.400   0.7975   0.00552   0.00143  -0.2074  0.7994  0.4818  -0.8196   0.0000   0.0000   0.0000   0.5094
  -0.300   0.8085   0.00554   0.00145  -0.2073  0.7936  0.4897  -0.8296   0.0000   0.0000   0.0000   0.5057
  -0.200   0.8193   0.00558   0.00146  -0.2072  0.7869  0.4961  -0.8395   0.0000   0.0000   0.0000   0.5021
  -0.100   0.8294   0.00564   0.00147  -0.2070  0.7788  0.5027  -0.8490   0.0000   0.0000   0.0000   0.4986
   0.000   0.8398   0.00567   0.00150  -0.2068  0.7706  0.5181  -0.8589   0.0000   0.0000   0.0000   0.4952
   0.100   0.8509   0.00567   0.00153  -0.2068  0.7664  0.5299  -0.8704   0.0000   0.0000   0.0000   0.4919
   0.200   0.8618   0.00568   0.00155  -0.2067  0.7609  0.5388  -0.8817   0.0000   0.0000   0.0000   0.4886
   0.300   0.8725   0.00571   0.00157  -0.2066  0.7544  0.5460  -0.8929   0.0000   0.0000   0.0000   0.4854
   0.400   0.8829   0.00576   0.00159  -0.2064  0.7476  0.5515  -0.9040   0.0000   0.0000   0.0000   0.4823
   0.500   0.8928   0.00582   0.00161  -0.2062  0.7402  0.5552  -0.9148   0.0000   0.0000   0.0000   0.4793
   0.600   0.9024   0.00589   0.00165  -0.2058  0.7317  0.5640  -0.9254   0.0000   0.0000   0.0000   0.4763
   0.700   0.9133   0.00590   0.00168  -0.2058  0.7265  0.5772  -0.9369   0.0000   0.0000   0.0000   0.4734
   0.800   0.9244   0.00591   0.00172  -0.2057  0.7220  0.5889  -0.9485   0.0000   0.0000   0.0000   0.4706
   0.900   0.9351   0.00594   0.00175  -0.2056  0.7157  0.5989  -0.9601   0.0000   0.0000   0.0000   0.4678
   1.000   0.9453   0.00599   0.00178  -0.2054  0.7077  0.6065  -0.9727   0.0000   0.0000   0.0000   0.4651
   1.100   0.9547   0.00608   0.00182  -0.2050  0.6984  0.6114  -0.9849   0.0000   0.0000   0.0000   0.4625
   1.200   0.9635   0.00617   0.00186  -0.2045  0.6873  0.6198  -0.9966   0.0000   0.0000   0.0000   0.4598
   1.300   0.9741   0.00620   0.00191  -0.2044  0.6811  0.6314  -1.0096   0.0000   0.0000   0.0000   0.4573
   1.400   0.9849   0.00622   0.00195  -0.2043  0.6757  0.6412  -1.0242   0.0000   0.0000   0.0000   0.4548
   1.500   0.9953   0.00627   0.00199  -0.2042  0.6684  0.6498  -1.0391   0.0000   0.0000   0.0000   0.4524
   1.600   1.0050   0.00634   0.00203  -0.2038  0.6592  0.6579  -1.0535   0.0000   0.0000   0.0000   0.4500
   1.700   1.0140   0.00645   0.00211  -0.2034  0.6489  0.6647  -1.0672   0.0000   0.0000   0.0000   0.4476
   1.800   1.0223   0.00657   0.00217  -0.2027  0.6327  0.6706  -1.0807   0.0000   0.0000   0.0000   0.4453
   1.900   1.0302   0.00672   0.00224  -0.2020  0.6102  0.6839  -1.0938   0.0000   0.0000   0.0000   0.4429
   2.000   1.0371   0.00691   0.00233  -0.2012  0.5866  0.6947  -1.1061   0.0000   0.0000   0.0000   0.4407
   2.100   1.0458   0.00705   0.00240  -0.2007  0.5682  0.7039  -1.1199   0.0000   0.0000   0.0000   0.4385
   2.200   1.0526   0.00728   0.00250  -0.1998  0.5435  0.7113  -1.1322   0.0000   0.0000   0.0000   0.4363
   2.300   1.0622   0.00738   0.00256  -0.1995  0.5308  0.7175  -1.1477   0.0000   0.0000   0.0000   0.4341
   2.400   1.0705   0.00757   0.00264  -0.1989  0.5120  0.7220  -1.1634   0.0000   0.0000   0.0000   0.4320
   2.500   1.0787   0.00775   0.00273  -0.1983  0.4916  0.7313  -1.1791   0.0000   0.0000   0.0000   0.4300
   2.600   1.0884   0.00784   0.00281  -0.1980  0.4797  0.7429  -1.1962   0.0000   0.0000   0.0000   0.4280
   2.700   1.0967   0.00802   0.00291  -0.1975  0.4624  0.7533  -1.2137   0.0000   0.0000   0.0000   0.4260
   2.800   1.1054   0.00819   0.00300  -0.1970  0.4443  0.7628  -1.2327   0.0000   0.0000   0.0000   0.4240
   2.900   1.1155   0.00826   0.00306  -0.1968  0.4378  0.7706  -1.2534   0.0000   0.0000   0.0000   0.4221
   3.000   1.1253   0.00835   0.00313  -0.1966  0.4291  0.7780  -1.2739   0.0000   0.0000   0.0000   0.4203
   3.100   1.1344   0.00848   0.00322  -0.1962  0.4178  0.7899  -1.2937   0.0000   0.0000   0.0000   0.4184
   3.200   1.1430   0.00864   0.00333  -0.1957  0.4026  0.7998  -1.3130   0.0000   0.0000   0.0000   0.4166
   3.300   1.1527   0.00873   0.00340  -0.1954  0.3935  0.8085  -1.3335   0.0000   0.0000   0.0000   0.4148
   3.400   1.1625   0.00882   0.00347  -0.1952  0.3856  0.8161  -1.3542   0.0000   0.0000   0.0000   0.4130
   3.500   1.1719   0.00895   0.00355  -0.1948  0.3758  0.8221  -1.3746   0.0000   0.0000   0.0000   0.4113
   3.600   1.1808   0.00909   0.00364  -0.1944  0.3659  0.8316  -1.3945   0.0000   0.0000   0.0000   0.4095
   3.700   1.1896   0.00921   0.00374  -0.1940  0.3544  0.8421  -1.4181   0.0000   0.0000   0.0000   0.4078
   3.800   1.1990   0.00928   0.00381  -0.1936  0.3479  0.8525  -1.4430   0.0000   0.0000   0.0000   0.4061
   3.900   1.2084   0.00937   0.00388  -0.1933  0.3408  0.8622  -1.4722   0.0000   0.0000   0.0000   0.4045
   4.000   1.2168   0.00953   0.00399  -0.1928  0.3280  0.8717  -1.5012   0.0000   0.0000   0.0000   0.4028
   4.100   1.2235   0.00974   0.00412  -0.1919  0.3100  0.8848  -1.5277   0.0000   0.0000   0.0000   0.4011
   4.200   1.2318   0.00985   0.00420  -0.1913  0.2993  0.8970  -1.5567   0.0000   0.0000   0.0000   0.3995
   4.300   1.2396   0.01004   0.00432  -0.1907  0.2851  0.9072  -1.5852   0.0000   0.0000   0.0000   0.3979
   4.400   1.2448   0.01025   0.00444  -0.1895  0.2672  0.9231  -1.6098   0.0000   0.0000   0.0000   0.3962
   4.500   1.2519   0.01034   0.00451  -0.1887  0.2576  0.9405  -1.6374   0.0000   0.0000   0.0000   0.3945
   4.600   1.2575   0.01040   0.00457  -0.1875  0.2487  1.0000  -1.6630   0.0000   0.0000   0.0000   0.3928
   4.700   1.2658   0.01066   0.00472  -0.1871  0.2337  1.0000  -1.6926   0.0000   0.0000   0.0000   0.3913
   4.800   1.2748   0.01086   0.00484  -0.1867  0.2199  1.0000  -1.7235   0.0000   0.0000   0.0000   0.3899
   4.900   1.2842   0.01101   0.00495  -0.1865  0.2116  1.0000  -1.7553   0.0000   0.0000   0.0000   0.3885
   5.000   1.2925   0.01125   0.00511  -0.1860  0.1989  1.0000  -1.7854   0.0000   0.0000   0.0000   0.3871
   5.100   1.3007   0.01150   0.00526  -0.1855  0.1829  1.0000  -1.8155   0.0000   0.0000   0.0000   0.3857
   5.200   1.3098   0.01167   0.00538  -0.1852  0.1743  1.0000  -1.8861   0.0000   0.0000   0.0000   0.3843
   5.300   1.3176   0.01194   0.00556  -0.1846  0.1612  1.0000  -1.9621   0.0000   0.0000   0.0000   0.3829
   5.400   1.3258   0.01217   0.00571  -0.1842  0.1478  1.0000  -2.0408   0.0000   0.0000   0.0000   0.3816
   5.500   1.3350   0.01232   0.00583  -0.1838  0.1423  1.0000  -2.1242   0.0000   0.0000   0.0000   0.3803
   5.600   1.3433   0.01252   0.00597  -0.1834  0.1337  1.0000  -2.2054   0.0000   0.0000   0.0000   0.3789
   5.700   1.3726   0.01099   0.00551  -0.1864  0.2508  1.0000  -2.4111   0.0000   0.0000   0.0000   0.3780
   5.800   1.3834   0.01099   0.00557  -0.1863  0.2553  1.0000  -2.5098   0.0000   0.0000   0.0000   0.3768
   5.900   1.3937   0.01103   0.00565  -0.1862  0.2570  1.0000  -2.6069   0.0000   0.0000   0.0000   0.3756
   6.000   1.4033   0.01112   0.00575  -0.1859  0.2546  1.0000  -2.7016   0.0000   0.0000   0.0000   0.3743
   6.100   1.4122   0.01127   0.00588  -0.1855  0.2482  1.0000  -2.7938   0.0000   0.0000   0.0000   0.3731
   6.200   1.4199   0.01150   0.00604  -0.1849  0.2379  1.0000  -2.8818   0.0000   0.0000   0.0000   0.3718
   6.300   1.4275   0.01175   0.00621  -0.1843  0.2228  1.0000  -2.9695   0.0000   0.0000   0.0000   0.3706
   6.400   1.4361   0.01190   0.00633  -0.1839  0.2159  1.0000  -3.0637   0.0000   0.0000   0.0000   0.3693
   6.500   1.4435   0.01214   0.00651  -0.1832  0.2045  1.0000  -3.1526   0.0000   0.0000   0.0000   0.3681
   6.600   1.4499   0.01247   0.00673  -0.1824  0.1889  1.0000  -3.2375   0.0000   0.0000   0.0000   0.3668
   6.700   1.4582   0.01264   0.00687  -0.1819  0.1803  1.0000  -3.3323   0.0000   0.0000   0.0000   0.3657
   6.800   1.4663   0.01282   0.00702  -0.1814  0.1738  1.0000  -3.4275   0.0000   0.0000   0.0000   0.3645
   6.900   1.4734   0.01307   0.00722  -0.1807  0.1647  1.0000  -3.5186   0.0000   0.0000   0.0000   0.3633
   7.000   1.4802   0.01336   0.00742  -0.1800  0.1530  1.0000  -3.6087   0.0000   0.0000   0.0000   0.3621
   7.100   1.4884   0.01353   0.00758  -0.1795  0.1461  1.0000  -3.7065   0.0000   0.0000   0.0000   0.3609
   7.200   1.4962   0.01372   0.00774  -0.1789  0.1401  1.0000  -3.8040   0.0000   0.0000   0.0000   0.3598
   7.300   1.5029   0.01400   0.00796  -0.1782  0.1313  1.0000  -3.8960   0.0000   0.0000   0.0000   0.3586
   7.400   1.5092   0.01431   0.00819  -0.1773  0.1199  1.0000  -3.9866   0.0000   0.0000   0.0000   0.3574
   7.500   1.5169   0.01450   0.00836  -0.1767  0.1137  1.0000  -4.0854   0.0000   0.0000   0.0000   0.3563
   7.600   1.5240   0.01473   0.00855  -0.1761  0.1077  1.0000  -4.1822   0.0000   0.0000   0.0000   0.3551
   7.700   1.5299   0.01504   0.00880  -0.1752  0.0995  1.0000  -4.2729   0.0000   0.0000   0.0000   0.3540
   7.800   1.5359   0.01535   0.00905  -0.1743  0.0889  1.0000  -4.3650   0.0000   0.0000   0.0000   0.3528
   7.900   1.5433   0.01556   0.00924  -0.1737  0.0844  1.0000  -4.4648   0.0000   0.0000   0.0000   0.3517
   8.000   1.5494   0.01585   0.00948  -0.1728  0.0776  1.0000  -4.5589   0.0000   0.0000   0.0000   0.3506
   8.100   1.5545   0.01622   0.00977  -0.1718  0.0686  1.0000  -4.6470   0.0000   0.0000   0.0000   0.3494
   8.200   1.5610   0.01649   0.01001  -0.1710  0.0613  1.0000  -4.7430   0.0000   0.0000   0.0000   0.3483
   8.300   1.5660   0.01686   0.01030  -0.1700  0.0537  1.0000  -4.8302   0.0000   0.0000   0.0000   0.3472
   8.400   1.5646   0.01771   0.01092  -0.1680  0.0311  1.0000  -4.8669   0.0000   0.0000   0.0000   0.3458
   8.700   1.5624   0.02028   0.01357  -0.1612  0.0064  1.0000  -4.6767   0.0000   0.0000   0.0000   0.3411
   8.800   1.5680   0.02062   0.01396  -0.1602  0.0063  1.0000  -4.7490   0.0000   0.0000   0.0000   0.3400
   8.900   1.5734   0.02098   0.01436  -0.1592  0.0063  1.0000  -4.8209   0.0000   0.0000   0.0000   0.3389
   9.000   1.5786   0.02135   0.01478  -0.1582  0.0062  1.0000  -4.8923   0.0000   0.0000   0.0000   0.3378
   9.100   1.5841   0.02170   0.01523  -0.1573  0.0069  1.0000  -4.9482   0.0000   0.0000   0.0000   0.3366
   9.200   1.5890   0.02210   0.01567  -0.1562  0.0070  1.0000  -5.0147   0.0000   0.0000   0.0000   0.3355
   9.300   1.5932   0.02251   0.01613  -0.1551  0.0071  1.0000  -5.0811   0.0000   0.0000   0.0000   0.3344
   9.400   1.5969   0.02294   0.01661  -0.1539  0.0071  1.0000  -5.1461   0.0000   0.0000   0.0000   0.3332
   9.500   1.6005   0.02338   0.01710  -0.1527  0.0072  1.0000  -5.2108   0.0000   0.0000   0.0000   0.3321
   9.600   1.6040   0.02385   0.01762  -0.1515  0.0072  1.0000  -5.2759   0.0000   0.0000   0.0000   0.3310
   9.700   1.6075   0.02433   0.01815  -0.1503  0.0072  1.0000  -5.3410   0.0000   0.0000   0.0000   0.3299
   9.800   1.6109   0.02484   0.01871  -0.1491  0.0072  1.0000  -5.4061   0.0000   0.0000   0.0000   0.3288
   9.900   1.6141   0.02536   0.01928  -0.1479  0.0072  1.0000  -5.4705   0.0000   0.0000   0.0000   0.3277
  10.000   1.6166   0.02592   0.01989  -0.1466  0.0072  1.0000  -5.5322   0.0000   0.0000   0.0000   0.3266
  10.100   1.6189   0.02650   0.02052  -0.1453  0.0071  1.0000  -5.5934   0.0000   0.0000   0.0000   0.3255
  10.200   1.6213   0.02709   0.02116  -0.1441  0.0071  1.0000  -5.6551   0.0000   0.0000   0.0000   0.3244
  10.300   1.6237   0.02770   0.02182  -0.1429  0.0071  1.0000  -5.7172   0.0000   0.0000   0.0000   0.3234
  10.400   1.6260   0.02833   0.02249  -0.1417  0.0070  1.0000  -5.7792   0.0000   0.0000   0.0000   0.3224
  10.500   1.6280   0.02898   0.02319  -0.1404  0.0070  1.0000  -5.8400   0.0000   0.0000   0.0000   0.3213
  10.600   1.6293   0.02967   0.02393  -0.1391  0.0069  1.0000  -5.8968   0.0000   0.0000   0.0000   0.3203
  10.700   1.6305   0.03038   0.02470  -0.1379  0.0069  1.0000  -5.9529   0.0000   0.0000   0.0000   0.3193
  10.800   1.6318   0.03111   0.02547  -0.1366  0.0069  1.0000  -6.0092   0.0000   0.0000   0.0000   0.3183
  10.900   1.6331   0.03185   0.02627  -0.1354  0.0069  1.0000  -6.0648   0.0000   0.0000   0.0000   0.3173
  11.000   1.6343   0.03261   0.02709  -0.1342  0.0069  1.0000  -6.1184   0.0000   0.0000   0.0000   0.3163
  11.100   1.6347   0.03344   0.02797  -0.1330  0.0070  1.0000  -6.1656   0.0000   0.0000   0.0000   0.3153
  11.200   1.6343   0.03432   0.02892  -0.1316  0.0071  1.0000  -6.2060   0.0000   0.0000   0.0000   0.3144
  11.300   1.6340   0.03524   0.02990  -0.1303  0.0072  1.0000  -6.2430   0.0000   0.0000   0.0000   0.3134
  11.400   1.6335   0.03619   0.03092  -0.1290  0.0073  1.0000  -6.2746   0.0000   0.0000   0.0000   0.3125
  11.500   1.6323   0.03719   0.03200  -0.1277  0.0074  1.0000  -6.2980   0.0000   0.0000   0.0000   0.3115
  11.600   1.6303   0.03830   0.03319  -0.1262  0.0076  1.0000  -6.3109   0.0000   0.0000   0.0000   0.3105
  11.700   1.6277   0.03955   0.03454  -0.1248  0.0078  1.0000  -6.3128   0.0000   0.0000   0.0000   0.3096
  11.800   1.6252   0.04092   0.03601  -0.1234  0.0080  1.0000  -6.3034   0.0000   0.0000   0.0000   0.3086
  11.900   1.6229   0.04244   0.03765  -0.1219  0.0084  1.0000  -6.2820   0.0000   0.0000   0.0000   0.3077
  12.000   1.6208   0.04411   0.03945  -0.1205  0.0088  1.0000  -6.2508   0.0000   0.0000   0.0000   0.3067
  12.100   1.6190   0.04598   0.04145  -0.1192  0.0092  1.0000  -6.2074   0.0000   0.0000   0.0000   0.3058
  12.200   1.6173   0.04806   0.04368  -0.1178  0.0098  1.0000  -6.1537   0.0000   0.0000   0.0000   0.3049
  12.300   1.6154   0.05033   0.04609  -0.1165  0.0104  1.0000  -6.0962   0.0000   0.0000   0.0000   0.3040
  12.400   1.6119   0.05285   0.04877  -0.1152  0.0110  1.0000  -6.0315   0.0000   0.0000   0.0000   0.3032
  12.500   1.6041   0.05596   0.05207  -0.1138  0.0116  1.0000  -5.9349   0.0000   0.0000   0.0000   0.3025


