xflr5 v6.61

 Calculated polar for: E216  (10.4%)

 1 1 Reynolds number fixed          Mach number fixed         

 xtrf =   1.000 (top)        1.000 (bottom)
 Mach =   0.000     Re =     0.500 e 6     Ncrit =   9.000

  alpha     CL        CD       CDp       Cm    Top Xtr Bot Xtr   Cpmin    Chinge    XCp    
 ------- -------- --------- --------- -------- ------- ------- -------- --------- ---------
 -10.000  -0.2995   0.12245   0.12003  -0.0395  0.9932  0.0157  -1.4708   0.0000   0.0000   0.0000   0.1047
  -9.900  -0.2948   0.12101   0.11859  -0.0408  0.9926  0.0160  -1.4758   0.0000   0.0000   0.0000   0.0983
  -9.800  -0.2898   0.11953   0.11711  -0.0422  0.9919  0.0164  -1.4821   0.0000   0.0000   0.0000   0.0909
  -9.700  -0.2844   0.11804   0.11562  -0.0437  0.9913  0.0168  -1.4901   0.0000   0.0000   0.0000   0.0826
  -9.600  -0.2787   0.11657   0.11415  -0.0454  0.9907  0.0173  -1.4999   0.0000   0.0000   0.0000   0.0733
  -9.500  -0.2727   0.11517   0.11275  -0.0472  0.9901  0.0178  -1.5107   0.0000   0.0000   0.0000   0.0628
  -9.400  -0.2661   0.11392   0.11149  -0.0491  0.9895  0.0183  -1.5162   0.0000   0.0000   0.0000   0.0510
  -9.300  -0.2580   0.11288   0.11045  -0.0509  0.9891  0.0187  -1.5025   0.0000   0.0000   0.0000   0.0381
  -9.200  -0.2504   0.11174   0.10932  -0.0526  0.9887  0.0190  -1.4909   0.0000   0.0000   0.0000   0.0248
  -9.100  -0.2455   0.11055   0.10812  -0.0537  0.9875  0.0192  -1.4864   0.0000   0.0000   0.0000   0.0163
  -9.000  -0.2419   0.10933   0.10691  -0.0544  0.9859  0.0192  -1.4857   0.0000   0.0000   0.0000   0.0099
  -8.900  -0.2376   0.10804   0.10562  -0.0555  0.9846  0.0193  -1.4864   0.0000   0.0000   0.0000   0.0014
  -8.800  -0.2331   0.10669   0.10427  -0.0566  0.9835  0.0194  -1.4883   0.0000   0.0000   0.0000  -0.0082
  -8.700  -0.2283   0.10529   0.10287  -0.0579  0.9825  0.0194  -1.4912   0.0000   0.0000   0.0000  -0.0190
  -8.600  -0.2232   0.10384   0.10142  -0.0592  0.9815  0.0195  -1.4949   0.0000   0.0000   0.0000  -0.0310
  -8.500  -0.2180   0.10235   0.09993  -0.0607  0.9807  0.0195  -1.4994   0.0000   0.0000   0.0000  -0.0443
  -8.400  -0.2125   0.10083   0.09841  -0.0622  0.9799  0.0195  -1.5046   0.0000   0.0000   0.0000  -0.0589
  -8.300  -0.2068   0.09927   0.09686  -0.0638  0.9791  0.0196  -1.5104   0.0000   0.0000   0.0000  -0.0751
  -8.200  -0.2009   0.09769   0.09528  -0.0655  0.9785  0.0196  -1.5168   0.0000   0.0000   0.0000  -0.0929
  -8.100  -0.1947   0.09606   0.09364  -0.0673  0.9778  0.0196  -1.5239   0.0000   0.0000   0.0000  -0.1130
  -7.500  -0.1851   0.08344   0.08107  -0.0761  0.9678  0.0202  -1.8026   0.0000   0.0000   0.0000  -0.1785
  -7.400  -0.1902   0.07992   0.07757  -0.0782  0.9657  0.0210  -1.9172   0.0000   0.0000   0.0000  -0.1777
  -7.300  -0.1873   0.07819   0.07583  -0.0796  0.9644  0.0215  -1.9176   0.0000   0.0000   0.0000  -0.1918
  -7.200  -0.1824   0.07680   0.07445  -0.0810  0.9633  0.0219  -1.8944   0.0000   0.0000   0.0000  -0.2114
  -7.100  -0.1758   0.07569   0.07334  -0.0823  0.9624  0.0224  -1.8511   0.0000   0.0000   0.0000  -0.2354
  -7.000  -0.1681   0.07480   0.07245  -0.0833  0.9617  0.0229  -1.7919   0.0000   0.0000   0.0000  -0.2635
  -6.900  -0.1603   0.07379   0.07144  -0.0846  0.9609  0.0235  -1.7425   0.0000   0.0000   0.0000  -0.2963
  -6.800  -0.1524   0.07265   0.07030  -0.0862  0.9602  0.0241  -1.7020   0.0000   0.0000   0.0000  -0.3349
  -6.700  -0.1439   0.07141   0.06906  -0.0881  0.9595  0.0247  -1.6654   0.0000   0.0000   0.0000  -0.3819
  -6.600  -0.1532   0.07092   0.06859  -0.0856  0.9532  0.0248  -1.6805   0.0000   0.0000   0.0000  -0.3270
  -6.500  -0.1497   0.06974   0.06741  -0.0864  0.9500  0.0253  -1.6642   0.0000   0.0000   0.0000  -0.3451
  -6.400  -0.1435   0.06830   0.06598  -0.0881  0.9478  0.0259  -1.6470   0.0000   0.0000   0.0000  -0.3822
  -6.300  -0.1359   0.06665   0.06433  -0.0904  0.9459  0.0267  -1.6339   0.0000   0.0000   0.0000  -0.4343
  -6.200  -0.1270   0.06478   0.06246  -0.0933  0.9443  0.0276  -1.6262   0.0000   0.0000   0.0000  -0.5048
  -6.100  -0.1170   0.06269   0.06037  -0.0969  0.9429  0.0286  -1.6262   0.0000   0.0000   0.0000  -0.5996
  -6.000  -0.1054   0.06030   0.05797  -0.1013  0.9418  0.0298  -1.6350   0.0000   0.0000   0.0000  -0.7343
  -5.900  -0.0916   0.05745   0.05511  -0.1070  0.9407  0.0312  -1.6562   0.0000   0.0000   0.0000  -0.9448
  -5.800  -0.0739   0.05404   0.05168  -0.1144  0.9398  0.0330  -1.6908   0.0000   0.0000   0.0000  -1.3291
  -5.700  -0.0504   0.05126   0.04886  -0.1216  0.9392  0.0354  -1.6971   0.0000   0.0000   0.0000  -2.2085
  -5.600  -0.0259   0.04873   0.04621  -0.1289  0.9386  0.0365  -1.7019   0.0000   0.0000   0.0000  -4.8150
  -5.500  -0.0079   0.04586   0.04321  -0.1350  0.9379  0.0367  -1.7232   0.0000   0.0000   0.0000  -17.1222
  -5.400  -0.0239   0.04596   0.04333  -0.1299  0.9284  0.0367  -1.7360   0.0000   0.0000   0.0000  -5.2876
  -5.300  -0.0123   0.04382   0.04108  -0.1332  0.9260  0.0368  -1.7471   0.0000   0.0000   0.0000  -10.7221
  -5.200   0.0011   0.04168   0.03882  -0.1366  0.9243  0.0368  -1.7515   0.0000   0.0000   0.0000  128.2198
  -5.100   0.0201   0.03025   0.02691  -0.1507  0.9230  0.0406  -2.0044   0.0000   0.0000   0.0000   7.8392
  -5.000   0.0344   0.02904   0.02566  -0.1525  0.9223  0.0419  -1.9459   0.0000   0.0000   0.0000   4.7387
  -4.900   0.0487   0.02810   0.02469  -0.1539  0.9217  0.0430  -1.8826   0.0000   0.0000   0.0000   3.4528
  -4.800   0.0637   0.02718   0.02372  -0.1554  0.9211  0.0442  -1.8206   0.0000   0.0000   0.0000   2.7227
  -4.700   0.0792   0.02632   0.02279  -0.1570  0.9205  0.0457  -1.7595   0.0000   0.0000   0.0000   2.2578
  -4.600   0.0940   0.02587   0.02221  -0.1581  0.9199  0.0487  -1.6841   0.0000   0.0000   0.0000   1.9522
  -4.500   0.1114   0.02477   0.02101  -0.1600  0.9195  0.0506  -1.6404   0.0000   0.0000   0.0000   1.7026
  -4.400   0.1290   0.02376   0.01989  -0.1617  0.9191  0.0525  -1.5977   0.0000   0.0000   0.0000   1.5183
  -4.300   0.1464   0.02285   0.01889  -0.1632  0.9187  0.0542  -1.5546   0.0000   0.0000   0.0000   1.3776
  -4.200   0.1890   0.01530   0.01007  -0.1696  0.9209  0.0225  -2.0376   0.0000   0.0000   0.0000   1.1585
  -4.100   0.2026   0.01553   0.01032  -0.1697  0.9200  0.0207  -1.9449   0.0000   0.0000   0.0000   1.0973
  -4.000   0.2215   0.01427   0.00892  -0.1713  0.9201  0.0182  -1.9603   0.0000   0.0000   0.0000   1.0324
  -3.900   0.2401   0.01328   0.00779  -0.1729  0.9200  0.0170  -1.9484   0.0000   0.0000   0.0000   0.9782
  -3.800   0.2577   0.01262   0.00702  -0.1742  0.9199  0.0161  -1.9131   0.0000   0.0000   0.0000   0.9334
  -3.700   0.2751   0.01210   0.00641  -0.1755  0.9196  0.0154  -1.8653   0.0000   0.0000   0.0000   0.8946
  -3.600   0.2922   0.01168   0.00590  -0.1767  0.9192  0.0149  -1.8085   0.0000   0.0000   0.0000   0.8608
  -3.500   0.3090   0.01132   0.00547  -0.1778  0.9188  0.0145  -1.7451   0.0000   0.0000   0.0000   0.8310
  -3.400   0.3255   0.01103   0.00511  -0.1788  0.9183  0.0143  -1.6765   0.0000   0.0000   0.0000   0.8046
  -3.300   0.3418   0.01078   0.00480  -0.1798  0.9178  0.0141  -1.6035   0.0000   0.0000   0.0000   0.7808
  -3.200   0.3578   0.01057   0.00453  -0.1807  0.9173  0.0140  -1.5267   0.0000   0.0000   0.0000   0.7594
  -3.100   0.3736   0.01039   0.00430  -0.1816  0.9166  0.0140  -1.4465   0.0000   0.0000   0.0000   0.7401
  -3.000   0.3890   0.01023   0.00409  -0.1824  0.9160  0.0142  -1.3644   0.0000   0.0000   0.0000   0.7226
  -2.900   0.4043   0.01010   0.00391  -0.1832  0.9154  0.0144  -1.2811   0.0000   0.0000   0.0000   0.7065
  -2.800   0.4198   0.00997   0.00374  -0.1840  0.9148  0.0148  -1.1960   0.0000   0.0000   0.0000   0.6915
  -2.700   0.4359   0.00984   0.00359  -0.1850  0.9141  0.0155  -1.1081   0.0000   0.0000   0.0000   0.6773
  -2.600   0.4525   0.00970   0.00344  -0.1861  0.9135  0.0166  -1.0187   0.0000   0.0000   0.0000   0.6639
  -2.500   0.4695   0.00957   0.00332  -0.1873  0.9128  0.0180  -0.9310   0.0000   0.0000   0.0000   0.6514
  -2.400   0.4873   0.00938   0.00320  -0.1887  0.9121  0.0296  -0.8489   0.0000   0.0000   0.0000   0.6395
  -2.300   0.4952   0.00917   0.00316  -0.1882  0.9088  0.0712  -0.8008   0.0000   0.0000   0.0000   0.6321
  -2.200   0.5027   0.00907   0.00315  -0.1874  0.9051  0.0936  -0.7550   0.0000   0.0000   0.0000   0.6248
  -2.100   0.5152   0.00891   0.00310  -0.1878  0.9026  0.1232  -0.6998   0.0000   0.0000   0.0000   0.6163
  -2.000   0.5291   0.00873   0.00306  -0.1885  0.9006  0.1575  -0.6436   0.0000   0.0000   0.0000   0.6079
  -1.900   0.5435   0.00854   0.00302  -0.1893  0.8986  0.1924  -0.6428   0.0000   0.0000   0.0000   0.5998
  -1.800   0.5584   0.00837   0.00297  -0.1902  0.8966  0.2273  -0.6524   0.0000   0.0000   0.0000   0.5919
  -1.700   0.5733   0.00822   0.00292  -0.1911  0.8946  0.2545  -0.6620   0.0000   0.0000   0.0000   0.5844
  -1.600   0.5895   0.00807   0.00286  -0.1922  0.8928  0.2828  -0.6723   0.0000   0.0000   0.0000   0.5770
  -1.500   0.6084   0.00777   0.00291  -0.1942  0.8913  0.3778  -0.6840   0.0000   0.0000   0.0000   0.5699
  -1.400   0.6264   0.00760   0.00296  -0.1957  0.8897  0.4367  -0.6954   0.0000   0.0000   0.0000   0.5631
  -1.300   0.6436   0.00754   0.00288  -0.1970  0.8880  0.4432  -0.7064   0.0000   0.0000   0.0000   0.5566
  -1.200   0.6608   0.00745   0.00282  -0.1983  0.8863  0.4610  -0.7183   0.0000   0.0000   0.0000   0.5505
  -1.100   0.6780   0.00737   0.00278  -0.1996  0.8844  0.4767  -0.7304   0.0000   0.0000   0.0000   0.5447
  -1.000   0.6955   0.00731   0.00273  -0.2010  0.8822  0.4894  -0.7425   0.0000   0.0000   0.0000   0.5391
  -0.900   0.7035   0.00732   0.00275  -0.2003  0.8784  0.4961  -0.7496   0.0000   0.0000   0.0000   0.5347
  -0.800   0.7117   0.00733   0.00276  -0.1995  0.8740  0.5029  -0.7569   0.0000   0.0000   0.0000   0.5303
  -0.700   0.7225   0.00729   0.00276  -0.1994  0.8696  0.5162  -0.7655   0.0000   0.0000   0.0000   0.5258
  -0.600   0.7356   0.00724   0.00274  -0.1998  0.8656  0.5291  -0.7759   0.0000   0.0000   0.0000   0.5213
  -0.500   0.7499   0.00720   0.00271  -0.2004  0.8617  0.5413  -0.7877   0.0000   0.0000   0.0000   0.5168
  -0.400   0.7648   0.00717   0.00267  -0.2012  0.8580  0.5510  -0.7999   0.0000   0.0000   0.0000   0.5125
  -0.300   0.7801   0.00715   0.00262  -0.2021  0.8543  0.5586  -0.8123   0.0000   0.0000   0.0000   0.5083
  -0.200   0.7959   0.00711   0.00259  -0.2030  0.8504  0.5729  -0.8250   0.0000   0.0000   0.0000   0.5043
  -0.100   0.8082   0.00710   0.00261  -0.2033  0.8463  0.5837  -0.8358   0.0000   0.0000   0.0000   0.5006
   0.000   0.8169   0.00710   0.00264  -0.2027  0.8417  0.5929  -0.8445   0.0000   0.0000   0.0000   0.4971
   0.100   0.8272   0.00711   0.00265  -0.2025  0.8364  0.6014  -0.8545   0.0000   0.0000   0.0000   0.4936
   0.200   0.8387   0.00712   0.00265  -0.2025  0.8310  0.6090  -0.8662   0.0000   0.0000   0.0000   0.4902
   0.300   0.8513   0.00712   0.00264  -0.2027  0.8255  0.6184  -0.8786   0.0000   0.0000   0.0000   0.4868
   0.400   0.8644   0.00710   0.00264  -0.2031  0.8203  0.6324  -0.8914   0.0000   0.0000   0.0000   0.4835
   0.500   0.8777   0.00711   0.00264  -0.2035  0.8150  0.6441  -0.9043   0.0000   0.0000   0.0000   0.4803
   0.600   0.8899   0.00713   0.00266  -0.2037  0.8097  0.6539  -0.9165   0.0000   0.0000   0.0000   0.4772
   0.700   0.8994   0.00715   0.00269  -0.2033  0.8050  0.6615  -0.9270   0.0000   0.0000   0.0000   0.4743
   0.800   0.9096   0.00717   0.00271  -0.2031  0.7992  0.6673  -0.9380   0.0000   0.0000   0.0000   0.4713
   0.900   0.9204   0.00719   0.00273  -0.2029  0.7927  0.6772  -0.9495   0.0000   0.0000   0.0000   0.4685
   1.000   0.9317   0.00720   0.00275  -0.2029  0.7859  0.6887  -0.9625   0.0000   0.0000   0.0000   0.4657
   1.100   0.9431   0.00724   0.00277  -0.2029  0.7789  0.6997  -0.9761   0.0000   0.0000   0.0000   0.4629
   1.200   0.9549   0.00729   0.00279  -0.2030  0.7716  0.7100  -0.9898   0.0000   0.0000   0.0000   0.4602
   1.300   0.9649   0.00732   0.00283  -0.2027  0.7673  0.7182  -1.0024   0.0000   0.0000   0.0000   0.4576
   1.400   0.9751   0.00735   0.00286  -0.2025  0.7622  0.7258  -1.0155   0.0000   0.0000   0.0000   0.4551
   1.500   0.9851   0.00736   0.00290  -0.2022  0.7561  0.7370  -1.0300   0.0000   0.0000   0.0000   0.4526
   1.600   0.9953   0.00739   0.00294  -0.2019  0.7491  0.7467  -1.0447   0.0000   0.0000   0.0000   0.4501
   1.700   1.0055   0.00745   0.00297  -0.2017  0.7414  0.7559  -1.0595   0.0000   0.0000   0.0000   0.4476
   1.800   1.0157   0.00752   0.00304  -0.2014  0.7331  0.7646  -1.0743   0.0000   0.0000   0.0000   0.4453
   1.900   1.0259   0.00758   0.00308  -0.2012  0.7262  0.7722  -1.0891   0.0000   0.0000   0.0000   0.4430
   2.000   1.0356   0.00761   0.00312  -0.2008  0.7204  0.7820  -1.1036   0.0000   0.0000   0.0000   0.4407
   2.100   1.0448   0.00763   0.00317  -0.2003  0.7132  0.7932  -1.1178   0.0000   0.0000   0.0000   0.4384
   2.200   1.0541   0.00768   0.00321  -0.1999  0.7053  0.8039  -1.1321   0.0000   0.0000   0.0000   0.4362
   2.300   1.0634   0.00776   0.00325  -0.1994  0.6967  0.8136  -1.1476   0.0000   0.0000   0.0000   0.4339
   2.400   1.0724   0.00788   0.00330  -0.1989  0.6868  0.8215  -1.1640   0.0000   0.0000   0.0000   0.4318
   2.500   1.0816   0.00792   0.00335  -0.1985  0.6803  0.8309  -1.1806   0.0000   0.0000   0.0000   0.4297
   2.600   1.0904   0.00794   0.00339  -0.1979  0.6739  0.8409  -1.1970   0.0000   0.0000   0.0000   0.4276
   2.700   1.0992   0.00799   0.00344  -0.1974  0.6665  0.8509  -1.2144   0.0000   0.0000   0.0000   0.4255
   2.800   1.1082   0.00806   0.00349  -0.1969  0.6589  0.8603  -1.2338   0.0000   0.0000   0.0000   0.4235
   3.000   1.1235   0.00823   0.00359  -0.1953  0.6420  0.8805  -1.2703   0.0000   0.0000   0.0000   0.4194
   3.100   1.1311   0.00827   0.00363  -0.1944  0.6349  0.8933  -1.2885   0.0000   0.0000   0.0000   0.4174
   3.200   1.1394   0.00831   0.00367  -0.1938  0.6276  0.9058  -1.3076   0.0000   0.0000   0.0000   0.4155
   3.300   1.1448   0.00833   0.00369  -0.1925  0.6181  0.9228  -1.3237   0.0000   0.0000   0.0000   0.4134
   3.400   1.1491   0.00838   0.00370  -0.1909  0.6068  0.9470  -1.3387   0.0000   0.0000   0.0000   0.4113
   3.500   1.1550   0.00850   0.00373  -0.1898  0.5919  1.0000  -1.3555   0.0000   0.0000   0.0000   0.4094
   3.600   1.1651   0.00859   0.00379  -0.1896  0.5815  1.0000  -1.3767   0.0000   0.0000   0.0000   0.4077
   3.700   1.1742   0.00873   0.00386  -0.1892  0.5671  1.0000  -1.3975   0.0000   0.0000   0.0000   0.4059
   3.800   1.1813   0.00896   0.00396  -0.1884  0.5500  1.0000  -1.4194   0.0000   0.0000   0.0000   0.4042
   3.900   1.1898   0.00912   0.00404  -0.1879  0.5356  1.0000  -1.4440   0.0000   0.0000   0.0000   0.4025
   4.000   1.1985   0.00928   0.00412  -0.1875  0.5193  1.0000  -1.4733   0.0000   0.0000   0.0000   0.4008
   4.100   1.2047   0.00954   0.00425  -0.1865  0.4995  1.0000  -1.4991   0.0000   0.0000   0.0000   0.3991
   4.200   1.2133   0.00971   0.00435  -0.1860  0.4844  1.0000  -1.5284   0.0000   0.0000   0.0000   0.3975
   4.300   1.2215   0.00990   0.00445  -0.1855  0.4676  1.0000  -1.5574   0.0000   0.0000   0.0000   0.3959
   4.400   1.2280   0.01017   0.00459  -0.1846  0.4495  1.0000  -1.5840   0.0000   0.0000   0.0000   0.3943
   4.500   1.2371   0.01032   0.00469  -0.1843  0.4375  1.0000  -1.6145   0.0000   0.0000   0.0000   0.3928
   4.600   1.2461   0.01048   0.00479  -0.1839  0.4251  1.0000  -1.6450   0.0000   0.0000   0.0000   0.3913
   4.700   1.2541   0.01069   0.00491  -0.1833  0.4120  1.0000  -1.6743   0.0000   0.0000   0.0000   0.3898
   4.800   1.2617   0.01090   0.00505  -0.1827  0.3985  1.0000  -1.7029   0.0000   0.0000   0.0000   0.3883
   4.900   1.2712   0.01103   0.00515  -0.1824  0.3903  1.0000  -1.7347   0.0000   0.0000   0.0000   0.3868
   5.000   1.2800   0.01119   0.00526  -0.1820  0.3792  1.0000  -1.7656   0.0000   0.0000   0.0000   0.3854
   5.100   1.2876   0.01141   0.00539  -0.1814  0.3658  1.0000  -1.7947   0.0000   0.0000   0.0000   0.3840
   5.200   1.2948   0.01165   0.00555  -0.1807  0.3513  1.0000  -1.8232   0.0000   0.0000   0.0000   0.3825
   5.300   1.3041   0.01178   0.00566  -0.1804  0.3440  1.0000  -1.8874   0.0000   0.0000   0.0000   0.3811
   5.400   1.3128   0.01194   0.00578  -0.1800  0.3347  1.0000  -1.9673   0.0000   0.0000   0.0000   0.3798
   5.500   1.3204   0.01217   0.00592  -0.1794  0.3219  1.0000  -2.0434   0.0000   0.0000   0.0000   0.3784
   5.600   1.3272   0.01245   0.00611  -0.1786  0.3059  1.0000  -2.1170   0.0000   0.0000   0.0000   0.3770
   5.700   1.3356   0.01262   0.00624  -0.1782  0.2956  1.0000  -2.1984   0.0000   0.0000   0.0000   0.3757
   5.800   1.3640   0.01167   0.00628  -0.1812  0.3823  1.0000  -2.4064   0.0000   0.0000   0.0000   0.3750
   5.900   1.3715   0.01188   0.00644  -0.1805  0.3709  1.0000  -2.4911   0.0000   0.0000   0.0000   0.3737
   6.000   1.3778   0.01215   0.00662  -0.1797  0.3575  1.0000  -2.5703   0.0000   0.0000   0.0000   0.3723
   6.100   1.3858   0.01233   0.00678  -0.1791  0.3472  1.0000  -2.6575   0.0000   0.0000   0.0000   0.3710
   6.200   1.3944   0.01249   0.00692  -0.1786  0.3384  1.0000  -2.7481   0.0000   0.0000   0.0000   0.3697
   6.300   1.4019   0.01270   0.00708  -0.1780  0.3276  1.0000  -2.8349   0.0000   0.0000   0.0000   0.3685
   6.400   1.4086   0.01296   0.00727  -0.1772  0.3162  1.0000  -2.9182   0.0000   0.0000   0.0000   0.3672
   6.500   1.4158   0.01319   0.00746  -0.1765  0.3047  1.0000  -3.0044   0.0000   0.0000   0.0000   0.3659
   6.600   1.4246   0.01333   0.00760  -0.1761  0.2984  1.0000  -3.0990   0.0000   0.0000   0.0000   0.3647
   6.700   1.4325   0.01352   0.00777  -0.1756  0.2897  1.0000  -3.1908   0.0000   0.0000   0.0000   0.3635
   6.800   1.4395   0.01377   0.00795  -0.1749  0.2794  1.0000  -3.2787   0.0000   0.0000   0.0000   0.3623
   6.900   1.4458   0.01406   0.00818  -0.1740  0.2673  1.0000  -3.3639   0.0000   0.0000   0.0000   0.3610
   7.000   1.4535   0.01426   0.00836  -0.1734  0.2582  1.0000  -3.4567   0.0000   0.0000   0.0000   0.3598
   7.100   1.4606   0.01450   0.00856  -0.1728  0.2473  1.0000  -3.5475   0.0000   0.0000   0.0000   0.3586
   7.200   1.4656   0.01487   0.00881  -0.1717  0.2323  1.0000  -3.6292   0.0000   0.0000   0.0000   0.3574
   7.300   1.4718   0.01518   0.00906  -0.1709  0.2182  1.0000  -3.7167   0.0000   0.0000   0.0000   0.3562
   7.400   1.4781   0.01547   0.00928  -0.1701  0.2061  1.0000  -3.8061   0.0000   0.0000   0.0000   0.3550
   7.500   1.4829   0.01587   0.00956  -0.1691  0.1916  1.0000  -3.8885   0.0000   0.0000   0.0000   0.3538
   7.600   1.4896   0.01615   0.00981  -0.1683  0.1807  1.0000  -3.9803   0.0000   0.0000   0.0000   0.3527
   7.700   1.4966   0.01640   0.01003  -0.1677  0.1730  1.0000  -4.0750   0.0000   0.0000   0.0000   0.3515
   7.800   1.5024   0.01673   0.01029  -0.1668  0.1633  1.0000  -4.1639   0.0000   0.0000   0.0000   0.3504
   7.900   1.5077   0.01710   0.01058  -0.1659  0.1516  1.0000  -4.2510   0.0000   0.0000   0.0000   0.3492
   8.000   1.5147   0.01734   0.01082  -0.1652  0.1445  1.0000  -4.3473   0.0000   0.0000   0.0000   0.3481
   8.100   1.5211   0.01763   0.01108  -0.1644  0.1369  1.0000  -4.4413   0.0000   0.0000   0.0000   0.3470
   8.200   1.5259   0.01802   0.01138  -0.1634  0.1275  1.0000  -4.5274   0.0000   0.0000   0.0000   0.3459
   8.300   1.5310   0.01840   0.01169  -0.1625  0.1162  1.0000  -4.6148   0.0000   0.0000   0.0000   0.3447
   8.400   1.5374   0.01867   0.01196  -0.1617  0.1104  1.0000  -4.7099   0.0000   0.0000   0.0000   0.3437
   8.500   1.5425   0.01904   0.01227  -0.1608  0.1027  1.0000  -4.7986   0.0000   0.0000   0.0000   0.3426
   8.600   1.5466   0.01948   0.01263  -0.1597  0.0936  1.0000  -4.8816   0.0000   0.0000   0.0000   0.3414
   8.700   1.5526   0.01980   0.01292  -0.1589  0.0860  1.0000  -4.9734   0.0000   0.0000   0.0000   0.3404
   8.800   1.5580   0.02015   0.01323  -0.1580  0.0789  1.0000  -5.0614   0.0000   0.0000   0.0000   0.3393
   8.900   1.5600   0.02077   0.01371  -0.1567  0.0653  1.0000  -5.1246   0.0000   0.0000   0.0000   0.3382
   9.100   1.5389   0.02404   0.01657  -0.1495  0.0108  1.0000  -4.8231   0.0000   0.0000   0.0000   0.3346
   9.200   1.5431   0.02449   0.01709  -0.1484  0.0106  1.0000  -4.8751   0.0000   0.0000   0.0000   0.3335
   9.300   1.5470   0.02497   0.01764  -0.1473  0.0105  1.0000  -4.9275   0.0000   0.0000   0.0000   0.3323
   9.400   1.5497   0.02557   0.01838  -0.1460  0.0102  1.0000  -4.9483   0.0000   0.0000   0.0000   0.3311
   9.500   1.5527   0.02613   0.01901  -0.1447  0.0101  1.0000  -4.9924   0.0000   0.0000   0.0000   0.3300
   9.600   1.5554   0.02671   0.01965  -0.1434  0.0101  1.0000  -5.0397   0.0000   0.0000   0.0000   0.3289
   9.700   1.5579   0.02731   0.02031  -0.1422  0.0101  1.0000  -5.0870   0.0000   0.0000   0.0000   0.3277
   9.800   1.5602   0.02793   0.02101  -0.1409  0.0101  1.0000  -5.1337   0.0000   0.0000   0.0000   0.3266
   9.900   1.5622   0.02859   0.02173  -0.1396  0.0101  1.0000  -5.1796   0.0000   0.0000   0.0000   0.3255
  10.000   1.5641   0.02927   0.02249  -0.1383  0.0101  1.0000  -5.2243   0.0000   0.0000   0.0000   0.3244
  10.100   1.5653   0.03000   0.02329  -0.1370  0.0102  1.0000  -5.2660   0.0000   0.0000   0.0000   0.3233
  10.200   1.5660   0.03076   0.02412  -0.1356  0.0102  1.0000  -5.3056   0.0000   0.0000   0.0000   0.3222
  10.300   1.5667   0.03155   0.02498  -0.1343  0.0102  1.0000  -5.3444   0.0000   0.0000   0.0000   0.3212
  10.400   1.5673   0.03237   0.02587  -0.1329  0.0103  1.0000  -5.3823   0.0000   0.0000   0.0000   0.3201
  10.500   1.5677   0.03322   0.02679  -0.1316  0.0103  1.0000  -5.4188   0.0000   0.0000   0.0000   0.3191
  10.600   1.5675   0.03411   0.02776  -0.1303  0.0104  1.0000  -5.4523   0.0000   0.0000   0.0000   0.3181
  10.700   1.5669   0.03504   0.02877  -0.1289  0.0104  1.0000  -5.4838   0.0000   0.0000   0.0000   0.3170
  10.800   1.5665   0.03599   0.02979  -0.1276  0.0105  1.0000  -5.5149   0.0000   0.0000   0.0000   0.3161
  10.900   1.5661   0.03697   0.03084  -0.1263  0.0105  1.0000  -5.5454   0.0000   0.0000   0.0000   0.3151
  11.000   1.5654   0.03795   0.03189  -0.1251  0.0106  1.0000  -5.5736   0.0000   0.0000   0.0000   0.3141
  11.100   1.5641   0.03897   0.03300  -0.1238  0.0107  1.0000  -5.5988   0.0000   0.0000   0.0000   0.3132
  11.200   1.5627   0.04005   0.03416  -0.1225  0.0107  1.0000  -5.6228   0.0000   0.0000   0.0000   0.3123
  11.300   1.5618   0.04116   0.03534  -0.1213  0.0108  1.0000  -5.6472   0.0000   0.0000   0.0000   0.3114
  11.400   1.5613   0.04230   0.03656  -0.1202  0.0109  1.0000  -5.6716   0.0000   0.0000   0.0000   0.3105
  11.500   1.5610   0.04347   0.03781  -0.1191  0.0110  1.0000  -5.6954   0.0000   0.0000   0.0000   0.3097
  11.600   1.5608   0.04468   0.03911  -0.1181  0.0111  1.0000  -5.7181   0.0000   0.0000   0.0000   0.3088
  11.700   1.5604   0.04595   0.04045  -0.1171  0.0112  1.0000  -5.7394   0.0000   0.0000   0.0000   0.3080
  11.800   1.5601   0.04724   0.04182  -0.1162  0.0113  1.0000  -5.7612   0.0000   0.0000   0.0000   0.3072
  11.900   1.5600   0.04854   0.04321  -0.1152  0.0113  1.0000  -5.7842   0.0000   0.0000   0.0000   0.3065
  12.000   1.5601   0.04984   0.04460  -0.1144  0.0114  1.0000  -5.8088   0.0000   0.0000   0.0000   0.3057
  12.100   1.5604   0.05116   0.04599  -0.1136  0.0114  1.0000  -5.8347   0.0000   0.0000   0.0000   0.3050
  12.200   1.5607   0.05248   0.04740  -0.1128  0.0115  1.0000  -5.8618   0.0000   0.0000   0.0000   0.3043
  12.300   1.5610   0.05381   0.04881  -0.1120  0.0115  1.0000  -5.8900   0.0000   0.0000   0.0000   0.3036
  12.400   1.5612   0.05514   0.05022  -0.1113  0.0115  1.0000  -5.9191   0.0000   0.0000   0.0000   0.3030
  12.500   1.5608   0.05650   0.05166  -0.1106  0.0115  1.0000  -5.9477   0.0000   0.0000   0.0000   0.3024
  12.600   1.5599   0.05789   0.05313  -0.1100  0.0115  1.0000  -5.9754   0.0000   0.0000   0.0000   0.3018
  12.700   1.5590   0.05928   0.05460  -0.1094  0.0115  1.0000  -6.0040   0.0000   0.0000   0.0000   0.3013
  12.800   1.5581   0.06066   0.05605  -0.1089  0.0114  1.0000  -6.0343   0.0000   0.0000   0.0000   0.3008
  12.900   1.5573   0.06203   0.05750  -0.1083  0.0114  1.0000  -6.0659   0.0000   0.0000   0.0000   0.3003
  13.000   1.5564   0.06340   0.05894  -0.1079  0.0114  1.0000  -6.0983   0.0000   0.0000   0.0000   0.2999
  13.100   1.5552   0.06479   0.06040  -0.1075  0.0113  1.0000  -6.1302   0.0000   0.0000   0.0000   0.2994
  13.200   1.5531   0.06626   0.06195  -0.1071  0.0112  1.0000  -6.1576   0.0000   0.0000   0.0000   0.2991
  13.300   1.5508   0.06775   0.06351  -0.1068  0.0112  1.0000  -6.1847   0.0000   0.0000   0.0000   0.2988
  13.400   1.5489   0.06922   0.06505  -0.1065  0.0111  1.0000  -6.2134   0.0000   0.0000   0.0000   0.2985
  13.500   1.5469   0.07069   0.06659  -0.1063  0.0110  1.0000  -6.2426   0.0000   0.0000   0.0000   0.2982
  13.600   1.5449   0.07217   0.06814  -0.1061  0.0110  1.0000  -6.2710   0.0000   0.0000   0.0000   0.2980
  13.700   1.5419   0.07377   0.06982  -0.1060  0.0109  1.0000  -6.2928   0.0000   0.0000   0.0000   0.2979
  13.800   1.5385   0.07542   0.07154  -0.1060  0.0108  1.0000  -6.3119   0.0000   0.0000   0.0000   0.2978
  13.900   1.5354   0.07705   0.07323  -0.1060  0.0108  1.0000  -6.3324   0.0000   0.0000   0.0000   0.2978
  14.000   1.5325   0.07868   0.07493  -0.1061  0.0107  1.0000  -6.3532   0.0000   0.0000   0.0000   0.2977
  14.100   1.5293   0.08027   0.07660  -0.1062  0.0107  1.0000  -6.3712   0.0000   0.0000   0.0000   0.2977
  14.200   1.5247   0.08201   0.07842  -0.1065  0.0106  1.0000  -6.3793   0.0000   0.0000   0.0000   0.2979
  14.300   1.5203   0.08377   0.08025  -0.1068  0.0106  1.0000  -6.3871   0.0000   0.0000   0.0000   0.2981
  14.400   1.5163   0.08553   0.08208  -0.1072  0.0105  1.0000  -6.3963   0.0000   0.0000   0.0000   0.2983
  14.500   1.5123   0.08732   0.08395  -0.1076  0.0105  1.0000  -6.4041   0.0000   0.0000   0.0000   0.2986
  14.600   1.5074   0.08932   0.08602  -0.1082  0.0105  1.0000  -6.4042   0.0000   0.0000   0.0000   0.2990
  14.700   1.5019   0.09146   0.08824  -0.1089  0.0105  1.0000  -6.3989   0.0000   0.0000   0.0000   0.2995
  14.800   1.4969   0.09358   0.09043  -0.1096  0.0104  1.0000  -6.3953   0.0000   0.0000   0.0000   0.3000
  14.900   1.4920   0.09575   0.09267  -0.1104  0.0104  1.0000  -6.3907   0.0000   0.0000   0.0000   0.3006
  15.000   1.4862   0.09813   0.09513  -0.1114  0.0104  1.0000  -6.3779   0.0000   0.0000   0.0000   0.3013
  15.100   1.4797   0.10069   0.09777  -0.1126  0.0104  1.0000  -6.3587   0.0000   0.0000   0.0000   0.3022
  15.200   1.4739   0.10322   0.10038  -0.1137  0.0104  1.0000  -6.3419   0.0000   0.0000   0.0000   0.3031
  15.300   1.4681   0.10580   0.10303  -0.1149  0.0104  1.0000  -6.3232   0.0000   0.0000   0.0000   0.3040
  15.400   1.4608   0.10873   0.10605  -0.1165  0.0105  1.0000  -6.2925   0.0000   0.0000   0.0000   0.3052
  15.500   1.4538   0.11172   0.10911  -0.1181  0.0105  1.0000  -6.2610   0.0000   0.0000   0.0000   0.3065
  15.600   1.4472   0.11469   0.11216  -0.1197  0.0105  1.0000  -6.2303   0.0000   0.0000   0.0000   0.3078
  15.700   1.4398   0.11792   0.11546  -0.1215  0.0106  1.0000  -6.1910   0.0000   0.0000   0.0000   0.3092
  15.800   1.4316   0.12145   0.11907  -0.1236  0.0106  1.0000  -6.1429   0.0000   0.0000   0.0000   0.3110
  15.900   1.4241   0.12490   0.12259  -0.1256  0.0106  1.0000  -6.0974   0.0000   0.0000   0.0000   0.3127
  16.000   1.4158   0.12863   0.12641  -0.1278  0.0107  1.0000  -6.0423   0.0000   0.0000   0.0000   0.3146
  16.100   1.4063   0.13283   0.13068  -0.1304  0.0108  1.0000  -5.9724   0.0000   0.0000   0.0000   0.3169
  16.200   1.3975   0.13694   0.13486  -0.1329  0.0108  1.0000  -5.9039   0.0000   0.0000   0.0000   0.3191
  16.300   1.3862   0.14190   0.13991  -0.1360  0.0110  1.0000  -5.8057   0.0000   0.0000   0.0000   0.3219
  16.400   1.3742   0.14724   0.14533  -0.1393  0.0111  1.0000  -5.6903   0.0000   0.0000   0.0000   0.3251
  16.500   1.3536   0.15539   0.15360  -0.1444  0.0115  1.0000  -5.4587   0.0000   0.0000   0.0000   0.3303
  16.600   1.3271   0.16550   0.16382  -0.1489  0.0137  1.0000  -5.0258   0.0000   0.0000   0.0000   0.3359
  16.700   1.3224   0.16946   0.16782  -0.1513  0.0138  1.0000  -4.9887   0.0000   0.0000   0.0000   0.3379
  16.800   1.3179   0.17344   0.17184  -0.1536  0.0139  1.0000  -4.9504   0.0000   0.0000   0.0000   0.3400
  16.900   1.3137   0.17736   0.17580  -0.1558  0.0139  1.0000  -4.9118   0.0000   0.0000   0.0000   0.3419
  17.000   1.3091   0.18161   0.18009  -0.1582  0.0141  1.0000  -4.8653   0.0000   0.0000   0.0000   0.3440
  17.100   1.3045   0.18596   0.18447  -0.1606  0.0142  1.0000  -4.8137   0.0000   0.0000   0.0000   0.3461
  17.200   1.2997   0.19058   0.18914  -0.1630  0.0145  1.0000  -4.7496   0.0000   0.0000   0.0000   0.3484


