xflr5 v6.61

 Calculated polar for: E216  (10.4%)

 1 1 Reynolds number fixed          Mach number fixed         

 xtrf =   1.000 (top)        1.000 (bottom)
 Mach =   0.000     Re =     0.400 e 6     Ncrit =   9.000

  alpha     CL        CD       CDp       Cm    Top Xtr Bot Xtr   Cpmin    Chinge    XCp    
 ------- -------- --------- --------- -------- ------- ------- -------- --------- ---------
 -10.000  -0.3248   0.13021   0.12758  -0.0328  0.9973  0.0195  -1.4638   0.0000   0.0000   0.0000   0.1374
  -9.900  -0.3196   0.12869   0.12605  -0.0342  0.9967  0.0195  -1.4675   0.0000   0.0000   0.0000   0.1312
  -9.800  -0.3145   0.12713   0.12449  -0.0355  0.9958  0.0196  -1.4712   0.0000   0.0000   0.0000   0.1250
  -9.700  -0.3093   0.12556   0.12292  -0.0369  0.9950  0.0196  -1.4752   0.0000   0.0000   0.0000   0.1185
  -9.600  -0.3040   0.12398   0.12134  -0.0384  0.9941  0.0196  -1.4795   0.0000   0.0000   0.0000   0.1117
  -9.500  -0.2988   0.12241   0.11976  -0.0398  0.9932  0.0196  -1.4840   0.0000   0.0000   0.0000   0.1046
  -9.400  -0.2935   0.12083   0.11818  -0.0412  0.9923  0.0196  -1.4889   0.0000   0.0000   0.0000   0.0972
  -9.300  -0.2883   0.11925   0.11661  -0.0427  0.9916  0.0196  -1.4940   0.0000   0.0000   0.0000   0.0894
  -9.200  -0.2831   0.11768   0.11504  -0.0441  0.9909  0.0196  -1.4995   0.0000   0.0000   0.0000   0.0815
  -9.100  -0.2778   0.11611   0.11346  -0.0456  0.9902  0.0197  -1.5053   0.0000   0.0000   0.0000   0.0731
  -9.000  -0.2724   0.11452   0.11188  -0.0471  0.9897  0.0197  -1.5114   0.0000   0.0000   0.0000   0.0641
  -8.900  -0.2670   0.11293   0.11028  -0.0487  0.9891  0.0197  -1.5178   0.0000   0.0000   0.0000   0.0545
  -8.800  -0.2794   0.10611   0.10350  -0.0511  0.9887  0.0209  -1.7727   0.0000   0.0000   0.0000   0.0542
  -8.700  -0.2772   0.10450   0.10189  -0.0517  0.9874  0.0213  -1.7666   0.0000   0.0000   0.0000   0.0505
  -8.600  -0.2743   0.10318   0.10058  -0.0522  0.9859  0.0217  -1.7479   0.0000   0.0000   0.0000   0.0470
  -8.500  -0.2692   0.10209   0.09949  -0.0526  0.9847  0.0220  -1.7050   0.0000   0.0000   0.0000   0.0418
  -8.400  -0.2637   0.10100   0.09840  -0.0532  0.9835  0.0224  -1.6642   0.0000   0.0000   0.0000   0.0353
  -8.300  -0.2576   0.09992   0.09732  -0.0539  0.9825  0.0228  -1.6228   0.0000   0.0000   0.0000   0.0276
  -8.200  -0.2513   0.09879   0.09620  -0.0548  0.9815  0.0232  -1.5846   0.0000   0.0000   0.0000   0.0187
  -8.100  -0.2449   0.09762   0.09503  -0.0559  0.9805  0.0237  -1.5517   0.0000   0.0000   0.0000   0.0085
  -8.000  -0.2384   0.09640   0.09381  -0.0571  0.9797  0.0242  -1.5239   0.0000   0.0000   0.0000  -0.0030
  -7.900  -0.2319   0.09513   0.09253  -0.0585  0.9788  0.0247  -1.5006   0.0000   0.0000   0.0000  -0.0158
  -7.800  -0.2253   0.09380   0.09121  -0.0600  0.9781  0.0253  -1.4812   0.0000   0.0000   0.0000  -0.0302
  -7.700  -0.2186   0.09243   0.08984  -0.0616  0.9774  0.0259  -1.4655   0.0000   0.0000   0.0000  -0.0461
  -7.600  -0.2119   0.09103   0.08844  -0.0633  0.9768  0.0266  -1.4534   0.0000   0.0000   0.0000  -0.0634
  -7.500  -0.2052   0.08960   0.08701  -0.0652  0.9762  0.0273  -1.4448   0.0000   0.0000   0.0000  -0.0823
  -7.400  -0.1984   0.08813   0.08554  -0.0671  0.9757  0.0281  -1.4392   0.0000   0.0000   0.0000  -0.1034
  -7.300  -0.2038   0.08742   0.08484  -0.0655  0.9708  0.0283  -1.4467   0.0000   0.0000   0.0000  -0.0859
  -7.200  -0.2006   0.08612   0.08355  -0.0665  0.9686  0.0290  -1.4480   0.0000   0.0000   0.0000  -0.0960
  -7.100  -0.1963   0.08472   0.08216  -0.0679  0.9667  0.0297  -1.4511   0.0000   0.0000   0.0000  -0.1106
  -7.000  -0.1912   0.08324   0.08068  -0.0697  0.9651  0.0305  -1.4567   0.0000   0.0000   0.0000  -0.1290
  -6.900  -0.1855   0.08169   0.07913  -0.0717  0.9636  0.0315  -1.4655   0.0000   0.0000   0.0000  -0.1515
  -6.800  -0.1790   0.08009   0.07753  -0.0741  0.9623  0.0325  -1.4783   0.0000   0.0000   0.0000  -0.1790
  -6.700  -0.1714   0.07855   0.07599  -0.0768  0.9610  0.0337  -1.4937   0.0000   0.0000   0.0000  -0.2136
  -6.600  -0.1602   0.07748   0.07492  -0.0798  0.9599  0.0352  -1.4930   0.0000   0.0000   0.0000  -0.2647
  -6.500  -0.1464   0.07639   0.07382  -0.0832  0.9591  0.0361  -1.4784   0.0000   0.0000   0.0000  -0.3361
  -6.400  -0.1580   0.07608   0.07353  -0.0800  0.9515  0.0361  -1.4928   0.0000   0.0000   0.0000  -0.2724
  -6.300  -0.1513   0.07466   0.07212  -0.0820  0.9486  0.0363  -1.4956   0.0000   0.0000   0.0000  -0.3085
  -6.200  -0.1427   0.07284   0.07030  -0.0849  0.9464  0.0365  -1.5031   0.0000   0.0000   0.0000  -0.3621
  -6.100  -0.1327   0.07070   0.06816  -0.0884  0.9445  0.0366  -1.5153   0.0000   0.0000   0.0000  -0.4343
  -6.000  -0.1219   0.06833   0.06578  -0.0925  0.9430  0.0367  -1.5328   0.0000   0.0000   0.0000  -0.5280
  -5.900  -0.1096   0.06560   0.06304  -0.0974  0.9417  0.0368  -1.5572   0.0000   0.0000   0.0000  -0.6594
  -5.800  -0.0951   0.06223   0.05965  -0.1038  0.9406  0.0368  -1.5956   0.0000   0.0000   0.0000  -0.8651
  -5.700  -0.0764   0.05731   0.05465  -0.1136  0.9395  0.0369  -1.6743   0.0000   0.0000   0.0000  -1.2660
  -5.600  -0.0801   0.04542   0.04250  -0.1280  0.9338  0.0387  -2.0386   0.0000   0.0000   0.0000  -1.3760
  -5.500  -0.0796   0.04327   0.04031  -0.1288  0.9287  0.0396  -2.0529   0.0000   0.0000   0.0000  -1.3951
  -5.400  -0.0697   0.04142   0.03842  -0.1309  0.9266  0.0405  -2.0235   0.0000   0.0000   0.0000  -1.6598
  -5.300  -0.0579   0.03995   0.03692  -0.1328  0.9250  0.0414  -1.9797   0.0000   0.0000   0.0000  -2.0814
  -5.200  -0.0456   0.03883   0.03578  -0.1342  0.9237  0.0422  -1.9248   0.0000   0.0000   0.0000  -2.7406
  -5.100  -0.0321   0.03759   0.03450  -0.1361  0.9226  0.0431  -1.8745   0.0000   0.0000   0.0000  -4.0583
  -5.000  -0.0175   0.03622   0.03307  -0.1383  0.9217  0.0442  -1.8294   0.0000   0.0000   0.0000  -7.7720
  -4.900  -0.0018   0.03476   0.03153  -0.1408  0.9210  0.0455  -1.7890   0.0000   0.0000   0.0000  -77.4946
  -4.800   0.0147   0.03325   0.02993  -0.1433  0.9203  0.0470  -1.7521   0.0000   0.0000   0.0000  10.1038
  -4.700   0.0320   0.03177   0.02833  -0.1459  0.9197  0.0488  -1.7171   0.0000   0.0000   0.0000   4.8668
  -4.600   0.0497   0.03047   0.02690  -0.1482  0.9192  0.0510  -1.6803   0.0000   0.0000   0.0000   3.2696
  -4.200   0.1532   0.01756   0.01204  -0.1633  0.9210  0.0226  -2.1232   0.0000   0.0000   0.0000   1.3296
  -4.100   0.1678   0.01759   0.01205  -0.1637  0.9200  0.0210  -2.0425   0.0000   0.0000   0.0000   1.2368
  -4.000   0.1818   0.01781   0.01231  -0.1639  0.9190  0.0201  -1.9398   0.0000   0.0000   0.0000   1.1617
  -3.900   0.2034   0.01591   0.01018  -0.1663  0.9195  0.0183  -1.9816   0.0000   0.0000   0.0000   1.0771
  -3.800   0.2220   0.01502   0.00916  -0.1679  0.9194  0.0175  -1.9541   0.0000   0.0000   0.0000   1.0147
  -3.700   0.2399   0.01437   0.00840  -0.1693  0.9191  0.0169  -1.9106   0.0000   0.0000   0.0000   0.9631
  -3.600   0.2574   0.01385   0.00780  -0.1706  0.9189  0.0165  -1.8580   0.0000   0.0000   0.0000   0.9194
  -3.500   0.2747   0.01343   0.00730  -0.1718  0.9185  0.0161  -1.7982   0.0000   0.0000   0.0000   0.8817
  -3.400   0.2919   0.01307   0.00686  -0.1730  0.9181  0.0158  -1.7327   0.0000   0.0000   0.0000   0.8485
  -3.300   0.3088   0.01275   0.00648  -0.1742  0.9177  0.0157  -1.6627   0.0000   0.0000   0.0000   0.8192
  -3.200   0.3255   0.01248   0.00614  -0.1752  0.9172  0.0156  -1.5896   0.0000   0.0000   0.0000   0.7932
  -3.100   0.3419   0.01224   0.00583  -0.1762  0.9167  0.0156  -1.5138   0.0000   0.0000   0.0000   0.7698
  -3.000   0.3582   0.01202   0.00556  -0.1771  0.9161  0.0157  -1.4360   0.0000   0.0000   0.0000   0.7486
  -2.900   0.3742   0.01182   0.00532  -0.1780  0.9156  0.0160  -1.3561   0.0000   0.0000   0.0000   0.7295
  -2.800   0.3902   0.01164   0.00510  -0.1789  0.9151  0.0165  -1.2741   0.0000   0.0000   0.0000   0.7120
  -2.700   0.4061   0.01148   0.00490  -0.1798  0.9146  0.0171  -1.1901   0.0000   0.0000   0.0000   0.6959
  -2.600   0.4218   0.01134   0.00474  -0.1807  0.9141  0.0180  -1.1054   0.0000   0.0000   0.0000   0.6812
  -2.500   0.4377   0.01120   0.00458  -0.1816  0.9136  0.0194  -1.0212   0.0000   0.0000   0.0000   0.6675
  -2.400   0.4552   0.01087   0.00441  -0.1830  0.9131  0.0575  -0.9393   0.0000   0.0000   0.0000   0.6545
  -2.300   0.4731   0.01052   0.00427  -0.1847  0.9127  0.1075  -0.8622   0.0000   0.0000   0.0000   0.6426
  -2.200   0.4906   0.01026   0.00416  -0.1862  0.9121  0.1439  -0.7906   0.0000   0.0000   0.0000   0.6314
  -2.100   0.4920   0.01030   0.00425  -0.1841  0.9068  0.1583  -0.7605   0.0000   0.0000   0.0000   0.6260
  -2.000   0.5027   0.01016   0.00423  -0.1841  0.9038  0.1889  -0.7097   0.0000   0.0000   0.0000   0.6179
  -1.900   0.5161   0.00998   0.00419  -0.1846  0.9016  0.2212  -0.6546   0.0000   0.0000   0.0000   0.6093
  -1.800   0.5299   0.00984   0.00413  -0.1852  0.8997  0.2464  -0.6368   0.0000   0.0000   0.0000   0.6009
  -1.700   0.5446   0.00967   0.00408  -0.1860  0.8981  0.2744  -0.6462   0.0000   0.0000   0.0000   0.5928
  -1.600   0.5593   0.00954   0.00401  -0.1868  0.8965  0.2958  -0.6558   0.0000   0.0000   0.0000   0.5850
  -1.500   0.5749   0.00936   0.00395  -0.1878  0.8950  0.3268  -0.6658   0.0000   0.0000   0.0000   0.5775
  -1.400   0.5924   0.00904   0.00403  -0.1894  0.8937  0.4297  -0.6769   0.0000   0.0000   0.0000   0.5703
  -1.300   0.6080   0.00891   0.00401  -0.1902  0.8920  0.4611  -0.6870   0.0000   0.0000   0.0000   0.5635
  -1.200   0.6239   0.00878   0.00393  -0.1912  0.8904  0.4764  -0.6978   0.0000   0.0000   0.0000   0.5568
  -1.100   0.6410   0.00867   0.00383  -0.1924  0.8889  0.4897  -0.7097   0.0000   0.0000   0.0000   0.5504
  -1.000   0.6584   0.00858   0.00373  -0.1937  0.8875  0.4986  -0.7219   0.0000   0.0000   0.0000   0.5443
  -0.900   0.6761   0.00847   0.00366  -0.1950  0.8862  0.5145  -0.7342   0.0000   0.0000   0.0000   0.5385
  -0.800   0.6938   0.00837   0.00359  -0.1964  0.8847  0.5282  -0.7464   0.0000   0.0000   0.0000   0.5330
  -0.700   0.7116   0.00829   0.00353  -0.1978  0.8829  0.5414  -0.7589   0.0000   0.0000   0.0000   0.5278
  -0.600   0.7237   0.00827   0.00351  -0.1980  0.8799  0.5509  -0.7684   0.0000   0.0000   0.0000   0.5232
  -0.500   0.7298   0.00830   0.00354  -0.1968  0.8750  0.5569  -0.7754   0.0000   0.0000   0.0000   0.5192
  -0.400   0.7396   0.00826   0.00354  -0.1964  0.8706  0.5710  -0.7846   0.0000   0.0000   0.0000   0.5150
  -0.300   0.7514   0.00821   0.00353  -0.1965  0.8665  0.5830  -0.7950   0.0000   0.0000   0.0000   0.5108
  -0.200   0.7656   0.00814   0.00348  -0.1971  0.8628  0.5938  -0.8068   0.0000   0.0000   0.0000   0.5066
  -0.100   0.7809   0.00809   0.00342  -0.1979  0.8595  0.6034  -0.8193   0.0000   0.0000   0.0000   0.5025
   0.000   0.7969   0.00805   0.00336  -0.1989  0.8563  0.6111  -0.8322   0.0000   0.0000   0.0000   0.4985
   0.100   0.8133   0.00798   0.00330  -0.1999  0.8530  0.6243  -0.8453   0.0000   0.0000   0.0000   0.4947
   0.200   0.8302   0.00792   0.00327  -0.2011  0.8492  0.6383  -0.8602   0.0000   0.0000   0.0000   0.4910
   0.300   0.8397   0.00793   0.00330  -0.2007  0.8448  0.6491  -0.8706   0.0000   0.0000   0.0000   0.4877
   0.400   0.8479   0.00794   0.00334  -0.2000  0.8395  0.6583  -0.8803   0.0000   0.0000   0.0000   0.4844
   0.500   0.8585   0.00795   0.00334  -0.1998  0.8340  0.6658  -0.8914   0.0000   0.0000   0.0000   0.4812
   0.600   0.8707   0.00794   0.00332  -0.2000  0.8287  0.6749  -0.9037   0.0000   0.0000   0.0000   0.4780
   0.700   0.8838   0.00791   0.00331  -0.2003  0.8237  0.6862  -0.9165   0.0000   0.0000   0.0000   0.4749
   0.800   0.8974   0.00789   0.00330  -0.2008  0.8189  0.6971  -0.9297   0.0000   0.0000   0.0000   0.4718
   0.900   0.9117   0.00790   0.00329  -0.2014  0.8136  0.7081  -0.9433   0.0000   0.0000   0.0000   0.4688
   1.000   0.9228   0.00792   0.00331  -0.2013  0.8086  0.7173  -0.9558   0.0000   0.0000   0.0000   0.4660
   1.100   0.9318   0.00795   0.00335  -0.2008  0.8031  0.7252  -0.9676   0.0000   0.0000   0.0000   0.4632
   1.200   0.9414   0.00795   0.00338  -0.2004  0.7969  0.7370  -0.9798   0.0000   0.0000   0.0000   0.4605
   1.300   0.9519   0.00795   0.00340  -0.2001  0.7904  0.7475  -0.9928   0.0000   0.0000   0.0000   0.4578
   1.400   0.9635   0.00797   0.00340  -0.2001  0.7838  0.7573  -1.0065   0.0000   0.0000   0.0000   0.4552
   1.500   0.9758   0.00801   0.00340  -0.2003  0.7774  0.7660  -1.0222   0.0000   0.0000   0.0000   0.4526
   1.600   0.9884   0.00807   0.00341  -0.2006  0.7709  0.7734  -1.0387   0.0000   0.0000   0.0000   0.4501
   1.700   0.9970   0.00808   0.00347  -0.2000  0.7664  0.7836  -1.0522   0.0000   0.0000   0.0000   0.4477
   1.800   1.0057   0.00809   0.00357  -0.1994  0.7609  0.7948  -1.0657   0.0000   0.0000   0.0000   0.4452
   1.900   1.0149   0.00811   0.00360  -0.1989  0.7544  0.8057  -1.0798   0.0000   0.0000   0.0000   0.4428
   2.000   1.0250   0.00815   0.00362  -0.1986  0.7471  0.8158  -1.0946   0.0000   0.0000   0.0000   0.4405
   2.200   1.0449   0.00827   0.00365  -0.1979  0.7310  0.8349  -1.1241   0.0000   0.0000   0.0000   0.4359
   2.300   1.0533   0.00829   0.00370  -0.1972  0.7249  0.8454  -1.1380   0.0000   0.0000   0.0000   0.4337
   2.400   1.0618   0.00832   0.00374  -0.1966  0.7186  0.8556  -1.1539   0.0000   0.0000   0.0000   0.4315
   2.500   1.0710   0.00837   0.00377  -0.1961  0.7112  0.8649  -1.1706   0.0000   0.0000   0.0000   0.4293
   2.600   1.0793   0.00841   0.00379  -0.1954  0.7032  0.8749  -1.1864   0.0000   0.0000   0.0000   0.4271
   2.700   1.0865   0.00846   0.00381  -0.1945  0.6948  0.8868  -1.2015   0.0000   0.0000   0.0000   0.4250
   2.800   1.0942   0.00854   0.00384  -0.1936  0.6854  0.8996  -1.2187   0.0000   0.0000   0.0000   0.4228
   2.900   1.1012   0.00855   0.00387  -0.1927  0.6796  0.9137  -1.2362   0.0000   0.0000   0.0000   0.4207
   3.000   1.1066   0.00852   0.00386  -0.1913  0.6734  0.9342  -1.2520   0.0000   0.0000   0.0000   0.4185
   3.100   1.1128   0.00847   0.00382  -0.1902  0.6663  0.9983  -1.2688   0.0000   0.0000   0.0000   0.4164
   3.200   1.1240   0.00856   0.00387  -0.1902  0.6586  1.0000  -1.2906   0.0000   0.0000   0.0000   0.4147
   3.300   1.1345   0.00868   0.00392  -0.1901  0.6504  1.0000  -1.3119   0.0000   0.0000   0.0000   0.4129
   3.400   1.1444   0.00882   0.00399  -0.1899  0.6411  1.0000  -1.3326   0.0000   0.0000   0.0000   0.4111
   3.500   1.1549   0.00890   0.00405  -0.1898  0.6341  1.0000  -1.3541   0.0000   0.0000   0.0000   0.4094
   3.600   1.1654   0.00897   0.00412  -0.1897  0.6271  1.0000  -1.3755   0.0000   0.0000   0.0000   0.4077
   3.700   1.1754   0.00907   0.00418  -0.1895  0.6182  1.0000  -1.3973   0.0000   0.0000   0.0000   0.4060
   3.800   1.1847   0.00920   0.00424  -0.1891  0.6073  1.0000  -1.4220   0.0000   0.0000   0.0000   0.4043
   3.900   1.1926   0.00938   0.00433  -0.1885  0.5943  1.0000  -1.4464   0.0000   0.0000   0.0000   0.4026
   4.000   1.2020   0.00949   0.00440  -0.1881  0.5842  1.0000  -1.4767   0.0000   0.0000   0.0000   0.4010
   4.100   1.2112   0.00961   0.00448  -0.1877  0.5722  1.0000  -1.5069   0.0000   0.0000   0.0000   0.3993
   4.200   1.2189   0.00979   0.00456  -0.1870  0.5570  1.0000  -1.5351   0.0000   0.0000   0.0000   0.3977
   4.300   1.2255   0.01002   0.00467  -0.1861  0.5405  1.0000  -1.5617   0.0000   0.0000   0.0000   0.3960
   4.400   1.2346   0.01014   0.00476  -0.1857  0.5275  1.0000  -1.5922   0.0000   0.0000   0.0000   0.3944
   4.500   1.2419   0.01035   0.00486  -0.1850  0.5105  1.0000  -1.6202   0.0000   0.0000   0.0000   0.3928
   4.600   1.2476   0.01061   0.00500  -0.1839  0.4928  1.0000  -1.6459   0.0000   0.0000   0.0000   0.3911
   4.700   1.2567   0.01075   0.00509  -0.1835  0.4799  1.0000  -1.6768   0.0000   0.0000   0.0000   0.3896
   4.800   1.2640   0.01097   0.00521  -0.1828  0.4632  1.0000  -1.7051   0.0000   0.0000   0.0000   0.3881
   4.900   1.2695   0.01126   0.00537  -0.1817  0.4452  1.0000  -1.7307   0.0000   0.0000   0.0000   0.3865
   5.000   1.2784   0.01141   0.00548  -0.1814  0.4326  1.0000  -1.7618   0.0000   0.0000   0.0000   0.3851
   5.100   1.2857   0.01163   0.00561  -0.1807  0.4166  1.0000  -1.7906   0.0000   0.0000   0.0000   0.3836
   5.200   1.2916   0.01191   0.00577  -0.1797  0.4005  1.0000  -1.8170   0.0000   0.0000   0.0000   0.3821
   5.300   1.3001   0.01206   0.00590  -0.1792  0.3907  1.0000  -1.8621   0.0000   0.0000   0.0000   0.3807
   5.400   1.3086   0.01223   0.00602  -0.1788  0.3798  1.0000  -1.9403   0.0000   0.0000   0.0000   0.3793
   5.500   1.3160   0.01245   0.00616  -0.1781  0.3677  1.0000  -2.0154   0.0000   0.0000   0.0000   0.3779
   5.600   1.3226   0.01270   0.00633  -0.1773  0.3550  1.0000  -2.0880   0.0000   0.0000   0.0000   0.3765
   5.700   1.3309   0.01286   0.00647  -0.1768  0.3454  1.0000  -2.1682   0.0000   0.0000   0.0000   0.3751
   5.800   1.3590   0.01217   0.00667  -0.1799  0.4142  1.0000  -2.3756   0.0000   0.0000   0.0000   0.3745
   5.900   1.3647   0.01243   0.00686  -0.1789  0.4014  1.0000  -2.4525   0.0000   0.0000   0.0000   0.3731
   6.000   1.3731   0.01258   0.00701  -0.1784  0.3930  1.0000  -2.5411   0.0000   0.0000   0.0000   0.3718
   6.100   1.3817   0.01273   0.00715  -0.1779  0.3841  1.0000  -2.6309   0.0000   0.0000   0.0000   0.3705
   6.200   1.3890   0.01294   0.00731  -0.1772  0.3730  1.0000  -2.7157   0.0000   0.0000   0.0000   0.3692
   6.300   1.3948   0.01322   0.00751  -0.1763  0.3603  1.0000  -2.7940   0.0000   0.0000   0.0000   0.3679
   6.400   1.4014   0.01345   0.00770  -0.1754  0.3485  1.0000  -2.8767   0.0000   0.0000   0.0000   0.3665
   6.500   1.4099   0.01361   0.00785  -0.1750  0.3396  1.0000  -2.9684   0.0000   0.0000   0.0000   0.3653
   6.600   1.4171   0.01383   0.00803  -0.1743  0.3287  1.0000  -3.0556   0.0000   0.0000   0.0000   0.3641
   6.700   1.4233   0.01411   0.00823  -0.1734  0.3173  1.0000  -3.1384   0.0000   0.0000   0.0000   0.3628
   6.800   1.4293   0.01438   0.00846  -0.1725  0.3053  1.0000  -3.2210   0.0000   0.0000   0.0000   0.3615
   6.900   1.4379   0.01454   0.00862  -0.1721  0.2987  1.0000  -3.3163   0.0000   0.0000   0.0000   0.3603
   7.000   1.4454   0.01475   0.00881  -0.1714  0.2897  1.0000  -3.4077   0.0000   0.0000   0.0000   0.3591
   7.100   1.4517   0.01502   0.00902  -0.1706  0.2794  1.0000  -3.4942   0.0000   0.0000   0.0000   0.3579
   7.200   1.4572   0.01534   0.00927  -0.1696  0.2676  1.0000  -3.5769   0.0000   0.0000   0.0000   0.3567
   7.300   1.4643   0.01557   0.00949  -0.1690  0.2580  1.0000  -3.6686   0.0000   0.0000   0.0000   0.3555
   7.400   1.4709   0.01583   0.00971  -0.1682  0.2465  1.0000  -3.7586   0.0000   0.0000   0.0000   0.3543
   7.500   1.4753   0.01623   0.00999  -0.1671  0.2318  1.0000  -3.8385   0.0000   0.0000   0.0000   0.3531
   7.600   1.4810   0.01657   0.01026  -0.1662  0.2180  1.0000  -3.9249   0.0000   0.0000   0.0000   0.3519
   7.700   1.4869   0.01688   0.01051  -0.1654  0.2055  1.0000  -4.0139   0.0000   0.0000   0.0000   0.3507
   7.800   1.4910   0.01732   0.01083  -0.1642  0.1912  1.0000  -4.0935   0.0000   0.0000   0.0000   0.3495
   7.900   1.4971   0.01763   0.01109  -0.1634  0.1801  1.0000  -4.1837   0.0000   0.0000   0.0000   0.3484
   8.000   1.5035   0.01791   0.01135  -0.1627  0.1718  1.0000  -4.2767   0.0000   0.0000   0.0000   0.3473
   8.100   1.5085   0.01828   0.01166  -0.1617  0.1622  1.0000  -4.3625   0.0000   0.0000   0.0000   0.3461
   8.200   1.5130   0.01869   0.01199  -0.1607  0.1508  1.0000  -4.4458   0.0000   0.0000   0.0000   0.3450
   8.300   1.5196   0.01896   0.01225  -0.1599  0.1439  1.0000  -4.5408   0.0000   0.0000   0.0000   0.3439
   8.400   1.5254   0.01928   0.01255  -0.1591  0.1358  1.0000  -4.6320   0.0000   0.0000   0.0000   0.3428
   8.500   1.5295   0.01972   0.01291  -0.1580  0.1262  1.0000  -4.7151   0.0000   0.0000   0.0000   0.3417
   8.600   1.5341   0.02014   0.01326  -0.1570  0.1157  1.0000  -4.8002   0.0000   0.0000   0.0000   0.3405
   8.700   1.5404   0.02044   0.01355  -0.1563  0.1097  1.0000  -4.8947   0.0000   0.0000   0.0000   0.3395
   8.800   1.5454   0.02082   0.01388  -0.1554  0.1020  1.0000  -4.9826   0.0000   0.0000   0.0000   0.3384
   8.900   1.5492   0.02131   0.01429  -0.1543  0.0929  1.0000  -5.0625   0.0000   0.0000   0.0000   0.3373
   9.000   1.5545   0.02168   0.01463  -0.1535  0.0852  1.0000  -5.1486   0.0000   0.0000   0.0000   0.3363
   9.100   1.5580   0.02216   0.01503  -0.1524  0.0751  1.0000  -5.2189   0.0000   0.0000   0.0000   0.3352
   9.200   1.5256   0.02559   0.01786  -0.1455  0.0126  1.0000  -4.7968   0.0000   0.0000   0.0000   0.3326
   9.300   1.5293   0.02610   0.01845  -0.1443  0.0123  1.0000  -4.8428   0.0000   0.0000   0.0000   0.3315
   9.400   1.5325   0.02666   0.01908  -0.1431  0.0121  1.0000  -4.8885   0.0000   0.0000   0.0000   0.3304
   9.500   1.5353   0.02723   0.01972  -0.1419  0.0120  1.0000  -4.9341   0.0000   0.0000   0.0000   0.3292
   9.600   1.5369   0.02793   0.02059  -0.1405  0.0116  1.0000  -4.9423   0.0000   0.0000   0.0000   0.3280
   9.700   1.5392   0.02857   0.02129  -0.1392  0.0115  1.0000  -4.9849   0.0000   0.0000   0.0000   0.3269
   9.800   1.5415   0.02922   0.02202  -0.1380  0.0115  1.0000  -5.0286   0.0000   0.0000   0.0000   0.3258
   9.900   1.5432   0.02992   0.02279  -0.1367  0.0114  1.0000  -5.0710   0.0000   0.0000   0.0000   0.3247
  10.000   1.5442   0.03066   0.02360  -0.1354  0.0114  1.0000  -5.1113   0.0000   0.0000   0.0000   0.3236
  10.100   1.5451   0.03142   0.02444  -0.1340  0.0114  1.0000  -5.1505   0.0000   0.0000   0.0000   0.3226
  10.200   1.5458   0.03222   0.02531  -0.1327  0.0114  1.0000  -5.1891   0.0000   0.0000   0.0000   0.3215
  10.300   1.5465   0.03304   0.02620  -0.1314  0.0114  1.0000  -5.2269   0.0000   0.0000   0.0000   0.3205
  10.400   1.5468   0.03389   0.02713  -0.1301  0.0114  1.0000  -5.2629   0.0000   0.0000   0.0000   0.3194
  10.500   1.5465   0.03479   0.02810  -0.1288  0.0114  1.0000  -5.2960   0.0000   0.0000   0.0000   0.3184
  10.600   1.5461   0.03571   0.02910  -0.1275  0.0114  1.0000  -5.3283   0.0000   0.0000   0.0000   0.3174
  10.700   1.5458   0.03666   0.03012  -0.1262  0.0115  1.0000  -5.3602   0.0000   0.0000   0.0000   0.3164
  10.800   1.5455   0.03762   0.03116  -0.1250  0.0115  1.0000  -5.3913   0.0000   0.0000   0.0000   0.3155
  10.900   1.5447   0.03860   0.03221  -0.1237  0.0115  1.0000  -5.4202   0.0000   0.0000   0.0000   0.3145
  11.000   1.5434   0.03963   0.03332  -0.1225  0.0115  1.0000  -5.4463   0.0000   0.0000   0.0000   0.3136
  11.100   1.5423   0.04069   0.03446  -0.1213  0.0116  1.0000  -5.4724   0.0000   0.0000   0.0000   0.3127
  11.200   1.5415   0.04178   0.03562  -0.1201  0.0116  1.0000  -5.4990   0.0000   0.0000   0.0000   0.3118
  11.300   1.5411   0.04290   0.03682  -0.1191  0.0117  1.0000  -5.5256   0.0000   0.0000   0.0000   0.3110
  11.400   1.5409   0.04405   0.03805  -0.1180  0.0117  1.0000  -5.5518   0.0000   0.0000   0.0000   0.3101
  11.500   1.5405   0.04526   0.03933  -0.1170  0.0118  1.0000  -5.5762   0.0000   0.0000   0.0000   0.3093
  11.600   1.5399   0.04651   0.04066  -0.1161  0.0118  1.0000  -5.5989   0.0000   0.0000   0.0000   0.3085
  11.700   1.5396   0.04779   0.04203  -0.1151  0.0119  1.0000  -5.6208   0.0000   0.0000   0.0000   0.3078
  11.800   1.5395   0.04910   0.04343  -0.1142  0.0119  1.0000  -5.6419   0.0000   0.0000   0.0000   0.3070
  11.900   1.5395   0.05045   0.04486  -0.1133  0.0120  1.0000  -5.6615   0.0000   0.0000   0.0000   0.3062
  12.000   1.5396   0.05185   0.04636  -0.1125  0.0121  1.0000  -5.6790   0.0000   0.0000   0.0000   0.3055
  12.100   1.5397   0.05331   0.04791  -0.1116  0.0122  1.0000  -5.6934   0.0000   0.0000   0.0000   0.3048
  12.200   1.5394   0.05485   0.04955  -0.1108  0.0123  1.0000  -5.7037   0.0000   0.0000   0.0000   0.3041
  12.300   1.5388   0.05649   0.05130  -0.1100  0.0124  1.0000  -5.7084   0.0000   0.0000   0.0000   0.3034
  12.400   1.5374   0.05827   0.05319  -0.1092  0.0125  1.0000  -5.7053   0.0000   0.0000   0.0000   0.3028
  12.500   1.5350   0.06025   0.05529  -0.1084  0.0126  1.0000  -5.6905   0.0000   0.0000   0.0000   0.3022
  12.600   1.5306   0.06268   0.05787  -0.1075  0.0127  1.0000  -5.6476   0.0000   0.0000   0.0000   0.3016
  12.800   1.5293   0.06638   0.06178  -0.1062  0.0133  1.0000  -5.6274   0.0000   0.0000   0.0000   0.3005
  12.900   1.5296   0.06740   0.06285  -0.1058  0.0134  1.0000  -5.6726   0.0000   0.0000   0.0000   0.3000
  13.000   1.5297   0.06848   0.06399  -0.1054  0.0135  1.0000  -5.7141   0.0000   0.0000   0.0000   0.2996
  13.100   1.5293   0.06964   0.06521  -0.1051  0.0136  1.0000  -5.7517   0.0000   0.0000   0.0000   0.2991
  13.200   1.5282   0.07090   0.06653  -0.1047  0.0136  1.0000  -5.7835   0.0000   0.0000   0.0000   0.2988
  13.300   1.5262   0.07227   0.06796  -0.1045  0.0137  1.0000  -5.8094   0.0000   0.0000   0.0000   0.2985
  13.400   1.5240   0.07368   0.06944  -0.1043  0.0137  1.0000  -5.8331   0.0000   0.0000   0.0000   0.2982
  13.500   1.5218   0.07512   0.07096  -0.1041  0.0138  1.0000  -5.8551   0.0000   0.0000   0.0000   0.2980
  13.600   1.5194   0.07661   0.07252  -0.1039  0.0138  1.0000  -5.8745   0.0000   0.0000   0.0000   0.2978
  13.700   1.5162   0.07814   0.07413  -0.1039  0.0138  1.0000  -5.8896   0.0000   0.0000   0.0000   0.2977
  13.800   1.5122   0.07970   0.07577  -0.1039  0.0138  1.0000  -5.8993   0.0000   0.0000   0.0000   0.2977
  13.900   1.5082   0.08127   0.07741  -0.1040  0.0139  1.0000  -5.9081   0.0000   0.0000   0.0000   0.2978
  14.000   1.5043   0.08288   0.07909  -0.1041  0.0139  1.0000  -5.9161   0.0000   0.0000   0.0000   0.2978
  14.100   1.5003   0.08456   0.08085  -0.1043  0.0139  1.0000  -5.9224   0.0000   0.0000   0.0000   0.2979
  14.200   1.4955   0.08639   0.08276  -0.1047  0.0139  1.0000  -5.9239   0.0000   0.0000   0.0000   0.2982
  14.300   1.4906   0.08829   0.08473  -0.1051  0.0139  1.0000  -5.9239   0.0000   0.0000   0.0000   0.2985
  14.400   1.4859   0.09021   0.08673  -0.1056  0.0139  1.0000  -5.9238   0.0000   0.0000   0.0000   0.2989
  14.500   1.4813   0.09220   0.08880  -0.1062  0.0139  1.0000  -5.9225   0.0000   0.0000   0.0000   0.2993
  14.600   1.4760   0.09433   0.09100  -0.1070  0.0139  1.0000  -5.9172   0.0000   0.0000   0.0000   0.2998
  14.700   1.4705   0.09653   0.09328  -0.1078  0.0140  1.0000  -5.9103   0.0000   0.0000   0.0000   0.3004
  14.800   1.4653   0.09876   0.09558  -0.1087  0.0140  1.0000  -5.9035   0.0000   0.0000   0.0000   0.3011
  14.900   1.4602   0.10103   0.09792  -0.1096  0.0140  1.0000  -5.8957   0.0000   0.0000   0.0000   0.3018
  15.000   1.4544   0.10347   0.10044  -0.1108  0.0140  1.0000  -5.8839   0.0000   0.0000   0.0000   0.3026
  15.100   1.4488   0.10596   0.10301  -0.1120  0.0140  1.0000  -5.8714   0.0000   0.0000   0.0000   0.3036
  15.200   1.4434   0.10847   0.10558  -0.1132  0.0140  1.0000  -5.8590   0.0000   0.0000   0.0000   0.3045
  15.300   1.4380   0.11105   0.10823  -0.1146  0.0140  1.0000  -5.8451   0.0000   0.0000   0.0000   0.3055
  15.400   1.4319   0.11382   0.11108  -0.1161  0.0141  1.0000  -5.8272   0.0000   0.0000   0.0000   0.3067
  15.500   1.4263   0.11659   0.11391  -0.1177  0.0141  1.0000  -5.8097   0.0000   0.0000   0.0000   0.3079
  15.600   1.4209   0.11939   0.11677  -0.1192  0.0141  1.0000  -5.7919   0.0000   0.0000   0.0000   0.3091
  15.700   1.4151   0.12235   0.11981  -0.1210  0.0141  1.0000  -5.7705   0.0000   0.0000   0.0000   0.3105
  15.800   1.4091   0.12542   0.12294  -0.1229  0.0142  1.0000  -5.7471   0.0000   0.0000   0.0000   0.3120
  15.900   1.4037   0.12849   0.12607  -0.1247  0.0142  1.0000  -5.7239   0.0000   0.0000   0.0000   0.3135
  16.000   1.3981   0.13163   0.12928  -0.1266  0.0143  1.0000  -5.6986   0.0000   0.0000   0.0000   0.3150
  16.100   1.3920   0.13505   0.13276  -0.1288  0.0143  1.0000  -5.6677   0.0000   0.0000   0.0000   0.3168
  16.200   1.3863   0.13843   0.13621  -0.1309  0.0144  1.0000  -5.6368   0.0000   0.0000   0.0000   0.3185
  16.300   1.3806   0.14188   0.13972  -0.1330  0.0145  1.0000  -5.6034   0.0000   0.0000   0.0000   0.3202
  16.400   1.3740   0.14577   0.14368  -0.1355  0.0146  1.0000  -5.5585   0.0000   0.0000   0.0000   0.3224
  16.500   1.3673   0.14980   0.14778  -0.1381  0.0148  1.0000  -5.5055   0.0000   0.0000   0.0000   0.3245
  17.700   1.1958   0.25315   0.25163  -0.1826  0.0270  1.0000  -2.6575   0.0000   0.0000   0.0000   0.3774
  18.700   1.0640   0.28346   0.28201  -0.1820  0.0255  1.0000  -1.8119   0.0000   0.0000   0.0000   0.3957


