xflr5 v6.61

 Calculated polar for: E216  (10.4%)

 1 1 Reynolds number fixed          Mach number fixed         

 xtrf =   1.000 (top)        1.000 (bottom)
 Mach =   0.000     Re =     0.450 e 6     Ncrit =   9.000

  alpha     CL        CD       CDp       Cm    Top Xtr Bot Xtr   Cpmin    Chinge    XCp    
 ------- -------- --------- --------- -------- ------- ------- -------- --------- ---------
 -10.000  -0.3081   0.12664   0.12412  -0.0371  0.9949  0.0191  -1.4632   0.0000   0.0000   0.0000   0.1169
  -9.900  -0.3030   0.12534   0.12282  -0.0384  0.9941  0.0192  -1.4622   0.0000   0.0000   0.0000   0.1105
  -9.800  -0.2976   0.12395   0.12143  -0.0398  0.9933  0.0193  -1.4621   0.0000   0.0000   0.0000   0.1035
  -9.700  -0.2921   0.12251   0.11999  -0.0412  0.9925  0.0193  -1.4628   0.0000   0.0000   0.0000   0.0959
  -9.600  -0.2865   0.12103   0.11851  -0.0427  0.9918  0.0194  -1.4642   0.0000   0.0000   0.0000   0.0879
  -9.500  -0.2808   0.11953   0.11700  -0.0442  0.9911  0.0194  -1.4663   0.0000   0.0000   0.0000   0.0794
  -9.400  -0.2751   0.11800   0.11548  -0.0457  0.9905  0.0194  -1.4689   0.0000   0.0000   0.0000   0.0703
  -9.300  -0.2693   0.11646   0.11393  -0.0473  0.9899  0.0195  -1.4720   0.0000   0.0000   0.0000   0.0607
  -9.200  -0.2635   0.11491   0.11238  -0.0489  0.9894  0.0195  -1.4757   0.0000   0.0000   0.0000   0.0506
  -9.100  -0.2577   0.11336   0.11083  -0.0505  0.9890  0.0195  -1.4798   0.0000   0.0000   0.0000   0.0400
  -9.000  -0.2519   0.11182   0.10929  -0.0521  0.9886  0.0196  -1.4843   0.0000   0.0000   0.0000   0.0290
  -8.900  -0.2492   0.11045   0.10792  -0.0527  0.9869  0.0196  -1.4902   0.0000   0.0000   0.0000   0.0243
  -8.800  -0.2458   0.10904   0.10651  -0.0535  0.9855  0.0196  -1.4962   0.0000   0.0000   0.0000   0.0178
  -8.700  -0.2418   0.10758   0.10506  -0.0546  0.9842  0.0196  -1.5024   0.0000   0.0000   0.0000   0.0097
  -8.600  -0.2374   0.10608   0.10356  -0.0559  0.9830  0.0196  -1.5090   0.0000   0.0000   0.0000   0.0001
  -8.500  -0.2326   0.10455   0.10203  -0.0572  0.9820  0.0196  -1.5158   0.0000   0.0000   0.0000  -0.0107
  -8.400  -0.2275   0.10298   0.10046  -0.0587  0.9810  0.0196  -1.5231   0.0000   0.0000   0.0000  -0.0228
  -8.300  -0.2222   0.10139   0.09887  -0.0602  0.9801  0.0197  -1.5308   0.0000   0.0000   0.0000  -0.0363
  -8.200  -0.2166   0.09977   0.09725  -0.0619  0.9792  0.0197  -1.5390   0.0000   0.0000   0.0000  -0.0512
  -8.100  -0.2292   0.09304   0.09056  -0.0653  0.9782  0.0207  -1.8216   0.0000   0.0000   0.0000  -0.0497
  -8.000  -0.2259   0.09094   0.08846  -0.0669  0.9775  0.0213  -1.8304   0.0000   0.0000   0.0000  -0.0613
  -7.900  -0.2201   0.08941   0.08693  -0.0684  0.9770  0.0218  -1.8072   0.0000   0.0000   0.0000  -0.0761
  -7.800  -0.2127   0.08827   0.08579  -0.0696  0.9765  0.0222  -1.7587   0.0000   0.0000   0.0000  -0.0926
  -7.700  -0.2049   0.08724   0.08476  -0.0707  0.9761  0.0227  -1.7051   0.0000   0.0000   0.0000  -0.1109
  -7.600  -0.2035   0.08642   0.08394  -0.0704  0.9737  0.0230  -1.6792   0.0000   0.0000   0.0000  -0.1114
  -7.500  -0.2028   0.08562   0.08315  -0.0700  0.9708  0.0233  -1.6567   0.0000   0.0000   0.0000  -0.1103
  -7.400  -0.1986   0.08465   0.08219  -0.0705  0.9690  0.0238  -1.6265   0.0000   0.0000   0.0000  -0.1201
  -7.300  -0.1937   0.08358   0.08112  -0.0713  0.9674  0.0243  -1.5992   0.0000   0.0000   0.0000  -0.1337
  -7.200  -0.1882   0.08242   0.07997  -0.0724  0.9660  0.0248  -1.5752   0.0000   0.0000   0.0000  -0.1506
  -7.100  -0.1823   0.08118   0.07873  -0.0738  0.9648  0.0254  -1.5552   0.0000   0.0000   0.0000  -0.1707
  -7.000  -0.1760   0.07985   0.07740  -0.0754  0.9636  0.0260  -1.5394   0.0000   0.0000   0.0000  -0.1944
  -6.900  -0.1695   0.07843   0.07598  -0.0772  0.9625  0.0267  -1.5277   0.0000   0.0000   0.0000  -0.2219
  -6.800  -0.1628   0.07694   0.07450  -0.0792  0.9615  0.0275  -1.5203   0.0000   0.0000   0.0000  -0.2536
  -6.700  -0.1560   0.07539   0.07294  -0.0814  0.9605  0.0283  -1.5175   0.0000   0.0000   0.0000  -0.2892
  -6.600  -0.1487   0.07373   0.07129  -0.0838  0.9596  0.0292  -1.5189   0.0000   0.0000   0.0000  -0.3321
  -6.500  -0.1575   0.07324   0.07081  -0.0815  0.9534  0.0293  -1.5334   0.0000   0.0000   0.0000  -0.2845
  -6.400  -0.1552   0.07181   0.06939  -0.0826  0.9498  0.0300  -1.5414   0.0000   0.0000   0.0000  -0.2989
  -6.300  -0.1488   0.06999   0.06757  -0.0850  0.9473  0.0310  -1.5509   0.0000   0.0000   0.0000  -0.3380
  -6.200  -0.1401   0.06792   0.06550  -0.0882  0.9452  0.0322  -1.5652   0.0000   0.0000   0.0000  -0.3975
  -6.100  -0.1282   0.06573   0.06331  -0.0924  0.9435  0.0337  -1.5825   0.0000   0.0000   0.0000  -0.4900
  -6.000  -0.1101   0.06480   0.06237  -0.0962  0.9425  0.0358  -1.5535   0.0000   0.0000   0.0000  -0.6455
  -5.900  -0.0938   0.06294   0.06049  -0.1011  0.9414  0.0364  -1.5490   0.0000   0.0000   0.0000  -0.8532
  -5.800  -0.0780   0.05994   0.05748  -0.1073  0.9404  0.0366  -1.5753   0.0000   0.0000   0.0000  -1.1554
  -5.700  -0.0577   0.05498   0.05245  -0.1177  0.9394  0.0367  -1.6520   0.0000   0.0000   0.0000  -1.8278
  -5.600  -0.0406   0.05130   0.04865  -0.1248  0.9386  0.0368  -1.6998   0.0000   0.0000   0.0000  -2.8839
  -5.500  -0.0239   0.04821   0.04545  -0.1308  0.9379  0.0369  -1.7276   0.0000   0.0000   0.0000  -5.3263
  -5.400  -0.0395   0.04832   0.04558  -0.1258  0.9284  0.0369  -1.7393   0.0000   0.0000   0.0000  -2.9874
  -5.300  -0.0298   0.03601   0.03285  -0.1409  0.9246  0.0398  -2.0582   0.0000   0.0000   0.0000  -4.5603
  -5.200  -0.0166   0.03432   0.03112  -0.1431  0.9235  0.0409  -2.0130   0.0000   0.0000   0.0000  -8.5261
  -5.100  -0.0027   0.03307   0.02982  -0.1450  0.9227  0.0420  -1.9575   0.0000   0.0000   0.0000  -54.0131
  -5.000   0.0111   0.03205   0.02877  -0.1465  0.9219  0.0429  -1.8977   0.0000   0.0000   0.0000  13.6121
  -4.900   0.0259   0.03097   0.02764  -0.1482  0.9212  0.0441  -1.8420   0.0000   0.0000   0.0000   6.0570
  -4.800   0.0415   0.02983   0.02643  -0.1501  0.9206  0.0454  -1.7904   0.0000   0.0000   0.0000   3.9162
  -4.700   0.0578   0.02869   0.02520  -0.1521  0.9200  0.0470  -1.7415   0.0000   0.0000   0.0000   2.9132
  -4.600   0.0732   0.02816   0.02450  -0.1534  0.9194  0.0504  -1.6747   0.0000   0.0000   0.0000   2.3703
  -4.500   0.0912   0.02697   0.02320  -0.1555  0.9190  0.0524  -1.6365   0.0000   0.0000   0.0000   1.9754
  -4.400   0.1090   0.02601   0.02213  -0.1572  0.9186  0.0543  -1.5951   0.0000   0.0000   0.0000   1.7099
  -4.300   0.1263   0.02526   0.02129  -0.1586  0.9181  0.0560  -1.5497   0.0000   0.0000   0.0000   1.5199
  -4.200   0.1726   0.01636   0.01099  -0.1667  0.9208  0.0224  -2.0772   0.0000   0.0000   0.0000   1.2274
  -4.100   0.1867   0.01652   0.01116  -0.1669  0.9199  0.0208  -1.9864   0.0000   0.0000   0.0000   1.1543
  -4.000   0.2043   0.01563   0.01018  -0.1681  0.9196  0.0187  -1.9684   0.0000   0.0000   0.0000   1.0826
  -3.900   0.2238   0.01441   0.00880  -0.1700  0.9197  0.0176  -1.9666   0.0000   0.0000   0.0000   1.0181
  -3.800   0.2417   0.01367   0.00795  -0.1714  0.9196  0.0168  -1.9328   0.0000   0.0000   0.0000   0.9666
  -3.700   0.2592   0.01311   0.00729  -0.1727  0.9193  0.0161  -1.8867   0.0000   0.0000   0.0000   0.9231
  -3.600   0.2765   0.01265   0.00675  -0.1739  0.9190  0.0156  -1.8313   0.0000   0.0000   0.0000   0.8854
  -3.500   0.2936   0.01227   0.00629  -0.1751  0.9186  0.0153  -1.7690   0.0000   0.0000   0.0000   0.8523
  -3.400   0.3104   0.01194   0.00589  -0.1762  0.9182  0.0150  -1.7017   0.0000   0.0000   0.0000   0.8231
  -3.300   0.3269   0.01166   0.00554  -0.1772  0.9177  0.0148  -1.6305   0.0000   0.0000   0.0000   0.7971
  -3.200   0.3432   0.01142   0.00523  -0.1782  0.9172  0.0147  -1.5561   0.0000   0.0000   0.0000   0.7739
  -3.100   0.3593   0.01120   0.00497  -0.1791  0.9167  0.0148  -1.4788   0.0000   0.0000   0.0000   0.7528
  -3.000   0.3752   0.01101   0.00473  -0.1800  0.9162  0.0149  -1.3985   0.0000   0.0000   0.0000   0.7336
  -2.900   0.3910   0.01085   0.00452  -0.1809  0.9156  0.0152  -1.3160   0.0000   0.0000   0.0000   0.7161
  -2.800   0.4066   0.01070   0.00433  -0.1817  0.9150  0.0156  -1.2323   0.0000   0.0000   0.0000   0.7002
  -2.700   0.4221   0.01057   0.00417  -0.1825  0.9145  0.0163  -1.1472   0.0000   0.0000   0.0000   0.6855
  -2.600   0.4378   0.01043   0.00402  -0.1834  0.9138  0.0172  -1.0609   0.0000   0.0000   0.0000   0.6717
  -2.500   0.4541   0.01029   0.00388  -0.1844  0.9132  0.0186  -0.9750   0.0000   0.0000   0.0000   0.6587
  -2.400   0.4723   0.00997   0.00371  -0.1861  0.9127  0.0559  -0.8914   0.0000   0.0000   0.0000   0.6463
  -2.300   0.4904   0.00969   0.00358  -0.1877  0.9122  0.0926  -0.8154   0.0000   0.0000   0.0000   0.6349
  -2.200   0.4958   0.00962   0.00360  -0.1865  0.9082  0.1142  -0.7746   0.0000   0.0000   0.0000   0.6282
  -2.100   0.5044   0.00950   0.00360  -0.1861  0.9046  0.1423  -0.7280   0.0000   0.0000   0.0000   0.6207
  -2.000   0.5173   0.00933   0.00356  -0.1865  0.9023  0.1750  -0.6732   0.0000   0.0000   0.0000   0.6122
  -1.900   0.5311   0.00917   0.00351  -0.1872  0.9004  0.2060  -0.6360   0.0000   0.0000   0.0000   0.6039
  -1.800   0.5455   0.00901   0.00347  -0.1879  0.8986  0.2352  -0.6454   0.0000   0.0000   0.0000   0.5958
  -1.700   0.5605   0.00884   0.00341  -0.1888  0.8968  0.2649  -0.6550   0.0000   0.0000   0.0000   0.5880
  -1.600   0.5753   0.00872   0.00335  -0.1896  0.8949  0.2859  -0.6646   0.0000   0.0000   0.0000   0.5805
  -1.500   0.5912   0.00852   0.00331  -0.1907  0.8932  0.3290  -0.6748   0.0000   0.0000   0.0000   0.5734
  -1.400   0.6092   0.00823   0.00345  -0.1924  0.8917  0.4402  -0.6861   0.0000   0.0000   0.0000   0.5665
  -1.300   0.6261   0.00812   0.00335  -0.1936  0.8901  0.4515  -0.6969   0.0000   0.0000   0.0000   0.5597
  -1.200   0.6438   0.00801   0.00329  -0.1950  0.8885  0.4688  -0.7089   0.0000   0.0000   0.0000   0.5532
  -1.100   0.6612   0.00792   0.00323  -0.1963  0.8870  0.4835  -0.7211   0.0000   0.0000   0.0000   0.5471
  -1.000   0.6784   0.00785   0.00316  -0.1976  0.8854  0.4944  -0.7331   0.0000   0.0000   0.0000   0.5414
  -0.900   0.6959   0.00779   0.00308  -0.1989  0.8835  0.5038  -0.7453   0.0000   0.0000   0.0000   0.5358
  -0.800   0.7118   0.00772   0.00305  -0.1999  0.8811  0.5187  -0.7566   0.0000   0.0000   0.0000   0.5308
  -0.700   0.7177   0.00773   0.00310  -0.1987  0.8766  0.5288  -0.7626   0.0000   0.0000   0.0000   0.5267
  -0.600   0.7266   0.00772   0.00312  -0.1982  0.8721  0.5395  -0.7705   0.0000   0.0000   0.0000   0.5224
  -0.500   0.7379   0.00769   0.00310  -0.1981  0.8678  0.5492  -0.7805   0.0000   0.0000   0.0000   0.5181
  -0.400   0.7516   0.00767   0.00305  -0.1986  0.8639  0.5560  -0.7920   0.0000   0.0000   0.0000   0.5137
  -0.300   0.7666   0.00759   0.00301  -0.1994  0.8603  0.5712  -0.8042   0.0000   0.0000   0.0000   0.5094
  -0.200   0.7820   0.00754   0.00297  -0.2003  0.8568  0.5833  -0.8167   0.0000   0.0000   0.0000   0.5053
  -0.100   0.7978   0.00749   0.00293  -0.2012  0.8534  0.5941  -0.8295   0.0000   0.0000   0.0000   0.5013
   0.000   0.8142   0.00747   0.00289  -0.2023  0.8494  0.6036  -0.8426   0.0000   0.0000   0.0000   0.4975
   0.100   0.8245   0.00749   0.00290  -0.2021  0.8452  0.6105  -0.8525   0.0000   0.0000   0.0000   0.4940
   0.200   0.8331   0.00749   0.00293  -0.2015  0.8402  0.6207  -0.8624   0.0000   0.0000   0.0000   0.4906
   0.300   0.8437   0.00747   0.00295  -0.2013  0.8348  0.6337  -0.8735   0.0000   0.0000   0.0000   0.4872
   0.400   0.8556   0.00746   0.00296  -0.2014  0.8294  0.6452  -0.8855   0.0000   0.0000   0.0000   0.4839
   0.500   0.8684   0.00746   0.00295  -0.2017  0.8241  0.6555  -0.8981   0.0000   0.0000   0.0000   0.4807
   0.600   0.8820   0.00747   0.00293  -0.2022  0.8191  0.6636  -0.9112   0.0000   0.0000   0.0000   0.4775
   0.800   0.9071   0.00749   0.00294  -0.2027  0.8088  0.6818  -0.9362   0.0000   0.0000   0.0000   0.4715
   0.900   0.9162   0.00749   0.00299  -0.2022  0.8036  0.6924  -0.9465   0.0000   0.0000   0.0000   0.4687
   1.000   0.9262   0.00751   0.00302  -0.2019  0.7975  0.7029  -0.9584   0.0000   0.0000   0.0000   0.4658
   1.100   0.9371   0.00753   0.00303  -0.2018  0.7909  0.7128  -0.9716   0.0000   0.0000   0.0000   0.4630
   1.200   0.9488   0.00757   0.00304  -0.2018  0.7841  0.7207  -0.9854   0.0000   0.0000   0.0000   0.4603
   1.300   0.9606   0.00760   0.00305  -0.2019  0.7774  0.7309  -0.9992   0.0000   0.0000   0.0000   0.4577
   1.400   0.9722   0.00764   0.00308  -0.2019  0.7707  0.7417  -1.0130   0.0000   0.0000   0.0000   0.4551
   1.500   0.9815   0.00765   0.00313  -0.2015  0.7664  0.7513  -1.0269   0.0000   0.0000   0.0000   0.4526
   1.600   0.9913   0.00768   0.00317  -0.2011  0.7610  0.7604  -1.0413   0.0000   0.0000   0.0000   0.4501
   1.700   1.0015   0.00771   0.00320  -0.2009  0.7544  0.7685  -1.0560   0.0000   0.0000   0.0000   0.4477
   1.900   1.0218   0.00780   0.00329  -0.2003  0.7397  0.7876  -1.0856   0.0000   0.0000   0.0000   0.4429
   2.000   1.0315   0.00787   0.00333  -0.1999  0.7311  0.7985  -1.1001   0.0000   0.0000   0.0000   0.4406
   2.100   1.0409   0.00791   0.00337  -0.1995  0.7250  0.8090  -1.1145   0.0000   0.0000   0.0000   0.4383
   2.200   1.0505   0.00794   0.00342  -0.1991  0.7187  0.8183  -1.1289   0.0000   0.0000   0.0000   0.4361
   2.300   1.0600   0.00799   0.00345  -0.1987  0.7113  0.8268  -1.1443   0.0000   0.0000   0.0000   0.4339
   2.400   1.0684   0.00803   0.00349  -0.1980  0.7034  0.8372  -1.1602   0.0000   0.0000   0.0000   0.4317
   2.500   1.0768   0.00810   0.00353  -0.1974  0.6947  0.8472  -1.1761   0.0000   0.0000   0.0000   0.4295
   2.600   1.0853   0.00820   0.00357  -0.1967  0.6849  0.8570  -1.1922   0.0000   0.0000   0.0000   0.4274
   2.700   1.0947   0.00824   0.00362  -0.1964  0.6791  0.8659  -1.2095   0.0000   0.0000   0.0000   0.4253
   2.800   1.1028   0.00826   0.00366  -0.1956  0.6725  0.8762  -1.2279   0.0000   0.0000   0.0000   0.4232
   2.900   1.1102   0.00829   0.00369  -0.1948  0.6654  0.8886  -1.2459   0.0000   0.0000   0.0000   0.4212
   3.000   1.1181   0.00834   0.00372  -0.1940  0.6579  0.9016  -1.2643   0.0000   0.0000   0.0000   0.4191
   3.100   1.1244   0.00840   0.00375  -0.1929  0.6502  0.9161  -1.2812   0.0000   0.0000   0.0000   0.4170
   3.200   1.1293   0.00844   0.00376  -0.1914  0.6416  0.9368  -1.2967   0.0000   0.0000   0.0000   0.4149
   3.300   1.1362   0.00842   0.00374  -0.1904  0.6350  1.0000  -1.3143   0.0000   0.0000   0.0000   0.4129
   3.400   1.1470   0.00848   0.00380  -0.1904  0.6284  1.0000  -1.3360   0.0000   0.0000   0.0000   0.4112
   3.500   1.1572   0.00858   0.00385  -0.1903  0.6187  1.0000  -1.3571   0.0000   0.0000   0.0000   0.4095
   3.600   1.1663   0.00872   0.00392  -0.1899  0.6066  1.0000  -1.3773   0.0000   0.0000   0.0000   0.4077
   3.700   1.1740   0.00892   0.00400  -0.1892  0.5920  1.0000  -1.3965   0.0000   0.0000   0.0000   0.4059
   3.800   1.1839   0.00901   0.00407  -0.1889  0.5820  1.0000  -1.4218   0.0000   0.0000   0.0000   0.4043
   3.900   1.1930   0.00914   0.00414  -0.1885  0.5685  1.0000  -1.4479   0.0000   0.0000   0.0000   0.4026
   4.000   1.2001   0.00935   0.00424  -0.1877  0.5522  1.0000  -1.4750   0.0000   0.0000   0.0000   0.4009
   4.100   1.2079   0.00954   0.00433  -0.1871  0.5371  1.0000  -1.5031   0.0000   0.0000   0.0000   0.3992
   4.200   1.2167   0.00968   0.00441  -0.1866  0.5217  1.0000  -1.5328   0.0000   0.0000   0.0000   0.3976
   4.300   1.2231   0.00993   0.00453  -0.1857  0.5031  1.0000  -1.5592   0.0000   0.0000   0.0000   0.3959
   4.400   1.2307   0.01013   0.00464  -0.1850  0.4874  1.0000  -1.5874   0.0000   0.0000   0.0000   0.3943
   4.500   1.2393   0.01030   0.00474  -0.1846  0.4722  1.0000  -1.6172   0.0000   0.0000   0.0000   0.3928
   4.600   1.2458   0.01056   0.00488  -0.1837  0.4548  1.0000  -1.6442   0.0000   0.0000   0.0000   0.3911
   4.700   1.2536   0.01076   0.00500  -0.1831  0.4404  1.0000  -1.6729   0.0000   0.0000   0.0000   0.3896
   4.800   1.2624   0.01092   0.00511  -0.1827  0.4274  1.0000  -1.7036   0.0000   0.0000   0.0000   0.3881
   4.900   1.2700   0.01114   0.00524  -0.1820  0.4127  1.0000  -1.7323   0.0000   0.0000   0.0000   0.3867
   5.000   1.2768   0.01138   0.00539  -0.1812  0.3982  1.0000  -1.7600   0.0000   0.0000   0.0000   0.3851
   5.100   1.2860   0.01151   0.00550  -0.1809  0.3895  1.0000  -1.7917   0.0000   0.0000   0.0000   0.3837
   5.200   1.2945   0.01168   0.00562  -0.1804  0.3781  1.0000  -1.8224   0.0000   0.0000   0.0000   0.3823
   5.300   1.3019   0.01191   0.00575  -0.1798  0.3652  1.0000  -1.8746   0.0000   0.0000   0.0000   0.3809
   5.400   1.3088   0.01215   0.00592  -0.1790  0.3518  1.0000  -1.9469   0.0000   0.0000   0.0000   0.3795
   5.500   1.3179   0.01229   0.00604  -0.1787  0.3443  1.0000  -2.0286   0.0000   0.0000   0.0000   0.3781
   5.600   1.3263   0.01246   0.00617  -0.1782  0.3336  1.0000  -2.1086   0.0000   0.0000   0.0000   0.3768
   5.700   1.3332   0.01272   0.00633  -0.1775  0.3195  1.0000  -2.1836   0.0000   0.0000   0.0000   0.3754
   5.800   1.3599   0.01196   0.00649  -0.1802  0.3953  1.0000  -2.3842   0.0000   0.0000   0.0000   0.3747
   5.900   1.3690   0.01209   0.00662  -0.1799  0.3875  1.0000  -2.4760   0.0000   0.0000   0.0000   0.3734
   6.000   1.3770   0.01227   0.00677  -0.1793  0.3771  1.0000  -2.5630   0.0000   0.0000   0.0000   0.3721
   6.100   1.3836   0.01251   0.00694  -0.1785  0.3649  1.0000  -2.6439   0.0000   0.0000   0.0000   0.3708
   6.200   1.3894   0.01279   0.00714  -0.1775  0.3507  1.0000  -2.7221   0.0000   0.0000   0.0000   0.3694
   6.300   1.3984   0.01293   0.00728  -0.1771  0.3432  1.0000  -2.8147   0.0000   0.0000   0.0000   0.3682
   6.400   1.4062   0.01312   0.00744  -0.1766  0.3329  1.0000  -2.9035   0.0000   0.0000   0.0000   0.3669
   6.500   1.4131   0.01336   0.00762  -0.1758  0.3217  1.0000  -2.9882   0.0000   0.0000   0.0000   0.3656
   6.600   1.4193   0.01364   0.00783  -0.1749  0.3095  1.0000  -3.0705   0.0000   0.0000   0.0000   0.3643
   6.700   1.4275   0.01381   0.00800  -0.1744  0.3016  1.0000  -3.1628   0.0000   0.0000   0.0000   0.3631
   6.800   1.4357   0.01399   0.00816  -0.1739  0.2937  1.0000  -3.2561   0.0000   0.0000   0.0000   0.3619
   6.900   1.4428   0.01422   0.00835  -0.1732  0.2839  1.0000  -3.3455   0.0000   0.0000   0.0000   0.3607
   7.000   1.4489   0.01452   0.00857  -0.1724  0.2729  1.0000  -3.4302   0.0000   0.0000   0.0000   0.3595
   7.100   1.4554   0.01478   0.00880  -0.1716  0.2612  1.0000  -3.5174   0.0000   0.0000   0.0000   0.3582
   7.200   1.4630   0.01499   0.00899  -0.1710  0.2522  1.0000  -3.6111   0.0000   0.0000   0.0000   0.3571
   7.300   1.4685   0.01532   0.00923  -0.1700  0.2387  1.0000  -3.6958   0.0000   0.0000   0.0000   0.3559
   7.400   1.4731   0.01573   0.00952  -0.1689  0.2216  1.0000  -3.7756   0.0000   0.0000   0.0000   0.3546
   7.500   1.4801   0.01597   0.00974  -0.1683  0.2114  1.0000  -3.8690   0.0000   0.0000   0.0000   0.3535
   7.600   1.4851   0.01635   0.01001  -0.1673  0.1976  1.0000  -3.9528   0.0000   0.0000   0.0000   0.3523
   7.700   1.4902   0.01674   0.01030  -0.1663  0.1830  1.0000  -4.0370   0.0000   0.0000   0.0000   0.3511
   7.800   1.4974   0.01697   0.01053  -0.1657  0.1760  1.0000  -4.1330   0.0000   0.0000   0.0000   0.3500
   7.900   1.5035   0.01728   0.01079  -0.1648  0.1669  1.0000  -4.2237   0.0000   0.0000   0.0000   0.3489
   8.000   1.5084   0.01767   0.01109  -0.1639  0.1562  1.0000  -4.3089   0.0000   0.0000   0.0000   0.3477
   8.100   1.5146   0.01797   0.01136  -0.1631  0.1466  1.0000  -4.4009   0.0000   0.0000   0.0000   0.3466
   8.200   1.5211   0.01824   0.01162  -0.1623  0.1398  1.0000  -4.4955   0.0000   0.0000   0.0000   0.3455
   8.300   1.5261   0.01861   0.01193  -0.1614  0.1310  1.0000  -4.5830   0.0000   0.0000   0.0000   0.3444
   8.400   1.5303   0.01905   0.01228  -0.1603  0.1201  1.0000  -4.6658   0.0000   0.0000   0.0000   0.3432
   8.500   1.5365   0.01935   0.01256  -0.1595  0.1128  1.0000  -4.7598   0.0000   0.0000   0.0000   0.3421
   8.600   1.5421   0.01968   0.01286  -0.1587  0.1056  1.0000  -4.8510   0.0000   0.0000   0.0000   0.3411
   8.700   1.5464   0.02012   0.01323  -0.1576  0.0973  1.0000  -4.9349   0.0000   0.0000   0.0000   0.3400
   8.800   1.5511   0.02054   0.01358  -0.1567  0.0876  1.0000  -5.0195   0.0000   0.0000   0.0000   0.3389
   8.900   1.5569   0.02086   0.01388  -0.1559  0.0815  1.0000  -5.1092   0.0000   0.0000   0.0000   0.3378
   9.000   1.5591   0.02147   0.01435  -0.1546  0.0686  1.0000  -5.1717   0.0000   0.0000   0.0000   0.3367
   9.200   1.5351   0.02498   0.01742  -0.1471  0.0115  1.0000  -4.8407   0.0000   0.0000   0.0000   0.3331
   9.300   1.5390   0.02548   0.01799  -0.1459  0.0113  1.0000  -4.8897   0.0000   0.0000   0.0000   0.3320
   9.400   1.5426   0.02600   0.01858  -0.1448  0.0112  1.0000  -4.9391   0.0000   0.0000   0.0000   0.3308
   9.500   1.5444   0.02666   0.01940  -0.1433  0.0109  1.0000  -4.9505   0.0000   0.0000   0.0000   0.3296
   9.600   1.5469   0.02726   0.02007  -0.1421  0.0108  1.0000  -4.9940   0.0000   0.0000   0.0000   0.3285
   9.700   1.5493   0.02788   0.02075  -0.1408  0.0107  1.0000  -5.0396   0.0000   0.0000   0.0000   0.3274
   9.800   1.5515   0.02852   0.02147  -0.1395  0.0107  1.0000  -5.0852   0.0000   0.0000   0.0000   0.3262
   9.900   1.5535   0.02919   0.02221  -0.1383  0.0107  1.0000  -5.1301   0.0000   0.0000   0.0000   0.3252
  10.000   1.5550   0.02990   0.02299  -0.1370  0.0107  1.0000  -5.1728   0.0000   0.0000   0.0000   0.3241
  10.100   1.5559   0.03065   0.02381  -0.1356  0.0107  1.0000  -5.2131   0.0000   0.0000   0.0000   0.3230
  10.200   1.5566   0.03143   0.02466  -0.1343  0.0107  1.0000  -5.2525   0.0000   0.0000   0.0000   0.3219
  10.300   1.5574   0.03222   0.02553  -0.1330  0.0107  1.0000  -5.2913   0.0000   0.0000   0.0000   0.3208
  10.400   1.5580   0.03305   0.02643  -0.1317  0.0108  1.0000  -5.3290   0.0000   0.0000   0.0000   0.3198
  10.500   1.5581   0.03392   0.02737  -0.1303  0.0108  1.0000  -5.3645   0.0000   0.0000   0.0000   0.3188
  10.600   1.5577   0.03483   0.02835  -0.1290  0.0108  1.0000  -5.3973   0.0000   0.0000   0.0000   0.3178
  10.700   1.5573   0.03576   0.02936  -0.1277  0.0109  1.0000  -5.4294   0.0000   0.0000   0.0000   0.3168
  10.800   1.5570   0.03672   0.03039  -0.1264  0.0109  1.0000  -5.4609   0.0000   0.0000   0.0000   0.3158
  10.900   1.5565   0.03769   0.03143  -0.1252  0.0110  1.0000  -5.4913   0.0000   0.0000   0.0000   0.3148
  11.000   1.5556   0.03868   0.03250  -0.1239  0.0110  1.0000  -5.5190   0.0000   0.0000   0.0000   0.3139
  11.100   1.5542   0.03972   0.03362  -0.1226  0.0111  1.0000  -5.5444   0.0000   0.0000   0.0000   0.3130
  11.200   1.5532   0.04080   0.03478  -0.1214  0.0111  1.0000  -5.5701   0.0000   0.0000   0.0000   0.3121
  11.300   1.5526   0.04191   0.03597  -0.1203  0.0112  1.0000  -5.5962   0.0000   0.0000   0.0000   0.3112
  11.400   1.5522   0.04305   0.03718  -0.1192  0.0112  1.0000  -5.6219   0.0000   0.0000   0.0000   0.3104
  11.500   1.5520   0.04422   0.03843  -0.1182  0.0113  1.0000  -5.6471   0.0000   0.0000   0.0000   0.3095
  11.600   1.5516   0.04545   0.03974  -0.1172  0.0114  1.0000  -5.6701   0.0000   0.0000   0.0000   0.3087
  11.700   1.5510   0.04672   0.04110  -0.1162  0.0115  1.0000  -5.6914   0.0000   0.0000   0.0000   0.3079
  11.800   1.5507   0.04803   0.04249  -0.1153  0.0116  1.0000  -5.7117   0.0000   0.0000   0.0000   0.3071
  11.900   1.5506   0.04938   0.04393  -0.1144  0.0116  1.0000  -5.7308   0.0000   0.0000   0.0000   0.3064
  12.000   1.5505   0.05077   0.04541  -0.1135  0.0117  1.0000  -5.7480   0.0000   0.0000   0.0000   0.3056
  12.100   1.5505   0.05222   0.04695  -0.1126  0.0118  1.0000  -5.7625   0.0000   0.0000   0.0000   0.3049
  12.200   1.5503   0.05371   0.04854  -0.1118  0.0119  1.0000  -5.7756   0.0000   0.0000   0.0000   0.3042
  12.300   1.5500   0.05524   0.05016  -0.1110  0.0120  1.0000  -5.7882   0.0000   0.0000   0.0000   0.3035
  12.400   1.5494   0.05680   0.05182  -0.1102  0.0121  1.0000  -5.8001   0.0000   0.0000   0.0000   0.3029
  12.500   1.5482   0.05840   0.05353  -0.1095  0.0122  1.0000  -5.8103   0.0000   0.0000   0.0000   0.3023
  12.600   1.5463   0.06005   0.05527  -0.1088  0.0122  1.0000  -5.8191   0.0000   0.0000   0.0000   0.3017
  12.700   1.5442   0.06171   0.05703  -0.1081  0.0123  1.0000  -5.8271   0.0000   0.0000   0.0000   0.3012
  12.800   1.5418   0.06339   0.05880  -0.1075  0.0123  1.0000  -5.8350   0.0000   0.0000   0.0000   0.3007
  12.900   1.5393   0.06507   0.06058  -0.1070  0.0123  1.0000  -5.8427   0.0000   0.0000   0.0000   0.3003
  13.000   1.5365   0.06675   0.06236  -0.1065  0.0123  1.0000  -5.8507   0.0000   0.0000   0.0000   0.2999
  13.100   1.5331   0.06846   0.06416  -0.1061  0.0124  1.0000  -5.8575   0.0000   0.0000   0.0000   0.2996
  13.200   1.5290   0.07022   0.06601  -0.1057  0.0124  1.0000  -5.8620   0.0000   0.0000   0.0000   0.2993
  13.300   1.5251   0.07196   0.06784  -0.1055  0.0124  1.0000  -5.8682   0.0000   0.0000   0.0000   0.2992
  13.400   1.5215   0.07367   0.06962  -0.1053  0.0124  1.0000  -5.8771   0.0000   0.0000   0.0000   0.2990
  13.500   1.5179   0.07534   0.07138  -0.1051  0.0124  1.0000  -5.8885   0.0000   0.0000   0.0000   0.2989
  13.600   1.5136   0.07709   0.07321  -0.1051  0.0123  1.0000  -5.8958   0.0000   0.0000   0.0000   0.2988
  13.700   1.5089   0.07884   0.07505  -0.1051  0.0123  1.0000  -5.9012   0.0000   0.0000   0.0000   0.2989
  13.800   1.5047   0.08047   0.07675  -0.1052  0.0123  1.0000  -5.9105   0.0000   0.0000   0.0000   0.2989
  13.900   1.5009   0.08205   0.07840  -0.1054  0.0123  1.0000  -5.9227   0.0000   0.0000   0.0000   0.2990
  14.000   1.4967   0.08375   0.08017  -0.1057  0.0122  1.0000  -5.9316   0.0000   0.0000   0.0000   0.2992
  14.100   1.4914   0.08563   0.08214  -0.1061  0.0122  1.0000  -5.9321   0.0000   0.0000   0.0000   0.2995
  14.200   1.4869   0.08747   0.08405  -0.1065  0.0122  1.0000  -5.9378   0.0000   0.0000   0.0000   0.2998
  14.300   1.4829   0.08930   0.08594  -0.1070  0.0122  1.0000  -5.9468   0.0000   0.0000   0.0000   0.3001
  14.400   1.4783   0.09126   0.08798  -0.1076  0.0121  1.0000  -5.9500   0.0000   0.0000   0.0000   0.3005
  14.500   1.4720   0.09355   0.09035  -0.1085  0.0121  1.0000  -5.9379   0.0000   0.0000   0.0000   0.3012
  14.600   1.4667   0.09576   0.09263  -0.1093  0.0121  1.0000  -5.9322   0.0000   0.0000   0.0000   0.3018
  14.700   1.4617   0.09797   0.09491  -0.1102  0.0121  1.0000  -5.9281   0.0000   0.0000   0.0000   0.3025
  14.800   1.4550   0.10055   0.09758  -0.1114  0.0121  1.0000  -5.9060   0.0000   0.0000   0.0000   0.3034
  14.900   1.4463   0.10359   0.10070  -0.1128  0.0122  1.0000  -5.8624   0.0000   0.0000   0.0000   0.3047
  15.000   1.4375   0.10674   0.10395  -0.1143  0.0122  1.0000  -5.8121   0.0000   0.0000   0.0000   0.3060
  17.000   1.3224   0.17621   0.17458  -0.1546  0.0146  1.0000  -5.0538   0.0000   0.0000   0.0000   0.3399


