xflr5 v6.61

 Calculated polar for: E222  (10.17%)

 1 1 Reynolds number fixed          Mach number fixed         

 xtrf =   1.000 (top)        1.000 (bottom)
 Mach =   0.000     Re =     0.200 e 6     Ncrit =   9.000

  alpha     CL        CD       CDp       Cm    Top Xtr Bot Xtr   Cpmin    Chinge    XCp    
 ------- -------- --------- --------- -------- ------- ------- -------- --------- ---------
 -10.000  -0.4056   0.10813   0.10437  -0.0296  1.0000  0.0533  -1.4317   0.0000   0.0000   0.0000   0.1686
  -9.900  -0.4050   0.10685   0.10310  -0.0300  1.0000  0.0539  -1.4377   0.0000   0.0000   0.0000   0.1675
  -9.800  -0.4046   0.10557   0.10184  -0.0304  1.0000  0.0546  -1.4451   0.0000   0.0000   0.0000   0.1665
  -9.700  -0.4043   0.10428   0.10056  -0.0309  1.0000  0.0554  -1.4540   0.0000   0.0000   0.0000   0.1654
  -9.600  -0.4042   0.10299   0.09929  -0.0314  1.0000  0.0561  -1.4645   0.0000   0.0000   0.0000   0.1642
  -9.500  -0.4043   0.10171   0.09802  -0.0320  1.0000  0.0569  -1.4770   0.0000   0.0000   0.0000   0.1630
  -9.400  -0.4046   0.10043   0.09676  -0.0326  1.0000  0.0578  -1.4921   0.0000   0.0000   0.0000   0.1616
  -9.300  -0.4052   0.09919   0.09553  -0.0333  1.0000  0.0586  -1.5100   0.0000   0.0000   0.0000   0.1601
  -9.200  -0.4059   0.09803   0.09439  -0.0341  1.0000  0.0596  -1.5307   0.0000   0.0000   0.0000   0.1583
  -9.100  -0.4071   0.09700   0.09339  -0.0351  1.0000  0.0605  -1.5557   0.0000   0.0000   0.0000   0.1562
  -9.000  -0.4075   0.09626   0.09267  -0.0362  1.0000  0.0615  -1.5757   0.0000   0.0000   0.0000   0.1539
  -8.900  -0.4072   0.09562   0.09206  -0.0370  1.0000  0.0622  -1.5886   0.0000   0.0000   0.0000   0.1519
  -8.800  -0.4077   0.09476   0.09121  -0.0377  1.0000  0.0626  -1.6022   0.0000   0.0000   0.0000   0.1504
  -8.700  -0.4088   0.09371   0.09019  -0.0384  1.0000  0.0628  -1.6173   0.0000   0.0000   0.0000   0.1492
  -8.600  -0.4104   0.09257   0.08907  -0.0389  1.0000  0.0629  -1.6337   0.0000   0.0000   0.0000   0.1484
  -8.500  -0.4125   0.09136   0.08788  -0.0394  1.0000  0.0630  -1.6515   0.0000   0.0000   0.0000   0.1478
  -8.400  -0.4151   0.09011   0.08666  -0.0399  1.0000  0.0631  -1.6709   0.0000   0.0000   0.0000   0.1474
  -8.300  -0.4185   0.08883   0.08541  -0.0403  1.0000  0.0632  -1.6920   0.0000   0.0000   0.0000   0.1474
  -8.200  -0.4228   0.08755   0.08416  -0.0406  1.0000  0.0632  -1.7151   0.0000   0.0000   0.0000   0.1477
  -8.100  -0.4282   0.08628   0.08292  -0.0409  1.0000  0.0633  -1.7408   0.0000   0.0000   0.0000   0.1485
  -8.000  -0.4347   0.08499   0.08166  -0.0412  1.0000  0.0633  -1.7698   0.0000   0.0000   0.0000   0.1494
  -7.900  -0.4411   0.08339   0.08009  -0.0422  1.0000  0.0633  -1.8044   0.0000   0.0000   0.0000   0.1487
  -7.800  -0.4461   0.08165   0.07835  -0.0435  1.0000  0.0633  -1.8382   0.0000   0.0000   0.0000   0.1470
  -7.700  -0.4508   0.08026   0.07695  -0.0439  1.0000  0.0634  -1.8637   0.0000   0.0000   0.0000   0.1474
  -7.600  -0.4554   0.07894   0.07562  -0.0440  1.0000  0.0634  -1.8868   0.0000   0.0000   0.0000   0.1482
  -7.500  -0.4598   0.07766   0.07432  -0.0441  1.0000  0.0634  -1.9080   0.0000   0.0000   0.0000   0.1491
  -7.400  -0.4639   0.07639   0.07304  -0.0440  1.0000  0.0635  -1.9275   0.0000   0.0000   0.0000   0.1501
  -7.300  -0.4939   0.06891   0.06559  -0.0461  1.0000  0.0650  -2.1194   0.0000   0.0000   0.0000   0.1520
  -7.200  -0.5015   0.06604   0.06273  -0.0461  1.0000  0.0659  -2.1526   0.0000   0.0000   0.0000   0.1535
  -7.100  -0.5045   0.06427   0.06097  -0.0457  1.0000  0.0666  -2.1545   0.0000   0.0000   0.0000   0.1549
  -7.000  -0.5059   0.06288   0.05958  -0.0452  1.0000  0.0673  -2.1467   0.0000   0.0000   0.0000   0.1562
  -6.900  -0.5040   0.06198   0.05871  -0.0443  1.0000  0.0679  -2.1148   0.0000   0.0000   0.0000   0.1578
  -6.800  -0.5022   0.06118   0.05793  -0.0434  1.0000  0.0686  -2.0840   0.0000   0.0000   0.0000   0.1593
  -6.700  -0.5008   0.06037   0.05714  -0.0426  1.0000  0.0692  -2.0573   0.0000   0.0000   0.0000   0.1608
  -6.600  -0.4997   0.05954   0.05631  -0.0419  1.0000  0.0699  -2.0343   0.0000   0.0000   0.0000   0.1621
  -6.500  -0.4987   0.05866   0.05544  -0.0413  1.0000  0.0706  -2.0144   0.0000   0.0000   0.0000   0.1631
  -6.400  -0.4977   0.05773   0.05451  -0.0408  1.0000  0.0714  -1.9970   0.0000   0.0000   0.0000   0.1640
  -6.300  -0.4966   0.05675   0.05352  -0.0405  1.0000  0.0722  -1.9820   0.0000   0.0000   0.0000   0.1646
  -6.200  -0.4953   0.05573   0.05247  -0.0402  1.0000  0.0732  -1.9690   0.0000   0.0000   0.0000   0.1650
  -6.100  -0.4938   0.05464   0.05136  -0.0401  1.0000  0.0742  -1.9581   0.0000   0.0000   0.0000   0.1651
  -6.000  -0.4920   0.05351   0.05020  -0.0400  1.0000  0.0754  -1.9490   0.0000   0.0000   0.0000   0.1650
  -5.900  -0.4898   0.05233   0.04898  -0.0400  1.0000  0.0767  -1.9412   0.0000   0.0000   0.0000   0.1646
  -5.800  -0.4870   0.05112   0.04772  -0.0402  1.0000  0.0782  -1.9349   0.0000   0.0000   0.0000   0.1639
  -5.700  -0.4810   0.04975   0.04628  -0.0409  0.9996  0.0802  -1.9272   0.0000   0.0000   0.0000   0.1613
  -5.600  -0.4653   0.04813   0.04451  -0.0436  0.9978  0.0838  -1.9117   0.0000   0.0000   0.0000   0.1526
  -4.900  -0.3618   0.02759   0.02164  -0.0562  0.9882  0.0424  -2.3541   0.0000   0.0000   0.0000   0.0899
  -4.800  -0.3466   0.02659   0.02060  -0.0569  0.9873  0.0391  -2.3310   0.0000   0.0000   0.0000   0.0810
  -4.700  -0.3337   0.02454   0.01831  -0.0576  0.9862  0.0375  -2.3508   0.0000   0.0000   0.0000   0.0723
  -4.600  -0.3203   0.02312   0.01669  -0.0582  0.9848  0.0362  -2.3490   0.0000   0.0000   0.0000   0.0631
  -4.500  -0.3061   0.02193   0.01533  -0.0588  0.9833  0.0350  -2.3397   0.0000   0.0000   0.0000   0.0526
  -4.400  -0.2915   0.02089   0.01412  -0.0594  0.9818  0.0339  -2.3253   0.0000   0.0000   0.0000   0.0408
  -4.300  -0.2764   0.01997   0.01305  -0.0600  0.9803  0.0330  -2.3059   0.0000   0.0000   0.0000   0.0272
  -4.200  -0.2611   0.01916   0.01211  -0.0607  0.9788  0.0322  -2.2806   0.0000   0.0000   0.0000   0.0117
  -4.100  -0.2455   0.01844   0.01129  -0.0615  0.9774  0.0315  -2.2489   0.0000   0.0000   0.0000  -0.0063
  -4.000  -0.2296   0.01781   0.01057  -0.0623  0.9761  0.0309  -2.2120   0.0000   0.0000   0.0000  -0.0274
  -3.900  -0.2136   0.01726   0.00994  -0.0632  0.9749  0.0305  -2.1696   0.0000   0.0000   0.0000  -0.0522
  -3.800  -0.1974   0.01679   0.00939  -0.0642  0.9738  0.0302  -2.1214   0.0000   0.0000   0.0000  -0.0817
  -3.700  -0.1809   0.01640   0.00892  -0.0652  0.9728  0.0299  -2.0664   0.0000   0.0000   0.0000  -0.1173
  -3.600  -0.1684   0.01608   0.00853  -0.0655  0.9704  0.0297  -2.0123   0.0000   0.0000   0.0000  -0.1460
  -3.500  -0.1562   0.01594   0.00803  -0.0657  0.9674  0.0279  -1.8981   0.0000   0.0000   0.0000  -0.1776
  -3.400  -0.1423   0.01567   0.00770  -0.0662  0.9648  0.0279  -1.8434   0.0000   0.0000   0.0000  -0.2234
  -3.300  -0.1272   0.01543   0.00738  -0.0670  0.9625  0.0280  -1.7856   0.0000   0.0000   0.0000  -0.2851
  -3.200  -0.1113   0.01520   0.00707  -0.0679  0.9604  0.0284  -1.7257   0.0000   0.0000   0.0000  -0.3697
  -3.100  -0.0947   0.01500   0.00678  -0.0690  0.9585  0.0291  -1.6647   0.0000   0.0000   0.0000  -0.4888
  -3.000  -0.0776   0.01480   0.00651  -0.0701  0.9567  0.0303  -1.6032   0.0000   0.0000   0.0000  -0.6657
  -2.900  -0.0601   0.01462   0.00627  -0.0713  0.9552  0.0326  -1.5419   0.0000   0.0000   0.0000  -0.9522
  -2.800  -0.0423   0.01443   0.00606  -0.0726  0.9539  0.0373  -1.4836   0.0000   0.0000   0.0000  -1.4862
  -2.700  -0.0253   0.01375   0.00582  -0.0741  0.9530  0.1230  -1.4316   0.0000   0.0000   0.0000  -2.7076
  -2.600  -0.0161   0.01335   0.00571  -0.0741  0.9494  0.1874  -1.3869   0.0000   0.0000   0.0000  -4.3994
  -2.500  -0.0050   0.01291   0.00565  -0.0744  0.9462  0.2721  -1.3302   0.0000   0.0000   0.0000  -14.6338
  -2.400   0.0075   0.01256   0.00563  -0.0750  0.9434  0.3478  -1.2637   0.0000   0.0000   0.0000  10.3056
  -2.300   0.0215   0.01241   0.00559  -0.0757  0.9407  0.3838  -1.1895   0.0000   0.0000   0.0000   3.7966
  -2.200   0.0364   0.01222   0.00557  -0.0765  0.9383  0.4220  -1.1097   0.0000   0.0000   0.0000   2.3697
  -2.100   0.0520   0.01205   0.00554  -0.0774  0.9362  0.4562  -1.0262   0.0000   0.0000   0.0000   1.7501
  -2.000   0.0684   0.01192   0.00550  -0.0785  0.9343  0.4893  -0.9402   0.0000   0.0000   0.0000   1.4054
  -1.900   0.0849   0.01174   0.00548  -0.0795  0.9327  0.5204  -0.8542   0.0000   0.0000   0.0000   1.1923
  -1.800   0.1023   0.01164   0.00542  -0.0807  0.9312  0.5457  -0.7667   0.0000   0.0000   0.0000   1.0433
  -1.700   0.1193   0.01148   0.00540  -0.0818  0.9300  0.5721  -0.6818   0.0000   0.0000   0.0000   0.9392
  -1.600   0.1362   0.01134   0.00539  -0.0829  0.9289  0.6094  -0.6002   0.0000   0.0000   0.0000   0.8611
  -1.500   0.1443   0.01126   0.00545  -0.0821  0.9249  0.6469  -0.5639   0.0000   0.0000   0.0000   0.8211
  -1.400   0.1504   0.01117   0.00553  -0.0809  0.9196  0.6809  -0.5319   0.0000   0.0000   0.0000   0.7894
  -1.300   0.1611   0.01107   0.00557  -0.0804  0.9161  0.7175  -0.4921   0.0000   0.0000   0.0000   0.7510
  -1.200   0.1734   0.01099   0.00558  -0.0803  0.9132  0.7516  -0.4501   0.0000   0.0000   0.0000   0.7146
  -1.100   0.1849   0.01087   0.00560  -0.0799  0.9105  0.7789  -0.4311   0.0000   0.0000   0.0000   0.6830
  -1.000   0.1987   0.01079   0.00555  -0.0801  0.9081  0.8012  -0.4410   0.0000   0.0000   0.0000   0.6537
  -0.900   0.2115   0.01067   0.00550  -0.0799  0.9058  0.8170  -0.4508   0.0000   0.0000   0.0000   0.6284
  -0.800   0.2261   0.01058   0.00542  -0.0803  0.9037  0.8308  -0.4614   0.0000   0.0000   0.0000   0.6055
  -0.700   0.2415   0.01050   0.00533  -0.0809  0.9018  0.8433  -0.4725   0.0000   0.0000   0.0000   0.5851
  -0.600   0.2548   0.01040   0.00526  -0.0809  0.8999  0.8545  -0.4826   0.0000   0.0000   0.0000   0.5676
  -0.500   0.2611   0.01038   0.00528  -0.0797  0.8951  0.8672  -0.4887   0.0000   0.0000   0.0000   0.5550
  -0.400   0.2674   0.01038   0.00528  -0.0785  0.8895  0.8802  -0.4949   0.0000   0.0000   0.0000   0.5434
  -0.300   0.2758   0.01030   0.00523  -0.0776  0.8849  0.8918  -0.5024   0.0000   0.0000   0.0000   0.5309
  -0.200   0.2867   0.01022   0.00520  -0.0772  0.8810  0.9034  -0.5118   0.0000   0.0000   0.0000   0.5187
   0.000   0.3128   0.01000   0.00497  -0.0773  0.8743  0.9278  -0.5344   0.0000   0.0000   0.0000   0.4963
   0.100   0.3280   0.00989   0.00485  -0.0778  0.8713  0.9396  -0.5469   0.0000   0.0000   0.0000   0.4863
   0.200   0.3454   0.00979   0.00472  -0.0788  0.8686  0.9493  -0.5607   0.0000   0.0000   0.0000   0.4772
   0.300   0.3657   0.00970   0.00461  -0.0805  0.8660  0.9583  -0.5761   0.0000   0.0000   0.0000   0.4690
   0.400   0.3811   0.00966   0.00457  -0.0813  0.8615  0.9706  -0.5899   0.0000   0.0000   0.0000   0.4622
   0.500   0.4003   0.00960   0.00451  -0.0830  0.8568  0.9810  -0.6064   0.0000   0.0000   0.0000   0.4560
   0.600   0.4199   0.00953   0.00442  -0.0847  0.8518  0.9912  -0.6234   0.0000   0.0000   0.0000   0.4504
   0.700   0.4377   0.00945   0.00432  -0.0861  0.8465  1.0000  -0.6393   0.0000   0.0000   0.0000   0.4452
   0.800   0.4487   0.00940   0.00423  -0.0861  0.8409  1.0000  -0.6510   0.0000   0.0000   0.0000   0.4403
   0.900   0.4619   0.00934   0.00414  -0.0864  0.8359  1.0000  -0.6642   0.0000   0.0000   0.0000   0.4355
   1.000   0.4761   0.00931   0.00406  -0.0870  0.8312  1.0000  -0.6781   0.0000   0.0000   0.0000   0.4310
   1.100   0.4868   0.00933   0.00404  -0.0870  0.8258  1.0000  -0.6914   0.0000   0.0000   0.0000   0.4268
   1.200   0.4942   0.00935   0.00406  -0.0863  0.8193  1.0000  -0.7023   0.0000   0.0000   0.0000   0.4228
   1.300   0.5035   0.00936   0.00406  -0.0860  0.8126  1.0000  -0.7147   0.0000   0.0000   0.0000   0.4188
   1.400   0.5143   0.00935   0.00402  -0.0859  0.8061  1.0000  -0.7283   0.0000   0.0000   0.0000   0.4149
   1.500   0.5265   0.00933   0.00396  -0.0860  0.7999  1.0000  -0.7430   0.0000   0.0000   0.0000   0.4112
   1.600   0.5394   0.00933   0.00390  -0.0862  0.7938  1.0000  -0.7590   0.0000   0.0000   0.0000   0.4076
   1.700   0.5527   0.00936   0.00387  -0.0866  0.7876  1.0000  -0.7772   0.0000   0.0000   0.0000   0.4043
   1.800   0.5612   0.00938   0.00391  -0.0861  0.7812  1.0000  -0.7913   0.0000   0.0000   0.0000   0.4010
   1.900   0.5707   0.00941   0.00394  -0.0858  0.7742  1.0000  -0.8063   0.0000   0.0000   0.0000   0.3978
   2.000   0.5811   0.00943   0.00394  -0.0856  0.7671  1.0000  -0.8223   0.0000   0.0000   0.0000   0.3947
   2.100   0.5924   0.00944   0.00391  -0.0855  0.7599  1.0000  -0.8391   0.0000   0.0000   0.0000   0.3918
   2.200   0.6043   0.00946   0.00388  -0.0855  0.7528  1.0000  -0.8585   0.0000   0.0000   0.0000   0.3889
   2.300   0.6167   0.00952   0.00387  -0.0857  0.7454  1.0000  -0.8796   0.0000   0.0000   0.0000   0.3862
   2.400   0.6262   0.00955   0.00391  -0.0854  0.7389  1.0000  -0.8978   0.0000   0.0000   0.0000   0.3835
   2.500   0.6359   0.00958   0.00396  -0.0851  0.7316  1.0000  -0.9163   0.0000   0.0000   0.0000   0.3809
   2.600   0.6463   0.00962   0.00398  -0.0849  0.7242  1.0000  -0.9356   0.0000   0.0000   0.0000   0.3783
   2.700   0.6571   0.00966   0.00399  -0.0847  0.7166  1.0000  -0.9554   0.0000   0.0000   0.0000   0.3759
   2.800   0.6683   0.00971   0.00398  -0.0846  0.7089  1.0000  -0.9759   0.0000   0.0000   0.0000   0.3735
   2.900   0.6798   0.00979   0.00399  -0.0846  0.7006  1.0000  -0.9988   0.0000   0.0000   0.0000   0.3712
   3.000   0.6897   0.00983   0.00404  -0.0843  0.6935  1.0000  -1.0221   0.0000   0.0000   0.0000   0.3690
   3.100   0.6998   0.00985   0.00420  -0.0841  0.6872  1.0000  -1.0445   0.0000   0.0000   0.0000   0.3668
   3.200   0.7100   0.00989   0.00422  -0.0839  0.6791  1.0000  -1.0684   0.0000   0.0000   0.0000   0.3647
   3.300   0.7204   0.00994   0.00424  -0.0837  0.6708  1.0000  -1.0957   0.0000   0.0000   0.0000   0.3626
   3.400   0.7311   0.01001   0.00425  -0.0835  0.6625  1.0000  -1.1256   0.0000   0.0000   0.0000   0.3606
   3.500   0.7416   0.01012   0.00424  -0.0832  0.6509  1.0000  -1.1558   0.0000   0.0000   0.0000   0.3585
   3.600   0.7499   0.01011   0.00424  -0.0826  0.6359  1.0000  -1.1833   0.0000   0.0000   0.0000   0.3563
   3.700   0.7581   0.01018   0.00415  -0.0818  0.6138  1.0000  -1.2113   0.0000   0.0000   0.0000   0.3539
   3.800   0.7662   0.01028   0.00412  -0.0810  0.5910  1.0000  -1.2390   0.0000   0.0000   0.0000   0.3517
   3.900   0.7736   0.01042   0.00407  -0.0801  0.5631  1.0000  -1.2660   0.0000   0.0000   0.0000   0.3495
   4.000   0.7814   0.01056   0.00408  -0.0794  0.5365  1.0000  -1.2933   0.0000   0.0000   0.0000   0.3474
   4.100   0.7882   0.01079   0.00407  -0.0785  0.5072  1.0000  -1.3195   0.0000   0.0000   0.0000   0.3453
   4.200   0.7968   0.01094   0.00413  -0.0780  0.4835  1.0000  -1.3749   0.0000   0.0000   0.0000   0.3436
   4.300   0.8049   0.01113   0.00418  -0.0775  0.4629  1.0000  -1.4300   0.0000   0.0000   0.0000   0.3418
   4.400   0.8139   0.01129   0.00425  -0.0771  0.4490  1.0000  -1.4884   0.0000   0.0000   0.0000   0.3402
   4.500   0.8235   0.01141   0.00434  -0.0768  0.4341  1.0000  -1.5493   0.0000   0.0000   0.0000   0.3386
   4.600   0.8321   0.01160   0.00442  -0.0764  0.4169  1.0000  -1.6085   0.0000   0.0000   0.0000   0.3371
   4.700   0.8406   0.01179   0.00451  -0.0760  0.4014  1.0000  -1.6688   0.0000   0.0000   0.0000   0.3355
   4.800   0.8502   0.01193   0.00460  -0.0757  0.3861  1.0000  -1.7332   0.0000   0.0000   0.0000   0.3341
   4.900   0.8586   0.01214   0.00470  -0.0753  0.3685  1.0000  -1.7955   0.0000   0.0000   0.0000   0.3326
   5.000   0.8670   0.01235   0.00481  -0.0748  0.3522  1.0000  -1.8593   0.0000   0.0000   0.0000   0.3312
   5.100   0.8760   0.01253   0.00492  -0.0745  0.3341  1.0000  -1.9267   0.0000   0.0000   0.0000   0.3298
   5.200   0.8835   0.01282   0.00505  -0.0740  0.3133  1.0000  -1.9906   0.0000   0.0000   0.0000   0.3284
   5.300   0.8923   0.01303   0.00519  -0.0736  0.2949  1.0000  -2.0608   0.0000   0.0000   0.0000   0.3271
   5.400   0.9000   0.01333   0.00533  -0.0731  0.2725  1.0000  -2.1290   0.0000   0.0000   0.0000   0.3257
   5.500   0.9084   0.01358   0.00549  -0.0727  0.2538  1.0000  -2.2019   0.0000   0.0000   0.0000   0.3244
   5.600   0.9163   0.01388   0.00567  -0.0723  0.2326  1.0000  -2.2747   0.0000   0.0000   0.0000   0.3231
   5.700   0.9247   0.01415   0.00584  -0.0719  0.2154  1.0000  -2.3519   0.0000   0.0000   0.0000   0.3219
   5.800   0.9329   0.01443   0.00604  -0.0715  0.1965  1.0000  -2.4305   0.0000   0.0000   0.0000   0.3207
   5.900   0.9397   0.01486   0.00629  -0.0709  0.1680  1.0000  -2.5049   0.0000   0.0000   0.0000   0.3194
   6.000   0.9436   0.01560   0.00665  -0.0700  0.1200  1.0000  -2.5680   0.0000   0.0000   0.0000   0.3181
   6.100   0.9487   0.01624   0.00702  -0.0693  0.0825  1.0000  -2.6357   0.0000   0.0000   0.0000   0.3168
   6.200   0.9552   0.01675   0.00736  -0.0687  0.0589  1.0000  -2.7088   0.0000   0.0000   0.0000   0.3155
   6.300   0.9591   0.01753   0.00787  -0.0677  0.0236  1.0000  -2.7693   0.0000   0.0000   0.0000   0.3141
   6.400   0.9675   0.01784   0.00816  -0.0673  0.0202  1.0000  -2.8486   0.0000   0.0000   0.0000   0.3129
   6.500   0.9759   0.01814   0.00845  -0.0668  0.0176  1.0000  -2.9262   0.0000   0.0000   0.0000   0.3117
   6.600   0.9846   0.01842   0.00874  -0.0663  0.0158  1.0000  -3.0020   0.0000   0.0000   0.0000   0.3106
   6.700   0.9934   0.01869   0.00906  -0.0659  0.0147  1.0000  -3.0765   0.0000   0.0000   0.0000   0.3094
   6.800   1.0020   0.01898   0.00943  -0.0654  0.0140  1.0000  -3.1490   0.0000   0.0000   0.0000   0.3082
   6.900   1.0104   0.01930   0.00982  -0.0649  0.0135  1.0000  -3.2204   0.0000   0.0000   0.0000   0.3071
   7.000   1.0208   0.01933   0.01017  -0.0648  0.0155  1.0000  -3.3081   0.0000   0.0000   0.0000   0.3063
   7.100   1.0294   0.01959   0.01051  -0.0644  0.0153  1.0000  -3.4046   0.0000   0.0000   0.0000   0.3052
   7.200   1.0375   0.01991   0.01093  -0.0639  0.0149  1.0000  -3.4836   0.0000   0.0000   0.0000   0.3041
   7.300   1.0453   0.02027   0.01138  -0.0633  0.0145  1.0000  -3.5561   0.0000   0.0000   0.0000   0.3029
   7.400   1.0528   0.02066   0.01186  -0.0626  0.0142  1.0000  -3.6249   0.0000   0.0000   0.0000   0.3018
   7.500   1.0598   0.02109   0.01238  -0.0619  0.0140  1.0000  -3.6904   0.0000   0.0000   0.0000   0.3006
   7.600   1.0662   0.02154   0.01294  -0.0612  0.0138  1.0000  -3.7531   0.0000   0.0000   0.0000   0.2994
   7.700   1.0723   0.02203   0.01351  -0.0603  0.0137  1.0000  -3.8138   0.0000   0.0000   0.0000   0.2982
   7.800   1.0780   0.02254   0.01410  -0.0595  0.0136  1.0000  -3.8728   0.0000   0.0000   0.0000   0.2969
   7.900   1.0833   0.02307   0.01471  -0.0586  0.0136  1.0000  -3.9300   0.0000   0.0000   0.0000   0.2957
   8.000   1.0885   0.02363   0.01534  -0.0576  0.0135  1.0000  -3.9866   0.0000   0.0000   0.0000   0.2945
   8.100   1.0935   0.02419   0.01597  -0.0567  0.0135  1.0000  -4.0427   0.0000   0.0000   0.0000   0.2933
   8.200   1.0984   0.02478   0.01663  -0.0557  0.0135  1.0000  -4.0981   0.0000   0.0000   0.0000   0.2920
   8.300   1.1032   0.02539   0.01729  -0.0548  0.0136  1.0000  -4.1536   0.0000   0.0000   0.0000   0.2908
   8.400   1.1083   0.02600   0.01796  -0.0539  0.0136  1.0000  -4.2097   0.0000   0.0000   0.0000   0.2896
   8.500   1.1133   0.02662   0.01864  -0.0529  0.0137  1.0000  -4.2657   0.0000   0.0000   0.0000   0.2885
   8.600   1.1184   0.02724   0.01932  -0.0520  0.0138  1.0000  -4.3214   0.0000   0.0000   0.0000   0.2873
   8.700   1.1236   0.02789   0.02003  -0.0511  0.0139  1.0000  -4.3771   0.0000   0.0000   0.0000   0.2862
   8.800   1.1290   0.02856   0.02076  -0.0503  0.0140  1.0000  -4.4328   0.0000   0.0000   0.0000   0.2851
   8.900   1.1348   0.02926   0.02152  -0.0495  0.0142  1.0000  -4.4880   0.0000   0.0000   0.0000   0.2840
   9.000   1.1409   0.03000   0.02234  -0.0487  0.0144  1.0000  -4.5419   0.0000   0.0000   0.0000   0.2830
   9.100   1.1474   0.03081   0.02322  -0.0480  0.0146  1.0000  -4.5929   0.0000   0.0000   0.0000   0.2820
   9.200   1.1543   0.03170   0.02421  -0.0474  0.0149  1.0000  -4.6384   0.0000   0.0000   0.0000   0.2811
   9.300   1.1617   0.03274   0.02537  -0.0468  0.0152  1.0000  -4.6750   0.0000   0.0000   0.0000   0.2802
   9.400   1.1694   0.03401   0.02679  -0.0462  0.0157  1.0000  -4.6982   0.0000   0.0000   0.0000   0.2793
   9.500   1.1772   0.03553   0.02850  -0.0457  0.0162  1.0000  -4.7054   0.0000   0.0000   0.0000   0.2785
   9.600   1.1838   0.03725   0.03042  -0.0450  0.0169  1.0000  -4.6998   0.0000   0.0000   0.0000   0.2776
   9.700   1.1886   0.03905   0.03242  -0.0441  0.0175  1.0000  -4.6868   0.0000   0.0000   0.0000   0.2766
   9.800   1.1910   0.04086   0.03444  -0.0430  0.0181  1.0000  -4.6644   0.0000   0.0000   0.0000   0.2755
   9.900   1.1919   0.04265   0.03642  -0.0418  0.0187  1.0000  -4.6421   0.0000   0.0000   0.0000   0.2743
  10.000   1.1916   0.04440   0.03835  -0.0405  0.0193  1.0000  -4.6206   0.0000   0.0000   0.0000   0.2731
  10.100   1.1898   0.04609   0.04019  -0.0391  0.0198  1.0000  -4.5997   0.0000   0.0000   0.0000   0.2719
  10.200   1.1869   0.04772   0.04198  -0.0377  0.0202  1.0000  -4.5790   0.0000   0.0000   0.0000   0.2706
  10.300   1.1829   0.04933   0.04372  -0.0362  0.0206  1.0000  -4.5581   0.0000   0.0000   0.0000   0.2694
  10.400   1.1781   0.05091   0.04544  -0.0347  0.0210  1.0000  -4.5369   0.0000   0.0000   0.0000   0.2682
  10.500   1.1724   0.05249   0.04713  -0.0333  0.0213  1.0000  -4.5151   0.0000   0.0000   0.0000   0.2670
  10.600   1.1662   0.05408   0.04885  -0.0320  0.0216  1.0000  -4.4924   0.0000   0.0000   0.0000   0.2659
  10.700   1.1595   0.05571   0.05058  -0.0308  0.0219  1.0000  -4.4687   0.0000   0.0000   0.0000   0.2649
  10.800   1.1522   0.05734   0.05233  -0.0297  0.0221  1.0000  -4.4442   0.0000   0.0000   0.0000   0.2640
  10.900   1.1445   0.05901   0.05410  -0.0288  0.0223  1.0000  -4.4187   0.0000   0.0000   0.0000   0.2633
  11.000   1.1366   0.06074   0.05593  -0.0280  0.0225  1.0000  -4.3921   0.0000   0.0000   0.0000   0.2626
  11.100   1.1283   0.06255   0.05784  -0.0275  0.0227  1.0000  -4.3639   0.0000   0.0000   0.0000   0.2622
  11.200   1.1199   0.06442   0.05980  -0.0271  0.0229  1.0000  -4.3349   0.0000   0.0000   0.0000   0.2619
  11.300   1.1112   0.06636   0.06183  -0.0269  0.0230  1.0000  -4.3044   0.0000   0.0000   0.0000   0.2617
  11.400   1.1024   0.06836   0.06392  -0.0269  0.0231  1.0000  -4.2732   0.0000   0.0000   0.0000   0.2618
  11.500   1.0935   0.07039   0.06603  -0.0270  0.0232  1.0000  -4.2416   0.0000   0.0000   0.0000   0.2620
  11.600   1.0844   0.07244   0.06817  -0.0273  0.0233  1.0000  -4.2099   0.0000   0.0000   0.0000   0.2623
  11.700   1.0754   0.07460   0.07040  -0.0279  0.0234  1.0000  -4.1773   0.0000   0.0000   0.0000   0.2629
  11.800   1.0665   0.07687   0.07274  -0.0286  0.0234  1.0000  -4.1435   0.0000   0.0000   0.0000   0.2636
  11.900   1.0578   0.07921   0.07516  -0.0295  0.0235  1.0000  -4.1096   0.0000   0.0000   0.0000   0.2646
  12.000   1.0491   0.08166   0.07768  -0.0307  0.0235  1.0000  -4.0745   0.0000   0.0000   0.0000   0.2657
  12.100   1.0407   0.08417   0.08026  -0.0320  0.0235  1.0000  -4.0401   0.0000   0.0000   0.0000   0.2671
  12.200   1.0324   0.08677   0.08293  -0.0335  0.0236  1.0000  -4.0041   0.0000   0.0000   0.0000   0.2686
  12.300   1.0244   0.08943   0.08565  -0.0352  0.0235  1.0000  -3.9691   0.0000   0.0000   0.0000   0.2704
  12.400   1.0165   0.09220   0.08848  -0.0370  0.0235  1.0000  -3.9316   0.0000   0.0000   0.0000   0.2723
  12.500   1.0088   0.09504   0.09138  -0.0390  0.0235  1.0000  -3.8940   0.0000   0.0000   0.0000   0.2744
  12.600   1.0013   0.09801   0.09441  -0.0411  0.0234  1.0000  -3.8528   0.0000   0.0000   0.0000   0.2767
  12.700   0.9938   0.10111   0.09756  -0.0434  0.0234  1.0000  -3.8091   0.0000   0.0000   0.0000   0.2792
  12.800   0.9863   0.10437   0.10088  -0.0459  0.0233  1.0000  -3.7606   0.0000   0.0000   0.0000   0.2819
  12.900   0.9789   0.10781   0.10436  -0.0484  0.0232  1.0000  -3.7061   0.0000   0.0000   0.0000   0.2848
  13.000   0.9714   0.11148   0.10808  -0.0512  0.0231  1.0000  -3.6445   0.0000   0.0000   0.0000   0.2880
  13.100   0.9638   0.11539   0.11202  -0.0541  0.0230  1.0000  -3.5731   0.0000   0.0000   0.0000   0.2913
  13.200   0.9561   0.11954   0.11621  -0.0570  0.0230  1.0000  -3.4904   0.0000   0.0000   0.0000   0.2948
  13.300   0.9483   0.12395   0.12065  -0.0600  0.0230  1.0000  -3.3946   0.0000   0.0000   0.0000   0.2985
  13.400   0.9406   0.12855   0.12526  -0.0629  0.0230  1.0000  -3.2859   0.0000   0.0000   0.0000   0.3021
  13.500   0.9329   0.13308   0.12980  -0.0656  0.0232  1.0000  -3.1685   0.0000   0.0000   0.0000   0.3056
  13.600   0.9253   0.13749   0.13420  -0.0681  0.0235  1.0000  -3.0436   0.0000   0.0000   0.0000   0.3089
  14.500   0.9059   0.17248   0.16920  -0.0838  0.0456  1.0000  -2.0634   0.0000   0.0000   0.0000   0.3279
  14.600   0.9072   0.17443   0.17116  -0.0846  0.0454  1.0000  -2.0601   0.0000   0.0000   0.0000   0.3286
  14.700   0.9087   0.17635   0.17307  -0.0853  0.0452  1.0000  -2.0594   0.0000   0.0000   0.0000   0.3291
  14.800   0.9104   0.17824   0.17497  -0.0860  0.0449  1.0000  -2.0612   0.0000   0.0000   0.0000   0.3296
  14.900   0.9122   0.18011   0.17683  -0.0867  0.0447  1.0000  -2.0656   0.0000   0.0000   0.0000   0.3300
  15.000   0.9143   0.18196   0.17868  -0.0872  0.0444  1.0000  -2.0728   0.0000   0.0000   0.0000   0.3303
  15.100   0.9165   0.18379   0.18052  -0.0877  0.0441  1.0000  -2.0829   0.0000   0.0000   0.0000   0.3304
  15.200   0.9189   0.18564   0.18236  -0.0881  0.0438  1.0000  -2.0960   0.0000   0.0000   0.0000   0.3305
  15.300   0.9206   0.18766   0.18439  -0.0887  0.0435  1.0000  -2.1040   0.0000   0.0000   0.0000   0.3307
  15.400   0.9212   0.19008   0.18681  -0.0893  0.0430  1.0000  -2.1027   0.0000   0.0000   0.0000   0.3312
  15.500   0.9076   0.19893   0.19560  -0.0916  0.0414  1.0000  -1.9343   0.0000   0.0000   0.0000   0.3354
  15.600   0.9089   0.20123   0.19790  -0.0926  0.0414  1.0000  -1.9207   0.0000   0.0000   0.0000   0.3362
  15.700   0.9102   0.20351   0.20018  -0.0936  0.0413  1.0000  -1.9075   0.0000   0.0000   0.0000   0.3371
  15.800   0.9116   0.20578   0.20244  -0.0946  0.0413  1.0000  -1.8946   0.0000   0.0000   0.0000   0.3379
  15.900   0.9130   0.20803   0.20469  -0.0956  0.0413  1.0000  -1.8821   0.0000   0.0000   0.0000   0.3387
  16.000   0.9144   0.21025   0.20692  -0.0966  0.0413  1.0000  -1.8700   0.0000   0.0000   0.0000   0.3395
  16.100   0.9158   0.21246   0.20912  -0.0976  0.0412  1.0000  -1.8581   0.0000   0.0000   0.0000   0.3403
  16.200   0.9172   0.21465   0.21131  -0.0986  0.0412  1.0000  -1.8466   0.0000   0.0000   0.0000   0.3411
  16.300   0.9187   0.21680   0.21346  -0.0996  0.0411  1.0000  -1.8355   0.0000   0.0000   0.0000   0.3419
  16.400   0.9202   0.21893   0.21558  -0.1005  0.0411  1.0000  -1.8246   0.0000   0.0000   0.0000   0.3427
  16.500   0.9217   0.22100   0.21766  -0.1015  0.0410  1.0000  -1.8141   0.0000   0.0000   0.0000   0.3435
  16.600   0.9232   0.22303   0.21969  -0.1025  0.0409  1.0000  -1.8039   0.0000   0.0000   0.0000   0.3443
  16.700   0.9248   0.22498   0.22164  -0.1036  0.0408  1.0000  -1.7940   0.0000   0.0000   0.0000   0.3451
  16.800   0.9264   0.22683   0.22348  -0.1046  0.0406  1.0000  -1.7844   0.0000   0.0000   0.0000   0.3459
  16.900   0.9282   0.22851   0.22517  -0.1057  0.0404  1.0000  -1.7748   0.0000   0.0000   0.0000   0.3467
  17.000   0.9297   0.23002   0.22667  -0.1070  0.0399  1.0000  -1.7596   0.0000   0.0000   0.0000   0.3478
  17.100   0.9300   0.23158   0.22823  -0.1087  0.0392  1.0000  -1.7295   0.0000   0.0000   0.0000   0.3495
  17.200   0.9300   0.23340   0.23004  -0.1103  0.0384  1.0000  -1.6978   0.0000   0.0000   0.0000   0.3512
  17.300   0.9307   0.23544   0.23208  -0.1117  0.0377  1.0000  -1.6744   0.0000   0.0000   0.0000   0.3524
  17.400   0.9318   0.23757   0.23421  -0.1128  0.0369  1.0000  -1.6576   0.0000   0.0000   0.0000   0.3533
  17.500   0.9330   0.23973   0.23638  -0.1138  0.0363  1.0000  -1.6450   0.0000   0.0000   0.0000   0.3542
  17.600   0.9343   0.24190   0.23855  -0.1148  0.0357  1.0000  -1.6352   0.0000   0.0000   0.0000   0.3549
  17.700   0.9357   0.24407   0.24072  -0.1156  0.0351  1.0000  -1.6274   0.0000   0.0000   0.0000   0.3555
  17.800   0.9372   0.24623   0.24289  -0.1165  0.0345  1.0000  -1.6211   0.0000   0.0000   0.0000   0.3561
  17.900   0.9386   0.24839   0.24505  -0.1173  0.0340  1.0000  -1.6161   0.0000   0.0000   0.0000   0.3566
  18.000   0.9400   0.25055   0.24721  -0.1181  0.0335  1.0000  -1.6120   0.0000   0.0000   0.0000   0.3572
  18.100   0.9415   0.25270   0.24936  -0.1189  0.0330  1.0000  -1.6089   0.0000   0.0000   0.0000   0.3577
  18.200   0.9429   0.25484   0.25151  -0.1196  0.0325  1.0000  -1.6067   0.0000   0.0000   0.0000   0.3581
  18.300   0.9443   0.25698   0.25364  -0.1204  0.0321  1.0000  -1.6052   0.0000   0.0000   0.0000   0.3586
  18.400   0.9457   0.25910   0.25578  -0.1211  0.0317  1.0000  -1.6046   0.0000   0.0000   0.0000   0.3590
  18.500   0.9472   0.26122   0.25790  -0.1218  0.0312  1.0000  -1.6047   0.0000   0.0000   0.0000   0.3594
  18.600   0.9485   0.26333   0.26002  -0.1225  0.0308  1.0000  -1.6056   0.0000   0.0000   0.0000   0.3598
  18.700   0.9499   0.26544   0.26212  -0.1232  0.0305  1.0000  -1.6074   0.0000   0.0000   0.0000   0.3602
  18.800   0.9513   0.26753   0.26422  -0.1238  0.0301  1.0000  -1.6099   0.0000   0.0000   0.0000   0.3605
  18.900   0.9526   0.26961   0.26630  -0.1244  0.0297  1.0000  -1.6134   0.0000   0.0000   0.0000   0.3609
  19.000   0.9540   0.27167   0.26837  -0.1250  0.0294  1.0000  -1.6179   0.0000   0.0000   0.0000   0.3612
  19.100   0.9553   0.27372   0.27043  -0.1256  0.0290  1.0000  -1.6234   0.0000   0.0000   0.0000   0.3614
  19.200   0.9566   0.27576   0.27248  -0.1262  0.0287  1.0000  -1.6299   0.0000   0.0000   0.0000   0.3617
  19.300   0.9578   0.27779   0.27451  -0.1267  0.0284  1.0000  -1.6377   0.0000   0.0000   0.0000   0.3619
  19.400   0.9591   0.27980   0.27653  -0.1272  0.0281  1.0000  -1.6469   0.0000   0.0000   0.0000   0.3621
  19.500   0.9604   0.28179   0.27853  -0.1276  0.0278  1.0000  -1.6576   0.0000   0.0000   0.0000   0.3622
  19.600   0.9617   0.28378   0.28052  -0.1280  0.0275  1.0000  -1.6700   0.0000   0.0000   0.0000   0.3623
  19.700   0.9629   0.28575   0.28250  -0.1284  0.0272  1.0000  -1.6842   0.0000   0.0000   0.0000   0.3623
  19.800   0.9643   0.28772   0.28449  -0.1287  0.0270  1.0000  -1.7004   0.0000   0.0000   0.0000   0.3623
  19.900   0.9656   0.28970   0.28648  -0.1289  0.0267  1.0000  -1.7190   0.0000   0.0000   0.0000   0.3622
  20.000   0.9671   0.29172   0.28850  -0.1291  0.0264  1.0000  -1.7404   0.0000   0.0000   0.0000   0.3620
  20.100   0.9688   0.29380   0.29060  -0.1291  0.0262  1.0000  -1.7652   0.0000   0.0000   0.0000   0.3616
  20.200   0.9708   0.29606   0.29288  -0.1290  0.0259  1.0000  -1.7945   0.0000   0.0000   0.0000   0.3611
  20.300   0.9724   0.29873   0.29556  -0.1289  0.0255  1.0000  -1.8188   0.0000   0.0000   0.0000   0.3606
  20.400   0.9617   0.30764   0.30444  -0.1291  0.0245  1.0000  -1.6796   0.0000   0.0000   0.0000   0.3624
  20.500   0.9607   0.30967   0.30648  -0.1296  0.0245  1.0000  -1.6667   0.0000   0.0000   0.0000   0.3630
  20.600   0.9595   0.31164   0.30846  -0.1301  0.0245  1.0000  -1.6532   0.0000   0.0000   0.0000   0.3636
  20.700   0.9578   0.31351   0.31034  -0.1306  0.0245  1.0000  -1.6389   0.0000   0.0000   0.0000   0.3642
  20.800   0.9556   0.31526   0.31210  -0.1309  0.0245  1.0000  -1.6235   0.0000   0.0000   0.0000   0.3648
  20.900   0.9527   0.31682   0.31369  -0.1312  0.0245  1.0000  -1.6065   0.0000   0.0000   0.0000   0.3654
  21.000   0.9145   0.31018   0.30714  -0.1274  0.0245  1.0000  -1.5069   0.0000   0.0000   0.0000   0.3675
  21.100   0.9035   0.30881   0.30581  -0.1267  0.0245  1.0000  -1.4715   0.0000   0.0000   0.0000   0.3685
  21.200   0.8964   0.30833   0.30536  -0.1264  0.0245  1.0000  -1.4457   0.0000   0.0000   0.0000   0.3693
  21.500   0.8822   0.30829   0.30544  -0.1264  0.0244  1.0000  -1.3814   0.0000   0.0000   0.0000   0.3715
  21.600   0.8786   0.30846   0.30563  -0.1265  0.0244  1.0000  -1.3641   0.0000   0.0000   0.0000   0.3721
  21.700   0.8754   0.30870   0.30588  -0.1267  0.0244  1.0000  -1.3480   0.0000   0.0000   0.0000   0.3728
  21.800   0.8725   0.30897   0.30617  -0.1269  0.0244  1.0000  -1.3328   0.0000   0.0000   0.0000   0.3734
  21.900   0.8698   0.30928   0.30649  -0.1271  0.0244  1.0000  -1.3182   0.0000   0.0000   0.0000   0.3740
  22.000   0.8673   0.30958   0.30681  -0.1273  0.0243  1.0000  -1.3040   0.0000   0.0000   0.0000   0.3746
  22.100   0.8649   0.30991   0.30715  -0.1275  0.0243  1.0000  -1.2903   0.0000   0.0000   0.0000   0.3752
  22.200   0.8627   0.31025   0.30750  -0.1278  0.0243  1.0000  -1.2771   0.0000   0.0000   0.0000   0.3758
  22.300   0.8607   0.31061   0.30787  -0.1281  0.0243  1.0000  -1.2644   0.0000   0.0000   0.0000   0.3764
  22.400   0.8588   0.31098   0.30826  -0.1284  0.0242  1.0000  -1.2521   0.0000   0.0000   0.0000   0.3770
  22.500   0.8570   0.31133   0.30862  -0.1287  0.0242  1.0000  -1.2397   0.0000   0.0000   0.0000   0.3776
  22.600   0.8552   0.31170   0.30900  -0.1291  0.0242  1.0000  -1.2276   0.0000   0.0000   0.0000   0.3782
  22.700   0.8536   0.31206   0.30938  -0.1294  0.0241  1.0000  -1.2159   0.0000   0.0000   0.0000   0.3788
  22.800   0.8520   0.31242   0.30975  -0.1298  0.0241  1.0000  -1.2041   0.0000   0.0000   0.0000   0.3794
  22.900   0.8502   0.31271   0.31004  -0.1302  0.0240  1.0000  -1.1892   0.0000   0.0000   0.0000   0.3802
  23.000   0.8484   0.31300   0.31035  -0.1307  0.0240  1.0000  -1.1743   0.0000   0.0000   0.0000   0.3809
  23.100   0.8468   0.31331   0.31067  -0.1311  0.0239  1.0000  -1.1597   0.0000   0.0000   0.0000   0.3816
  23.200   0.8453   0.31364   0.31101  -0.1316  0.0238  1.0000  -1.1452   0.0000   0.0000   0.0000   0.3824
  23.300   0.8439   0.31400   0.31138  -0.1321  0.0238  1.0000  -1.1308   0.0000   0.0000   0.0000   0.3831
  23.400   0.8428   0.31438   0.31177  -0.1327  0.0236  1.0000  -1.1163   0.0000   0.0000   0.0000   0.3839
  23.500   0.8417   0.31481   0.31221  -0.1332  0.0235  1.0000  -1.1018   0.0000   0.0000   0.0000   0.3846
  23.600   0.8409   0.31530   0.31271  -0.1338  0.0234  1.0000  -1.0872   0.0000   0.0000   0.0000   0.3853
  23.700   0.8403   0.31586   0.31327  -0.1344  0.0232  1.0000  -1.0725   0.0000   0.0000   0.0000   0.3861
  23.800   0.8399   0.31648   0.31391  -0.1351  0.0229  1.0000  -1.0582   0.0000   0.0000   0.0000   0.3867
  23.900   0.8396   0.31717   0.31460  -0.1356  0.0226  1.0000  -1.0446   0.0000   0.0000   0.0000   0.3874
  24.000   0.8393   0.31788   0.31533  -0.1362  0.0224  1.0000  -1.0323   0.0000   0.0000   0.0000   0.3879
  24.100   0.8391   0.31860   0.31606  -0.1367  0.0220  1.0000  -1.0212   0.0000   0.0000   0.0000   0.3884
  24.200   0.8388   0.31932   0.31679  -0.1371  0.0217  1.0000  -1.0114   0.0000   0.0000   0.0000   0.3889
  24.300   0.8385   0.32003   0.31750  -0.1376  0.0214  1.0000  -1.0027   0.0000   0.0000   0.0000   0.3893
  24.400   0.8381   0.32072   0.31821  -0.1380  0.0212  1.0000  -0.9948   0.0000   0.0000   0.0000   0.3898
  24.500   0.8378   0.32141   0.31891  -0.1384  0.0209  1.0000  -0.9875   0.0000   0.0000   0.0000   0.3902
  24.600   0.8374   0.32209   0.31960  -0.1387  0.0206  1.0000  -0.9809   0.0000   0.0000   0.0000   0.3905
  24.700   0.8371   0.32277   0.32029  -0.1391  0.0203  1.0000  -0.9748   0.0000   0.0000   0.0000   0.3909
  24.800   0.8368   0.32344   0.32097  -0.1395  0.0201  1.0000  -0.9690   0.0000   0.0000   0.0000   0.3913
  24.900   0.8365   0.32411   0.32165  -0.1399  0.0198  1.0000  -0.9636   0.0000   0.0000   0.0000   0.3917
  25.000   0.8362   0.32477   0.32232  -0.1403  0.0196  1.0000  -0.9586   0.0000   0.0000   0.0000   0.3920
  25.100   0.8359   0.32544   0.32300  -0.1406  0.0194  1.0000  -0.9538   0.0000   0.0000   0.0000   0.3924
  25.200   0.8356   0.32610   0.32367  -0.1410  0.0191  1.0000  -0.9493   0.0000   0.0000   0.0000   0.3927
  25.300   0.8354   0.32676   0.32434  -0.1414  0.0189  1.0000  -0.9450   0.0000   0.0000   0.0000   0.3931
  25.400   0.8351   0.32742   0.32501  -0.1418  0.0187  1.0000  -0.9409   0.0000   0.0000   0.0000   0.3934
  25.500   0.8349   0.32808   0.32568  -0.1421  0.0185  1.0000  -0.9371   0.0000   0.0000   0.0000   0.3938
  25.600   0.8347   0.32874   0.32635  -0.1425  0.0183  1.0000  -0.9335   0.0000   0.0000   0.0000   0.3941
  25.700   0.8345   0.32939   0.32701  -0.1429  0.0181  1.0000  -0.9304   0.0000   0.0000   0.0000   0.3944
  25.800   0.8343   0.33004   0.32767  -0.1433  0.0178  1.0000  -0.9276   0.0000   0.0000   0.0000   0.3947
  25.900   0.8341   0.33070   0.32834  -0.1436  0.0176  1.0000  -0.9250   0.0000   0.0000   0.0000   0.3951
  26.000   0.8340   0.33135   0.32900  -0.1440  0.0174  1.0000  -0.9227   0.0000   0.0000   0.0000   0.3954
  26.100   0.8338   0.33199   0.32965  -0.1444  0.0172  1.0000  -0.9206   0.0000   0.0000   0.0000   0.3957
  26.200   0.8337   0.33264   0.33031  -0.1448  0.0169  1.0000  -0.9187   0.0000   0.0000   0.0000   0.3960
  26.300   0.8336   0.33328   0.33097  -0.1451  0.0167  1.0000  -0.9171   0.0000   0.0000   0.0000   0.3963
  26.400   0.8335   0.33393   0.33162  -0.1455  0.0165  1.0000  -0.9156   0.0000   0.0000   0.0000   0.3966
  26.500   0.8334   0.33457   0.33227  -0.1459  0.0164  1.0000  -0.9143   0.0000   0.0000   0.0000   0.3969
  26.600   0.8333   0.33521   0.33292  -0.1463  0.0162  1.0000  -0.9133   0.0000   0.0000   0.0000   0.3972
  26.700   0.8332   0.33585   0.33357  -0.1467  0.0160  1.0000  -0.9125   0.0000   0.0000   0.0000   0.3975
  26.800   0.8331   0.33648   0.33421  -0.1470  0.0158  1.0000  -0.9119   0.0000   0.0000   0.0000   0.3978
  26.900   0.8330   0.33712   0.33486  -0.1474  0.0157  1.0000  -0.9115   0.0000   0.0000   0.0000   0.3980
  27.000   0.8330   0.33775   0.33550  -0.1478  0.0155  1.0000  -0.9114   0.0000   0.0000   0.0000   0.3983
  27.100   0.8329   0.33838   0.33614  -0.1482  0.0153  1.0000  -0.9115   0.0000   0.0000   0.0000   0.3986
  27.200   0.8329   0.33900   0.33677  -0.1485  0.0152  1.0000  -0.9118   0.0000   0.0000   0.0000   0.3989
  27.300   0.8328   0.33963   0.33741  -0.1489  0.0150  1.0000  -0.9123   0.0000   0.0000   0.0000   0.3991
  27.400   0.8328   0.34025   0.33804  -0.1493  0.0149  1.0000  -0.9132   0.0000   0.0000   0.0000   0.3994
  27.500   0.8327   0.34086   0.33866  -0.1497  0.0147  1.0000  -0.9142   0.0000   0.0000   0.0000   0.3996
  27.600   0.8327   0.34148   0.33928  -0.1500  0.0146  1.0000  -0.9156   0.0000   0.0000   0.0000   0.3999
  27.700   0.8327   0.34209   0.33990  -0.1504  0.0145  1.0000  -0.9172   0.0000   0.0000   0.0000   0.4001
  27.800   0.8327   0.34269   0.34052  -0.1508  0.0143  1.0000  -0.9192   0.0000   0.0000   0.0000   0.4004
  27.900   0.8326   0.34329   0.34113  -0.1511  0.0142  1.0000  -0.9214   0.0000   0.0000   0.0000   0.4006
  28.000   0.8326   0.34389   0.34173  -0.1515  0.0141  1.0000  -0.9240   0.0000   0.0000   0.0000   0.4008
  28.100   0.8326   0.34448   0.34233  -0.1519  0.0140  1.0000  -0.9269   0.0000   0.0000   0.0000   0.4011
  28.200   0.8326   0.34507   0.34299  -0.1522  0.0138  1.0000  -0.9304   0.0000   0.0000   0.0000   0.4013
  28.300   0.8325   0.34565   0.34358  -0.1526  0.0137  1.0000  -0.9341   0.0000   0.0000   0.0000   0.4015
  28.400   0.8325   0.34622   0.34417  -0.1529  0.0136  1.0000  -0.9383   0.0000   0.0000   0.0000   0.4017
  28.500   0.8325   0.34679   0.34474  -0.1532  0.0135  1.0000  -0.9430   0.0000   0.0000   0.0000   0.4019
  28.600   0.8325   0.34735   0.34532  -0.1536  0.0134  1.0000  -0.9482   0.0000   0.0000   0.0000   0.4020
  28.700   0.8324   0.34791   0.34589  -0.1539  0.0133  1.0000  -0.9540   0.0000   0.0000   0.0000   0.4022
  28.800   0.8324   0.34847   0.34645  -0.1542  0.0132  1.0000  -0.9603   0.0000   0.0000   0.0000   0.4023
  28.900   0.8324   0.34903   0.34703  -0.1545  0.0131  1.0000  -0.9673   0.0000   0.0000   0.0000   0.4024
  29.000   0.8324   0.34960   0.34760  -0.1547  0.0130  1.0000  -0.9748   0.0000   0.0000   0.0000   0.4025
  29.100   0.8324   0.35018   0.34820  -0.1550  0.0129  1.0000  -0.9831   0.0000   0.0000   0.0000   0.4026
  29.200   0.8324   0.35080   0.34882  -0.1552  0.0128  1.0000  -0.9920   0.0000   0.0000   0.0000   0.4026
  29.300   0.8325   0.35147   0.34950  -0.1554  0.0127  1.0000  -1.0015   0.0000   0.0000   0.0000   0.4026
  29.400   0.8326   0.35225   0.35029  -0.1555  0.0126  1.0000  -1.0114   0.0000   0.0000   0.0000   0.4025
  29.500   0.8328   0.35325   0.35131  -0.1556  0.0124  1.0000  -1.0214   0.0000   0.0000   0.0000   0.4023


