xflr5 v6.61

 Calculated polar for: E222  (10.17%)

 1 1 Reynolds number fixed          Mach number fixed         

 xtrf =   1.000 (top)        1.000 (bottom)
 Mach =   0.000     Re =     0.563 e 6     Ncrit =   9.000

  alpha     CL        CD       CDp       Cm    Top Xtr Bot Xtr   Cpmin    Chinge    XCp    
 ------- -------- --------- --------- -------- ------- ------- -------- --------- ---------
 -10.000  -0.4024   0.10379   0.10151  -0.0323  1.0000  0.0227  -1.7349   0.0000   0.0000   0.0000   0.1608
  -9.900  -0.4019   0.10236   0.10009  -0.0327  1.0000  0.0227  -1.7478   0.0000   0.0000   0.0000   0.1597
  -9.800  -0.4015   0.10092   0.09865  -0.0332  1.0000  0.0228  -1.7615   0.0000   0.0000   0.0000   0.1585
  -9.700  -0.4012   0.09946   0.09721  -0.0336  1.0000  0.0228  -1.7760   0.0000   0.0000   0.0000   0.1574
  -9.600  -0.4011   0.09800   0.09575  -0.0341  1.0000  0.0228  -1.7914   0.0000   0.0000   0.0000   0.1564
  -9.500  -0.4011   0.09652   0.09428  -0.0346  1.0000  0.0228  -1.8077   0.0000   0.0000   0.0000   0.1554
  -9.400  -0.4013   0.09503   0.09281  -0.0350  1.0000  0.0228  -1.8248   0.0000   0.0000   0.0000   0.1544
  -9.300  -0.4016   0.09353   0.09132  -0.0355  1.0000  0.0228  -1.8430   0.0000   0.0000   0.0000   0.1534
  -9.200  -0.4021   0.09203   0.08982  -0.0359  1.0000  0.0228  -1.8621   0.0000   0.0000   0.0000   0.1525
  -9.100  -0.4028   0.09050   0.08831  -0.0364  1.0000  0.0228  -1.8823   0.0000   0.0000   0.0000   0.1517
  -9.000  -0.4037   0.08896   0.08678  -0.0368  1.0000  0.0229  -1.9036   0.0000   0.0000   0.0000   0.1508
  -8.900  -0.4048   0.08738   0.08521  -0.0373  1.0000  0.0229  -1.9262   0.0000   0.0000   0.0000   0.1500
  -8.800  -0.4139   0.08400   0.08188  -0.0385  1.0000  0.0230  -2.0467   0.0000   0.0000   0.0000   0.1493
  -8.700  -0.4240   0.08058   0.07848  -0.0397  1.0000  0.0232  -2.1712   0.0000   0.0000   0.0000   0.1488
  -8.600  -0.4321   0.07777   0.07569  -0.0407  1.0000  0.0233  -2.2634   0.0000   0.0000   0.0000   0.1485
  -8.500  -0.4390   0.07529   0.07323  -0.0415  1.0000  0.0234  -2.3386   0.0000   0.0000   0.0000   0.1482
  -8.400  -0.4451   0.07302   0.07099  -0.0423  1.0000  0.0235  -2.4020   0.0000   0.0000   0.0000   0.1479
  -8.300  -0.4504   0.07092   0.06890  -0.0430  1.0000  0.0234  -2.4552   0.0000   0.0000   0.0000   0.1475
  -8.200  -0.4545   0.06905   0.06704  -0.0438  1.0000  0.0234  -2.4945   0.0000   0.0000   0.0000   0.1467
  -8.100  -0.4587   0.06783   0.06583  -0.0441  1.0000  0.0233  -2.5102   0.0000   0.0000   0.0000   0.1471
  -8.000  -0.4637   0.06721   0.06522  -0.0438  1.0000  0.0232  -2.5087   0.0000   0.0000   0.0000   0.1491
  -7.900  -0.4690   0.06688   0.06490  -0.0431  1.0000  0.0231  -2.4988   0.0000   0.0000   0.0000   0.1518
  -7.800  -0.4739   0.06627   0.06429  -0.0430  1.0000  0.0231  -2.4953   0.0000   0.0000   0.0000   0.1532
  -7.700  -0.4794   0.06525   0.06325  -0.0432  1.0000  0.0230  -2.5080   0.0000   0.0000   0.0000   0.1540
  -7.600  -0.4830   0.05831   0.05615  -0.0518  0.9973  0.0233  -2.7142   0.0000   0.0000   0.0000   0.1369
  -7.500  -0.4899   0.05076   0.04835  -0.0592  0.9938  0.0238  -2.9553   0.0000   0.0000   0.0000   0.1232
  -7.400  -0.4913   0.04519   0.04260  -0.0638  0.9911  0.0247  -3.0877   0.0000   0.0000   0.0000   0.1143
  -7.300  -0.4838   0.04323   0.04060  -0.0657  0.9899  0.0256  -3.0406   0.0000   0.0000   0.0000   0.1083
  -7.200  -0.4735   0.04242   0.03978  -0.0671  0.9890  0.0265  -2.9431   0.0000   0.0000   0.0000   0.1026
  -7.100  -0.4617   0.04236   0.03976  -0.0678  0.9885  0.0274  -2.8130   0.0000   0.0000   0.0000   0.0975
  -7.000  -0.4498   0.04202   0.03943  -0.0689  0.9879  0.0284  -2.7037   0.0000   0.0000   0.0000   0.0912
  -6.900  -0.4378   0.04124   0.03862  -0.0703  0.9873  0.0295  -2.6215   0.0000   0.0000   0.0000   0.0837
  -6.800  -0.4298   0.04027   0.03759  -0.0709  0.9850  0.0304  -2.5717   0.0000   0.0000   0.0000   0.0794
  -6.700  -0.4203   0.03911   0.03637  -0.0719  0.9830  0.0315  -2.5281   0.0000   0.0000   0.0000   0.0733
  -6.600  -0.4096   0.03787   0.03504  -0.0731  0.9812  0.0327  -2.4894   0.0000   0.0000   0.0000   0.0659
  -6.500  -0.3980   0.03666   0.03375  -0.0743  0.9796  0.0341  -2.4517   0.0000   0.0000   0.0000   0.0578
  -6.400  -0.3854   0.03560   0.03260  -0.0753  0.9783  0.0356  -2.4124   0.0000   0.0000   0.0000   0.0488
  -6.300  -0.3723   0.03468   0.03159  -0.0764  0.9772  0.0369  -2.3714   0.0000   0.0000   0.0000   0.0391
  -6.200  -0.3580   0.03432   0.03116  -0.0771  0.9763  0.0383  -2.3125   0.0000   0.0000   0.0000   0.0287
  -6.100  -0.3418   0.03517   0.03199  -0.0774  0.9757  0.0397  -2.2149   0.0000   0.0000   0.0000   0.0175
  -6.000  -0.3258   0.03588   0.03265  -0.0779  0.9751  0.0404  -2.1258   0.0000   0.0000   0.0000   0.0048
  -5.900  -0.3121   0.03512   0.03179  -0.0790  0.9743  0.0406  -2.0832   0.0000   0.0000   0.0000  -0.0093
  -5.800  -0.2987   0.03400   0.03057  -0.0802  0.9736  0.0407  -2.0501   0.0000   0.0000   0.0000  -0.0248
  -5.700  -0.3019   0.02539   0.02142  -0.0830  0.9705  0.0445  -2.2531   0.0000   0.0000   0.0000  -0.0312
  -5.600  -0.2942   0.02448   0.02048  -0.0828  0.9674  0.0457  -2.2072   0.0000   0.0000   0.0000  -0.0379
  -5.500  -0.2831   0.02373   0.01970  -0.0832  0.9654  0.0469  -2.1488   0.0000   0.0000   0.0000  -0.0504
  -5.400  -0.2708   0.02307   0.01902  -0.0838  0.9638  0.0482  -2.0862   0.0000   0.0000   0.0000  -0.0658
  -5.300  -0.2580   0.02245   0.01838  -0.0844  0.9624  0.0496  -2.0240   0.0000   0.0000   0.0000  -0.0838
  -5.200  -0.2447   0.02184   0.01774  -0.0850  0.9612  0.0512  -1.9644   0.0000   0.0000   0.0000  -0.1044
  -5.100  -0.2311   0.02125   0.01710  -0.0857  0.9601  0.0530  -1.9074   0.0000   0.0000   0.0000  -0.1279
  -5.000  -0.2173   0.02070   0.01649  -0.0864  0.9592  0.0551  -1.8526   0.0000   0.0000   0.0000  -0.1546
  -4.900  -0.2032   0.02022   0.01595  -0.0870  0.9583  0.0572  -1.7984   0.0000   0.0000   0.0000  -0.1857
  -4.800  -0.1886   0.01985   0.01553  -0.0876  0.9576  0.0593  -1.7428   0.0000   0.0000   0.0000  -0.2226
  -4.600  -0.1581   0.01366   0.00833  -0.0867  0.9563  0.0253  -2.1294   0.0000   0.0000   0.0000  -0.3078
  -4.500  -0.1423   0.01373   0.00839  -0.0874  0.9556  0.0241  -2.0416   0.0000   0.0000   0.0000  -0.3744
  -4.400  -0.1272   0.01331   0.00795  -0.0881  0.9549  0.0223  -1.9962   0.0000   0.0000   0.0000  -0.4533
  -4.100  -0.0885   0.01133   0.00556  -0.0890  0.9508  0.0206  -1.8688   0.0000   0.0000   0.0000  -0.7698
  -4.000  -0.0799   0.01093   0.00510  -0.0884  0.9471  0.0200  -1.8409   0.0000   0.0000   0.0000  -0.8710
  -3.900  -0.0685   0.01056   0.00466  -0.0884  0.9446  0.0194  -1.8030   0.0000   0.0000   0.0000  -1.0579
  -3.800  -0.0561   0.01024   0.00427  -0.0885  0.9424  0.0188  -1.7585   0.0000   0.0000   0.0000  -1.3497
  -3.700  -0.0431   0.00996   0.00393  -0.0888  0.9404  0.0183  -1.7091   0.0000   0.0000   0.0000  -1.8343
  -3.600  -0.0299   0.00972   0.00363  -0.0892  0.9384  0.0179  -1.6558   0.0000   0.0000   0.0000  -2.7668
  -3.500  -0.0164   0.00951   0.00336  -0.0895  0.9364  0.0176  -1.5993   0.0000   0.0000   0.0000  -5.2606
  -3.400  -0.0024   0.00934   0.00314  -0.0900  0.9345  0.0173  -1.5390   0.0000   0.0000   0.0000  -38.1729
  -3.300   0.0121   0.00918   0.00293  -0.0906  0.9327  0.0170  -1.4746   0.0000   0.0000   0.0000   7.8066
  -3.200   0.0268   0.00905   0.00274  -0.0913  0.9309  0.0168  -1.4066   0.0000   0.0000   0.0000   3.6926
  -3.100   0.0415   0.00894   0.00257  -0.0920  0.9289  0.0167  -1.3361   0.0000   0.0000   0.0000   2.4869
  -3.000   0.0524   0.00886   0.00246  -0.0918  0.9256  0.0167  -1.2751   0.0000   0.0000   0.0000   2.0191
  -2.900   0.0624   0.00880   0.00236  -0.0915  0.9217  0.0167  -1.2162   0.0000   0.0000   0.0000   1.7291
  -2.800   0.0734   0.00874   0.00225  -0.0914  0.9180  0.0168  -1.1547   0.0000   0.0000   0.0000   1.5052
  -2.700   0.0852   0.00867   0.00215  -0.0915  0.9145  0.0171  -1.0916   0.0000   0.0000   0.0000   1.3313
  -2.600   0.0978   0.00860   0.00204  -0.0917  0.9111  0.0177  -1.0276   0.0000   0.0000   0.0000   1.1937
  -2.500   0.1109   0.00852   0.00194  -0.0920  0.9077  0.0188  -0.9645   0.0000   0.0000   0.0000   1.0853
  -2.400   0.1241   0.00844   0.00186  -0.0924  0.9042  0.0207  -0.9021   0.0000   0.0000   0.0000   0.9986
  -2.300   0.1374   0.00828   0.00178  -0.0928  0.9005  0.0351  -0.8377   0.0000   0.0000   0.0000   0.9292
  -2.200   0.1476   0.00780   0.00165  -0.0929  0.8964  0.1207  -0.7804   0.0000   0.0000   0.0000   0.8830
  -2.100   0.1573   0.00758   0.00161  -0.0928  0.8919  0.1653  -0.7202   0.0000   0.0000   0.0000   0.8427
  -2.000   0.1679   0.00741   0.00158  -0.0927  0.8873  0.1992  -0.6566   0.0000   0.0000   0.0000   0.8049
  -1.900   0.1790   0.00724   0.00154  -0.0928  0.8829  0.2328  -0.5917   0.0000   0.0000   0.0000   0.7708
  -1.800   0.1905   0.00713   0.00151  -0.0929  0.8786  0.2589  -0.5263   0.0000   0.0000   0.0000   0.7398
  -1.700   0.2022   0.00702   0.00147  -0.0931  0.8741  0.2837  -0.4709   0.0000   0.0000   0.0000   0.7120
  -1.600   0.2140   0.00690   0.00145  -0.0933  0.8694  0.3139  -0.4383   0.0000   0.0000   0.0000   0.6872
  -1.500   0.2256   0.00684   0.00142  -0.0934  0.8645  0.3355  -0.4462   0.0000   0.0000   0.0000   0.6650
  -1.400   0.2358   0.00672   0.00142  -0.0933  0.8602  0.3639  -0.4534   0.0000   0.0000   0.0000   0.6464
  -1.300   0.2464   0.00666   0.00141  -0.0932  0.8551  0.3833  -0.4609   0.0000   0.0000   0.0000   0.6287
  -1.200   0.2572   0.00658   0.00140  -0.0931  0.8496  0.4062  -0.4692   0.0000   0.0000   0.0000   0.6124
  -1.100   0.2682   0.00651   0.00140  -0.0931  0.8441  0.4270  -0.4779   0.0000   0.0000   0.0000   0.5973
  -1.000   0.2795   0.00647   0.00138  -0.0931  0.8389  0.4457  -0.4867   0.0000   0.0000   0.0000   0.5832
  -0.900   0.2906   0.00639   0.00138  -0.0931  0.8333  0.4739  -0.4955   0.0000   0.0000   0.0000   0.5703
  -0.800   0.3018   0.00636   0.00138  -0.0931  0.8276  0.4951  -0.5044   0.0000   0.0000   0.0000   0.5583
  -0.700   0.3121   0.00625   0.00141  -0.0930  0.8235  0.5305  -0.5128   0.0000   0.0000   0.0000   0.5476
  -0.600   0.3217   0.00605   0.00147  -0.0927  0.8182  0.6072  -0.5209   0.0000   0.0000   0.0000   0.5377
  -0.500   0.3300   0.00583   0.00162  -0.0919  0.8122  0.7055  -0.5285   0.0000   0.0000   0.0000   0.5282
  -0.400   0.3405   0.00581   0.00163  -0.0917  0.8059  0.7174  -0.5378   0.0000   0.0000   0.0000   0.5188
  -0.300   0.3511   0.00580   0.00163  -0.0915  0.7996  0.7287  -0.5476   0.0000   0.0000   0.0000   0.5100
  -0.200   0.3617   0.00582   0.00163  -0.0913  0.7931  0.7398  -0.5575   0.0000   0.0000   0.0000   0.5017
  -0.100   0.3727   0.00585   0.00163  -0.0913  0.7871  0.7494  -0.5675   0.0000   0.0000   0.0000   0.4939
   0.000   0.3832   0.00583   0.00164  -0.0911  0.7832  0.7599  -0.5774   0.0000   0.0000   0.0000   0.4867
   0.100   0.3934   0.00580   0.00166  -0.0908  0.7781  0.7717  -0.5870   0.0000   0.0000   0.0000   0.4797
   0.200   0.4038   0.00580   0.00167  -0.0906  0.7720  0.7821  -0.5975   0.0000   0.0000   0.0000   0.4731
   0.300   0.4143   0.00582   0.00168  -0.0903  0.7652  0.7912  -0.6089   0.0000   0.0000   0.0000   0.4668
   0.400   0.4249   0.00585   0.00168  -0.0902  0.7578  0.7988  -0.6203   0.0000   0.0000   0.0000   0.4608
   0.500   0.4346   0.00587   0.00169  -0.0897  0.7499  0.8098  -0.6312   0.0000   0.0000   0.0000   0.4551
   0.600   0.4446   0.00589   0.00171  -0.0894  0.7433  0.8206  -0.6423   0.0000   0.0000   0.0000   0.4496
   0.700   0.4549   0.00588   0.00173  -0.0892  0.7391  0.8305  -0.6536   0.0000   0.0000   0.0000   0.4444
   0.800   0.4654   0.00590   0.00174  -0.0890  0.7335  0.8388  -0.6651   0.0000   0.0000   0.0000   0.4395
   0.900   0.4757   0.00591   0.00175  -0.0887  0.7268  0.8464  -0.6765   0.0000   0.0000   0.0000   0.4347
   1.000   0.4852   0.00592   0.00176  -0.0883  0.7193  0.8550  -0.6881   0.0000   0.0000   0.0000   0.4301
   1.100   0.4946   0.00596   0.00178  -0.0878  0.7111  0.8636  -0.7008   0.0000   0.0000   0.0000   0.4256
   1.200   0.5041   0.00601   0.00179  -0.0874  0.7020  0.8722  -0.7135   0.0000   0.0000   0.0000   0.4213
   1.300   0.5145   0.00604   0.00181  -0.0871  0.6964  0.8801  -0.7268   0.0000   0.0000   0.0000   0.4173
   1.400   0.5239   0.00603   0.00183  -0.0867  0.6919  0.8891  -0.7395   0.0000   0.0000   0.0000   0.4133
   1.500   0.5329   0.00603   0.00185  -0.0861  0.6864  0.8989  -0.7520   0.0000   0.0000   0.0000   0.4094
   1.600   0.5423   0.00605   0.00186  -0.0856  0.6799  0.9085  -0.7660   0.0000   0.0000   0.0000   0.4056
   1.800   0.5598   0.00611   0.00188  -0.0844  0.6639  0.9262  -0.7951   0.0000   0.0000   0.0000   0.3983
   1.900   0.5681   0.00616   0.00189  -0.0837  0.6538  0.9368  -0.8094   0.0000   0.0000   0.0000   0.3948
   2.100   0.5885   0.00616   0.00190  -0.0831  0.6421  0.9578  -0.8412   0.0000   0.0000   0.0000   0.3886
   2.300   0.6152   0.00621   0.00191  -0.0840  0.6265  0.9795  -0.8842   0.0000   0.0000   0.0000   0.3838
   2.400   0.6298   0.00627   0.00191  -0.0848  0.6164  0.9933  -0.9075   0.0000   0.0000   0.0000   0.3818
   2.500   0.6407   0.00636   0.00194  -0.0848  0.6046  1.0000  -0.9273   0.0000   0.0000   0.0000   0.3794
   2.600   0.6518   0.00640   0.00197  -0.0849  0.5986  1.0000  -0.9474   0.0000   0.0000   0.0000   0.3771
   2.700   0.6629   0.00644   0.00199  -0.0849  0.5916  1.0000  -0.9675   0.0000   0.0000   0.0000   0.3749
   2.800   0.6737   0.00650   0.00202  -0.0849  0.5836  1.0000  -0.9875   0.0000   0.0000   0.0000   0.3727
   2.900   0.6842   0.00657   0.00206  -0.0848  0.5751  1.0000  -1.0115   0.0000   0.0000   0.0000   0.3706
   3.000   0.6924   0.00675   0.00214  -0.0842  0.5464  1.0000  -1.0322   0.0000   0.0000   0.0000   0.3682
   3.100   0.6934   0.00741   0.00221  -0.0824  0.4399  1.0000  -1.0457   0.0000   0.0000   0.0000   0.3653
   3.200   0.7004   0.00777   0.00229  -0.0817  0.3916  1.0000  -1.0659   0.0000   0.0000   0.0000   0.3631
   3.300   0.7085   0.00806   0.00238  -0.0813  0.3564  1.0000  -1.0887   0.0000   0.0000   0.0000   0.3610
   3.400   0.7177   0.00827   0.00245  -0.0810  0.3309  1.0000  -1.1168   0.0000   0.0000   0.0000   0.3591
   3.500   0.7267   0.00851   0.00255  -0.0807  0.3039  1.0000  -1.1445   0.0000   0.0000   0.0000   0.3573
   3.600   0.7357   0.00875   0.00263  -0.0804  0.2788  1.0000  -1.1725   0.0000   0.0000   0.0000   0.3554
   3.700   0.7452   0.00895   0.00272  -0.0803  0.2581  1.0000  -1.2014   0.0000   0.0000   0.0000   0.3537
   3.800   0.7542   0.00919   0.00283  -0.0800  0.2349  1.0000  -1.2297   0.0000   0.0000   0.0000   0.3520
   3.900   0.7637   0.00940   0.00292  -0.0798  0.2143  1.0000  -1.2588   0.0000   0.0000   0.0000   0.3503
   4.000   0.7723   0.00969   0.00305  -0.0795  0.1884  1.0000  -1.2866   0.0000   0.0000   0.0000   0.3487
   4.100   0.7818   0.00990   0.00315  -0.0793  0.1688  1.0000  -1.3159   0.0000   0.0000   0.0000   0.3471
   4.200   0.7904   0.01020   0.00329  -0.0789  0.1434  1.0000  -1.3438   0.0000   0.0000   0.0000   0.3455
   4.300   0.7988   0.01052   0.00345  -0.0786  0.1184  1.0000  -1.3795   0.0000   0.0000   0.0000   0.3439
   4.400   0.8079   0.01077   0.00358  -0.0783  0.0990  1.0000  -1.4380   0.0000   0.0000   0.0000   0.3424
   4.500   0.8169   0.01103   0.00373  -0.0781  0.0800  1.0000  -1.4976   0.0000   0.0000   0.0000   0.3409
   4.600   0.8254   0.01135   0.00390  -0.0777  0.0597  1.0000  -1.5576   0.0000   0.0000   0.0000   0.3394
   4.700   0.8305   0.01206   0.00431  -0.0768  0.0117  1.0000  -1.6059   0.0000   0.0000   0.0000   0.3376
   4.800   0.8409   0.01217   0.00439  -0.0767  0.0110  1.0000  -1.6777   0.0000   0.0000   0.0000   0.3363
   4.900   0.8513   0.01227   0.00446  -0.0766  0.0104  1.0000  -1.7537   0.0000   0.0000   0.0000   0.3350
   5.000   0.8617   0.01237   0.00454  -0.0765  0.0097  1.0000  -1.8345   0.0000   0.0000   0.0000   0.3336
   5.100   0.8721   0.01248   0.00463  -0.0764  0.0089  1.0000  -1.9201   0.0000   0.0000   0.0000   0.3324
   5.200   0.8824   0.01259   0.00474  -0.0763  0.0083  1.0000  -2.0086   0.0000   0.0000   0.0000   0.3311
   5.300   0.8926   0.01272   0.00487  -0.0761  0.0078  1.0000  -2.0991   0.0000   0.0000   0.0000   0.3298
   5.400   0.9028   0.01284   0.00500  -0.0760  0.0075  1.0000  -2.1908   0.0000   0.0000   0.0000   0.3286
   5.500   0.9131   0.01296   0.00514  -0.0758  0.0073  1.0000  -2.2829   0.0000   0.0000   0.0000   0.3274
   5.600   0.9233   0.01308   0.00528  -0.0757  0.0071  1.0000  -2.3757   0.0000   0.0000   0.0000   0.3262
   5.700   0.9334   0.01320   0.00542  -0.0755  0.0070  1.0000  -2.4692   0.0000   0.0000   0.0000   0.3250
   5.800   0.9436   0.01332   0.00557  -0.0753  0.0069  1.0000  -2.5632   0.0000   0.0000   0.0000   0.3239
   5.900   0.9537   0.01345   0.00573  -0.0751  0.0069  1.0000  -2.6577   0.0000   0.0000   0.0000   0.3227
   6.000   0.9638   0.01358   0.00589  -0.0750  0.0069  1.0000  -2.7526   0.0000   0.0000   0.0000   0.3216
   6.100   0.9738   0.01372   0.00606  -0.0748  0.0069  1.0000  -2.8477   0.0000   0.0000   0.0000   0.3205
   6.200   0.9837   0.01387   0.00625  -0.0745  0.0069  1.0000  -2.9428   0.0000   0.0000   0.0000   0.3194
   6.300   0.9935   0.01403   0.00645  -0.0743  0.0070  1.0000  -3.0377   0.0000   0.0000   0.0000   0.3183
   6.400   1.0032   0.01421   0.00666  -0.0740  0.0070  1.0000  -3.1322   0.0000   0.0000   0.0000   0.3172
   6.500   1.0127   0.01439   0.00688  -0.0737  0.0071  1.0000  -3.2259   0.0000   0.0000   0.0000   0.3161
   6.600   1.0222   0.01458   0.00712  -0.0734  0.0072  1.0000  -3.3184   0.0000   0.0000   0.0000   0.3150
   6.700   1.0316   0.01479   0.00738  -0.0731  0.0073  1.0000  -3.4090   0.0000   0.0000   0.0000   0.3139
   6.800   1.0415   0.01492   0.00771  -0.0729  0.0076  1.0000  -3.4588   0.0000   0.0000   0.0000   0.3130
   6.900   1.0508   0.01513   0.00798  -0.0726  0.0077  1.0000  -3.5405   0.0000   0.0000   0.0000   0.3119
   7.000   1.0597   0.01537   0.00829  -0.0722  0.0078  1.0000  -3.6232   0.0000   0.0000   0.0000   0.3108
   7.100   1.0684   0.01566   0.00863  -0.0717  0.0079  1.0000  -3.7027   0.0000   0.0000   0.0000   0.3097
   7.200   1.0767   0.01598   0.00901  -0.0711  0.0081  1.0000  -3.7780   0.0000   0.0000   0.0000   0.3085
   7.300   1.0845   0.01633   0.00944  -0.0705  0.0082  1.0000  -3.8488   0.0000   0.0000   0.0000   0.3074
   7.400   1.0919   0.01674   0.00992  -0.0698  0.0084  1.0000  -3.9145   0.0000   0.0000   0.0000   0.3061
   7.500   1.0988   0.01719   0.01045  -0.0690  0.0087  1.0000  -3.9749   0.0000   0.0000   0.0000   0.3049
   7.600   1.1051   0.01769   0.01103  -0.0681  0.0089  1.0000  -4.0297   0.0000   0.0000   0.0000   0.3036
   7.700   1.1110   0.01825   0.01168  -0.0671  0.0092  1.0000  -4.0787   0.0000   0.0000   0.0000   0.3022
   7.800   1.1163   0.01887   0.01239  -0.0660  0.0095  1.0000  -4.1213   0.0000   0.0000   0.0000   0.3009
   7.900   1.1212   0.01958   0.01318  -0.0649  0.0098  1.0000  -4.1565   0.0000   0.0000   0.0000   0.2995
   8.000   1.1256   0.02038   0.01408  -0.0636  0.0102  1.0000  -4.1837   0.0000   0.0000   0.0000   0.2981
   8.100   1.1298   0.02135   0.01515  -0.0624  0.0106  1.0000  -4.1996   0.0000   0.0000   0.0000   0.2966
   8.200   1.1334   0.02266   0.01658  -0.0611  0.0111  1.0000  -4.1922   0.0000   0.0000   0.0000   0.2952
   8.300   1.1382   0.02469   0.01871  -0.0599  0.0126  1.0000  -4.1281   0.0000   0.0000   0.0000   0.2938
   8.400   1.1486   0.02428   0.01829  -0.0596  0.0132  1.0000  -4.2562   0.0000   0.0000   0.0000   0.2929
   8.500   1.1592   0.02416   0.01820  -0.0593  0.0144  1.0000  -4.3572   0.0000   0.0000   0.0000   0.2920
  13.700   0.9469   0.13950   0.13761  -0.0707  0.0268  1.0000  -3.0167   0.0000   0.0000   0.0000   0.3099
  13.800   0.9438   0.14199   0.14010  -0.0722  0.0264  1.0000  -2.9848   0.0000   0.0000   0.0000   0.3116
  13.900   0.9385   0.14513   0.14323  -0.0739  0.0259  1.0000  -2.9227   0.0000   0.0000   0.0000   0.3138
  14.400   0.8996   0.17010   0.16812  -0.0869  0.0244  1.0000  -2.2151   0.0000   0.0000   0.0000   0.3318
  14.500   0.9002   0.17251   0.17053  -0.0881  0.0244  1.0000  -2.1911   0.0000   0.0000   0.0000   0.3330
  14.600   0.9010   0.17489   0.17290  -0.0893  0.0244  1.0000  -2.1689   0.0000   0.0000   0.0000   0.3341
  14.700   0.9019   0.17723   0.17524  -0.0904  0.0244  1.0000  -2.1483   0.0000   0.0000   0.0000   0.3352
  14.800   0.9029   0.17953   0.17754  -0.0915  0.0243  1.0000  -2.1296   0.0000   0.0000   0.0000   0.3363
  14.900   0.9040   0.18179   0.17979  -0.0926  0.0243  1.0000  -2.1126   0.0000   0.0000   0.0000   0.3373
  15.000   0.9054   0.18400   0.18200  -0.0937  0.0243  1.0000  -2.0977   0.0000   0.0000   0.0000   0.3382
  15.100   0.9069   0.18615   0.18415  -0.0948  0.0242  1.0000  -2.0853   0.0000   0.0000   0.0000   0.3391
  15.200   0.9087   0.18821   0.18621  -0.0958  0.0241  1.0000  -2.0764   0.0000   0.0000   0.0000   0.3400
  15.300   0.9108   0.19013   0.18813  -0.0969  0.0240  1.0000  -2.0726   0.0000   0.0000   0.0000   0.3407
  15.400   0.9139   0.19176   0.18976  -0.0978  0.0237  1.0000  -2.0793   0.0000   0.0000   0.0000   0.3413
  15.500   0.9192   0.19271   0.19072  -0.0987  0.0229  1.0000  -2.1102   0.0000   0.0000   0.0000   0.3415
  15.600   0.9228   0.19442   0.19242  -0.0997  0.0219  1.0000  -2.1124   0.0000   0.0000   0.0000   0.3421
  15.700   0.9246   0.19664   0.19464  -0.1009  0.0211  1.0000  -2.0940   0.0000   0.0000   0.0000   0.3431
  15.800   0.9260   0.19890   0.19690  -0.1020  0.0204  1.0000  -2.0771   0.0000   0.0000   0.0000   0.3440
  15.900   0.9273   0.20114   0.19914  -0.1031  0.0197  1.0000  -2.0632   0.0000   0.0000   0.0000   0.3450
  16.000   0.9286   0.20332   0.20132  -0.1042  0.0191  1.0000  -2.0531   0.0000   0.0000   0.0000   0.3458
  16.100   0.9301   0.20545   0.20344  -0.1052  0.0185  1.0000  -2.0475   0.0000   0.0000   0.0000   0.3466
  16.200   0.9316   0.20751   0.20551  -0.1062  0.0180  1.0000  -2.0462   0.0000   0.0000   0.0000   0.3473
  16.300   0.9332   0.20952   0.20752  -0.1071  0.0175  1.0000  -2.0488   0.0000   0.0000   0.0000   0.3480
  16.400   0.9350   0.21147   0.20947  -0.1079  0.0170  1.0000  -2.0553   0.0000   0.0000   0.0000   0.3486
  16.500   0.9368   0.21337   0.21137  -0.1088  0.0166  1.0000  -2.0657   0.0000   0.0000   0.0000   0.3491
  16.600   0.9388   0.21520   0.21320  -0.1096  0.0161  1.0000  -2.0801   0.0000   0.0000   0.0000   0.3496
  16.700   0.9409   0.21697   0.21498  -0.1103  0.0158  1.0000  -2.0989   0.0000   0.0000   0.0000   0.3499
  16.800   0.9431   0.21868   0.21668  -0.1110  0.0154  1.0000  -2.1225   0.0000   0.0000   0.0000   0.3503
  16.900   0.9454   0.22030   0.21831  -0.1117  0.0151  1.0000  -2.1514   0.0000   0.0000   0.0000   0.3505
  17.000   0.9480   0.22184   0.21985  -0.1123  0.0147  1.0000  -2.1862   0.0000   0.0000   0.0000   0.3506
  17.100   0.9506   0.22329   0.22130  -0.1128  0.0144  1.0000  -2.2273   0.0000   0.0000   0.0000   0.3507
  17.200   0.9532   0.22473   0.22274  -0.1133  0.0142  1.0000  -2.2699   0.0000   0.0000   0.0000   0.3507
  17.300   0.9559   0.22611   0.22413  -0.1138  0.0139  1.0000  -2.3169   0.0000   0.0000   0.0000   0.3507
  17.400   0.9585   0.22750   0.22552  -0.1143  0.0136  1.0000  -2.3654   0.0000   0.0000   0.0000   0.3507
  17.500   0.9602   0.22930   0.22732  -0.1150  0.0134  1.0000  -2.3928   0.0000   0.0000   0.0000   0.3510
  17.600   0.9614   0.23130   0.22932  -0.1157  0.0131  1.0000  -2.4121   0.0000   0.0000   0.0000   0.3514
  17.700   0.9594   0.23475   0.23278  -0.1167  0.0126  1.0000  -2.3670   0.0000   0.0000   0.0000   0.3526
  17.800   0.9476   0.24432   0.24231  -0.1192  0.0119  1.0000  -2.0194   0.0000   0.0000   0.0000   0.3570
  17.900   0.9491   0.24671   0.24470  -0.1201  0.0119  1.0000  -2.0071   0.0000   0.0000   0.0000   0.3576
  18.000   0.9505   0.24910   0.24710  -0.1210  0.0119  1.0000  -1.9951   0.0000   0.0000   0.0000   0.3582
  18.100   0.9519   0.25149   0.24949  -0.1218  0.0119  1.0000  -1.9835   0.0000   0.0000   0.0000   0.3588
  18.200   0.9533   0.25388   0.25187  -0.1227  0.0119  1.0000  -1.9722   0.0000   0.0000   0.0000   0.3594
  18.300   0.9547   0.25626   0.25425  -0.1235  0.0119  1.0000  -1.9614   0.0000   0.0000   0.0000   0.3600
  18.400   0.9561   0.25863   0.25663  -0.1244  0.0119  1.0000  -1.9509   0.0000   0.0000   0.0000   0.3605
  18.500   0.9574   0.26100   0.25900  -0.1252  0.0119  1.0000  -1.9407   0.0000   0.0000   0.0000   0.3611
  18.600   0.9587   0.26336   0.26136  -0.1260  0.0119  1.0000  -1.9309   0.0000   0.0000   0.0000   0.3616
  18.700   0.9600   0.26571   0.26372  -0.1269  0.0118  1.0000  -1.9216   0.0000   0.0000   0.0000   0.3622
  18.800   0.9612   0.26805   0.26606  -0.1277  0.0118  1.0000  -1.9126   0.0000   0.0000   0.0000   0.3627
  18.900   0.9625   0.27038   0.26839  -0.1285  0.0118  1.0000  -1.9041   0.0000   0.0000   0.0000   0.3633
  19.000   0.9637   0.27269   0.27071  -0.1293  0.0118  1.0000  -1.8961   0.0000   0.0000   0.0000   0.3638
  19.100   0.9648   0.27499   0.27301  -0.1301  0.0117  1.0000  -1.8886   0.0000   0.0000   0.0000   0.3643
  19.200   0.9660   0.27726   0.27529  -0.1309  0.0117  1.0000  -1.8818   0.0000   0.0000   0.0000   0.3648
  19.300   0.9672   0.27950   0.27753  -0.1316  0.0117  1.0000  -1.8760   0.0000   0.0000   0.0000   0.3653
  19.400   0.9683   0.28170   0.27973  -0.1324  0.0116  1.0000  -1.8715   0.0000   0.0000   0.0000   0.3658
  19.500   0.9695   0.28384   0.28188  -0.1332  0.0116  1.0000  -1.8684   0.0000   0.0000   0.0000   0.3663
  19.600   0.9708   0.28590   0.28394  -0.1340  0.0115  1.0000  -1.8678   0.0000   0.0000   0.0000   0.3668
  19.700   0.9724   0.28786   0.28590  -0.1347  0.0113  1.0000  -1.8701   0.0000   0.0000   0.0000   0.3672
  19.800   0.9741   0.28973   0.28778  -0.1355  0.0111  1.0000  -1.8737   0.0000   0.0000   0.0000   0.3677
  19.900   0.9754   0.29178   0.28983  -0.1364  0.0108  1.0000  -1.8665   0.0000   0.0000   0.0000   0.3682
  20.000   0.9763   0.29401   0.29207  -0.1373  0.0105  1.0000  -1.8507   0.0000   0.0000   0.0000   0.3689
  20.100   0.9771   0.29632   0.29439  -0.1381  0.0102  1.0000  -1.8336   0.0000   0.0000   0.0000   0.3695
  20.200   0.9775   0.29866   0.29673  -0.1388  0.0100  1.0000  -1.8169   0.0000   0.0000   0.0000   0.3701
  20.300   0.9777   0.30100   0.29907  -0.1395  0.0097  1.0000  -1.8013   0.0000   0.0000   0.0000   0.3706
  20.400   0.9776   0.30331   0.30138  -0.1402  0.0094  1.0000  -1.7868   0.0000   0.0000   0.0000   0.3712
  20.500   0.9773   0.30557   0.30366  -0.1408  0.0092  1.0000  -1.7733   0.0000   0.0000   0.0000   0.3717
  20.600   0.9767   0.30779   0.30589  -0.1414  0.0090  1.0000  -1.7604   0.0000   0.0000   0.0000   0.3723
  20.700   0.9758   0.30995   0.30805  -0.1419  0.0088  1.0000  -1.7476   0.0000   0.0000   0.0000   0.3729
  20.800   0.9745   0.31204   0.31015  -0.1424  0.0086  1.0000  -1.7347   0.0000   0.0000   0.0000   0.3735
  20.900   0.9729   0.31399   0.31215  -0.1428  0.0083  1.0000  -1.7247   0.0000   0.0000   0.0000   0.3741
  21.000   0.9705   0.31582   0.31398  -0.1432  0.0081  1.0000  -1.7128   0.0000   0.0000   0.0000   0.3747
  21.100   0.9671   0.31743   0.31561  -0.1434  0.0079  1.0000  -1.6970   0.0000   0.0000   0.0000   0.3754
  21.600   0.8932   0.30726   0.30558  -0.1378  0.0078  1.0000  -1.4555   0.0000   0.0000   0.0000   0.3820
  21.700   0.8900   0.30758   0.30591  -0.1379  0.0077  1.0000  -1.4420   0.0000   0.0000   0.0000   0.3826
  21.800   0.8872   0.30794   0.30629  -0.1380  0.0075  1.0000  -1.4297   0.0000   0.0000   0.0000   0.3831
  21.900   0.8845   0.30834   0.30669  -0.1382  0.0074  1.0000  -1.4185   0.0000   0.0000   0.0000   0.3837
  22.000   0.8822   0.30876   0.30713  -0.1384  0.0073  1.0000  -1.4082   0.0000   0.0000   0.0000   0.3842
  22.100   0.8800   0.30921   0.30758  -0.1386  0.0072  1.0000  -1.3987   0.0000   0.0000   0.0000   0.3848
  22.200   0.8779   0.30967   0.30805  -0.1388  0.0071  1.0000  -1.3899   0.0000   0.0000   0.0000   0.3853
  22.300   0.8761   0.31015   0.30854  -0.1390  0.0070  1.0000  -1.3819   0.0000   0.0000   0.0000   0.3858
  22.400   0.8743   0.31064   0.30904  -0.1392  0.0068  1.0000  -1.3745   0.0000   0.0000   0.0000   0.3862
  22.500   0.8727   0.31115   0.30955  -0.1395  0.0067  1.0000  -1.3678   0.0000   0.0000   0.0000   0.3867
  22.600   0.8712   0.31166   0.31007  -0.1397  0.0066  1.0000  -1.3615   0.0000   0.0000   0.0000   0.3872
  22.700   0.8698   0.31218   0.31061  -0.1400  0.0065  1.0000  -1.3559   0.0000   0.0000   0.0000   0.3876
  22.800   0.8684   0.31271   0.31114  -0.1402  0.0065  1.0000  -1.3507   0.0000   0.0000   0.0000   0.3880
  22.900   0.8672   0.31325   0.31169  -0.1405  0.0064  1.0000  -1.3460   0.0000   0.0000   0.0000   0.3885
  23.000   0.8660   0.31379   0.31224  -0.1408  0.0063  1.0000  -1.3418   0.0000   0.0000   0.0000   0.3889
  23.100   0.8649   0.31434   0.31279  -0.1411  0.0062  1.0000  -1.3381   0.0000   0.0000   0.0000   0.3893
  23.200   0.8639   0.31489   0.31335  -0.1414  0.0061  1.0000  -1.3348   0.0000   0.0000   0.0000   0.3897
  23.300   0.8630   0.31545   0.31391  -0.1417  0.0060  1.0000  -1.3319   0.0000   0.0000   0.0000   0.3901
  23.400   0.8620   0.31601   0.31448  -0.1419  0.0059  1.0000  -1.3294   0.0000   0.0000   0.0000   0.3905
  23.500   0.8612   0.31657   0.31505  -0.1423  0.0059  1.0000  -1.3274   0.0000   0.0000   0.0000   0.3908
  23.600   0.8604   0.31714   0.31562  -0.1426  0.0058  1.0000  -1.3257   0.0000   0.0000   0.0000   0.3912
  23.700   0.8596   0.31770   0.31620  -0.1429  0.0057  1.0000  -1.3243   0.0000   0.0000   0.0000   0.3916
  23.800   0.8589   0.31827   0.31677  -0.1432  0.0057  1.0000  -1.3234   0.0000   0.0000   0.0000   0.3919
  23.900   0.8583   0.31884   0.31735  -0.1435  0.0056  1.0000  -1.3228   0.0000   0.0000   0.0000   0.3923
  24.000   0.8576   0.31942   0.31793  -0.1438  0.0055  1.0000  -1.3225   0.0000   0.0000   0.0000   0.3926
  24.100   0.8570   0.31999   0.31851  -0.1441  0.0055  1.0000  -1.3226   0.0000   0.0000   0.0000   0.3930
  24.200   0.8565   0.32056   0.31909  -0.1444  0.0054  1.0000  -1.3231   0.0000   0.0000   0.0000   0.3933
  24.300   0.8559   0.32113   0.31967  -0.1448  0.0053  1.0000  -1.3238   0.0000   0.0000   0.0000   0.3937
  24.400   0.8554   0.32171   0.32025  -0.1451  0.0053  1.0000  -1.3249   0.0000   0.0000   0.0000   0.3940
  24.500   0.8549   0.32228   0.32083  -0.1454  0.0052  1.0000  -1.3263   0.0000   0.0000   0.0000   0.3943
  24.600   0.8545   0.32285   0.32140  -0.1458  0.0052  1.0000  -1.3281   0.0000   0.0000   0.0000   0.3946
  24.700   0.8541   0.32343   0.32198  -0.1461  0.0051  1.0000  -1.3301   0.0000   0.0000   0.0000   0.3949
  24.800   0.8537   0.32400   0.32256  -0.1464  0.0051  1.0000  -1.3324   0.0000   0.0000   0.0000   0.3952
  24.900   0.8533   0.32457   0.32314  -0.1467  0.0050  1.0000  -1.3351   0.0000   0.0000   0.0000   0.3955


