xflr5 v6.61

 Calculated polar for: E222  (10.17%)

 1 1 Reynolds number fixed          Mach number fixed         

 xtrf =   1.000 (top)        1.000 (bottom)
 Mach =   0.000     Re =     0.625 e 6     Ncrit =   9.000

  alpha     CL        CD       CDp       Cm    Top Xtr Bot Xtr   Cpmin    Chinge    XCp    
 ------- -------- --------- --------- -------- ------- ------- -------- --------- ---------
 -10.000  -0.4037   0.10328   0.10112  -0.0317  1.0000  0.0225  -1.7337   0.0000   0.0000   0.0000   0.1626
  -9.900  -0.4029   0.10192   0.09977  -0.0321  1.0000  0.0226  -1.7429   0.0000   0.0000   0.0000   0.1615
  -9.800  -0.4023   0.10055   0.09841  -0.0325  1.0000  0.0226  -1.7532   0.0000   0.0000   0.0000   0.1604
  -9.700  -0.4018   0.09917   0.09703  -0.0329  1.0000  0.0226  -1.7646   0.0000   0.0000   0.0000   0.1594
  -9.600  -0.4015   0.09776   0.09564  -0.0333  1.0000  0.0226  -1.7770   0.0000   0.0000   0.0000   0.1584
  -9.500  -0.4013   0.09635   0.09423  -0.0338  1.0000  0.0227  -1.7904   0.0000   0.0000   0.0000   0.1574
  -9.400  -0.4013   0.09492   0.09281  -0.0342  1.0000  0.0227  -1.8048   0.0000   0.0000   0.0000   0.1564
  -9.300  -0.4015   0.09348   0.09138  -0.0346  1.0000  0.0227  -1.8203   0.0000   0.0000   0.0000   0.1556
  -9.200  -0.4018   0.09203   0.08994  -0.0350  1.0000  0.0227  -1.8368   0.0000   0.0000   0.0000   0.1547
  -9.100  -0.4024   0.09056   0.08848  -0.0354  1.0000  0.0227  -1.8544   0.0000   0.0000   0.0000   0.1539
  -9.000  -0.4031   0.08908   0.08701  -0.0358  1.0000  0.0228  -1.8731   0.0000   0.0000   0.0000   0.1532
  -8.900  -0.4040   0.08757   0.08552  -0.0362  1.0000  0.0228  -1.8929   0.0000   0.0000   0.0000   0.1525
  -8.800  -0.4052   0.08605   0.08400  -0.0366  1.0000  0.0228  -1.9140   0.0000   0.0000   0.0000   0.1518
  -8.700  -0.4066   0.08451   0.08247  -0.0370  1.0000  0.0228  -1.9364   0.0000   0.0000   0.0000   0.1513
  -8.600  -0.4084   0.08295   0.08093  -0.0374  1.0000  0.0228  -1.9604   0.0000   0.0000   0.0000   0.1509
  -8.500  -0.4105   0.08138   0.07937  -0.0378  1.0000  0.0228  -1.9860   0.0000   0.0000   0.0000   0.1506
  -8.400  -0.4130   0.07978   0.07779  -0.0382  1.0000  0.0228  -2.0137   0.0000   0.0000   0.0000   0.1504
  -8.300  -0.4161   0.07818   0.07620  -0.0385  1.0000  0.0228  -2.0436   0.0000   0.0000   0.0000   0.1504
  -8.200  -0.4199   0.07656   0.07460  -0.0388  1.0000  0.0228  -2.0761   0.0000   0.0000   0.0000   0.1507
  -8.100  -0.4245   0.07493   0.07298  -0.0390  1.0000  0.0228  -2.1120   0.0000   0.0000   0.0000   0.1514
  -8.000  -0.4302   0.07326   0.07134  -0.0392  1.0000  0.0228  -2.1524   0.0000   0.0000   0.0000   0.1523
  -7.900  -0.4375   0.07156   0.06966  -0.0393  1.0000  0.0228  -2.1992   0.0000   0.0000   0.0000   0.1538
  -7.800  -0.4472   0.06980   0.06793  -0.0393  1.0000  0.0228  -2.2557   0.0000   0.0000   0.0000   0.1559
  -7.700  -0.4595   0.06823   0.06637  -0.0392  1.0000  0.0228  -2.3139   0.0000   0.0000   0.0000   0.1587
  -7.600  -0.4579   0.06406   0.06213  -0.0462  0.9984  0.0228  -2.3969   0.0000   0.0000   0.0000   0.1431
  -7.500  -0.4507   0.06046   0.05842  -0.0519  0.9966  0.0228  -2.4491   0.0000   0.0000   0.0000   0.1289
  -7.400  -0.4452   0.05764   0.05552  -0.0557  0.9946  0.0228  -2.4839   0.0000   0.0000   0.0000   0.1190
  -7.300  -0.4388   0.05507   0.05286  -0.0591  0.9926  0.0228  -2.5086   0.0000   0.0000   0.0000   0.1095
  -7.200  -0.4346   0.05128   0.04894  -0.0632  0.9904  0.0230  -2.5865   0.0000   0.0000   0.0000   0.0986
  -7.100  -0.4505   0.03797   0.03507  -0.0726  0.9867  0.0248  -3.0596   0.0000   0.0000   0.0000   0.0828
  -7.000  -0.4448   0.03637   0.03344  -0.0733  0.9844  0.0257  -3.0152   0.0000   0.0000   0.0000   0.0793
  -6.900  -0.4352   0.03561   0.03267  -0.0740  0.9828  0.0266  -2.9260   0.0000   0.0000   0.0000   0.0739
  -6.800  -0.4243   0.03511   0.03217  -0.0748  0.9813  0.0274  -2.8261   0.0000   0.0000   0.0000   0.0677
  -6.700  -0.4128   0.03465   0.03171  -0.0757  0.9801  0.0283  -2.7280   0.0000   0.0000   0.0000   0.0607
  -6.600  -0.4010   0.03400   0.03104  -0.0766  0.9789  0.0293  -2.6449   0.0000   0.0000   0.0000   0.0530
  -6.500  -0.3889   0.03319   0.03018  -0.0777  0.9777  0.0304  -2.5748   0.0000   0.0000   0.0000   0.0443
  -6.400  -0.3766   0.03229   0.02921  -0.0788  0.9767  0.0316  -2.5139   0.0000   0.0000   0.0000   0.0349
  -6.300  -0.3639   0.03139   0.02823  -0.0798  0.9759  0.0329  -2.4578   0.0000   0.0000   0.0000   0.0246
  -6.200  -0.3509   0.03058   0.02735  -0.0808  0.9751  0.0345  -2.4022   0.0000   0.0000   0.0000   0.0137
  -6.100  -0.3370   0.03007   0.02677  -0.0816  0.9745  0.0364  -2.3405   0.0000   0.0000   0.0000   0.0017
  -6.000  -0.3224   0.02981   0.02646  -0.0824  0.9739  0.0380  -2.2739   0.0000   0.0000   0.0000  -0.0117
  -5.900  -0.3064   0.03032   0.02696  -0.0828  0.9735  0.0394  -2.1827   0.0000   0.0000   0.0000  -0.0267
  -5.800  -0.2892   0.03155   0.02819  -0.0832  0.9732  0.0404  -2.0716   0.0000   0.0000   0.0000  -0.0441
  -5.700  -0.2745   0.03106   0.02761  -0.0842  0.9726  0.0406  -2.0184   0.0000   0.0000   0.0000  -0.0633
  -5.600  -0.2691   0.03039   0.02686  -0.0833  0.9685  0.0407  -1.9937   0.0000   0.0000   0.0000  -0.0662
  -5.500  -0.2716   0.02268   0.01864  -0.0850  0.9641  0.0446  -2.1755   0.0000   0.0000   0.0000  -0.0698
  -5.400  -0.2596   0.02176   0.01769  -0.0857  0.9626  0.0461  -2.1163   0.0000   0.0000   0.0000  -0.0870
  -5.300  -0.2468   0.02110   0.01699  -0.0864  0.9614  0.0476  -2.0521   0.0000   0.0000   0.0000  -0.1071
  -5.200  -0.2337   0.02052   0.01640  -0.0871  0.9604  0.0490  -1.9868   0.0000   0.0000   0.0000  -0.1298
  -5.100  -0.2203   0.01997   0.01582  -0.0877  0.9595  0.0506  -1.9241   0.0000   0.0000   0.0000  -0.1556
  -5.000  -0.2067   0.01943   0.01525  -0.0884  0.9587  0.0525  -1.8642   0.0000   0.0000   0.0000  -0.1854
  -4.900  -0.1926   0.01892   0.01469  -0.0891  0.9579  0.0545  -1.8063   0.0000   0.0000   0.0000  -0.2205
  -4.800  -0.1781   0.01845   0.01417  -0.0898  0.9571  0.0567  -1.7496   0.0000   0.0000   0.0000  -0.2624
  -4.700  -0.1633   0.01806   0.01374  -0.0905  0.9564  0.0589  -1.6925   0.0000   0.0000   0.0000  -0.3129
  -4.600  -0.1475   0.01292   0.00773  -0.0888  0.9557  0.0263  -2.0999   0.0000   0.0000   0.0000  -0.3621
  -4.500  -0.1322   0.01296   0.00775  -0.0894  0.9549  0.0245  -2.0213   0.0000   0.0000   0.0000  -0.4375
  -4.400  -0.1169   0.01311   0.00791  -0.0901  0.9541  0.0235  -1.9273   0.0000   0.0000   0.0000  -0.5330
  -4.300  -0.1039   0.01165   0.00632  -0.0904  0.9531  0.0212  -1.9695   0.0000   0.0000   0.0000  -0.6332
  -4.200  -0.0917   0.01275   0.00735  -0.0905  0.9506  0.0230  -1.7604   0.0000   0.0000   0.0000  -0.7509
  -4.100  -0.0852   0.01096   0.00537  -0.0895  0.9468  0.0207  -1.8510   0.0000   0.0000   0.0000  -0.8159
  -4.000  -0.0740   0.01049   0.00482  -0.0894  0.9442  0.0199  -1.8241   0.0000   0.0000   0.0000  -0.9756
  -3.900  -0.0619   0.01010   0.00436  -0.0895  0.9419  0.0191  -1.7877   0.0000   0.0000   0.0000  -1.2161
  -3.800  -0.0493   0.00979   0.00397  -0.0897  0.9397  0.0184  -1.7445   0.0000   0.0000   0.0000  -1.5933
  -3.700  -0.0363   0.00952   0.00364  -0.0900  0.9375  0.0179  -1.6962   0.0000   0.0000   0.0000  -2.2578
  -3.600  -0.0226   0.00929   0.00334  -0.0904  0.9356  0.0174  -1.6428   0.0000   0.0000   0.0000  -3.7962
  -3.500  -0.0085   0.00909   0.00309  -0.0910  0.9336  0.0169  -1.5850   0.0000   0.0000   0.0000  -10.6280
  -3.400   0.0059   0.00892   0.00287  -0.0915  0.9316  0.0166  -1.5226   0.0000   0.0000   0.0000  15.8580
  -3.300   0.0204   0.00879   0.00267  -0.0922  0.9295  0.0163  -1.4554   0.0000   0.0000   0.0000   4.8102
  -3.200   0.0327   0.00869   0.00253  -0.0923  0.9267  0.0161  -1.3912   0.0000   0.0000   0.0000   3.0958
  -3.100   0.0425   0.00861   0.00241  -0.0919  0.9227  0.0159  -1.3329   0.0000   0.0000   0.0000   2.4351
  -3.000   0.0532   0.00853   0.00229  -0.0918  0.9190  0.0158  -1.2711   0.0000   0.0000   0.0000   1.9893
  -2.900   0.0649   0.00846   0.00218  -0.0918  0.9154  0.0158  -1.2068   0.0000   0.0000   0.0000   1.6764
  -2.800   0.0773   0.00839   0.00207  -0.0920  0.9120  0.0158  -1.1409   0.0000   0.0000   0.0000   1.4501
  -2.700   0.0900   0.00832   0.00196  -0.0923  0.9085  0.0160  -1.0748   0.0000   0.0000   0.0000   1.2826
  -2.600   0.1030   0.00826   0.00185  -0.0926  0.9049  0.0163  -1.0093   0.0000   0.0000   0.0000   1.1548
  -2.500   0.1162   0.00820   0.00175  -0.0929  0.9011  0.0171  -0.9456   0.0000   0.0000   0.0000   1.0550
  -2.400   0.1278   0.00814   0.00168  -0.0930  0.8971  0.0187  -0.8884   0.0000   0.0000   0.0000   0.9817
  -2.300   0.1381   0.00809   0.00166  -0.0927  0.8928  0.0209  -0.8339   0.0000   0.0000   0.0000   0.9253
  -2.200   0.1487   0.00790   0.00160  -0.0926  0.8881  0.0457  -0.7749   0.0000   0.0000   0.0000   0.8763
  -2.100   0.1591   0.00749   0.00149  -0.0928  0.8835  0.1213  -0.7150   0.0000   0.0000   0.0000   0.8357
  -2.000   0.1703   0.00730   0.00144  -0.0929  0.8791  0.1602  -0.6502   0.0000   0.0000   0.0000   0.7977
  -1.900   0.1818   0.00713   0.00139  -0.0930  0.8747  0.1943  -0.5846   0.0000   0.0000   0.0000   0.7639
  -1.800   0.1934   0.00699   0.00135  -0.0932  0.8700  0.2256  -0.5192   0.0000   0.0000   0.0000   0.7338
  -1.700   0.2051   0.00692   0.00133  -0.0934  0.8650  0.2465  -0.4632   0.0000   0.0000   0.0000   0.7067
  -1.600   0.2153   0.00679   0.00132  -0.0932  0.8610  0.2743  -0.4390   0.0000   0.0000   0.0000   0.6843
  -1.500   0.2259   0.00671   0.00130  -0.0932  0.8561  0.2970  -0.4465   0.0000   0.0000   0.0000   0.6634
  -1.400   0.2366   0.00660   0.00129  -0.0931  0.8506  0.3253  -0.4540   0.0000   0.0000   0.0000   0.6444
  -1.300   0.2476   0.00653   0.00127  -0.0931  0.8450  0.3476  -0.4617   0.0000   0.0000   0.0000   0.6266
  -1.200   0.2587   0.00644   0.00126  -0.0931  0.8394  0.3733  -0.4701   0.0000   0.0000   0.0000   0.6104
  -1.100   0.2699   0.00641   0.00124  -0.0931  0.8339  0.3906  -0.4789   0.0000   0.0000   0.0000   0.5953
  -1.000   0.2810   0.00634   0.00124  -0.0931  0.8280  0.4165  -0.4877   0.0000   0.0000   0.0000   0.5816
  -0.900   0.2917   0.00628   0.00125  -0.0931  0.8242  0.4364  -0.4962   0.0000   0.0000   0.0000   0.5691
  -0.800   0.3023   0.00618   0.00126  -0.0930  0.8193  0.4662  -0.5048   0.0000   0.0000   0.0000   0.5575
  -0.700   0.3130   0.00613   0.00126  -0.0929  0.8134  0.4914  -0.5134   0.0000   0.0000   0.0000   0.5466
  -0.600   0.3231   0.00595   0.00130  -0.0928  0.8072  0.5577  -0.5218   0.0000   0.0000   0.0000   0.5367
  -0.500   0.3310   0.00562   0.00147  -0.0920  0.8007  0.6933  -0.5292   0.0000   0.0000   0.0000   0.5276
  -0.400   0.3419   0.00565   0.00146  -0.0919  0.7938  0.7013  -0.5387   0.0000   0.0000   0.0000   0.5183
  -0.300   0.3527   0.00566   0.00146  -0.0918  0.7874  0.7112  -0.5486   0.0000   0.0000   0.0000   0.5096
  -0.200   0.3633   0.00563   0.00148  -0.0917  0.7839  0.7231  -0.5584   0.0000   0.0000   0.0000   0.5014
  -0.100   0.3739   0.00561   0.00150  -0.0915  0.7792  0.7349  -0.5683   0.0000   0.0000   0.0000   0.4937
   0.000   0.3847   0.00561   0.00150  -0.0913  0.7734  0.7455  -0.5782   0.0000   0.0000   0.0000   0.4865
   0.200   0.4056   0.00563   0.00151  -0.0909  0.7596  0.7660  -0.5987   0.0000   0.0000   0.0000   0.4730
   0.300   0.4156   0.00565   0.00152  -0.0906  0.7516  0.7765  -0.6098   0.0000   0.0000   0.0000   0.4667
   0.400   0.4260   0.00568   0.00154  -0.0904  0.7439  0.7861  -0.6211   0.0000   0.0000   0.0000   0.4608
   0.500   0.4368   0.00568   0.00155  -0.0903  0.7399  0.7948  -0.6326   0.0000   0.0000   0.0000   0.4552
   0.600   0.4474   0.00569   0.00156  -0.0901  0.7348  0.8038  -0.6441   0.0000   0.0000   0.0000   0.4498
   0.700   0.4574   0.00568   0.00159  -0.0898  0.7286  0.8149  -0.6553   0.0000   0.0000   0.0000   0.4446
   0.800   0.4674   0.00569   0.00160  -0.0894  0.7213  0.8251  -0.6665   0.0000   0.0000   0.0000   0.4397
   0.900   0.4774   0.00574   0.00161  -0.0891  0.7132  0.8340  -0.6777   0.0000   0.0000   0.0000   0.4349
   1.000   0.4875   0.00580   0.00162  -0.0888  0.7040  0.8409  -0.6898   0.0000   0.0000   0.0000   0.4304
   1.100   0.4976   0.00581   0.00164  -0.0885  0.6972  0.8489  -0.7028   0.0000   0.0000   0.0000   0.4260
   1.200   0.5075   0.00581   0.00166  -0.0882  0.6927  0.8575  -0.7159   0.0000   0.0000   0.0000   0.4218
   1.300   0.5176   0.00581   0.00169  -0.0879  0.6874  0.8662  -0.7290   0.0000   0.0000   0.0000   0.4178
   1.400   0.5277   0.00584   0.00171  -0.0876  0.6813  0.8749  -0.7423   0.0000   0.0000   0.0000   0.4139
   1.600   0.5464   0.00590   0.00174  -0.0867  0.6660  0.8923  -0.7693   0.0000   0.0000   0.0000   0.4064
   1.700   0.5549   0.00595   0.00176  -0.0860  0.6562  0.9020  -0.7836   0.0000   0.0000   0.0000   0.4027
   1.800   0.5644   0.00598   0.00178  -0.0856  0.6493  0.9109  -0.7988   0.0000   0.0000   0.0000   0.3993
   1.900   0.5742   0.00599   0.00180  -0.0853  0.6438  0.9190  -0.8143   0.0000   0.0000   0.0000   0.3960
   2.000   0.5828   0.00599   0.00181  -0.0846  0.6370  0.9288  -0.8289   0.0000   0.0000   0.0000   0.3926
   2.100   0.5917   0.00601   0.00182  -0.0840  0.6296  0.9393  -0.8438   0.0000   0.0000   0.0000   0.3893
   2.200   0.6009   0.00605   0.00183  -0.0835  0.6217  0.9495  -0.8615   0.0000   0.0000   0.0000   0.3863
   2.300   0.6110   0.00610   0.00183  -0.0832  0.6117  0.9611  -0.8804   0.0000   0.0000   0.0000   0.3834
   2.400   0.6232   0.00614   0.00185  -0.0835  0.6018  0.9721  -0.9014   0.0000   0.0000   0.0000   0.3810
   2.500   0.6380   0.00615   0.00186  -0.0843  0.5956  0.9831  -0.9250   0.0000   0.0000   0.0000   0.3791
   2.600   0.6526   0.00618   0.00187  -0.0851  0.5872  1.0000  -0.9484   0.0000   0.0000   0.0000   0.3773
   2.700   0.6633   0.00625   0.00190  -0.0850  0.5786  1.0000  -0.9682   0.0000   0.0000   0.0000   0.3750
   2.800   0.6737   0.00633   0.00193  -0.0849  0.5697  1.0000  -0.9879   0.0000   0.0000   0.0000   0.3728
   2.900   0.6838   0.00643   0.00196  -0.0847  0.5584  1.0000  -1.0114   0.0000   0.0000   0.0000   0.3706
   3.000   0.6914   0.00666   0.00205  -0.0841  0.5175  1.0000  -1.0315   0.0000   0.0000   0.0000   0.3682
   3.100   0.6921   0.00742   0.00217  -0.0823  0.4013  1.0000  -1.0444   0.0000   0.0000   0.0000   0.3654
   3.200   0.6998   0.00776   0.00226  -0.0818  0.3575  1.0000  -1.0652   0.0000   0.0000   0.0000   0.3633
   3.300   0.7086   0.00801   0.00234  -0.0815  0.3265  1.0000  -1.0888   0.0000   0.0000   0.0000   0.3613
   3.400   0.7176   0.00825   0.00243  -0.0812  0.2976  1.0000  -1.1164   0.0000   0.0000   0.0000   0.3594
   3.500   0.7262   0.00854   0.00254  -0.0809  0.2667  1.0000  -1.1436   0.0000   0.0000   0.0000   0.3575
   3.600   0.7358   0.00873   0.00262  -0.0807  0.2465  1.0000  -1.1726   0.0000   0.0000   0.0000   0.3557
   3.700   0.7448   0.00899   0.00273  -0.0804  0.2211  1.0000  -1.2007   0.0000   0.0000   0.0000   0.3540
   3.800   0.7540   0.00923   0.00283  -0.0802  0.1990  1.0000  -1.2292   0.0000   0.0000   0.0000   0.3523
   3.900   0.7632   0.00946   0.00294  -0.0799  0.1758  1.0000  -1.2578   0.0000   0.0000   0.0000   0.3506
   4.000   0.7717   0.00977   0.00308  -0.0796  0.1488  1.0000  -1.2855   0.0000   0.0000   0.0000   0.3489
   4.100   0.7807   0.01003   0.00321  -0.0793  0.1272  1.0000  -1.3140   0.0000   0.0000   0.0000   0.3473
   4.200   0.7899   0.01028   0.00333  -0.0791  0.1069  1.0000  -1.3428   0.0000   0.0000   0.0000   0.3457
   4.300   0.7985   0.01059   0.00350  -0.0788  0.0837  1.0000  -1.3741   0.0000   0.0000   0.0000   0.3441
   4.400   0.8072   0.01089   0.00365  -0.0784  0.0633  1.0000  -1.4312   0.0000   0.0000   0.0000   0.3426
   4.500   0.8124   0.01159   0.00406  -0.0775  0.0120  1.0000  -1.4766   0.0000   0.0000   0.0000   0.3408
   4.600   0.8228   0.01170   0.00414  -0.0774  0.0113  1.0000  -1.5435   0.0000   0.0000   0.0000   0.3394
   4.700   0.8333   0.01180   0.00420  -0.0774  0.0106  1.0000  -1.6136   0.0000   0.0000   0.0000   0.3380
   4.800   0.8438   0.01189   0.00427  -0.0773  0.0099  1.0000  -1.6874   0.0000   0.0000   0.0000   0.3367
   4.900   0.8543   0.01199   0.00434  -0.0772  0.0092  1.0000  -1.7657   0.0000   0.0000   0.0000   0.3353
   5.000   0.8648   0.01208   0.00442  -0.0771  0.0083  1.0000  -1.8497   0.0000   0.0000   0.0000   0.3340
   5.100   0.8751   0.01219   0.00453  -0.0770  0.0077  1.0000  -1.9371   0.0000   0.0000   0.0000   0.3327
   5.200   0.8855   0.01230   0.00465  -0.0769  0.0073  1.0000  -2.0268   0.0000   0.0000   0.0000   0.3315
   5.300   0.8958   0.01242   0.00477  -0.0767  0.0070  1.0000  -2.1177   0.0000   0.0000   0.0000   0.3302
   5.400   0.9061   0.01253   0.00490  -0.0766  0.0068  1.0000  -2.2092   0.0000   0.0000   0.0000   0.3290
   5.500   0.9163   0.01265   0.00503  -0.0764  0.0066  1.0000  -2.3014   0.0000   0.0000   0.0000   0.3278
   5.600   0.9266   0.01276   0.00516  -0.0763  0.0065  1.0000  -2.3944   0.0000   0.0000   0.0000   0.3266
   5.700   0.9368   0.01288   0.00530  -0.0761  0.0065  1.0000  -2.4879   0.0000   0.0000   0.0000   0.3254
   5.800   0.9470   0.01300   0.00545  -0.0760  0.0064  1.0000  -2.5820   0.0000   0.0000   0.0000   0.3243
   5.900   0.9572   0.01313   0.00561  -0.0758  0.0064  1.0000  -2.6765   0.0000   0.0000   0.0000   0.3231
   6.000   0.9672   0.01327   0.00577  -0.0756  0.0064  1.0000  -2.7714   0.0000   0.0000   0.0000   0.3220
   6.100   0.9772   0.01341   0.00595  -0.0754  0.0065  1.0000  -2.8666   0.0000   0.0000   0.0000   0.3209
   6.200   0.9871   0.01356   0.00613  -0.0752  0.0065  1.0000  -2.9619   0.0000   0.0000   0.0000   0.3198
   6.300   0.9969   0.01372   0.00632  -0.0749  0.0066  1.0000  -3.0572   0.0000   0.0000   0.0000   0.3187
   6.400   1.0066   0.01389   0.00653  -0.0747  0.0067  1.0000  -3.1523   0.0000   0.0000   0.0000   0.3176
   6.500   1.0162   0.01407   0.00675  -0.0744  0.0068  1.0000  -3.2468   0.0000   0.0000   0.0000   0.3165
   6.600   1.0257   0.01427   0.00699  -0.0741  0.0069  1.0000  -3.3400   0.0000   0.0000   0.0000   0.3154
   6.700   1.0350   0.01449   0.00725  -0.0737  0.0070  1.0000  -3.4314   0.0000   0.0000   0.0000   0.3143
   6.800   1.0449   0.01461   0.00757  -0.0736  0.0072  1.0000  -3.4840   0.0000   0.0000   0.0000   0.3134
   6.900   1.0542   0.01483   0.00784  -0.0732  0.0073  1.0000  -3.5687   0.0000   0.0000   0.0000   0.3123
   7.000   1.0632   0.01507   0.00814  -0.0728  0.0075  1.0000  -3.6534   0.0000   0.0000   0.0000   0.3112
   7.100   1.0719   0.01535   0.00848  -0.0723  0.0076  1.0000  -3.7343   0.0000   0.0000   0.0000   0.3101
   7.200   1.0802   0.01566   0.00887  -0.0718  0.0078  1.0000  -3.8089   0.0000   0.0000   0.0000   0.3089
   7.300   1.0881   0.01603   0.00930  -0.0711  0.0080  1.0000  -3.8771   0.0000   0.0000   0.0000   0.3077
   7.400   1.0954   0.01644   0.00979  -0.0704  0.0083  1.0000  -3.9389   0.0000   0.0000   0.0000   0.3065
   7.500   1.1021   0.01691   0.01035  -0.0695  0.0086  1.0000  -3.9939   0.0000   0.0000   0.0000   0.3052
   7.600   1.1083   0.01745   0.01097  -0.0686  0.0089  1.0000  -4.0422   0.0000   0.0000   0.0000   0.3038
   7.700   1.1138   0.01805   0.01167  -0.0675  0.0093  1.0000  -4.0834   0.0000   0.0000   0.0000   0.3025
   7.800   1.1187   0.01874   0.01246  -0.0663  0.0097  1.0000  -4.1153   0.0000   0.0000   0.0000   0.3010
   7.900   1.1231   0.01955   0.01336  -0.0651  0.0101  1.0000  -4.1375   0.0000   0.0000   0.0000   0.2996
   8.000   1.1269   0.02055   0.01446  -0.0637  0.0106  1.0000  -4.1454   0.0000   0.0000   0.0000   0.2981
   8.100   1.1295   0.02207   0.01612  -0.0622  0.0113  1.0000  -4.1148   0.0000   0.0000   0.0000   0.2965
   8.200   1.1368   0.02308   0.01718  -0.0613  0.0129  1.0000  -4.1149   0.0000   0.0000   0.0000   0.2952
   8.300   1.1479   0.02275   0.01684  -0.0611  0.0139  1.0000  -4.2371   0.0000   0.0000   0.0000   0.2944
   9.600   1.2209   0.04425   0.04030  -0.0482  0.0297  1.0000  -4.1373   0.0000   0.0000   0.0000   0.2792
   9.700   1.2247   0.04491   0.04097  -0.0476  0.0288  1.0000  -4.2177   0.0000   0.0000   0.0000   0.2785
   9.800   1.2267   0.04574   0.04182  -0.0469  0.0281  1.0000  -4.2855   0.0000   0.0000   0.0000   0.2776
   9.900   1.2271   0.04687   0.04298  -0.0460  0.0274  1.0000  -4.3398   0.0000   0.0000   0.0000   0.2768
  10.000   1.2248   0.04893   0.04509  -0.0451  0.0265  1.0000  -4.3590   0.0000   0.0000   0.0000   0.2760
  10.100   1.2129   0.05238   0.04868  -0.0435  0.0258  1.0000  -4.2890   0.0000   0.0000   0.0000   0.2750
  10.200   1.1961   0.05596   0.05244  -0.0416  0.0253  1.0000  -4.1838   0.0000   0.0000   0.0000   0.2738
  10.300   1.1798   0.05875   0.05537  -0.0394  0.0251  1.0000  -4.0978   0.0000   0.0000   0.0000   0.2724
  10.400   1.1652   0.06087   0.05761  -0.0373  0.0250  1.0000  -4.0344   0.0000   0.0000   0.0000   0.2709
  10.500   1.1515   0.06279   0.05962  -0.0355  0.0249  1.0000  -3.9810   0.0000   0.0000   0.0000   0.2696
  10.600   1.1385   0.06466   0.06158  -0.0339  0.0248  1.0000  -3.9326   0.0000   0.0000   0.0000   0.2685
  10.700   1.1261   0.06648   0.06348  -0.0327  0.0247  1.0000  -3.8896   0.0000   0.0000   0.0000   0.2676
  10.800   1.1145   0.06824   0.06532  -0.0318  0.0247  1.0000  -3.8517   0.0000   0.0000   0.0000   0.2670
  10.900   1.1033   0.07005   0.06720  -0.0311  0.0247  1.0000  -3.8163   0.0000   0.0000   0.0000   0.2665
  11.000   1.0926   0.07191   0.06913  -0.0307  0.0246  1.0000  -3.7825   0.0000   0.0000   0.0000   0.2663
  11.100   1.0824   0.07381   0.07109  -0.0306  0.0246  1.0000  -3.7509   0.0000   0.0000   0.0000   0.2663
  11.200   1.0728   0.07569   0.07304  -0.0307  0.0246  1.0000  -3.7232   0.0000   0.0000   0.0000   0.2665
  11.300   1.0637   0.07753   0.07493  -0.0309  0.0246  1.0000  -3.6982   0.0000   0.0000   0.0000   0.2668
  11.400   1.0551   0.07934   0.07680  -0.0313  0.0246  1.0000  -3.6767   0.0000   0.0000   0.0000   0.2673
  11.500   1.0467   0.08128   0.07879  -0.0319  0.0246  1.0000  -3.6544   0.0000   0.0000   0.0000   0.2679
  11.600   1.0387   0.08330   0.08086  -0.0327  0.0246  1.0000  -3.6323   0.0000   0.0000   0.0000   0.2688
  11.700   1.0310   0.08539   0.08299  -0.0337  0.0246  1.0000  -3.6112   0.0000   0.0000   0.0000   0.2698
  11.800   1.0237   0.08756   0.08521  -0.0348  0.0246  1.0000  -3.5894   0.0000   0.0000   0.0000   0.2710
  11.900   1.0168   0.08975   0.08745  -0.0360  0.0246  1.0000  -3.5697   0.0000   0.0000   0.0000   0.2723
  12.000   1.0101   0.09205   0.08979  -0.0374  0.0246  1.0000  -3.5482   0.0000   0.0000   0.0000   0.2737
  12.100   1.0039   0.09435   0.09213  -0.0389  0.0247  1.0000  -3.5290   0.0000   0.0000   0.0000   0.2753
  12.200   0.9978   0.09675   0.09457  -0.0406  0.0247  1.0000  -3.5075   0.0000   0.0000   0.0000   0.2770
  12.300   0.9922   0.09916   0.09701  -0.0423  0.0247  1.0000  -3.4879   0.0000   0.0000   0.0000   0.2789
  12.400   0.9867   0.10167   0.09956  -0.0441  0.0248  1.0000  -3.4655   0.0000   0.0000   0.0000   0.2808
  12.500   0.9816   0.10420   0.10213  -0.0460  0.0248  1.0000  -3.4439   0.0000   0.0000   0.0000   0.2828
  12.600   0.9765   0.10684   0.10480  -0.0480  0.0248  1.0000  -3.4192   0.0000   0.0000   0.0000   0.2850
  12.700   0.9718   0.10953   0.10752  -0.0500  0.0249  1.0000  -3.3939   0.0000   0.0000   0.0000   0.2872
  12.800   0.9671   0.11234   0.11035  -0.0521  0.0249  1.0000  -3.3646   0.0000   0.0000   0.0000   0.2896
  12.900   0.9627   0.11522   0.11327  -0.0543  0.0249  1.0000  -3.3332   0.0000   0.0000   0.0000   0.2920
  13.000   0.9581   0.11828   0.11635  -0.0566  0.0250  1.0000  -3.2951   0.0000   0.0000   0.0000   0.2945
  13.100   0.9533   0.12156   0.11966  -0.0590  0.0250  1.0000  -3.2488   0.0000   0.0000   0.0000   0.2973
  13.200   0.9443   0.12621   0.12434  -0.0623  0.0250  1.0000  -3.1458   0.0000   0.0000   0.0000   0.3014
  13.600   0.9014   0.14988   0.14802  -0.0770  0.0245  1.0000  -2.4591   0.0000   0.0000   0.0000   0.3213
  13.700   0.9003   0.15273   0.15086  -0.0786  0.0245  1.0000  -2.4139   0.0000   0.0000   0.0000   0.3231
  13.800   0.8996   0.15545   0.15359  -0.0800  0.0245  1.0000  -2.3741   0.0000   0.0000   0.0000   0.3247
  13.900   0.8992   0.15808   0.15622  -0.0814  0.0244  1.0000  -2.3385   0.0000   0.0000   0.0000   0.3262
  14.000   0.8990   0.16064   0.15877  -0.0828  0.0244  1.0000  -2.3063   0.0000   0.0000   0.0000   0.3277
  14.100   0.8991   0.16314   0.16126  -0.0841  0.0244  1.0000  -2.2771   0.0000   0.0000   0.0000   0.3290
  14.200   0.8994   0.16557   0.16369  -0.0853  0.0244  1.0000  -2.2507   0.0000   0.0000   0.0000   0.3303
  14.300   0.9000   0.16795   0.16607  -0.0865  0.0243  1.0000  -2.2270   0.0000   0.0000   0.0000   0.3315
  14.400   0.9007   0.17026   0.16838  -0.0877  0.0243  1.0000  -2.2060   0.0000   0.0000   0.0000   0.3327
  14.500   0.9018   0.17250   0.17062  -0.0889  0.0242  1.0000  -2.1883   0.0000   0.0000   0.0000   0.3338
  14.600   0.9031   0.17465   0.17277  -0.0900  0.0242  1.0000  -2.1745   0.0000   0.0000   0.0000   0.3348
  14.700   0.9053   0.17651   0.17462  -0.0911  0.0240  1.0000  -2.1726   0.0000   0.0000   0.0000   0.3356
  14.800   0.9107   0.17740   0.17551  -0.0919  0.0234  1.0000  -2.2113   0.0000   0.0000   0.0000   0.3358
  14.900   0.9165   0.17839   0.17651  -0.0926  0.0224  1.0000  -2.2472   0.0000   0.0000   0.0000   0.3358
  15.000   0.9194   0.18029   0.17840  -0.0937  0.0214  1.0000  -2.2451   0.0000   0.0000   0.0000   0.3365
  15.100   0.9207   0.18257   0.18068  -0.0949  0.0207  1.0000  -2.2259   0.0000   0.0000   0.0000   0.3376
  15.200   0.9219   0.18484   0.18295  -0.0960  0.0200  1.0000  -2.2091   0.0000   0.0000   0.0000   0.3386
  15.300   0.9230   0.18705   0.18516  -0.0972  0.0193  1.0000  -2.1965   0.0000   0.0000   0.0000   0.3396
  15.400   0.9242   0.18919   0.18730  -0.0982  0.0187  1.0000  -2.1883   0.0000   0.0000   0.0000   0.3405
  15.500   0.9256   0.19126   0.18937  -0.0992  0.0182  1.0000  -2.1846   0.0000   0.0000   0.0000   0.3414
  15.600   0.9270   0.19327   0.19137  -0.1002  0.0176  1.0000  -2.1851   0.0000   0.0000   0.0000   0.3421
  15.700   0.9286   0.19520   0.19331  -0.1012  0.0171  1.0000  -2.1903   0.0000   0.0000   0.0000   0.3428
  15.800   0.9303   0.19706   0.19516  -0.1020  0.0167  1.0000  -2.2003   0.0000   0.0000   0.0000   0.3434
  15.900   0.9321   0.19884   0.19694  -0.1029  0.0162  1.0000  -2.2155   0.0000   0.0000   0.0000   0.3440
  16.000   0.9342   0.20053   0.19864  -0.1037  0.0158  1.0000  -2.2358   0.0000   0.0000   0.0000   0.3444
  16.100   0.9364   0.20214   0.20025  -0.1044  0.0155  1.0000  -2.2619   0.0000   0.0000   0.0000   0.3448
  16.200   0.9387   0.20365   0.20176  -0.1051  0.0151  1.0000  -2.2945   0.0000   0.0000   0.0000   0.3450
  16.300   0.9412   0.20511   0.20322  -0.1057  0.0148  1.0000  -2.3311   0.0000   0.0000   0.0000   0.3453
  16.400   0.9437   0.20648   0.20459  -0.1063  0.0145  1.0000  -2.3733   0.0000   0.0000   0.0000   0.3454
  16.500   0.9465   0.20775   0.20587  -0.1068  0.0142  1.0000  -2.4224   0.0000   0.0000   0.0000   0.3455
  16.600   0.9493   0.20893   0.20705  -0.1073  0.0139  1.0000  -2.4780   0.0000   0.0000   0.0000   0.3454
  16.700   0.9512   0.21057   0.20869  -0.1080  0.0136  1.0000  -2.5091   0.0000   0.0000   0.0000   0.3458
  16.800   0.9527   0.21230   0.21043  -0.1087  0.0133  1.0000  -2.5369   0.0000   0.0000   0.0000   0.3462
  16.900   0.9534   0.21440   0.21252  -0.1095  0.0130  1.0000  -2.5477   0.0000   0.0000   0.0000   0.3468
  17.000   0.9363   0.22553   0.22361  -0.1129  0.0120  1.0000  -2.1071   0.0000   0.0000   0.0000   0.3528
  17.100   0.9378   0.22792   0.22600  -0.1138  0.0119  1.0000  -2.0927   0.0000   0.0000   0.0000   0.3535
  17.200   0.9393   0.23030   0.22838  -0.1148  0.0119  1.0000  -2.0788   0.0000   0.0000   0.0000   0.3541
  17.300   0.9409   0.23267   0.23075  -0.1157  0.0119  1.0000  -2.0656   0.0000   0.0000   0.0000   0.3548
  17.400   0.9424   0.23503   0.23312  -0.1166  0.0119  1.0000  -2.0529   0.0000   0.0000   0.0000   0.3554
  17.500   0.9440   0.23739   0.23548  -0.1175  0.0119  1.0000  -2.0409   0.0000   0.0000   0.0000   0.3561
  17.600   0.9455   0.23974   0.23783  -0.1184  0.0119  1.0000  -2.0295   0.0000   0.0000   0.0000   0.3567
  17.700   0.9471   0.24208   0.24017  -0.1193  0.0119  1.0000  -2.0187   0.0000   0.0000   0.0000   0.3573
  17.800   0.9487   0.24441   0.24250  -0.1202  0.0119  1.0000  -2.0086   0.0000   0.0000   0.0000   0.3579
  17.900   0.9503   0.24673   0.24482  -0.1210  0.0118  1.0000  -1.9992   0.0000   0.0000   0.0000   0.3585
  18.000   0.9518   0.24903   0.24713  -0.1219  0.0118  1.0000  -1.9907   0.0000   0.0000   0.0000   0.3590
  18.100   0.9535   0.25131   0.24941  -0.1228  0.0118  1.0000  -1.9832   0.0000   0.0000   0.0000   0.3596
  18.200   0.9551   0.25356   0.25166  -0.1236  0.0117  1.0000  -1.9770   0.0000   0.0000   0.0000   0.3601
  18.300   0.9568   0.25577   0.25388  -0.1245  0.0117  1.0000  -1.9725   0.0000   0.0000   0.0000   0.3607
  18.400   0.9586   0.25792   0.25603  -0.1253  0.0116  1.0000  -1.9705   0.0000   0.0000   0.0000   0.3612
  18.500   0.9605   0.25997   0.25808  -0.1262  0.0116  1.0000  -1.9724   0.0000   0.0000   0.0000   0.3616
  18.600   0.9628   0.26185   0.25996  -0.1270  0.0114  1.0000  -1.9809   0.0000   0.0000   0.0000   0.3620
  18.700   0.9656   0.26355   0.26166  -0.1278  0.0111  1.0000  -1.9956   0.0000   0.0000   0.0000   0.3624
  18.800   0.9684   0.26534   0.26346  -0.1287  0.0108  1.0000  -2.0052   0.0000   0.0000   0.0000   0.3627
  18.900   0.9702   0.26758   0.26570  -0.1296  0.0104  1.0000  -1.9931   0.0000   0.0000   0.0000   0.3633
  19.000   0.9717   0.26996   0.26808  -0.1306  0.0101  1.0000  -1.9764   0.0000   0.0000   0.0000   0.3640
  19.100   0.9730   0.27239   0.27051  -0.1314  0.0098  1.0000  -1.9604   0.0000   0.0000   0.0000   0.3646
  19.200   0.9742   0.27483   0.27295  -0.1323  0.0095  1.0000  -1.9461   0.0000   0.0000   0.0000   0.3651
  19.300   0.9753   0.27725   0.27538  -0.1331  0.0092  1.0000  -1.9337   0.0000   0.0000   0.0000   0.3657
  19.400   0.9763   0.27967   0.27780  -0.1339  0.0089  1.0000  -1.9231   0.0000   0.0000   0.0000   0.3662
  19.500   0.9773   0.28206   0.28020  -0.1347  0.0087  1.0000  -1.9138   0.0000   0.0000   0.0000   0.3668
  19.600   0.9781   0.28444   0.28258  -0.1354  0.0085  1.0000  -1.9057   0.0000   0.0000   0.0000   0.3673
  19.700   0.9789   0.28681   0.28495  -0.1362  0.0082  1.0000  -1.8987   0.0000   0.0000   0.0000   0.3678
  19.800   0.9795   0.28915   0.28730  -0.1369  0.0080  1.0000  -1.8925   0.0000   0.0000   0.0000   0.3683
  19.900   0.9801   0.29148   0.28963  -0.1376  0.0078  1.0000  -1.8870   0.0000   0.0000   0.0000   0.3688
  20.000   0.9806   0.29379   0.29195  -0.1383  0.0077  1.0000  -1.8821   0.0000   0.0000   0.0000   0.3693
  20.100   0.9809   0.29608   0.29424  -0.1390  0.0075  1.0000  -1.8777   0.0000   0.0000   0.0000   0.3698
  20.200   0.9812   0.29835   0.29651  -0.1396  0.0073  1.0000  -1.8736   0.0000   0.0000   0.0000   0.3703
  20.300   0.9813   0.30059   0.29876  -0.1403  0.0072  1.0000  -1.8698   0.0000   0.0000   0.0000   0.3708
  20.400   0.9812   0.30280   0.30098  -0.1409  0.0070  1.0000  -1.8662   0.0000   0.0000   0.0000   0.3713
  20.500   0.9810   0.30498   0.30317  -0.1415  0.0069  1.0000  -1.8626   0.0000   0.0000   0.0000   0.3718
  20.600   0.9805   0.30712   0.30531  -0.1420  0.0067  1.0000  -1.8590   0.0000   0.0000   0.0000   0.3723
  20.700   0.9798   0.30921   0.30741  -0.1426  0.0066  1.0000  -1.8552   0.0000   0.0000   0.0000   0.3728
  21.200   0.9176   0.30690   0.30526  -0.1389  0.0063  1.0000  -1.6543   0.0000   0.0000   0.0000   0.3790
  21.300   0.9112   0.30664   0.30502  -0.1386  0.0062  1.0000  -1.6341   0.0000   0.0000   0.0000   0.3798
  21.400   0.9061   0.30662   0.30501  -0.1385  0.0061  1.0000  -1.6189   0.0000   0.0000   0.0000   0.3805
  21.500   0.9019   0.30674   0.30514  -0.1385  0.0060  1.0000  -1.6067   0.0000   0.0000   0.0000   0.3812
  21.600   0.8982   0.30692   0.30534  -0.1386  0.0060  1.0000  -1.5966   0.0000   0.0000   0.0000   0.3818
  21.700   0.8949   0.30717   0.30559  -0.1387  0.0059  1.0000  -1.5883   0.0000   0.0000   0.0000   0.3824
  21.800   0.8920   0.30746   0.30589  -0.1388  0.0058  1.0000  -1.5816   0.0000   0.0000   0.0000   0.3829
  21.900   0.8893   0.30779   0.30623  -0.1389  0.0057  1.0000  -1.5762   0.0000   0.0000   0.0000   0.3835
  22.000   0.8869   0.30815   0.30659  -0.1391  0.0056  1.0000  -1.5720   0.0000   0.0000   0.0000   0.3840
  22.100   0.8848   0.30852   0.30698  -0.1393  0.0056  1.0000  -1.5690   0.0000   0.0000   0.0000   0.3844
  22.200   0.8827   0.30892   0.30738  -0.1394  0.0055  1.0000  -1.5669   0.0000   0.0000   0.0000   0.3849
  22.300   0.8809   0.30932   0.30780  -0.1396  0.0054  1.0000  -1.5659   0.0000   0.0000   0.0000   0.3854
  22.400   0.8792   0.30974   0.30823  -0.1399  0.0053  1.0000  -1.5657   0.0000   0.0000   0.0000   0.3858
  22.500   0.8776   0.31017   0.30866  -0.1401  0.0053  1.0000  -1.5664   0.0000   0.0000   0.0000   0.3862
  22.600   0.8761   0.31061   0.30910  -0.1403  0.0052  1.0000  -1.5680   0.0000   0.0000   0.0000   0.3866
  22.700   0.8748   0.31105   0.30955  -0.1405  0.0051  1.0000  -1.5704   0.0000   0.0000   0.0000   0.3870
  22.800   0.8735   0.31149   0.31001  -0.1408  0.0051  1.0000  -1.5736   0.0000   0.0000   0.0000   0.3874
  22.900   0.8723   0.31194   0.31046  -0.1410  0.0050  1.0000  -1.5776   0.0000   0.0000   0.0000   0.3878
  23.000   0.8712   0.31239   0.31092  -0.1413  0.0050  1.0000  -1.5823   0.0000   0.0000   0.0000   0.3881
  23.100   0.8702   0.31285   0.31138  -0.1415  0.0049  1.0000  -1.5877   0.0000   0.0000   0.0000   0.3885
  23.200   0.8692   0.31330   0.31184  -0.1418  0.0048  1.0000  -1.5938   0.0000   0.0000   0.0000   0.3888
  23.300   0.8683   0.31375   0.31230  -0.1420  0.0048  1.0000  -1.6006   0.0000   0.0000   0.0000   0.3891
  23.400   0.8674   0.31420   0.31276  -0.1423  0.0047  1.0000  -1.6080   0.0000   0.0000   0.0000   0.3894
  23.500   0.8666   0.31465   0.31321  -0.1426  0.0047  1.0000  -1.6159   0.0000   0.0000   0.0000   0.3897
  23.600   0.8658   0.31510   0.31367  -0.1428  0.0046  1.0000  -1.6242   0.0000   0.0000   0.0000   0.3900
  23.700   0.8651   0.31555   0.31412  -0.1431  0.0046  1.0000  -1.6329   0.0000   0.0000   0.0000   0.3903
  23.800   0.8643   0.31601   0.31459  -0.1433  0.0045  1.0000  -1.6403   0.0000   0.0000   0.0000   0.3906
  23.900   0.8635   0.31652   0.31511  -0.1436  0.0045  1.0000  -1.6428   0.0000   0.0000   0.0000   0.3909
  24.000   0.8626   0.31704   0.31563  -0.1439  0.0044  1.0000  -1.6444   0.0000   0.0000   0.0000   0.3912
  24.100   0.8617   0.31757   0.31617  -0.1441  0.0043  1.0000  -1.6444   0.0000   0.0000   0.0000   0.3916
  24.200   0.8607   0.31811   0.31671  -0.1444  0.0043  1.0000  -1.6419   0.0000   0.0000   0.0000   0.3919
  24.300   0.8596   0.31868   0.31729  -0.1446  0.0042  1.0000  -1.6342   0.0000   0.0000   0.0000   0.3923
  24.400   0.8582   0.31930   0.31792  -0.1449  0.0042  1.0000  -1.6173   0.0000   0.0000   0.0000   0.3927
  24.500   0.8561   0.32003   0.31866  -0.1451  0.0041  1.0000  -1.5787   0.0000   0.0000   0.0000   0.3933


