xflr5 v6.61

 Calculated polar for: E222  (10.17%)

 1 1 Reynolds number fixed          Mach number fixed         

 xtrf =   1.000 (top)        1.000 (bottom)
 Mach =   0.000     Re =     0.450 e 6     Ncrit =   9.000

  alpha     CL        CD       CDp       Cm    Top Xtr Bot Xtr   Cpmin    Chinge    XCp    
 ------- -------- --------- --------- -------- ------- ------- -------- --------- ---------
 -10.000  -0.4302   0.09847   0.09597  -0.0340  1.0000  0.0258  -1.9844   0.0000   0.0000   0.0000   0.1622
  -9.900  -0.4255   0.09836   0.09587  -0.0333  1.0000  0.0265  -1.8944   0.0000   0.0000   0.0000   0.1631
  -9.800  -0.4223   0.09785   0.09537  -0.0330  1.0000  0.0272  -1.8373   0.0000   0.0000   0.0000   0.1634
  -9.700  -0.4199   0.09712   0.09464  -0.0329  1.0000  0.0278  -1.7986   0.0000   0.0000   0.0000   0.1634
  -9.600  -0.4184   0.09619   0.09372  -0.0329  1.0000  0.0284  -1.7752   0.0000   0.0000   0.0000   0.1631
  -9.500  -0.4174   0.09514   0.09268  -0.0330  1.0000  0.0289  -1.7615   0.0000   0.0000   0.0000   0.1627
  -9.400  -0.4169   0.09401   0.09155  -0.0332  1.0000  0.0294  -1.7546   0.0000   0.0000   0.0000   0.1622
  -9.300  -0.4167   0.09281   0.09037  -0.0335  1.0000  0.0298  -1.7530   0.0000   0.0000   0.0000   0.1617
  -9.200  -0.4169   0.09156   0.08912  -0.0338  1.0000  0.0302  -1.7563   0.0000   0.0000   0.0000   0.1612
  -9.100  -0.4174   0.09026   0.08784  -0.0341  1.0000  0.0306  -1.7630   0.0000   0.0000   0.0000   0.1607
  -9.000  -0.4181   0.08894   0.08653  -0.0344  1.0000  0.0309  -1.7720   0.0000   0.0000   0.0000   0.1602
  -8.900  -0.4191   0.08759   0.08519  -0.0347  1.0000  0.0312  -1.7826   0.0000   0.0000   0.0000   0.1598
  -8.800  -0.4202   0.08622   0.08384  -0.0350  1.0000  0.0315  -1.7948   0.0000   0.0000   0.0000   0.1594
  -8.700  -0.4217   0.08484   0.08248  -0.0353  1.0000  0.0317  -1.8085   0.0000   0.0000   0.0000   0.1591
  -8.600  -0.4236   0.08346   0.08112  -0.0356  1.0000  0.0320  -1.8236   0.0000   0.0000   0.0000   0.1589
  -8.500  -0.4258   0.08208   0.07975  -0.0358  1.0000  0.0323  -1.8401   0.0000   0.0000   0.0000   0.1589
  -8.400  -0.4284   0.08071   0.07840  -0.0361  1.0000  0.0325  -1.8581   0.0000   0.0000   0.0000   0.1591
  -8.300  -0.4316   0.07934   0.07705  -0.0362  1.0000  0.0328  -1.8776   0.0000   0.0000   0.0000   0.1595
  -8.200  -0.4354   0.07799   0.07572  -0.0363  1.0000  0.0330  -1.8987   0.0000   0.0000   0.0000   0.1601
  -8.100  -0.4400   0.07667   0.07442  -0.0363  1.0000  0.0332  -1.9215   0.0000   0.0000   0.0000   0.1612
  -8.000  -0.4456   0.07541   0.07318  -0.0361  1.0000  0.0334  -1.9460   0.0000   0.0000   0.0000   0.1628
  -7.900  -0.4524   0.07422   0.07202  -0.0357  1.0000  0.0335  -1.9724   0.0000   0.0000   0.0000   0.1651
  -7.800  -0.4609   0.07317   0.07100  -0.0350  1.0000  0.0335  -2.0005   0.0000   0.0000   0.0000   0.1683
  -7.700  -0.4710   0.07221   0.07007  -0.0341  1.0000  0.0335  -2.0305   0.0000   0.0000   0.0000   0.1722
  -7.600  -0.4802   0.07098   0.06887  -0.0337  1.0000  0.0335  -2.0636   0.0000   0.0000   0.0000   0.1744
  -7.500  -0.4878   0.06925   0.06716  -0.0346  1.0000  0.0335  -2.1029   0.0000   0.0000   0.0000   0.1740
  -7.400  -0.4959   0.06718   0.06511  -0.0360  1.0000  0.0334  -2.1515   0.0000   0.0000   0.0000   0.1723
  -7.300  -0.4951   0.06339   0.06128  -0.0411  0.9989  0.0337  -2.2200   0.0000   0.0000   0.0000   0.1621
  -7.200  -0.4864   0.05901   0.05681  -0.0475  0.9970  0.0344  -2.2850   0.0000   0.0000   0.0000   0.1473
  -7.100  -0.4783   0.05559   0.05330  -0.0520  0.9950  0.0352  -2.3281   0.0000   0.0000   0.0000   0.1363
  -7.000  -0.4691   0.05284   0.05045  -0.0554  0.9930  0.0361  -2.3526   0.0000   0.0000   0.0000   0.1269
  -6.900  -0.4582   0.05070   0.04821  -0.0581  0.9913  0.0372  -2.3581   0.0000   0.0000   0.0000   0.1181
  -6.800  -0.4446   0.04956   0.04697  -0.0600  0.9900  0.0386  -2.3320   0.0000   0.0000   0.0000   0.1099
  -6.700  -0.4271   0.05007   0.04741  -0.0610  0.9892  0.0399  -2.2545   0.0000   0.0000   0.0000   0.1019
  -6.600  -0.4127   0.04943   0.04666  -0.0629  0.9881  0.0404  -2.2125   0.0000   0.0000   0.0000   0.0923
  -6.500  -0.4003   0.04795   0.04506  -0.0651  0.9871  0.0405  -2.1938   0.0000   0.0000   0.0000   0.0821
  -6.400  -0.3926   0.04652   0.04353  -0.0660  0.9843  0.0406  -2.1828   0.0000   0.0000   0.0000   0.0765
  -6.300  -0.3829   0.04498   0.04188  -0.0674  0.9821  0.0407  -2.1700   0.0000   0.0000   0.0000   0.0687
  -6.200  -0.3884   0.03522   0.03162  -0.0723  0.9781  0.0428  -2.4216   0.0000   0.0000   0.0000   0.0583
  -6.100  -0.3793   0.03256   0.02887  -0.0739  0.9768  0.0445  -2.4053   0.0000   0.0000   0.0000   0.0494
  -6.000  -0.3671   0.03133   0.02760  -0.0751  0.9758  0.0456  -2.3498   0.0000   0.0000   0.0000   0.0399
  -5.900  -0.3544   0.03038   0.02663  -0.0761  0.9750  0.0467  -2.2883   0.0000   0.0000   0.0000   0.0296
  -5.800  -0.3413   0.02956   0.02579  -0.0771  0.9743  0.0478  -2.2248   0.0000   0.0000   0.0000   0.0185
  -5.700  -0.3278   0.02875   0.02494  -0.0781  0.9736  0.0491  -2.1641   0.0000   0.0000   0.0000   0.0061
  -5.600  -0.3139   0.02793   0.02407  -0.0791  0.9730  0.0506  -2.1065   0.0000   0.0000   0.0000  -0.0080
  -5.500  -0.2996   0.02713   0.02319  -0.0802  0.9724  0.0523  -2.0517   0.0000   0.0000   0.0000  -0.0238
  -5.400  -0.2939   0.02654   0.02255  -0.0793  0.9683  0.0536  -2.0182   0.0000   0.0000   0.0000  -0.0259
  -5.300  -0.2824   0.02589   0.02183  -0.0796  0.9660  0.0554  -1.9735   0.0000   0.0000   0.0000  -0.0379
  -5.200  -0.2694   0.02533   0.02121  -0.0801  0.9641  0.0575  -1.9254   0.0000   0.0000   0.0000  -0.0533
  -5.100  -0.2553   0.02501   0.02083  -0.0806  0.9626  0.0596  -1.8717   0.0000   0.0000   0.0000  -0.0719
  -5.000  -0.2398   0.02543   0.02123  -0.0810  0.9613  0.0618  -1.7983   0.0000   0.0000   0.0000  -0.0941
  -4.800  -0.2126   0.01859   0.01353  -0.0816  0.9590  0.0378  -2.0459   0.0000   0.0000   0.0000  -0.1414
  -4.700  -0.1991   0.01521   0.00961  -0.0811  0.9584  0.0264  -2.2695   0.0000   0.0000   0.0000  -0.1653
  -4.600  -0.1841   0.01505   0.00940  -0.0817  0.9576  0.0249  -2.2052   0.0000   0.0000   0.0000  -0.2019
  -4.500  -0.1689   0.01502   0.00936  -0.0824  0.9568  0.0240  -2.1231   0.0000   0.0000   0.0000  -0.2465
  -4.400  -0.1533   0.01504   0.00938  -0.0831  0.9560  0.0233  -2.0349   0.0000   0.0000   0.0000  -0.3016
  -4.300  -0.1394   0.01383   0.00806  -0.0837  0.9554  0.0221  -2.0401   0.0000   0.0000   0.0000  -0.3603
  -4.200  -0.1247   0.01300   0.00714  -0.0844  0.9547  0.0216  -2.0142   0.0000   0.0000   0.0000  -0.4374
  -4.000  -0.0937   0.01206   0.00588  -0.0861  0.9535  0.0207  -1.8678   0.0000   0.0000   0.0000  -0.6821
  -3.900  -0.0781   0.01161   0.00536  -0.0870  0.9528  0.0202  -1.8196   0.0000   0.0000   0.0000  -0.8796
  -3.800  -0.0732   0.01137   0.00506  -0.0856  0.9476  0.0200  -1.7885   0.0000   0.0000   0.0000  -0.9358
  -3.700  -0.0613   0.01107   0.00470  -0.0857  0.9451  0.0196  -1.7409   0.0000   0.0000   0.0000  -1.1650
  -3.600  -0.0483   0.01080   0.00438  -0.0860  0.9431  0.0193  -1.6879   0.0000   0.0000   0.0000  -1.5520
  -3.500  -0.0349   0.01057   0.00409  -0.0864  0.9413  0.0191  -1.6316   0.0000   0.0000   0.0000  -2.2534
  -3.400  -0.0211   0.01037   0.00382  -0.0868  0.9396  0.0188  -1.5726   0.0000   0.0000   0.0000  -3.9030
  -3.300  -0.0070   0.01019   0.00359  -0.0874  0.9379  0.0187  -1.5109   0.0000   0.0000   0.0000  -12.4436
  -3.200   0.0074   0.01003   0.00338  -0.0879  0.9362  0.0186  -1.4475   0.0000   0.0000   0.0000  12.2186
  -3.100   0.0219   0.00988   0.00319  -0.0885  0.9346  0.0186  -1.3826   0.0000   0.0000   0.0000   4.3309
  -3.000   0.0365   0.00975   0.00302  -0.0891  0.9329  0.0187  -1.3158   0.0000   0.0000   0.0000   2.7146
  -2.900   0.0516   0.00963   0.00285  -0.0898  0.9313  0.0190  -1.2465   0.0000   0.0000   0.0000   2.0075
  -2.800   0.0667   0.00953   0.00271  -0.0906  0.9297  0.0194  -1.1763   0.0000   0.0000   0.0000   1.6184
  -2.700   0.0817   0.00944   0.00258  -0.0913  0.9280  0.0202  -1.1070   0.0000   0.0000   0.0000   1.3767
  -2.600   0.0900   0.00938   0.00251  -0.0906  0.9237  0.0210  -1.0557   0.0000   0.0000   0.0000   1.2642
  -2.500   0.1006   0.00930   0.00243  -0.0905  0.9200  0.0224  -0.9990   0.0000   0.0000   0.0000   1.1551
  -2.400   0.1115   0.00885   0.00226  -0.0906  0.9163  0.0919  -0.9450   0.0000   0.0000   0.0000   1.0682
  -2.300   0.1230   0.00847   0.00215  -0.0909  0.9128  0.1542  -0.8840   0.0000   0.0000   0.0000   0.9937
  -2.200   0.1355   0.00817   0.00207  -0.0914  0.9096  0.2079  -0.8157   0.0000   0.0000   0.0000   0.9281
  -2.100   0.1488   0.00797   0.00201  -0.0919  0.9064  0.2467  -0.7435   0.0000   0.0000   0.0000   0.8710
  -2.000   0.1623   0.00778   0.00195  -0.0925  0.9033  0.2813  -0.6703   0.0000   0.0000   0.0000   0.8225
  -1.900   0.1760   0.00761   0.00190  -0.0931  0.9000  0.3142  -0.5974   0.0000   0.0000   0.0000   0.7812
  -1.800   0.1865   0.00753   0.00188  -0.0930  0.8959  0.3367  -0.5343   0.0000   0.0000   0.0000   0.7503
  -1.700   0.1963   0.00740   0.00188  -0.0927  0.8914  0.3659  -0.4872   0.0000   0.0000   0.0000   0.7241
  -1.600   0.2070   0.00733   0.00186  -0.0926  0.8870  0.3862  -0.4485   0.0000   0.0000   0.0000   0.6990
  -1.500   0.2182   0.00721   0.00185  -0.0927  0.8826  0.4137  -0.4421   0.0000   0.0000   0.0000   0.6759
  -1.400   0.2301   0.00714   0.00182  -0.0928  0.8782  0.4335  -0.4502   0.0000   0.0000   0.0000   0.6543
  -1.300   0.2422   0.00706   0.00179  -0.0930  0.8738  0.4529  -0.4585   0.0000   0.0000   0.0000   0.6346
  -1.200   0.2545   0.00698   0.00177  -0.0932  0.8692  0.4760  -0.4674   0.0000   0.0000   0.0000   0.6167
  -1.100   0.2665   0.00694   0.00175  -0.0933  0.8644  0.4940  -0.4765   0.0000   0.0000   0.0000   0.6006
  -1.000   0.2762   0.00685   0.00177  -0.0931  0.8597  0.5185  -0.4846   0.0000   0.0000   0.0000   0.5871
  -0.900   0.2865   0.00679   0.00178  -0.0929  0.8545  0.5405  -0.4930   0.0000   0.0000   0.0000   0.5741
  -0.800   0.2968   0.00667   0.00181  -0.0927  0.8491  0.5829  -0.5014   0.0000   0.0000   0.0000   0.5621
  -0.700   0.3069   0.00652   0.00186  -0.0924  0.8440  0.6377  -0.5098   0.0000   0.0000   0.0000   0.5508
  -0.600   0.3166   0.00640   0.00193  -0.0919  0.8387  0.6979  -0.5181   0.0000   0.0000   0.0000   0.5400
  -0.500   0.3261   0.00633   0.00202  -0.0913  0.8331  0.7405  -0.5263   0.0000   0.0000   0.0000   0.5296
  -0.400   0.3375   0.00635   0.00201  -0.0913  0.8274  0.7500  -0.5359   0.0000   0.0000   0.0000   0.5200
  -0.300   0.3474   0.00632   0.00202  -0.0910  0.8228  0.7609  -0.5453   0.0000   0.0000   0.0000   0.5112
  -0.200   0.3572   0.00629   0.00204  -0.0906  0.8171  0.7729  -0.5547   0.0000   0.0000   0.0000   0.5028
  -0.100   0.3674   0.00629   0.00204  -0.0903  0.8111  0.7841  -0.5643   0.0000   0.0000   0.0000   0.4948
   0.000   0.3781   0.00629   0.00204  -0.0901  0.8050  0.7935  -0.5743   0.0000   0.0000   0.0000   0.4872
   0.100   0.3890   0.00631   0.00203  -0.0899  0.7992  0.8018  -0.5843   0.0000   0.0000   0.0000   0.4801
   0.200   0.3990   0.00631   0.00203  -0.0895  0.7932  0.8123  -0.5944   0.0000   0.0000   0.0000   0.4732
   0.300   0.4092   0.00633   0.00205  -0.0892  0.7870  0.8230  -0.6055   0.0000   0.0000   0.0000   0.4668
   0.400   0.4191   0.00632   0.00206  -0.0889  0.7825  0.8332  -0.6164   0.0000   0.0000   0.0000   0.4607
   0.500   0.4294   0.00633   0.00207  -0.0886  0.7768  0.8416  -0.6277   0.0000   0.0000   0.0000   0.4550
   0.600   0.4388   0.00632   0.00208  -0.0881  0.7702  0.8509  -0.6384   0.0000   0.0000   0.0000   0.4493
   0.700   0.4482   0.00633   0.00208  -0.0876  0.7633  0.8601  -0.6492   0.0000   0.0000   0.0000   0.4439
   0.800   0.4579   0.00635   0.00208  -0.0872  0.7563  0.8689  -0.6603   0.0000   0.0000   0.0000   0.4387
   0.900   0.4680   0.00640   0.00208  -0.0868  0.7489  0.8770  -0.6715   0.0000   0.0000   0.0000   0.4338
   1.000   0.4778   0.00642   0.00210  -0.0865  0.7428  0.8848  -0.6828   0.0000   0.0000   0.0000   0.4291
   1.100   0.4865   0.00640   0.00211  -0.0858  0.7380  0.8943  -0.6949   0.0000   0.0000   0.0000   0.4245
   1.200   0.4953   0.00640   0.00212  -0.0852  0.7318  0.9045  -0.7071   0.0000   0.0000   0.0000   0.4200
   1.300   0.5046   0.00642   0.00212  -0.0847  0.7247  0.9141  -0.7197   0.0000   0.0000   0.0000   0.4157
   1.400   0.5131   0.00643   0.00212  -0.0839  0.7172  0.9235  -0.7318   0.0000   0.0000   0.0000   0.4115
   1.500   0.5218   0.00645   0.00211  -0.0833  0.7094  0.9339  -0.7441   0.0000   0.0000   0.0000   0.4074
   1.600   0.5308   0.00650   0.00211  -0.0827  0.7010  0.9443  -0.7567   0.0000   0.0000   0.0000   0.4035
   1.700   0.5420   0.00649   0.00211  -0.0826  0.6960  0.9543  -0.7731   0.0000   0.0000   0.0000   0.4001
   1.800   0.5544   0.00648   0.00211  -0.0828  0.6910  0.9654  -0.7906   0.0000   0.0000   0.0000   0.3970
   1.900   0.5690   0.00648   0.00210  -0.0836  0.6843  0.9754  -0.8099   0.0000   0.0000   0.0000   0.3943
   2.100   0.5988   0.00655   0.00209  -0.0852  0.6668  1.0000  -0.8497   0.0000   0.0000   0.0000   0.3896
   2.200   0.6089   0.00663   0.00211  -0.0850  0.6571  1.0000  -0.8684   0.0000   0.0000   0.0000   0.3869
   2.300   0.6195   0.00669   0.00213  -0.0850  0.6494  1.0000  -0.8877   0.0000   0.0000   0.0000   0.3843
   2.400   0.6305   0.00672   0.00216  -0.0850  0.6438  1.0000  -0.9075   0.0000   0.0000   0.0000   0.3819
   2.500   0.6413   0.00676   0.00219  -0.0849  0.6368  1.0000  -0.9272   0.0000   0.0000   0.0000   0.3795
   2.600   0.6519   0.00682   0.00221  -0.0849  0.6284  1.0000  -0.9468   0.0000   0.0000   0.0000   0.3771
   2.700   0.6622   0.00690   0.00223  -0.0847  0.6189  1.0000  -0.9662   0.0000   0.0000   0.0000   0.3748
   2.800   0.6720   0.00700   0.00227  -0.0845  0.6080  1.0000  -0.9853   0.0000   0.0000   0.0000   0.3725
   2.900   0.6827   0.00707   0.00230  -0.0844  0.6001  1.0000  -1.0088   0.0000   0.0000   0.0000   0.3703
   3.000   0.6937   0.00709   0.00241  -0.0844  0.5947  1.0000  -1.0325   0.0000   0.0000   0.0000   0.3683
   3.100   0.6976   0.00745   0.00237  -0.0829  0.5264  1.0000  -1.0496   0.0000   0.0000   0.0000   0.3654
   3.200   0.7011   0.00793   0.00243  -0.0815  0.4571  1.0000  -1.0662   0.0000   0.0000   0.0000   0.3627
   3.300   0.7092   0.00819   0.00249  -0.0810  0.4210  1.0000  -1.0895   0.0000   0.0000   0.0000   0.3606
   3.400   0.7182   0.00838   0.00256  -0.0807  0.3979  1.0000  -1.1171   0.0000   0.0000   0.0000   0.3586
   3.500   0.7273   0.00857   0.00262  -0.0804  0.3749  1.0000  -1.1453   0.0000   0.0000   0.0000   0.3567
   3.600   0.7363   0.00879   0.00270  -0.0801  0.3520  1.0000  -1.1733   0.0000   0.0000   0.0000   0.3549
   3.700   0.7457   0.00897   0.00278  -0.0799  0.3306  1.0000  -1.2020   0.0000   0.0000   0.0000   0.3531
   3.800   0.7546   0.00920   0.00287  -0.0796  0.3078  1.0000  -1.2302   0.0000   0.0000   0.0000   0.3514
   3.900   0.7643   0.00937   0.00295  -0.0794  0.2901  1.0000  -1.2596   0.0000   0.0000   0.0000   0.3497
   4.000   0.7731   0.00962   0.00305  -0.0791  0.2677  1.0000  -1.2879   0.0000   0.0000   0.0000   0.3480
   4.100   0.7829   0.00978   0.00314  -0.0789  0.2510  1.0000  -1.3177   0.0000   0.0000   0.0000   0.3465
   4.200   0.7914   0.01008   0.00326  -0.0786  0.2264  1.0000  -1.3455   0.0000   0.0000   0.0000   0.3449
   4.300   0.8008   0.01027   0.00336  -0.0784  0.2068  1.0000  -1.3943   0.0000   0.0000   0.0000   0.3433
   4.400   0.8093   0.01058   0.00350  -0.0780  0.1822  1.0000  -1.4510   0.0000   0.0000   0.0000   0.3418
   4.500   0.8180   0.01086   0.00364  -0.0777  0.1587  1.0000  -1.5098   0.0000   0.0000   0.0000   0.3403
   4.600   0.8267   0.01114   0.00379  -0.0774  0.1365  1.0000  -1.5701   0.0000   0.0000   0.0000   0.3389
   4.700   0.8351   0.01146   0.00394  -0.0771  0.1126  1.0000  -1.6310   0.0000   0.0000   0.0000   0.3374
   4.800   0.8433   0.01180   0.00413  -0.0767  0.0902  1.0000  -1.6934   0.0000   0.0000   0.0000   0.3360
   4.900   0.8517   0.01212   0.00431  -0.0763  0.0688  1.0000  -1.7591   0.0000   0.0000   0.0000   0.3346
   5.000   0.8580   0.01268   0.00463  -0.0756  0.0319  1.0000  -1.8183   0.0000   0.0000   0.0000   0.3330
   5.100   0.8655   0.01311   0.00492  -0.0751  0.0115  1.0000  -1.8853   0.0000   0.0000   0.0000   0.3315
   5.200   0.8757   0.01324   0.00503  -0.0750  0.0109  1.0000  -1.9687   0.0000   0.0000   0.0000   0.3303
   5.300   0.8858   0.01337   0.00514  -0.0748  0.0103  1.0000  -2.0563   0.0000   0.0000   0.0000   0.3290
   5.400   0.8959   0.01350   0.00526  -0.0746  0.0097  1.0000  -2.1464   0.0000   0.0000   0.0000   0.3278
   5.500   0.9060   0.01363   0.00539  -0.0745  0.0093  1.0000  -2.2384   0.0000   0.0000   0.0000   0.3266
   5.600   0.9161   0.01376   0.00553  -0.0743  0.0089  1.0000  -2.3313   0.0000   0.0000   0.0000   0.3254
   5.700   0.9262   0.01389   0.00568  -0.0741  0.0086  1.0000  -2.4247   0.0000   0.0000   0.0000   0.3242
   5.800   0.9362   0.01402   0.00583  -0.0739  0.0084  1.0000  -2.5186   0.0000   0.0000   0.0000   0.3230
   5.900   0.9463   0.01415   0.00599  -0.0738  0.0083  1.0000  -2.6129   0.0000   0.0000   0.0000   0.3219
   6.000   0.9563   0.01429   0.00617  -0.0736  0.0081  1.0000  -2.7071   0.0000   0.0000   0.0000   0.3208
   6.100   0.9662   0.01443   0.00635  -0.0733  0.0081  1.0000  -2.8012   0.0000   0.0000   0.0000   0.3196
   6.200   0.9761   0.01458   0.00654  -0.0731  0.0080  1.0000  -2.8952   0.0000   0.0000   0.0000   0.3185
   6.300   0.9859   0.01474   0.00674  -0.0729  0.0080  1.0000  -2.9885   0.0000   0.0000   0.0000   0.3174
   6.400   0.9956   0.01491   0.00696  -0.0726  0.0080  1.0000  -3.0810   0.0000   0.0000   0.0000   0.3163
   6.500   1.0052   0.01509   0.00718  -0.0723  0.0080  1.0000  -3.1723   0.0000   0.0000   0.0000   0.3152
   6.600   1.0147   0.01528   0.00742  -0.0720  0.0081  1.0000  -3.2617   0.0000   0.0000   0.0000   0.3142
   6.700   1.0240   0.01549   0.00768  -0.0717  0.0081  1.0000  -3.3489   0.0000   0.0000   0.0000   0.3131
   6.800   1.0338   0.01563   0.00806  -0.0714  0.0085  1.0000  -3.3954   0.0000   0.0000   0.0000   0.3120
   6.900   1.0431   0.01584   0.00832  -0.0711  0.0085  1.0000  -3.4666   0.0000   0.0000   0.0000   0.3110
   7.000   1.0520   0.01609   0.00864  -0.0707  0.0086  1.0000  -3.5450   0.0000   0.0000   0.0000   0.3099
   7.100   1.0605   0.01638   0.00899  -0.0702  0.0087  1.0000  -3.6248   0.0000   0.0000   0.0000   0.3088
   7.200   1.0687   0.01670   0.00937  -0.0696  0.0088  1.0000  -3.7041   0.0000   0.0000   0.0000   0.3076
   7.300   1.0766   0.01706   0.00980  -0.0690  0.0089  1.0000  -3.7786   0.0000   0.0000   0.0000   0.3065
   7.400   1.0839   0.01745   0.01027  -0.0683  0.0090  1.0000  -3.8486   0.0000   0.0000   0.0000   0.3053
   7.500   1.0909   0.01789   0.01078  -0.0676  0.0091  1.0000  -3.9142   0.0000   0.0000   0.0000   0.3041
   7.600   1.0973   0.01837   0.01133  -0.0667  0.0093  1.0000  -3.9754   0.0000   0.0000   0.0000   0.3028
   7.700   1.1033   0.01888   0.01193  -0.0658  0.0094  1.0000  -4.0320   0.0000   0.0000   0.0000   0.3015
   7.800   1.1090   0.01945   0.01257  -0.0648  0.0096  1.0000  -4.0844   0.0000   0.0000   0.0000   0.3002
   7.900   1.1143   0.02006   0.01326  -0.0638  0.0098  1.0000  -4.1332   0.0000   0.0000   0.0000   0.2989
   8.000   1.1193   0.02073   0.01401  -0.0627  0.0100  1.0000  -4.1774   0.0000   0.0000   0.0000   0.2976
   8.100   1.1241   0.02147   0.01484  -0.0617  0.0103  1.0000  -4.2165   0.0000   0.0000   0.0000   0.2962
   8.200   1.1287   0.02231   0.01576  -0.0605  0.0105  1.0000  -4.2498   0.0000   0.0000   0.0000   0.2949
   8.300   1.1333   0.02329   0.01683  -0.0594  0.0108  1.0000  -4.2749   0.0000   0.0000   0.0000   0.2936
   8.400   1.1379   0.02452   0.01816  -0.0584  0.0112  1.0000  -4.2855   0.0000   0.0000   0.0000   0.2923
   8.500   1.1414   0.02773   0.02158  -0.0571  0.0122  1.0000  -4.1680   0.0000   0.0000   0.0000   0.2910
   8.600   1.1507   0.02741   0.02124  -0.0568  0.0126  1.0000  -4.2903   0.0000   0.0000   0.0000   0.2901
   8.700   1.1601   0.02720   0.02103  -0.0564  0.0130  1.0000  -4.4062   0.0000   0.0000   0.0000   0.2892
   8.800   1.1694   0.02715   0.02100  -0.0559  0.0137  1.0000  -4.5094   0.0000   0.0000   0.0000   0.2883
  11.300   1.0927   0.07246   0.06974  -0.0282  0.0339  1.0000  -3.7125   0.0000   0.0000   0.0000   0.2635
  11.400   1.0831   0.07442   0.07176  -0.0286  0.0339  1.0000  -3.6863   0.0000   0.0000   0.0000   0.2640
  11.500   1.0731   0.07654   0.07394  -0.0293  0.0339  1.0000  -3.6560   0.0000   0.0000   0.0000   0.2648
  11.600   1.0631   0.07885   0.07631  -0.0303  0.0338  1.0000  -3.6227   0.0000   0.0000   0.0000   0.2658
  11.700   1.0527   0.08139   0.07891  -0.0316  0.0339  1.0000  -3.5841   0.0000   0.0000   0.0000   0.2671
  11.800   1.0421   0.08417   0.08174  -0.0332  0.0339  1.0000  -3.5406   0.0000   0.0000   0.0000   0.2689
  11.900   1.0313   0.08718   0.08481  -0.0351  0.0339  1.0000  -3.4920   0.0000   0.0000   0.0000   0.2709
  12.000   1.0200   0.09051   0.08819  -0.0375  0.0340  1.0000  -3.4352   0.0000   0.0000   0.0000   0.2734
  12.100   1.0082   0.09420   0.09194  -0.0402  0.0341  1.0000  -3.3696   0.0000   0.0000   0.0000   0.2764
  12.200   0.9962   0.09827   0.09605  -0.0432  0.0342  1.0000  -3.2947   0.0000   0.0000   0.0000   0.2799
  12.300   0.9843   0.10276   0.10059  -0.0467  0.0342  1.0000  -3.2092   0.0000   0.0000   0.0000   0.2839
  12.400   0.9719   0.10786   0.10573  -0.0505  0.0342  1.0000  -3.1067   0.0000   0.0000   0.0000   0.2884
  12.500   0.9595   0.11370   0.11159  -0.0548  0.0341  1.0000  -2.9835   0.0000   0.0000   0.0000   0.2936
  12.600   0.9486   0.12006   0.11797  -0.0590  0.0336  1.0000  -2.8461   0.0000   0.0000   0.0000   0.2988
  12.700   0.9423   0.12442   0.12232  -0.0617  0.0332  1.0000  -2.7670   0.0000   0.0000   0.0000   0.3021
  12.800   0.9376   0.12804   0.12593  -0.0639  0.0328  1.0000  -2.7094   0.0000   0.0000   0.0000   0.3047
  12.900   0.9337   0.13127   0.12916  -0.0658  0.0323  1.0000  -2.6626   0.0000   0.0000   0.0000   0.3070
  13.000   0.9306   0.13426   0.13213  -0.0675  0.0320  1.0000  -2.6234   0.0000   0.0000   0.0000   0.3090
  13.100   0.9280   0.13705   0.13492  -0.0691  0.0316  1.0000  -2.5901   0.0000   0.0000   0.0000   0.3108
  13.200   0.9259   0.13968   0.13754  -0.0706  0.0312  1.0000  -2.5617   0.0000   0.0000   0.0000   0.3125
  13.300   0.9242   0.14215   0.14001  -0.0719  0.0309  1.0000  -2.5376   0.0000   0.0000   0.0000   0.3141
  13.400   0.9228   0.14440   0.14226  -0.0732  0.0305  1.0000  -2.5176   0.0000   0.0000   0.0000   0.3155
  13.500   0.9219   0.14649   0.14434  -0.0744  0.0302  1.0000  -2.5011   0.0000   0.0000   0.0000   0.3168
  13.600   0.9212   0.14850   0.14635  -0.0756  0.0299  1.0000  -2.4880   0.0000   0.0000   0.0000   0.3181
  13.700   0.9209   0.15045   0.14830  -0.0767  0.0296  1.0000  -2.4782   0.0000   0.0000   0.0000   0.3192
  13.800   0.9208   0.15236   0.15020  -0.0778  0.0293  1.0000  -2.4714   0.0000   0.0000   0.0000   0.3202
  13.900   0.9210   0.15421   0.15205  -0.0788  0.0290  1.0000  -2.4677   0.0000   0.0000   0.0000   0.3212
  14.000   0.9215   0.15603   0.15387  -0.0797  0.0287  1.0000  -2.4671   0.0000   0.0000   0.0000   0.3220
  14.100   0.9222   0.15780   0.15564  -0.0806  0.0285  1.0000  -2.4696   0.0000   0.0000   0.0000   0.3228
  14.200   0.9231   0.15952   0.15736  -0.0814  0.0282  1.0000  -2.4752   0.0000   0.0000   0.0000   0.3235
  14.300   0.9242   0.16120   0.15903  -0.0822  0.0279  1.0000  -2.4840   0.0000   0.0000   0.0000   0.3241
  14.400   0.9256   0.16282   0.16066  -0.0830  0.0277  1.0000  -2.4961   0.0000   0.0000   0.0000   0.3246
  14.500   0.9270   0.16444   0.16227  -0.0837  0.0274  1.0000  -2.5095   0.0000   0.0000   0.0000   0.3251
  14.600   0.9277   0.16630   0.16413  -0.0846  0.0271  1.0000  -2.5126   0.0000   0.0000   0.0000   0.3259
  14.700   0.9284   0.16817   0.16600  -0.0854  0.0268  1.0000  -2.5162   0.0000   0.0000   0.0000   0.3267
  14.800   0.9288   0.17011   0.16794  -0.0863  0.0265  1.0000  -2.5179   0.0000   0.0000   0.0000   0.3274
  14.900   0.9286   0.17227   0.17010  -0.0872  0.0261  1.0000  -2.5118   0.0000   0.0000   0.0000   0.3283
  15.000   0.9040   0.18354   0.18131  -0.0918  0.0245  1.0000  -2.1296   0.0000   0.0000   0.0000   0.3362
  15.100   0.9051   0.18592   0.18369  -0.0929  0.0245  1.0000  -2.1096   0.0000   0.0000   0.0000   0.3372
  15.200   0.9061   0.18829   0.18606  -0.0940  0.0245  1.0000  -2.0907   0.0000   0.0000   0.0000   0.3382
  15.300   0.9073   0.19065   0.18841  -0.0950  0.0245  1.0000  -2.0727   0.0000   0.0000   0.0000   0.3391
  15.400   0.9085   0.19299   0.19075  -0.0961  0.0245  1.0000  -2.0556   0.0000   0.0000   0.0000   0.3400
  15.500   0.9098   0.19531   0.19307  -0.0971  0.0244  1.0000  -2.0392   0.0000   0.0000   0.0000   0.3409
  15.600   0.9112   0.19762   0.19538  -0.0982  0.0244  1.0000  -2.0237   0.0000   0.0000   0.0000   0.3418
  15.700   0.9126   0.19991   0.19767  -0.0992  0.0244  1.0000  -2.0090   0.0000   0.0000   0.0000   0.3426
  15.800   0.9140   0.20219   0.19995  -0.1002  0.0244  1.0000  -1.9951   0.0000   0.0000   0.0000   0.3435
  15.900   0.9155   0.20444   0.20220  -0.1012  0.0244  1.0000  -1.9820   0.0000   0.0000   0.0000   0.3443
  16.000   0.9171   0.20667   0.20443  -0.1022  0.0243  1.0000  -1.9698   0.0000   0.0000   0.0000   0.3450
  16.100   0.9187   0.20888   0.20664  -0.1032  0.0243  1.0000  -1.9585   0.0000   0.0000   0.0000   0.3458
  16.200   0.9204   0.21106   0.20882  -0.1041  0.0242  1.0000  -1.9482   0.0000   0.0000   0.0000   0.3465
  16.300   0.9222   0.21319   0.21095  -0.1051  0.0242  1.0000  -1.9392   0.0000   0.0000   0.0000   0.3473
  16.400   0.9241   0.21527   0.21303  -0.1061  0.0241  1.0000  -1.9318   0.0000   0.0000   0.0000   0.3480
  16.500   0.9262   0.21727   0.21503  -0.1070  0.0240  1.0000  -1.9265   0.0000   0.0000   0.0000   0.3486
  16.600   0.9285   0.21915   0.21691  -0.1080  0.0238  1.0000  -1.9242   0.0000   0.0000   0.0000   0.3492
  16.700   0.9312   0.22087   0.21863  -0.1089  0.0236  1.0000  -1.9259   0.0000   0.0000   0.0000   0.3498
  16.800   0.9343   0.22249   0.22026  -0.1099  0.0232  1.0000  -1.9289   0.0000   0.0000   0.0000   0.3503
  16.900   0.9368   0.22435   0.22211  -0.1110  0.0227  1.0000  -1.9208   0.0000   0.0000   0.0000   0.3511
  17.000   0.9384   0.22646   0.22422  -0.1123  0.0220  1.0000  -1.8997   0.0000   0.0000   0.0000   0.3521
  17.100   0.9399   0.22870   0.22646  -0.1135  0.0213  1.0000  -1.8785   0.0000   0.0000   0.0000   0.3531
  17.200   0.9415   0.23097   0.22873  -0.1146  0.0206  1.0000  -1.8628   0.0000   0.0000   0.0000   0.3539
  17.300   0.9430   0.23322   0.23098  -0.1156  0.0200  1.0000  -1.8518   0.0000   0.0000   0.0000   0.3547
  17.400   0.9446   0.23544   0.23320  -0.1165  0.0194  1.0000  -1.8445   0.0000   0.0000   0.0000   0.3553
  17.500   0.9462   0.23763   0.23540  -0.1174  0.0188  1.0000  -1.8402   0.0000   0.0000   0.0000   0.3560
  17.600   0.9478   0.23979   0.23756  -0.1183  0.0183  1.0000  -1.8385   0.0000   0.0000   0.0000   0.3565
  17.700   0.9494   0.24193   0.23969  -0.1191  0.0178  1.0000  -1.8393   0.0000   0.0000   0.0000   0.3571
  17.800   0.9511   0.24403   0.24180  -0.1199  0.0174  1.0000  -1.8423   0.0000   0.0000   0.0000   0.3575
  17.900   0.9527   0.24610   0.24387  -0.1207  0.0169  1.0000  -1.8475   0.0000   0.0000   0.0000   0.3580
  18.000   0.9545   0.24814   0.24591  -0.1215  0.0165  1.0000  -1.8552   0.0000   0.0000   0.0000   0.3584
  18.100   0.9562   0.25015   0.24792  -0.1222  0.0162  1.0000  -1.8652   0.0000   0.0000   0.0000   0.3588
  18.200   0.9580   0.25212   0.24990  -0.1229  0.0158  1.0000  -1.8776   0.0000   0.0000   0.0000   0.3592
  18.300   0.9597   0.25406   0.25184  -0.1236  0.0155  1.0000  -1.8926   0.0000   0.0000   0.0000   0.3595
  18.400   0.9616   0.25596   0.25374  -0.1243  0.0152  1.0000  -1.9104   0.0000   0.0000   0.0000   0.3598
  18.500   0.9634   0.25782   0.25561  -0.1249  0.0149  1.0000  -1.9312   0.0000   0.0000   0.0000   0.3600
  18.600   0.9654   0.25963   0.25742  -0.1255  0.0146  1.0000  -1.9552   0.0000   0.0000   0.0000   0.3602
  18.700   0.9673   0.26140   0.25920  -0.1260  0.0143  1.0000  -1.9829   0.0000   0.0000   0.0000   0.3603
  18.800   0.9694   0.26312   0.26092  -0.1265  0.0141  1.0000  -2.0145   0.0000   0.0000   0.0000   0.3604
  18.900   0.9715   0.26479   0.26260  -0.1270  0.0139  1.0000  -2.0507   0.0000   0.0000   0.0000   0.3603
  19.000   0.9738   0.26642   0.26423  -0.1273  0.0136  1.0000  -2.0919   0.0000   0.0000   0.0000   0.3602
  19.100   0.9760   0.26806   0.26588  -0.1277  0.0134  1.0000  -2.1345   0.0000   0.0000   0.0000   0.3601
  19.200   0.9777   0.26991   0.26774  -0.1281  0.0132  1.0000  -2.1675   0.0000   0.0000   0.0000   0.3601
  19.300   0.9783   0.27220   0.27003  -0.1287  0.0129  1.0000  -2.1798   0.0000   0.0000   0.0000   0.3604
  19.400   0.9650   0.28214   0.27994  -0.1301  0.0120  1.0000  -1.8796   0.0000   0.0000   0.0000   0.3640
  19.500   0.9656   0.28453   0.28234  -0.1309  0.0119  1.0000  -1.8679   0.0000   0.0000   0.0000   0.3645
  19.600   0.9662   0.28691   0.28472  -0.1316  0.0119  1.0000  -1.8562   0.0000   0.0000   0.0000   0.3651
  19.700   0.9666   0.28928   0.28709  -0.1323  0.0119  1.0000  -1.8445   0.0000   0.0000   0.0000   0.3656
  19.800   0.9670   0.29163   0.28945  -0.1330  0.0119  1.0000  -1.8327   0.0000   0.0000   0.0000   0.3661
  19.900   0.9672   0.29397   0.29179  -0.1337  0.0119  1.0000  -1.8210   0.0000   0.0000   0.0000   0.3667
  20.000   0.9674   0.29628   0.29411  -0.1344  0.0119  1.0000  -1.8091   0.0000   0.0000   0.0000   0.3672
  20.100   0.9673   0.29857   0.29641  -0.1350  0.0119  1.0000  -1.7970   0.0000   0.0000   0.0000   0.3678
  20.200   0.9671   0.30083   0.29867  -0.1356  0.0119  1.0000  -1.7846   0.0000   0.0000   0.0000   0.3683
  20.300   0.9667   0.30305   0.30090  -0.1362  0.0119  1.0000  -1.7720   0.0000   0.0000   0.0000   0.3689
  20.400   0.9660   0.30523   0.30308  -0.1368  0.0119  1.0000  -1.7589   0.0000   0.0000   0.0000   0.3695
  20.500   0.9650   0.30735   0.30521  -0.1373  0.0119  1.0000  -1.7454   0.0000   0.0000   0.0000   0.3700
  20.600   0.9637   0.30939   0.30727  -0.1378  0.0119  1.0000  -1.7311   0.0000   0.0000   0.0000   0.3706
  20.700   0.9620   0.31134   0.30923  -0.1383  0.0118  1.0000  -1.7159   0.0000   0.0000   0.0000   0.3713
  20.800   0.9596   0.31316   0.31105  -0.1386  0.0118  1.0000  -1.6993   0.0000   0.0000   0.0000   0.3719
  20.900   0.9562   0.31475   0.31266  -0.1389  0.0118  1.0000  -1.6804   0.0000   0.0000   0.0000   0.3726
  21.000   0.9027   0.30427   0.30228  -0.1335  0.0118  1.0000  -1.5343   0.0000   0.0000   0.0000   0.3760
  21.100   0.8966   0.30409   0.30212  -0.1333  0.0118  1.0000  -1.5093   0.0000   0.0000   0.0000   0.3768
  21.200   0.8917   0.30414   0.30218  -0.1333  0.0118  1.0000  -1.4876   0.0000   0.0000   0.0000   0.3776
  21.300   0.8876   0.30431   0.30241  -0.1333  0.0118  1.0000  -1.4686   0.0000   0.0000   0.0000   0.3783
  21.400   0.8840   0.30457   0.30268  -0.1334  0.0118  1.0000  -1.4510   0.0000   0.0000   0.0000   0.3789
  21.500   0.8808   0.30488   0.30301  -0.1336  0.0118  1.0000  -1.4344   0.0000   0.0000   0.0000   0.3796
  21.600   0.8779   0.30524   0.30338  -0.1337  0.0118  1.0000  -1.4189   0.0000   0.0000   0.0000   0.3802
  21.700   0.8753   0.30564   0.30379  -0.1339  0.0117  1.0000  -1.4042   0.0000   0.0000   0.0000   0.3808
  21.800   0.8729   0.30607   0.30422  -0.1341  0.0117  1.0000  -1.3902   0.0000   0.0000   0.0000   0.3814
  21.900   0.8707   0.30652   0.30468  -0.1344  0.0117  1.0000  -1.3767   0.0000   0.0000   0.0000   0.3819
  22.000   0.8687   0.30699   0.30517  -0.1346  0.0117  1.0000  -1.3638   0.0000   0.0000   0.0000   0.3825
  22.100   0.8668   0.30749   0.30567  -0.1349  0.0117  1.0000  -1.3516   0.0000   0.0000   0.0000   0.3830
  22.200   0.8651   0.30800   0.30619  -0.1351  0.0117  1.0000  -1.3399   0.0000   0.0000   0.0000   0.3836
  22.300   0.8636   0.30852   0.30672  -0.1354  0.0116  1.0000  -1.3288   0.0000   0.0000   0.0000   0.3841
  22.400   0.8622   0.30905   0.30726  -0.1357  0.0116  1.0000  -1.3182   0.0000   0.0000   0.0000   0.3846
  22.500   0.8608   0.30960   0.30782  -0.1360  0.0116  1.0000  -1.3081   0.0000   0.0000   0.0000   0.3851
  22.600   0.8596   0.31016   0.30838  -0.1364  0.0115  1.0000  -1.2978   0.0000   0.0000   0.0000   0.3856
  22.700   0.8585   0.31072   0.30896  -0.1367  0.0115  1.0000  -1.2879   0.0000   0.0000   0.0000   0.3861
  22.800   0.8574   0.31130   0.30954  -0.1371  0.0115  1.0000  -1.2784   0.0000   0.0000   0.0000   0.3866
  22.900   0.8565   0.31189   0.31014  -0.1374  0.0114  1.0000  -1.2693   0.0000   0.0000   0.0000   0.3871
  23.000   0.8556   0.31250   0.31075  -0.1378  0.0114  1.0000  -1.2593   0.0000   0.0000   0.0000   0.3876
  23.100   0.8548   0.31313   0.31139  -0.1382  0.0113  1.0000  -1.2482   0.0000   0.0000   0.0000   0.3881
  23.200   0.8541   0.31378   0.31205  -0.1387  0.0112  1.0000  -1.2373   0.0000   0.0000   0.0000   0.3886
  23.300   0.8535   0.31444   0.31272  -0.1391  0.0112  1.0000  -1.2265   0.0000   0.0000   0.0000   0.3891
  23.400   0.8530   0.31514   0.31342  -0.1396  0.0111  1.0000  -1.2156   0.0000   0.0000   0.0000   0.3896
  23.500   0.8526   0.31585   0.31414  -0.1400  0.0109  1.0000  -1.2046   0.0000   0.0000   0.0000   0.3901
  23.600   0.8523   0.31658   0.31488  -0.1405  0.0108  1.0000  -1.1934   0.0000   0.0000   0.0000   0.3906
  23.700   0.8520   0.31733   0.31563  -0.1409  0.0107  1.0000  -1.1821   0.0000   0.0000   0.0000   0.3910
  23.800   0.8517   0.31807   0.31638  -0.1414  0.0105  1.0000  -1.1708   0.0000   0.0000   0.0000   0.3915
  23.900   0.8514   0.31881   0.31713  -0.1418  0.0103  1.0000  -1.1600   0.0000   0.0000   0.0000   0.3919
  24.000   0.8511   0.31953   0.31786  -0.1421  0.0102  1.0000  -1.1496   0.0000   0.0000   0.0000   0.3923
  24.100   0.8507   0.32025   0.31858  -0.1425  0.0100  1.0000  -1.1399   0.0000   0.0000   0.0000   0.3927
  24.200   0.8503   0.32095   0.31929  -0.1429  0.0099  1.0000  -1.1307   0.0000   0.0000   0.0000   0.3930
  24.300   0.8499   0.32165   0.31999  -0.1433  0.0098  1.0000  -1.1221   0.0000   0.0000   0.0000   0.3934
  24.400   0.8494   0.32234   0.32069  -0.1436  0.0096  1.0000  -1.1140   0.0000   0.0000   0.0000   0.3938
  24.500   0.8490   0.32302   0.32138  -0.1440  0.0095  1.0000  -1.1063   0.0000   0.0000   0.0000   0.3941
  24.600   0.8486   0.32370   0.32207  -0.1443  0.0094  1.0000  -1.0990   0.0000   0.0000   0.0000   0.3945
  24.700   0.8482   0.32438   0.32276  -0.1447  0.0092  1.0000  -1.0920   0.0000   0.0000   0.0000   0.3949
  24.800   0.8479   0.32506   0.32344  -0.1450  0.0091  1.0000  -1.0853   0.0000   0.0000   0.0000   0.3952
  24.900   0.8475   0.32574   0.32413  -0.1454  0.0090  1.0000  -1.0789   0.0000   0.0000   0.0000   0.3956
  25.000   0.8472   0.32641   0.32481  -0.1458  0.0089  1.0000  -1.0728   0.0000   0.0000   0.0000   0.3959
  25.100   0.8468   0.32709   0.32549  -0.1461  0.0088  1.0000  -1.0669   0.0000   0.0000   0.0000   0.3962
  25.200   0.8465   0.32776   0.32617  -0.1465  0.0087  1.0000  -1.0611   0.0000   0.0000   0.0000   0.3966
  25.300   0.8462   0.32843   0.32685  -0.1468  0.0086  1.0000  -1.0556   0.0000   0.0000   0.0000   0.3969
  25.400   0.8459   0.32911   0.32753  -0.1472  0.0085  1.0000  -1.0503   0.0000   0.0000   0.0000   0.3972
  25.500   0.8456   0.32978   0.32821  -0.1476  0.0085  1.0000  -1.0450   0.0000   0.0000   0.0000   0.3976
  25.600   0.8454   0.33046   0.32889  -0.1479  0.0084  1.0000  -1.0400   0.0000   0.0000   0.0000   0.3979
  25.700   0.8451   0.33113   0.32957  -0.1483  0.0083  1.0000  -1.0351   0.0000   0.0000   0.0000   0.3982


