xflr5 v6.61

 Calculated polar for: E222  (10.17%)

 1 1 Reynolds number fixed          Mach number fixed         

 xtrf =   1.000 (top)        1.000 (bottom)
 Mach =   0.000     Re =     1.000 e 6     Ncrit =   9.000

  alpha     CL        CD       CDp       Cm    Top Xtr Bot Xtr   Cpmin    Chinge    XCp    
 ------- -------- --------- --------- -------- ------- ------- -------- --------- ---------
  -9.100  -0.4679   0.07470   0.07314  -0.0389  1.0000  0.0106  -3.0549   0.0000   0.0000   0.0000   0.1588
  -9.000  -0.4746   0.07220   0.07065  -0.0397  1.0000  0.0106  -3.1465   0.0000   0.0000   0.0000   0.1584
  -8.900  -0.4809   0.06980   0.06827  -0.0404  1.0000  0.0106  -3.2289   0.0000   0.0000   0.0000   0.1581
  -8.000  -0.5029   0.03994   0.03780  -0.0712  0.9906  0.0107  -4.0254   0.0000   0.0000   0.0000   0.1015
  -7.900  -0.5009   0.03542   0.03304  -0.0751  0.9888  0.0112  -4.1630   0.0000   0.0000   0.0000   0.0931
  -7.800  -0.4924   0.03337   0.03087  -0.0771  0.9881  0.0116  -4.1433   0.0000   0.0000   0.0000   0.0865
  -7.700  -0.4820   0.03203   0.02945  -0.0786  0.9875  0.0119  -4.0775   0.0000   0.0000   0.0000   0.0800
  -7.600  -0.4736   0.03109   0.02844  -0.0792  0.9861  0.0122  -4.0045   0.0000   0.0000   0.0000   0.0758
  -7.500  -0.4658   0.03030   0.02760  -0.0795  0.9841  0.0125  -3.9291   0.0000   0.0000   0.0000   0.0725
  -7.400  -0.4561   0.02956   0.02681  -0.0801  0.9825  0.0128  -3.8414   0.0000   0.0000   0.0000   0.0675
  -7.300  -0.4456   0.02876   0.02595  -0.0809  0.9811  0.0130  -3.7606   0.0000   0.0000   0.0000   0.0617
  -7.200  -0.4348   0.02777   0.02484  -0.0817  0.9798  0.0133  -3.7014   0.0000   0.0000   0.0000   0.0552
  -7.100  -0.4230   0.02714   0.02416  -0.0826  0.9788  0.0137  -3.6027   0.0000   0.0000   0.0000   0.0480
  -7.000  -0.4110   0.02660   0.02358  -0.0834  0.9779  0.0141  -3.4985   0.0000   0.0000   0.0000   0.0402
  -6.900  -0.3987   0.02614   0.02310  -0.0842  0.9772  0.0146  -3.3886   0.0000   0.0000   0.0000   0.0319
  -6.800  -0.3862   0.02574   0.02266  -0.0851  0.9765  0.0153  -3.2772   0.0000   0.0000   0.0000   0.0229
  -6.700  -0.3737   0.02535   0.02224  -0.0859  0.9759  0.0161  -3.1686   0.0000   0.0000   0.0000   0.0134
  -6.600  -0.3608   0.02497   0.02183  -0.0867  0.9753  0.0171  -3.0636   0.0000   0.0000   0.0000   0.0029
  -6.500  -0.3475   0.02465   0.02147  -0.0874  0.9748  0.0182  -2.9607   0.0000   0.0000   0.0000  -0.0085
  -6.400  -0.3337   0.02453   0.02133  -0.0882  0.9744  0.0196  -2.8534   0.0000   0.0000   0.0000  -0.0212
  -6.300  -0.3187   0.02499   0.02182  -0.0887  0.9740  0.0210  -2.7216   0.0000   0.0000   0.0000  -0.0354
  -6.200  -0.3001   0.02786   0.02485  -0.0885  0.9740  0.0225  -2.4820   0.0000   0.0000   0.0000  -0.0521
  -6.100  -0.2856   0.02785   0.02480  -0.0893  0.9736  0.0227  -2.3936   0.0000   0.0000   0.0000  -0.0698
  -6.000  -0.2722   0.02706   0.02391  -0.0902  0.9731  0.0228  -2.3419   0.0000   0.0000   0.0000  -0.0889
  -5.900  -0.2590   0.02612   0.02287  -0.0912  0.9726  0.0228  -2.2975   0.0000   0.0000   0.0000  -0.1099
  -5.800  -0.2685   0.01888   0.01506  -0.0905  0.9651  0.0256  -2.5761   0.0000   0.0000   0.0000  -0.0947
  -5.700  -0.2573   0.01817   0.01435  -0.0910  0.9637  0.0269  -2.4994   0.0000   0.0000   0.0000  -0.1114
  -5.600  -0.2453   0.01777   0.01393  -0.0915  0.9624  0.0280  -2.4119   0.0000   0.0000   0.0000  -0.1309
  -5.500  -0.2331   0.01744   0.01358  -0.0920  0.9611  0.0292  -2.3242   0.0000   0.0000   0.0000  -0.1527
  -5.400  -0.2206   0.01714   0.01327  -0.0925  0.9598  0.0305  -2.2369   0.0000   0.0000   0.0000  -0.1776
  -5.300  -0.2079   0.01686   0.01298  -0.0930  0.9585  0.0322  -2.1530   0.0000   0.0000   0.0000  -0.2057
  -5.200  -0.1949   0.01662   0.01273  -0.0935  0.9572  0.0341  -2.0715   0.0000   0.0000   0.0000  -0.2383
  -5.100  -0.1812   0.01652   0.01262  -0.0941  0.9560  0.0365  -1.9878   0.0000   0.0000   0.0000  -0.2782
  -5.000  -0.1666   0.01688   0.01301  -0.0946  0.9548  0.0388  -1.8910   0.0000   0.0000   0.0000  -0.3274
  -4.900  -0.1500   0.01874   0.01497  -0.0950  0.9539  0.0405  -1.7465   0.0000   0.0000   0.0000  -0.3929
  -4.800  -0.1452   0.01441   0.01029  -0.0953  0.9506  0.0460  -1.8202   0.0000   0.0000   0.0000  -0.4171
  -4.700  -0.1361   0.01403   0.00993  -0.0950  0.9473  0.0479  -1.7605   0.0000   0.0000   0.0000  -0.4587
  -4.600  -0.1257   0.01374   0.00963  -0.0950  0.9443  0.0499  -1.6966   0.0000   0.0000   0.0000  -0.5166
  -4.500  -0.1141   0.01347   0.00934  -0.0951  0.9416  0.0522  -1.6290   0.0000   0.0000   0.0000  -0.5956
  -4.400  -0.1017   0.01347   0.00924  -0.0955  0.9390  0.0562  -1.5414   0.0000   0.0000   0.0000  -0.7018
  -4.300  -0.0886   0.01340   0.00916  -0.0958  0.9365  0.0594  -1.4772   0.0000   0.0000   0.0000  -0.8455
  -4.200  -0.0747   0.01362   0.00938  -0.0961  0.9339  0.0618  -1.4083   0.0000   0.0000   0.0000  -1.0527
  -4.100  -0.0593   0.01494   0.01076  -0.0964  0.9312  0.0634  -1.3129   0.0000   0.0000   0.0000  -1.3941
  -4.000  -0.0485   0.00939   0.00444  -0.0946  0.9278  0.0249  -1.6581   0.0000   0.0000   0.0000  -1.7237
  -3.900  -0.0389   0.00888   0.00386  -0.0940  0.9240  0.0210  -1.6701   0.0000   0.0000   0.0000  -2.1954
  -3.800  -0.0284   0.00842   0.00327  -0.0936  0.9198  0.0190  -1.6656   0.0000   0.0000   0.0000  -3.0802
  -3.700  -0.0171   0.00813   0.00289  -0.0935  0.9157  0.0174  -1.6403   0.0000   0.0000   0.0000  -5.2800
  -3.600  -0.0053   0.00794   0.00261  -0.0934  0.9119  0.0162  -1.6038   0.0000   0.0000   0.0000  -17.6259
  -3.500   0.0067   0.00779   0.00239  -0.0935  0.9080  0.0153  -1.5516   0.0000   0.0000   0.0000  14.3398
  -3.400   0.0188   0.00768   0.00222  -0.0936  0.9039  0.0147  -1.4894   0.0000   0.0000   0.0000   5.2907
  -3.200   0.0417   0.00751   0.00195  -0.0936  0.8959  0.0138  -1.3600   0.0000   0.0000   0.0000   2.5178
  -3.100   0.0525   0.00743   0.00185  -0.0935  0.8918  0.0135  -1.2960   0.0000   0.0000   0.0000   2.0449
  -3.000   0.0636   0.00737   0.00175  -0.0934  0.8870  0.0132  -1.2319   0.0000   0.0000   0.0000   1.7304
  -2.900   0.0749   0.00731   0.00166  -0.0934  0.8820  0.0130  -1.1678   0.0000   0.0000   0.0000   1.5068
  -2.800   0.0862   0.00726   0.00156  -0.0934  0.8768  0.0128  -1.1039   0.0000   0.0000   0.0000   1.3405
  -2.700   0.0976   0.00723   0.00148  -0.0933  0.8717  0.0127  -1.0407   0.0000   0.0000   0.0000   1.2130
  -2.600   0.1090   0.00720   0.00140  -0.0933  0.8663  0.0126  -0.9780   0.0000   0.0000   0.0000   1.1117
  -2.500   0.1202   0.00716   0.00134  -0.0933  0.8632  0.0126  -0.9172   0.0000   0.0000   0.0000   1.0312
  -2.400   0.1312   0.00713   0.00128  -0.0932  0.8596  0.0127  -0.8577   0.0000   0.0000   0.0000   0.9645
  -2.300   0.1423   0.00709   0.00122  -0.0932  0.8550  0.0130  -0.8002   0.0000   0.0000   0.0000   0.9081
  -2.200   0.1534   0.00706   0.00116  -0.0931  0.8497  0.0138  -0.7471   0.0000   0.0000   0.0000   0.8597
  -2.100   0.1645   0.00703   0.00111  -0.0930  0.8438  0.0165  -0.6966   0.0000   0.0000   0.0000   0.8179
  -2.000   0.1754   0.00703   0.00110  -0.0929  0.8373  0.0194  -0.6357   0.0000   0.0000   0.0000   0.7818
  -1.900   0.1863   0.00703   0.00110  -0.0928  0.8301  0.0210  -0.5723   0.0000   0.0000   0.0000   0.7500
  -1.800   0.1974   0.00700   0.00109  -0.0928  0.8260  0.0224  -0.5084   0.0000   0.0000   0.0000   0.7217
  -1.700   0.2079   0.00666   0.00099  -0.0928  0.8223  0.0873  -0.4499   0.0000   0.0000   0.0000   0.6980
  -1.600   0.2188   0.00658   0.00097  -0.0928  0.8178  0.1052  -0.4413   0.0000   0.0000   0.0000   0.6754
  -1.500   0.2297   0.00650   0.00094  -0.0928  0.8124  0.1220  -0.4489   0.0000   0.0000   0.0000   0.6550
  -1.400   0.2404   0.00639   0.00092  -0.0928  0.8062  0.1490  -0.4564   0.0000   0.0000   0.0000   0.6367
  -1.300   0.2510   0.00636   0.00089  -0.0927  0.7992  0.1649  -0.4639   0.0000   0.0000   0.0000   0.6198
  -1.200   0.2613   0.00628   0.00088  -0.0926  0.7909  0.1902  -0.4720   0.0000   0.0000   0.0000   0.6046
  -1.100   0.2722   0.00618   0.00086  -0.0926  0.7858  0.2185  -0.4806   0.0000   0.0000   0.0000   0.5904
  -1.000   0.2832   0.00609   0.00085  -0.0926  0.7817  0.2427  -0.4893   0.0000   0.0000   0.0000   0.5771
  -0.900   0.2940   0.00596   0.00084  -0.0926  0.7769  0.2788  -0.4979   0.0000   0.0000   0.0000   0.5651
  -0.800   0.3048   0.00585   0.00084  -0.0927  0.7717  0.3143  -0.5065   0.0000   0.0000   0.0000   0.5538
  -0.700   0.3155   0.00577   0.00084  -0.0926  0.7658  0.3461  -0.5151   0.0000   0.0000   0.0000   0.5433
  -0.600   0.3258   0.00562   0.00085  -0.0926  0.7590  0.4037  -0.5235   0.0000   0.0000   0.0000   0.5338
  -0.500   0.3350   0.00524   0.00092  -0.0925  0.7507  0.5439  -0.5314   0.0000   0.0000   0.0000   0.5255
  -0.400   0.3453   0.00514   0.00095  -0.0924  0.7436  0.5903  -0.5407   0.0000   0.0000   0.0000   0.5168
  -0.300   0.3561   0.00505   0.00098  -0.0923  0.7396  0.6269  -0.5506   0.0000   0.0000   0.0000   0.5084
  -0.200   0.3669   0.00502   0.00099  -0.0922  0.7343  0.6490  -0.5606   0.0000   0.0000   0.0000   0.5004
  -0.100   0.3778   0.00501   0.00100  -0.0921  0.7279  0.6632  -0.5706   0.0000   0.0000   0.0000   0.4929
   0.000   0.3884   0.00501   0.00102  -0.0920  0.7211  0.6753  -0.5805   0.0000   0.0000   0.0000   0.4858
   0.100   0.3989   0.00503   0.00102  -0.0918  0.7136  0.6853  -0.5903   0.0000   0.0000   0.0000   0.4791
   0.200   0.4092   0.00507   0.00103  -0.0916  0.7043  0.6941  -0.6012   0.0000   0.0000   0.0000   0.4727
   0.300   0.4201   0.00509   0.00104  -0.0915  0.6975  0.7016  -0.6127   0.0000   0.0000   0.0000   0.4666
   0.400   0.4311   0.00508   0.00106  -0.0915  0.6932  0.7143  -0.6244   0.0000   0.0000   0.0000   0.4609
   0.500   0.4418   0.00506   0.00108  -0.0914  0.6872  0.7279  -0.6359   0.0000   0.0000   0.0000   0.4554
   0.600   0.4525   0.00507   0.00110  -0.0912  0.6802  0.7389  -0.6475   0.0000   0.0000   0.0000   0.4501
   0.700   0.4631   0.00511   0.00111  -0.0911  0.6728  0.7470  -0.6590   0.0000   0.0000   0.0000   0.4451
   0.800   0.4736   0.00516   0.00112  -0.0910  0.6649  0.7525  -0.6705   0.0000   0.0000   0.0000   0.4404
   0.900   0.4838   0.00518   0.00115  -0.0907  0.6558  0.7648  -0.6818   0.0000   0.0000   0.0000   0.4358
   1.000   0.4943   0.00518   0.00117  -0.0906  0.6501  0.7767  -0.6947   0.0000   0.0000   0.0000   0.4314
   1.100   0.5052   0.00518   0.00119  -0.0905  0.6459  0.7870  -0.7083   0.0000   0.0000   0.0000   0.4272
   1.200   0.5161   0.00520   0.00121  -0.0904  0.6399  0.7951  -0.7220   0.0000   0.0000   0.0000   0.4232
   1.300   0.5267   0.00524   0.00123  -0.0903  0.6319  0.8021  -0.7355   0.0000   0.0000   0.0000   0.4193
   1.400   0.5366   0.00527   0.00126  -0.0900  0.6225  0.8125  -0.7487   0.0000   0.0000   0.0000   0.4155
   1.500   0.5464   0.00533   0.00129  -0.0897  0.6117  0.8213  -0.7619   0.0000   0.0000   0.0000   0.4119
   1.600   0.5567   0.00537   0.00131  -0.0895  0.6025  0.8293  -0.7776   0.0000   0.0000   0.0000   0.4084
   1.700   0.5677   0.00538   0.00134  -0.0894  0.5990  0.8362  -0.7939   0.0000   0.0000   0.0000   0.4051
   1.800   0.5786   0.00541   0.00136  -0.0893  0.5935  0.8420  -0.8103   0.0000   0.0000   0.0000   0.4019
   1.900   0.5886   0.00543   0.00139  -0.0891  0.5858  0.8523  -0.8260   0.0000   0.0000   0.0000   0.3988
   2.000   0.5982   0.00547   0.00142  -0.0887  0.5759  0.8624  -0.8414   0.0000   0.0000   0.0000   0.3956
   2.100   0.6076   0.00555   0.00146  -0.0883  0.5640  0.8715  -0.8584   0.0000   0.0000   0.0000   0.3926
   2.200   0.6177   0.00561   0.00149  -0.0881  0.5529  0.8789  -0.8773   0.0000   0.0000   0.0000   0.3898
   2.300   0.6281   0.00562   0.00152  -0.0879  0.5493  0.8865  -0.8966   0.0000   0.0000   0.0000   0.3870
   2.400   0.6378   0.00563   0.00155  -0.0875  0.5444  0.8958  -0.9152   0.0000   0.0000   0.0000   0.3843
   2.500   0.6475   0.00566   0.00158  -0.0871  0.5372  0.9049  -0.9340   0.0000   0.0000   0.0000   0.3816
   2.600   0.6571   0.00573   0.00161  -0.0868  0.5274  0.9130  -0.9528   0.0000   0.0000   0.0000   0.3790
   2.700   0.6657   0.00581   0.00164  -0.0862  0.5147  0.9215  -0.9707   0.0000   0.0000   0.0000   0.3764
   2.800   0.6742   0.00586   0.00167  -0.0856  0.5028  0.9315  -0.9893   0.0000   0.0000   0.0000   0.3737
   2.900   0.6838   0.00588   0.00170  -0.0852  0.4979  0.9407  -1.0124   0.0000   0.0000   0.0000   0.3713
   3.200   0.6980   0.00775   0.00222  -0.0822  0.2206  0.9859  -1.0630   0.0000   0.0000   0.0000   0.3642
   3.300   0.7075   0.00812   0.00236  -0.0821  0.1778  1.0000  -1.0858   0.0000   0.0000   0.0000   0.3624
   3.700   0.7425   0.00934   0.00293  -0.0809  0.0623  1.0000  -1.1952   0.0000   0.0000   0.0000   0.3550
   3.800   0.7489   0.00994   0.00326  -0.0802  0.0119  1.0000  -1.2082   0.0000   0.0000   0.0000   0.3530
   3.900   0.7597   0.01002   0.00331  -0.0801  0.0112  1.0000  -1.2428   0.0000   0.0000   0.0000   0.3514
   4.000   0.7705   0.01010   0.00336  -0.0801  0.0106  1.0000  -1.2792   0.0000   0.0000   0.0000   0.3498
   4.100   0.7813   0.01017   0.00341  -0.0801  0.0100  1.0000  -1.3167   0.0000   0.0000   0.0000   0.3482
   4.200   0.7921   0.01025   0.00346  -0.0800  0.0095  1.0000  -1.3530   0.0000   0.0000   0.0000   0.3467
   4.300   0.8028   0.01032   0.00351  -0.0800  0.0088  1.0000  -1.3877   0.0000   0.0000   0.0000   0.3452
   4.400   0.8137   0.01039   0.00356  -0.0800  0.0079  1.0000  -1.4345   0.0000   0.0000   0.0000   0.3438
   4.500   0.8244   0.01046   0.00362  -0.0800  0.0071  1.0000  -1.5033   0.0000   0.0000   0.0000   0.3423
   4.600   0.8351   0.01054   0.00370  -0.0799  0.0065  1.0000  -1.5768   0.0000   0.0000   0.0000   0.3409
   4.700   0.8457   0.01063   0.00378  -0.0798  0.0060  1.0000  -1.6563   0.0000   0.0000   0.0000   0.3396
   4.800   0.8563   0.01073   0.00386  -0.0798  0.0056  1.0000  -1.7408   0.0000   0.0000   0.0000   0.3382
   4.900   0.8669   0.01082   0.00395  -0.0797  0.0053  1.0000  -1.8284   0.0000   0.0000   0.0000   0.3369
   5.000   0.8775   0.01091   0.00405  -0.0796  0.0051  1.0000  -1.9169   0.0000   0.0000   0.0000   0.3356
   5.100   0.8881   0.01100   0.00415  -0.0795  0.0050  1.0000  -2.0060   0.0000   0.0000   0.0000   0.3343
   5.200   0.8986   0.01109   0.00425  -0.0794  0.0049  1.0000  -2.0957   0.0000   0.0000   0.0000   0.3330
   5.300   0.9092   0.01119   0.00436  -0.0793  0.0049  1.0000  -2.1862   0.0000   0.0000   0.0000   0.3318
   5.400   0.9196   0.01129   0.00448  -0.0792  0.0049  1.0000  -2.2774   0.0000   0.0000   0.0000   0.3306
   5.500   0.9301   0.01139   0.00460  -0.0790  0.0049  1.0000  -2.3692   0.0000   0.0000   0.0000   0.3293
   5.600   0.9404   0.01150   0.00473  -0.0789  0.0049  1.0000  -2.4617   0.0000   0.0000   0.0000   0.3282
   5.700   0.9507   0.01162   0.00487  -0.0787  0.0049  1.0000  -2.5548   0.0000   0.0000   0.0000   0.3270
   5.800   0.9610   0.01175   0.00502  -0.0786  0.0050  1.0000  -2.6485   0.0000   0.0000   0.0000   0.3258
   5.900   0.9712   0.01188   0.00517  -0.0784  0.0051  1.0000  -2.7428   0.0000   0.0000   0.0000   0.3247
   6.000   0.9813   0.01201   0.00533  -0.0782  0.0052  1.0000  -2.8377   0.0000   0.0000   0.0000   0.3235
   6.100   0.9913   0.01216   0.00550  -0.0780  0.0053  1.0000  -2.9333   0.0000   0.0000   0.0000   0.3224
   6.200   1.0013   0.01231   0.00568  -0.0778  0.0055  1.0000  -3.0294   0.0000   0.0000   0.0000   0.3213
   6.300   1.0111   0.01247   0.00587  -0.0775  0.0056  1.0000  -3.1257   0.0000   0.0000   0.0000   0.3202
   6.400   1.0208   0.01265   0.00607  -0.0773  0.0058  1.0000  -3.2221   0.0000   0.0000   0.0000   0.3191
   6.500   1.0305   0.01283   0.00628  -0.0770  0.0060  1.0000  -3.3182   0.0000   0.0000   0.0000   0.3180
   6.600   1.0400   0.01303   0.00652  -0.0767  0.0063  1.0000  -3.4128   0.0000   0.0000   0.0000   0.3169
   6.700   1.0499   0.01318   0.00682  -0.0765  0.0063  1.0000  -3.4812   0.0000   0.0000   0.0000   0.3159
   6.800   1.0593   0.01338   0.00706  -0.0762  0.0064  1.0000  -3.5696   0.0000   0.0000   0.0000   0.3148
   6.900   1.0684   0.01361   0.00735  -0.0758  0.0067  1.0000  -3.6581   0.0000   0.0000   0.0000   0.3137
   7.000   1.0773   0.01388   0.00768  -0.0753  0.0071  1.0000  -3.7398   0.0000   0.0000   0.0000   0.3126
   7.100   1.0856   0.01423   0.00811  -0.0747  0.0076  1.0000  -3.8014   0.0000   0.0000   0.0000   0.3114
   7.200   1.0929   0.01470   0.00869  -0.0738  0.0083  1.0000  -3.8307   0.0000   0.0000   0.0000   0.3100
   7.300   1.0986   0.01534   0.00947  -0.0725  0.0093  1.0000  -3.8378   0.0000   0.0000   0.0000   0.3084
   7.400   1.1018   0.01627   0.01056  -0.0709  0.0105  1.0000  -3.8124   0.0000   0.0000   0.0000   0.3065
   7.500   1.1042   0.01748   0.01189  -0.0688  0.0133  1.0000  -3.7324   0.0000   0.0000   0.0000   0.3044
  10.700   1.2574   0.04096   0.03728  -0.0417  0.0074  1.0000  -5.8820   0.0000   0.0000   0.0000   0.2713
  10.800   1.2559   0.04163   0.03799  -0.0404  0.0073  1.0000  -5.9399   0.0000   0.0000   0.0000   0.2701
  10.900   1.2544   0.04233   0.03874  -0.0392  0.0071  1.0000  -5.9971   0.0000   0.0000   0.0000   0.2691
  11.000   1.2526   0.04308   0.03953  -0.0380  0.0070  1.0000  -6.0522   0.0000   0.0000   0.0000   0.2681
  11.100   1.2506   0.04386   0.04036  -0.0370  0.0069  1.0000  -6.1058   0.0000   0.0000   0.0000   0.2671
  11.200   1.2512   0.04400   0.04054  -0.0362  0.0065  1.0000  -6.2412   0.0000   0.0000   0.0000   0.2663
  11.300   1.2481   0.04483   0.04141  -0.0352  0.0064  1.0000  -6.2899   0.0000   0.0000   0.0000   0.2654
  11.400   1.2452   0.04571   0.04235  -0.0343  0.0063  1.0000  -6.3377   0.0000   0.0000   0.0000   0.2646
  11.500   1.2417   0.04669   0.04338  -0.0335  0.0062  1.0000  -6.3791   0.0000   0.0000   0.0000   0.2639
  11.600   1.2384   0.04771   0.04445  -0.0328  0.0061  1.0000  -6.4208   0.0000   0.0000   0.0000   0.2632
  11.700   1.2345   0.04882   0.04562  -0.0322  0.0061  1.0000  -6.4564   0.0000   0.0000   0.0000   0.2627
  11.800   1.2305   0.04999   0.04684  -0.0316  0.0060  1.0000  -6.4896   0.0000   0.0000   0.0000   0.2622
  11.900   1.2265   0.05123   0.04813  -0.0312  0.0059  1.0000  -6.5209   0.0000   0.0000   0.0000   0.2617
  12.000   1.2218   0.05256   0.04952  -0.0309  0.0059  1.0000  -6.5444   0.0000   0.0000   0.0000   0.2614
  12.100   1.2175   0.05393   0.05094  -0.0307  0.0058  1.0000  -6.5701   0.0000   0.0000   0.0000   0.2612
  12.200   1.2123   0.05543   0.05249  -0.0307  0.0058  1.0000  -6.5855   0.0000   0.0000   0.0000   0.2611
  12.300   1.2068   0.05694   0.05407  -0.0307  0.0058  1.0000  -6.5979   0.0000   0.0000   0.0000   0.2610
  12.400   1.2011   0.05854   0.05572  -0.0308  0.0057  1.0000  -6.6057   0.0000   0.0000   0.0000   0.2610
  12.500   1.1949   0.06030   0.05754  -0.0311  0.0057  1.0000  -6.6061   0.0000   0.0000   0.0000   0.2612
  12.600   1.1895   0.06209   0.05938  -0.0315  0.0057  1.0000  -6.6121   0.0000   0.0000   0.0000   0.2615
  12.700   1.1829   0.06411   0.06146  -0.0321  0.0056  1.0000  -6.6027   0.0000   0.0000   0.0000   0.2620
  12.800   1.1769   0.06617   0.06357  -0.0328  0.0056  1.0000  -6.5973   0.0000   0.0000   0.0000   0.2625
  12.900   1.1704   0.06838   0.06585  -0.0336  0.0056  1.0000  -6.5836   0.0000   0.0000   0.0000   0.2633
  13.000   1.1635   0.07077   0.06829  -0.0347  0.0056  1.0000  -6.5617   0.0000   0.0000   0.0000   0.2642
  13.100   1.1571   0.07317   0.07075  -0.0358  0.0056  1.0000  -6.5429   0.0000   0.0000   0.0000   0.2651
  13.200   1.1491   0.07593   0.07358  -0.0373  0.0056  1.0000  -6.5014   0.0000   0.0000   0.0000   0.2664
  13.300   1.1422   0.07861   0.07632  -0.0387  0.0056  1.0000  -6.4692   0.0000   0.0000   0.0000   0.2677
  13.400   1.1336   0.08172   0.07950  -0.0405  0.0056  1.0000  -6.4114   0.0000   0.0000   0.0000   0.2694
  13.500   1.1260   0.08475   0.08259  -0.0423  0.0056  1.0000  -6.3612   0.0000   0.0000   0.0000   0.2710
  13.600   1.1170   0.08819   0.08609  -0.0444  0.0057  1.0000  -6.2876   0.0000   0.0000   0.0000   0.2731
  13.700   1.1085   0.09164   0.08960  -0.0466  0.0057  1.0000  -6.2149   0.0000   0.0000   0.0000   0.2752
  13.800   1.0986   0.09556   0.09359  -0.0491  0.0058  1.0000  -6.1137   0.0000   0.0000   0.0000   0.2777
  13.900   1.0889   0.09954   0.09764  -0.0517  0.0059  1.0000  -6.0080   0.0000   0.0000   0.0000   0.2804
  14.000   1.0759   0.10456   0.10274  -0.0550  0.0060  1.0000  -5.8381   0.0000   0.0000   0.0000   0.2840
  14.100   1.0223   0.12151   0.11993  -0.0661  0.0073  1.0000  -4.8945   0.0000   0.0000   0.0000   0.2979
  14.200   0.9580   0.14527   0.14381  -0.0793  0.0099  1.0000  -3.5708   0.0000   0.0000   0.0000   0.3171
  14.300   0.9510   0.14990   0.14843  -0.0817  0.0101  1.0000  -3.4040   0.0000   0.0000   0.0000   0.3203
  14.400   0.9478   0.15330   0.15183  -0.0835  0.0100  1.0000  -3.3153   0.0000   0.0000   0.0000   0.3225
  14.500   0.9460   0.15631   0.15484  -0.0850  0.0099  1.0000  -3.2525   0.0000   0.0000   0.0000   0.3242
  14.600   0.9448   0.15914   0.15766  -0.0865  0.0098  1.0000  -3.2008   0.0000   0.0000   0.0000   0.3258
  14.700   0.9440   0.16189   0.16041  -0.0879  0.0096  1.0000  -3.1548   0.0000   0.0000   0.0000   0.3273
  14.800   0.9434   0.16458   0.16310  -0.0892  0.0094  1.0000  -3.1123   0.0000   0.0000   0.0000   0.3287
  14.900   0.9430   0.16724   0.16576  -0.0906  0.0092  1.0000  -3.0723   0.0000   0.0000   0.0000   0.3301
  15.000   0.9428   0.16987   0.16838  -0.0919  0.0090  1.0000  -3.0346   0.0000   0.0000   0.0000   0.3315
  15.100   0.9427   0.17247   0.17098  -0.0932  0.0088  1.0000  -2.9993   0.0000   0.0000   0.0000   0.3328
  15.200   0.9427   0.17504   0.17354  -0.0944  0.0086  1.0000  -2.9667   0.0000   0.0000   0.0000   0.3340
  15.300   0.9429   0.17757   0.17607  -0.0957  0.0083  1.0000  -2.9368   0.0000   0.0000   0.0000   0.3352
  15.400   0.9432   0.18006   0.17856  -0.0969  0.0081  1.0000  -2.9099   0.0000   0.0000   0.0000   0.3364
  15.500   0.9437   0.18251   0.18102  -0.0981  0.0079  1.0000  -2.8860   0.0000   0.0000   0.0000   0.3375
  15.600   0.9443   0.18493   0.18343  -0.0992  0.0077  1.0000  -2.8653   0.0000   0.0000   0.0000   0.3386
  15.700   0.9450   0.18730   0.18580  -0.1004  0.0075  1.0000  -2.8479   0.0000   0.0000   0.0000   0.3396
  15.800   0.9458   0.18962   0.18812  -0.1015  0.0073  1.0000  -2.8338   0.0000   0.0000   0.0000   0.3405
  15.900   0.9468   0.19191   0.19041  -0.1026  0.0072  1.0000  -2.8230   0.0000   0.0000   0.0000   0.3415
  16.000   0.9478   0.19416   0.19265  -0.1036  0.0070  1.0000  -2.8155   0.0000   0.0000   0.0000   0.3424
  16.100   0.9490   0.19636   0.19486  -0.1047  0.0068  1.0000  -2.8113   0.0000   0.0000   0.0000   0.3432
  16.200   0.9502   0.19852   0.19702  -0.1057  0.0067  1.0000  -2.8104   0.0000   0.0000   0.0000   0.3440
  16.300   0.9516   0.20065   0.19914  -0.1067  0.0065  1.0000  -2.8128   0.0000   0.0000   0.0000   0.3448
  16.400   0.9530   0.20273   0.20123  -0.1076  0.0063  1.0000  -2.8183   0.0000   0.0000   0.0000   0.3455
  16.500   0.9545   0.20478   0.20327  -0.1086  0.0062  1.0000  -2.8270   0.0000   0.0000   0.0000   0.3462
  16.600   0.9561   0.20679   0.20528  -0.1095  0.0061  1.0000  -2.8389   0.0000   0.0000   0.0000   0.3468
  16.700   0.9577   0.20876   0.20725  -0.1104  0.0059  1.0000  -2.8540   0.0000   0.0000   0.0000   0.3474
  16.800   0.9594   0.21069   0.20919  -0.1113  0.0058  1.0000  -2.8721   0.0000   0.0000   0.0000   0.3480
  16.900   0.9612   0.21259   0.21109  -0.1122  0.0057  1.0000  -2.8932   0.0000   0.0000   0.0000   0.3486
  17.000   0.9631   0.21446   0.21296  -0.1131  0.0056  1.0000  -2.9173   0.0000   0.0000   0.0000   0.3491
  17.100   0.9647   0.21646   0.21496  -0.1140  0.0055  1.0000  -2.9331   0.0000   0.0000   0.0000   0.3497
  17.200   0.9663   0.21850   0.21700  -0.1149  0.0054  1.0000  -2.9473   0.0000   0.0000   0.0000   0.3503
  17.300   0.9679   0.22053   0.21903  -0.1158  0.0052  1.0000  -2.9630   0.0000   0.0000   0.0000   0.3509
  17.400   0.9695   0.22254   0.22105  -0.1167  0.0051  1.0000  -2.9799   0.0000   0.0000   0.0000   0.3514
  17.500   0.9711   0.22456   0.22306  -0.1176  0.0050  1.0000  -2.9973   0.0000   0.0000   0.0000   0.3520
  17.600   0.9727   0.22659   0.22509  -0.1185  0.0049  1.0000  -3.0146   0.0000   0.0000   0.0000   0.3526
  17.700   0.9742   0.22864   0.22714  -0.1194  0.0048  1.0000  -3.0305   0.0000   0.0000   0.0000   0.3531
  17.800   0.9756   0.23074   0.22925  -0.1203  0.0047  1.0000  -3.0432   0.0000   0.0000   0.0000   0.3537
  17.900   0.9768   0.23294   0.23145  -0.1212  0.0046  1.0000  -3.0493   0.0000   0.0000   0.0000   0.3543
  18.000   0.9776   0.23534   0.23385  -0.1221  0.0045  1.0000  -3.0412   0.0000   0.0000   0.0000   0.3551
  18.100   0.9771   0.23840   0.23690  -0.1232  0.0043  1.0000  -2.9871   0.0000   0.0000   0.0000   0.3562


