xflr5 v6.61

 Calculated polar for: E222  (10.17%)

 1 1 Reynolds number fixed          Mach number fixed         

 xtrf =   1.000 (top)        1.000 (bottom)
 Mach =   0.000     Re =     0.100 e 6     Ncrit =   9.000

  alpha     CL        CD       CDp       Cm    Top Xtr Bot Xtr   Cpmin    Chinge    XCp    
 ------- -------- --------- --------- -------- ------- ------- -------- --------- ---------
 -10.000  -0.4074   0.11369   0.10845  -0.0285  1.0000  0.0991  -1.3172   0.0000   0.0000   0.0000   0.1721
  -9.900  -0.4043   0.11248   0.10724  -0.0283  1.0000  0.1003  -1.3049   0.0000   0.0000   0.0000   0.1719
  -9.800  -0.4017   0.11129   0.10607  -0.0283  1.0000  0.1015  -1.2959   0.0000   0.0000   0.0000   0.1717
  -9.700  -0.3995   0.11012   0.10492  -0.0283  1.0000  0.1028  -1.2895   0.0000   0.0000   0.0000   0.1713
  -9.600  -0.3978   0.10897   0.10378  -0.0284  1.0000  0.1041  -1.2854   0.0000   0.0000   0.0000   0.1709
  -9.500  -0.3965   0.10783   0.10265  -0.0285  1.0000  0.1055  -1.2834   0.0000   0.0000   0.0000   0.1704
  -9.400  -0.3955   0.10669   0.10153  -0.0287  1.0000  0.1069  -1.2836   0.0000   0.0000   0.0000   0.1699
  -9.300  -0.3949   0.10557   0.10043  -0.0289  1.0000  0.1084  -1.2858   0.0000   0.0000   0.0000   0.1693
  -9.200  -0.3948   0.10448   0.09935  -0.0292  1.0000  0.1100  -1.2905   0.0000   0.0000   0.0000   0.1686
  -9.100  -0.3952   0.10342   0.09832  -0.0296  1.0000  0.1117  -1.2981   0.0000   0.0000   0.0000   0.1678
  -9.000  -0.3965   0.10244   0.09737  -0.0301  1.0000  0.1135  -1.3096   0.0000   0.0000   0.0000   0.1669
  -8.900  -0.3990   0.10162   0.09658  -0.0309  1.0000  0.1155  -1.3270   0.0000   0.0000   0.0000   0.1657
  -8.800  -0.4039   0.10121   0.09621  -0.0320  1.0000  0.1176  -1.3556   0.0000   0.0000   0.0000   0.1640
  -8.700  -0.4121   0.10156   0.09663  -0.0336  1.0000  0.1197  -1.3971   0.0000   0.0000   0.0000   0.1620
  -8.600  -0.4202   0.10193   0.09706  -0.0349  1.0000  0.1208  -1.4322   0.0000   0.0000   0.0000   0.1609
  -8.500  -0.4253   0.10181   0.09699  -0.0355  1.0000  0.1213  -1.4538   0.0000   0.0000   0.0000   0.1607
  -8.400  -0.4305   0.10136   0.09658  -0.0359  1.0000  0.1217  -1.4737   0.0000   0.0000   0.0000   0.1610
  -8.300  -0.4361   0.10073   0.09599  -0.0361  1.0000  0.1219  -1.4935   0.0000   0.0000   0.0000   0.1617
  -8.200  -0.4416   0.09992   0.09522  -0.0366  1.0000  0.1220  -1.5143   0.0000   0.0000   0.0000   0.1618
  -8.100  -0.4456   0.09875   0.09409  -0.0378  1.0000  0.1222  -1.5369   0.0000   0.0000   0.0000   0.1600
  -8.000  -0.4493   0.09751   0.09287  -0.0390  1.0000  0.1223  -1.5600   0.0000   0.0000   0.0000   0.1582
  -7.900  -0.4632   0.09114   0.08660  -0.0396  1.0000  0.1243  -1.6238   0.0000   0.0000   0.0000   0.1597
  -7.800  -0.4529   0.08837   0.08383  -0.0356  1.0000  0.1263  -1.5641   0.0000   0.0000   0.0000   0.1664
  -7.700  -0.4407   0.08670   0.08214  -0.0336  1.0000  0.1280  -1.5107   0.0000   0.0000   0.0000   0.1685
  -7.600  -0.4349   0.08543   0.08087  -0.0325  1.0000  0.1293  -1.4824   0.0000   0.0000   0.0000   0.1701
  -7.500  -0.4308   0.08430   0.07976  -0.0316  1.0000  0.1305  -1.4615   0.0000   0.0000   0.0000   0.1716
  -7.400  -0.4290   0.08328   0.07875  -0.0308  1.0000  0.1317  -1.4482   0.0000   0.0000   0.0000   0.1734
  -7.300  -0.4290   0.08231   0.07781  -0.0300  1.0000  0.1328  -1.4405   0.0000   0.0000   0.0000   0.1753
  -7.200  -0.4302   0.08138   0.07690  -0.0292  1.0000  0.1339  -1.4368   0.0000   0.0000   0.0000   0.1773
  -7.100  -0.4321   0.08044   0.07600  -0.0286  1.0000  0.1351  -1.4358   0.0000   0.0000   0.0000   0.1792
  -7.000  -0.4338   0.07943   0.07502  -0.0282  1.0000  0.1363  -1.4362   0.0000   0.0000   0.0000   0.1805
  -6.900  -0.4358   0.07837   0.07399  -0.0280  1.0000  0.1377  -1.4387   0.0000   0.0000   0.0000   0.1814
  -6.800  -0.4382   0.07729   0.07294  -0.0279  1.0000  0.1390  -1.4433   0.0000   0.0000   0.0000   0.1821
  -6.700  -0.4410   0.07617   0.07186  -0.0279  1.0000  0.1405  -1.4500   0.0000   0.0000   0.0000   0.1825
  -6.600  -0.4440   0.07502   0.07074  -0.0282  1.0000  0.1421  -1.4591   0.0000   0.0000   0.0000   0.1826
  -6.500  -0.4473   0.07382   0.06956  -0.0286  1.0000  0.1439  -1.4705   0.0000   0.0000   0.0000   0.1822
  -6.400  -0.4507   0.07257   0.06833  -0.0293  1.0000  0.1460  -1.4851   0.0000   0.0000   0.0000   0.1813
  -5.500  -0.4572   0.04660   0.04136  -0.0449  1.0000  0.0839  -2.0552   0.0000   0.0000   0.0000   0.1479
  -5.400  -0.4502   0.03979   0.03366  -0.0479  1.0000  0.0668  -2.3219   0.0000   0.0000   0.0000   0.1396
  -5.300  -0.4399   0.04083   0.03460  -0.0467  1.0000  0.0645  -2.2819   0.0000   0.0000   0.0000   0.1397
  -5.200  -0.4331   0.03868   0.03242  -0.0467  1.0000  0.0613  -2.2887   0.0000   0.0000   0.0000   0.1381
  -5.100  -0.4263   0.03635   0.02991  -0.0471  1.0000  0.0597  -2.3085   0.0000   0.0000   0.0000   0.1353
  -5.000  -0.4184   0.03448   0.02786  -0.0474  1.0000  0.0582  -2.3193   0.0000   0.0000   0.0000   0.1324
  -4.900  -0.4096   0.03283   0.02601  -0.0477  1.0000  0.0567  -2.3270   0.0000   0.0000   0.0000   0.1294
  -4.800  -0.4002   0.03132   0.02428  -0.0479  1.0000  0.0553  -2.3330   0.0000   0.0000   0.0000   0.1261
  -4.700  -0.3902   0.02992   0.02266  -0.0480  1.0000  0.0540  -2.3375   0.0000   0.0000   0.0000   0.1227
  -4.600  -0.3797   0.02862   0.02115  -0.0481  1.0000  0.0527  -2.3400   0.0000   0.0000   0.0000   0.1190
  -4.500  -0.3689   0.02744   0.01975  -0.0481  1.0000  0.0516  -2.3399   0.0000   0.0000   0.0000   0.1152
  -4.400  -0.3580   0.02637   0.01847  -0.0481  1.0000  0.0507  -2.3365   0.0000   0.0000   0.0000   0.1111
  -4.300  -0.3472   0.02543   0.01736  -0.0480  1.0000  0.0500  -2.3267   0.0000   0.0000   0.0000   0.1071
  -4.200  -0.3366   0.02458   0.01637  -0.0479  1.0000  0.0494  -2.3135   0.0000   0.0000   0.0000   0.1031
  -4.100  -0.3261   0.02382   0.01548  -0.0478  1.0000  0.0490  -2.2969   0.0000   0.0000   0.0000   0.0990
  -4.000  -0.3158   0.02314   0.01469  -0.0476  1.0000  0.0488  -2.2772   0.0000   0.0000   0.0000   0.0948
  -3.900  -0.3057   0.02252   0.01398  -0.0473  1.0000  0.0487  -2.2546   0.0000   0.0000   0.0000   0.0905
  -3.800  -0.2956   0.02195   0.01335  -0.0471  1.0000  0.0488  -2.2297   0.0000   0.0000   0.0000   0.0860
  -3.700  -0.2857   0.02144   0.01277  -0.0469  1.0000  0.0490  -2.2029   0.0000   0.0000   0.0000   0.0812
  -3.600  -0.2759   0.02097   0.01225  -0.0467  1.0000  0.0494  -2.1744   0.0000   0.0000   0.0000   0.0761
  -3.500  -0.2661   0.02054   0.01177  -0.0465  1.0000  0.0499  -2.1443   0.0000   0.0000   0.0000   0.0706
  -3.400  -0.2563   0.02015   0.01133  -0.0463  1.0000  0.0507  -2.1127   0.0000   0.0000   0.0000   0.0645
  -3.300  -0.2465   0.01980   0.01092  -0.0462  1.0000  0.0517  -2.0797   0.0000   0.0000   0.0000   0.0579
  -3.200  -0.2366   0.01949   0.01055  -0.0461  1.0000  0.0529  -2.0443   0.0000   0.0000   0.0000   0.0506
  -3.100  -0.2267   0.01922   0.01019  -0.0459  1.0000  0.0541  -2.0033   0.0000   0.0000   0.0000   0.0426
  -3.000  -0.2176   0.01916   0.00963  -0.0457  1.0000  0.0497  -1.8751   0.0000   0.0000   0.0000   0.0352
  -2.900  -0.2077   0.01893   0.00934  -0.0456  1.0000  0.0519  -1.8425   0.0000   0.0000   0.0000   0.0255
  -2.800  -0.1977   0.01872   0.00906  -0.0456  1.0000  0.0550  -1.8128   0.0000   0.0000   0.0000   0.0147
  -2.700  -0.1876   0.01850   0.00877  -0.0455  1.0000  0.0600  -1.7897   0.0000   0.0000   0.0000   0.0026
  -2.600  -0.1749   0.01777   0.00833  -0.0459  1.0000  0.1025  -1.7990   0.0000   0.0000   0.0000  -0.0179
  -2.500  -0.1618   0.01674   0.00822  -0.0471  1.0000  0.2850  -1.7846   0.0000   0.0000   0.0000  -0.0464
  -2.400  -0.1525   0.01640   0.00833  -0.0473  1.0000  0.3779  -1.7389   0.0000   0.0000   0.0000  -0.0652
  -2.300  -0.1439   0.01623   0.00847  -0.0471  1.0000  0.4457  -1.6865   0.0000   0.0000   0.0000  -0.0824
  -2.200  -0.1359   0.01614   0.00863  -0.0467  1.0000  0.5016  -1.6313   0.0000   0.0000   0.0000  -0.0987
  -2.100  -0.1279   0.01614   0.00874  -0.0463  1.0000  0.5310  -1.5748   0.0000   0.0000   0.0000  -0.1171
  -2.000  -0.1118   0.01622   0.00891  -0.0473  0.9971  0.5655  -1.4898   0.0000   0.0000   0.0000  -0.1787
  -1.900  -0.0954   0.01632   0.00906  -0.0484  0.9937  0.5997  -1.4020   0.0000   0.0000   0.0000  -0.2642
  -1.800  -0.0809   0.01638   0.00929  -0.0490  0.9904  0.6396  -1.3183   0.0000   0.0000   0.0000  -0.3626
  -1.700  -0.0676   0.01648   0.00961  -0.0490  0.9877  0.6946  -1.2370   0.0000   0.0000   0.0000  -0.4831
  -1.600  -0.0587   0.01653   0.00984  -0.0481  0.9839  0.7427  -1.1701   0.0000   0.0000   0.0000  -0.5790
  -1.500  -0.0508   0.01659   0.01007  -0.0469  0.9797  0.7862  -1.1069   0.0000   0.0000   0.0000  -0.6836
  -1.400  -0.0424   0.01669   0.01028  -0.0457  0.9758  0.8272  -1.0426   0.0000   0.0000   0.0000  -0.8382
  -1.300  -0.0323   0.01681   0.01048  -0.0447  0.9726  0.8665  -0.9740   0.0000   0.0000   0.0000  -1.1478
  -1.200  -0.0260   0.01672   0.01043  -0.0434  0.9673  0.8991  -0.9198   0.0000   0.0000   0.0000  -1.4353
  -1.100  -0.0102   0.01667   0.01039  -0.0441  0.9629  0.9359  -0.8372   0.0000   0.0000   0.0000  -4.1261
  -0.900   0.0416   0.01670   0.01027  -0.0506  0.9558  1.0000  -0.6518   0.0000   0.0000   0.0000   1.4745
  -0.800   0.0647   0.01684   0.01031  -0.0534  0.9533  1.0000  -0.5895   0.0000   0.0000   0.0000   1.0792
  -0.700   0.0772   0.01685   0.01026  -0.0542  0.9480  1.0000  -0.5483   0.0000   0.0000   0.0000   0.9541
  -0.600   0.0916   0.01690   0.01024  -0.0552  0.9431  1.0000  -0.5041   0.0000   0.0000   0.0000   0.8544
  -0.500   0.1084   0.01698   0.01025  -0.0567  0.9391  1.0000  -0.4564   0.0000   0.0000   0.0000   0.7739
  -0.400   0.1270   0.01707   0.01027  -0.0584  0.9357  1.0000  -0.4096   0.0000   0.0000   0.0000   0.7104
  -0.300   0.1473   0.01715   0.01030  -0.0604  0.9327  1.0000  -0.4225   0.0000   0.0000   0.0000   0.6601
  -0.200   0.1689   0.01724   0.01034  -0.0626  0.9301  1.0000  -0.4363   0.0000   0.0000   0.0000   0.6202
  -0.100   0.1871   0.01732   0.01037  -0.0641  0.9267  1.0000  -0.4483   0.0000   0.0000   0.0000   0.5921
   0.000   0.1940   0.01733   0.01036  -0.0636  0.9193  1.0000  -0.4539   0.0000   0.0000   0.0000   0.5771
   0.100   0.2090   0.01736   0.01035  -0.0645  0.9141  1.0000  -0.4652   0.0000   0.0000   0.0000   0.5577
   0.200   0.2268   0.01739   0.01035  -0.0658  0.9100  1.0000  -0.4785   0.0000   0.0000   0.0000   0.5393
   0.300   0.2458   0.01741   0.01039  -0.0674  0.9065  1.0000  -0.4927   0.0000   0.0000   0.0000   0.5230
   0.400   0.2657   0.01743   0.01037  -0.0691  0.9037  1.0000  -0.5074   0.0000   0.0000   0.0000   0.5088
   0.500   0.2865   0.01744   0.01035  -0.0709  0.9014  1.0000  -0.5228   0.0000   0.0000   0.0000   0.4963
   0.600   0.3086   0.01743   0.01032  -0.0730  0.8994  1.0000  -0.5390   0.0000   0.0000   0.0000   0.4851
   0.700   0.3097   0.01755   0.01042  -0.0714  0.8908  1.0000  -0.5432   0.0000   0.0000   0.0000   0.4790
   0.800   0.3220   0.01757   0.01041  -0.0717  0.8849  1.0000  -0.5551   0.0000   0.0000   0.0000   0.4710
   0.900   0.3384   0.01754   0.01036  -0.0726  0.8801  1.0000  -0.5697   0.0000   0.0000   0.0000   0.4629
   1.000   0.3572   0.01746   0.01026  -0.0740  0.8763  1.0000  -0.5862   0.0000   0.0000   0.0000   0.4552
   1.100   0.3778   0.01734   0.01013  -0.0755  0.8733  1.0000  -0.6039   0.0000   0.0000   0.0000   0.4481
   1.200   0.3994   0.01722   0.01000  -0.0773  0.8708  1.0000  -0.6224   0.0000   0.0000   0.0000   0.4417
   1.300   0.4209   0.01710   0.00987  -0.0791  0.8685  1.0000  -0.6411   0.0000   0.0000   0.0000   0.4359
   1.400   0.4423   0.01697   0.00974  -0.0808  0.8664  1.0000  -0.6621   0.0000   0.0000   0.0000   0.4306
   1.500   0.4440   0.01716   0.00993  -0.0792  0.8576  1.0000  -0.6682   0.0000   0.0000   0.0000   0.4263
   1.600   0.4535   0.01719   0.00995  -0.0789  0.8505  1.0000  -0.6803   0.0000   0.0000   0.0000   0.4218
   1.700   0.4687   0.01710   0.00985  -0.0794  0.8453  1.0000  -0.6969   0.0000   0.0000   0.0000   0.4172
   1.800   0.4862   0.01695   0.00970  -0.0804  0.8410  1.0000  -0.7156   0.0000   0.0000   0.0000   0.4129
   1.900   0.5048   0.01677   0.00953  -0.0814  0.8374  1.0000  -0.7364   0.0000   0.0000   0.0000   0.4088
   2.000   0.5241   0.01659   0.00935  -0.0825  0.8341  1.0000  -0.7598   0.0000   0.0000   0.0000   0.4050
   2.100   0.5439   0.01641   0.00917  -0.0838  0.8311  1.0000  -0.7837   0.0000   0.0000   0.0000   0.4015
   2.200   0.5610   0.01632   0.00909  -0.0846  0.8272  1.0000  -0.8052   0.0000   0.0000   0.0000   0.3982
   2.300   0.5616   0.01654   0.00932  -0.0829  0.8173  1.0000  -0.8121   0.0000   0.0000   0.0000   0.3948
   2.400   0.5724   0.01652   0.00931  -0.0826  0.8102  1.0000  -0.8284   0.0000   0.0000   0.0000   0.3916
   2.500   0.5870   0.01639   0.00919  -0.0829  0.8043  1.0000  -0.8516   0.0000   0.0000   0.0000   0.3884
   2.600   0.6036   0.01621   0.00901  -0.0835  0.7992  1.0000  -0.8771   0.0000   0.0000   0.0000   0.3855
   2.700   0.6210   0.01601   0.00882  -0.0842  0.7946  1.0000  -0.9036   0.0000   0.0000   0.0000   0.3827
   2.800   0.6387   0.01585   0.00864  -0.0850  0.7901  1.0000  -0.9305   0.0000   0.0000   0.0000   0.3800
   2.900   0.6484   0.01591   0.00872  -0.0846  0.7832  1.0000  -0.9491   0.0000   0.0000   0.0000   0.3774
   3.000   0.6552   0.01601   0.00884  -0.0838  0.7743  1.0000  -0.9645   0.0000   0.0000   0.0000   0.3747
   3.100   0.6665   0.01597   0.00881  -0.0835  0.7666  1.0000  -0.9881   0.0000   0.0000   0.0000   0.3721
   3.200   0.6802   0.01585   0.00869  -0.0836  0.7596  1.0000  -1.0164   0.0000   0.0000   0.0000   0.3696
   3.300   0.6944   0.01572   0.00873  -0.0838  0.7544  1.0000  -1.0443   0.0000   0.0000   0.0000   0.3673
   3.400   0.7100   0.01561   0.00858  -0.0842  0.7487  1.0000  -1.0752   0.0000   0.0000   0.0000   0.3651
   3.500   0.7228   0.01563   0.00859  -0.0842  0.7420  1.0000  -1.1076   0.0000   0.0000   0.0000   0.3630
   3.600   0.7295   0.01573   0.00873  -0.0834  0.7331  1.0000  -1.1311   0.0000   0.0000   0.0000   0.3607
   3.700   0.7393   0.01575   0.00876  -0.0830  0.7245  1.0000  -1.1599   0.0000   0.0000   0.0000   0.3585
   3.800   0.7511   0.01571   0.00871  -0.0828  0.7164  1.0000  -1.1919   0.0000   0.0000   0.0000   0.3564
   3.900   0.7641   0.01563   0.00860  -0.0828  0.7089  1.0000  -1.2264   0.0000   0.0000   0.0000   0.3544
   4.000   0.7791   0.01559   0.00850  -0.0830  0.7014  1.0000  -1.2642   0.0000   0.0000   0.0000   0.3525
   4.100   0.7880   0.01568   0.00861  -0.0825  0.6928  1.0000  -1.3072   0.0000   0.0000   0.0000   0.3506
   4.200   0.7962   0.01575   0.00871  -0.0819  0.6830  1.0000  -1.3603   0.0000   0.0000   0.0000   0.3486
   4.300   0.8064   0.01575   0.00872  -0.0815  0.6734  1.0000  -1.4204   0.0000   0.0000   0.0000   0.3467
   4.400   0.8180   0.01573   0.00866  -0.0812  0.6645  1.0000  -1.4858   0.0000   0.0000   0.0000   0.3449
   4.500   0.8314   0.01573   0.00859  -0.0812  0.6557  1.0000  -1.5582   0.0000   0.0000   0.0000   0.3432
   4.600   0.8413   0.01584   0.00869  -0.0808  0.6464  1.0000  -1.6199   0.0000   0.0000   0.0000   0.3415
   4.700   0.8494   0.01591   0.00881  -0.0802  0.6361  1.0000  -1.6767   0.0000   0.0000   0.0000   0.3398
   4.800   0.8587   0.01591   0.00880  -0.0796  0.6244  1.0000  -1.7394   0.0000   0.0000   0.0000   0.3379
   4.900   0.8699   0.01581   0.00857  -0.0790  0.6099  1.0000  -1.8119   0.0000   0.0000   0.0000   0.3359
   5.000   0.8783   0.01580   0.00850  -0.0781  0.5935  1.0000  -1.8752   0.0000   0.0000   0.0000   0.3340
   5.100   0.8850   0.01573   0.00838  -0.0769  0.5738  1.0000  -1.9352   0.0000   0.0000   0.0000   0.3318
   5.200   0.8937   0.01573   0.00812  -0.0759  0.5514  1.0000  -2.0044   0.0000   0.0000   0.0000   0.3298
   5.300   0.8993   0.01573   0.00811  -0.0747  0.5284  1.0000  -2.0617   0.0000   0.0000   0.0000   0.3278
   5.400   0.9063   0.01585   0.00795  -0.0736  0.5028  1.0000  -2.1266   0.0000   0.0000   0.0000   0.3258
   5.500   0.9125   0.01594   0.00801  -0.0726  0.4786  1.0000  -2.1872   0.0000   0.0000   0.0000   0.3240
   5.600   0.9191   0.01616   0.00799  -0.0716  0.4545  1.0000  -2.2516   0.0000   0.0000   0.0000   0.3223
   5.700   0.9272   0.01630   0.00813  -0.0711  0.4368  1.0000  -2.3197   0.0000   0.0000   0.0000   0.3209
   5.800   0.9354   0.01648   0.00825  -0.0705  0.4210  1.0000  -2.3897   0.0000   0.0000   0.0000   0.3195
   5.900   0.9430   0.01673   0.00836  -0.0698  0.4058  1.0000  -2.4596   0.0000   0.0000   0.0000   0.3181
   6.000   0.9518   0.01690   0.00855  -0.0694  0.3912  1.0000  -2.5339   0.0000   0.0000   0.0000   0.3168
   6.100   0.9597   0.01711   0.00870  -0.0689  0.3740  1.0000  -2.6070   0.0000   0.0000   0.0000   0.3155
   6.300   0.9753   0.01760   0.00907  -0.0677  0.3417  1.0000  -2.7557   0.0000   0.0000   0.0000   0.3130
   6.400   0.9828   0.01787   0.00927  -0.0671  0.3243  1.0000  -2.8308   0.0000   0.0000   0.0000   0.3117
   6.500   0.9898   0.01819   0.00949  -0.0664  0.3087  1.0000  -2.9043   0.0000   0.0000   0.0000   0.3104
   6.600   0.9965   0.01851   0.00972  -0.0657  0.2828  1.0000  -2.9780   0.0000   0.0000   0.0000   0.3092
   6.700   1.0008   0.01901   0.00997  -0.0648  0.2476  1.0000  -3.0427   0.0000   0.0000   0.0000   0.3078
   6.800   1.0053   0.01955   0.01027  -0.0639  0.2156  1.0000  -3.1068   0.0000   0.0000   0.0000   0.3065
   6.900   1.0115   0.02000   0.01060  -0.0632  0.1920  1.0000  -3.1749   0.0000   0.0000   0.0000   0.3053
   7.000   1.0253   0.01985   0.01126  -0.0634  0.2241  1.0000  -3.4109   0.0000   0.0000   0.0000   0.3046
   7.100   1.0326   0.02019   0.01157  -0.0629  0.2034  1.0000  -3.5131   0.0000   0.0000   0.0000   0.3036
   7.200   1.0378   0.02070   0.01192  -0.0621  0.1816  1.0000  -3.5917   0.0000   0.0000   0.0000   0.3024
   7.300   1.0419   0.02135   0.01234  -0.0613  0.1490  1.0000  -3.6561   0.0000   0.0000   0.0000   0.3012
   7.400   1.0459   0.02207   0.01284  -0.0604  0.1145  1.0000  -3.7052   0.0000   0.0000   0.0000   0.3000
   7.500   1.0470   0.02316   0.01357  -0.0591  0.0685  1.0000  -3.7190   0.0000   0.0000   0.0000   0.2986
   7.600   1.0470   0.02442   0.01453  -0.0575  0.0431  1.0000  -3.7051   0.0000   0.0000   0.0000   0.2970
   7.700   1.0513   0.02520   0.01534  -0.0563  0.0368  1.0000  -3.7142   0.0000   0.0000   0.0000   0.2955
   7.800   1.0562   0.02585   0.01607  -0.0553  0.0335  1.0000  -3.7453   0.0000   0.0000   0.0000   0.2942
   7.900   1.0609   0.02650   0.01678  -0.0543  0.0313  1.0000  -3.7821   0.0000   0.0000   0.0000   0.2929
   8.000   1.0651   0.02718   0.01751  -0.0533  0.0297  1.0000  -3.8186   0.0000   0.0000   0.0000   0.2916
   8.100   1.0686   0.02790   0.01830  -0.0521  0.0285  1.0000  -3.8517   0.0000   0.0000   0.0000   0.2902
   8.200   1.0715   0.02867   0.01914  -0.0509  0.0275  1.0000  -3.8808   0.0000   0.0000   0.0000   0.2889
   8.300   1.0738   0.02948   0.02004  -0.0497  0.0267  1.0000  -3.9063   0.0000   0.0000   0.0000   0.2875
   8.400   1.0758   0.03035   0.02099  -0.0484  0.0261  1.0000  -3.9292   0.0000   0.0000   0.0000   0.2861
   8.500   1.0779   0.03127   0.02199  -0.0471  0.0256  1.0000  -3.9505   0.0000   0.0000   0.0000   0.2847
   8.600   1.0804   0.03226   0.02306  -0.0459  0.0253  1.0000  -3.9715   0.0000   0.0000   0.0000   0.2833
   8.700   1.0842   0.03337   0.02425  -0.0449  0.0249  1.0000  -3.9940   0.0000   0.0000   0.0000   0.2821
   8.800   1.0898   0.03464   0.02559  -0.0442  0.0247  1.0000  -4.0191   0.0000   0.0000   0.0000   0.2811
   8.900   1.0974   0.03592   0.02690  -0.0437  0.0245  1.0000  -4.0532   0.0000   0.0000   0.0000   0.2803
   9.000   1.1053   0.03705   0.02812  -0.0433  0.0244  1.0000  -4.0962   0.0000   0.0000   0.0000   0.2795
   9.100   1.1133   0.03828   0.02945  -0.0429  0.0244  1.0000  -4.1368   0.0000   0.0000   0.0000   0.2787
   9.200   1.1212   0.03961   0.03089  -0.0425  0.0244  1.0000  -4.1739   0.0000   0.0000   0.0000   0.2780
   9.300   1.1286   0.04104   0.03244  -0.0420  0.0244  1.0000  -4.2063   0.0000   0.0000   0.0000   0.2773
   9.400   1.1351   0.04257   0.03410  -0.0415  0.0244  1.0000  -4.2327   0.0000   0.0000   0.0000   0.2765
   9.500   1.1405   0.04419   0.03585  -0.0410  0.0245  1.0000  -4.2526   0.0000   0.0000   0.0000   0.2757
   9.700   1.1492   0.04711   0.03911  -0.0396  0.0246  1.0000  -4.2978   0.0000   0.0000   0.0000   0.2740
   9.800   1.1529   0.04824   0.04035  -0.0388  0.0248  1.0000  -4.3299   0.0000   0.0000   0.0000   0.2731
   9.900   1.1561   0.04932   0.04154  -0.0380  0.0249  1.0000  -4.3618   0.0000   0.0000   0.0000   0.2722
  10.000   1.1587   0.05036   0.04269  -0.0371  0.0250  1.0000  -4.3925   0.0000   0.0000   0.0000   0.2712
  10.100   1.1606   0.05136   0.04379  -0.0362  0.0252  1.0000  -4.4215   0.0000   0.0000   0.0000   0.2702
  10.200   1.1621   0.05234   0.04487  -0.0351  0.0253  1.0000  -4.4489   0.0000   0.0000   0.0000   0.2692
  10.300   1.1630   0.05332   0.04596  -0.0341  0.0255  1.0000  -4.4741   0.0000   0.0000   0.0000   0.2682
  10.400   1.1633   0.05430   0.04705  -0.0331  0.0257  1.0000  -4.4964   0.0000   0.0000   0.0000   0.2671
  10.500   1.1630   0.05530   0.04816  -0.0320  0.0259  1.0000  -4.5152   0.0000   0.0000   0.0000   0.2661
  10.600   1.1620   0.05633   0.04930  -0.0309  0.0261  1.0000  -4.5296   0.0000   0.0000   0.0000   0.2651
  10.700   1.1601   0.05741   0.05049  -0.0299  0.0263  1.0000  -4.5390   0.0000   0.0000   0.0000   0.2641
  10.800   1.1575   0.05855   0.05175  -0.0288  0.0265  1.0000  -4.5427   0.0000   0.0000   0.0000   0.2631
  10.900   1.1539   0.05976   0.05309  -0.0278  0.0267  1.0000  -4.5402   0.0000   0.0000   0.0000   0.2622
  11.000   1.1494   0.06105   0.05452  -0.0269  0.0269  1.0000  -4.5313   0.0000   0.0000   0.0000   0.2614
  11.100   1.1440   0.06244   0.05604  -0.0261  0.0272  1.0000  -4.5164   0.0000   0.0000   0.0000   0.2606
  11.200   1.1378   0.06394   0.05768  -0.0254  0.0274  1.0000  -4.4958   0.0000   0.0000   0.0000   0.2600
  11.300   1.1310   0.06556   0.05943  -0.0248  0.0276  1.0000  -4.4704   0.0000   0.0000   0.0000   0.2595
  11.400   1.1235   0.06729   0.06128  -0.0245  0.0279  1.0000  -4.4410   0.0000   0.0000   0.0000   0.2592
  11.500   1.1156   0.06912   0.06324  -0.0243  0.0281  1.0000  -4.4084   0.0000   0.0000   0.0000   0.2590
  11.600   1.1073   0.07105   0.06529  -0.0243  0.0283  1.0000  -4.3736   0.0000   0.0000   0.0000   0.2591
  11.700   1.0985   0.07305   0.06741  -0.0245  0.0285  1.0000  -4.3371   0.0000   0.0000   0.0000   0.2593
  11.800   1.0895   0.07513   0.06960  -0.0249  0.0286  1.0000  -4.2991   0.0000   0.0000   0.0000   0.2597
  11.900   1.0802   0.07733   0.07190  -0.0255  0.0288  1.0000  -4.2594   0.0000   0.0000   0.0000   0.2603
  12.000   1.0710   0.07967   0.07434  -0.0263  0.0289  1.0000  -4.2175   0.0000   0.0000   0.0000   0.2611
  12.100   1.0616   0.08214   0.07691  -0.0274  0.0290  1.0000  -4.1736   0.0000   0.0000   0.0000   0.2622
  12.200   1.0522   0.08476   0.07961  -0.0287  0.0291  1.0000  -4.1272   0.0000   0.0000   0.0000   0.2635
  12.300   1.0426   0.08752   0.08245  -0.0302  0.0293  1.0000  -4.0782   0.0000   0.0000   0.0000   0.2651
  12.400   1.0329   0.09043   0.08544  -0.0320  0.0293  1.0000  -4.0258   0.0000   0.0000   0.0000   0.2670
  12.500   1.0230   0.09352   0.08860  -0.0340  0.0294  1.0000  -3.9694   0.0000   0.0000   0.0000   0.2691
  12.600   1.0129   0.09680   0.09195  -0.0363  0.0295  1.0000  -3.9081   0.0000   0.0000   0.0000   0.2716
  12.700   1.0027   0.10030   0.09552  -0.0388  0.0296  1.0000  -3.8401   0.0000   0.0000   0.0000   0.2743
  12.800   0.9921   0.10409   0.09937  -0.0416  0.0297  1.0000  -3.7627   0.0000   0.0000   0.0000   0.2775
  12.900   0.9808   0.10830   0.10363  -0.0448  0.0298  1.0000  -3.6713   0.0000   0.0000   0.0000   0.2812
  13.000   0.9688   0.11299   0.10838  -0.0483  0.0299  1.0000  -3.5614   0.0000   0.0000   0.0000   0.2853
  13.100   0.9559   0.11837   0.11379  -0.0522  0.0301  1.0000  -3.4243   0.0000   0.0000   0.0000   0.2901
  13.200   0.9422   0.12460   0.12004  -0.0565  0.0305  1.0000  -3.2500   0.0000   0.0000   0.0000   0.2956
  13.300   0.9292   0.13132   0.12676  -0.0606  0.0312  1.0000  -3.0471   0.0000   0.0000   0.0000   0.3010
  13.400   0.9202   0.13673   0.13216  -0.0636  0.0319  1.0000  -2.8882   0.0000   0.0000   0.0000   0.3050
  13.500   0.9140   0.14089   0.13629  -0.0660  0.0326  1.0000  -2.7753   0.0000   0.0000   0.0000   0.3080
  13.600   0.9093   0.14447   0.13985  -0.0679  0.0333  1.0000  -2.6856   0.0000   0.0000   0.0000   0.3105
  13.700   0.9058   0.14772   0.14308  -0.0697  0.0340  1.0000  -2.6110   0.0000   0.0000   0.0000   0.3127
  13.800   0.9031   0.15073   0.14608  -0.0712  0.0346  1.0000  -2.5477   0.0000   0.0000   0.0000   0.3146
  13.900   0.9010   0.15357   0.14890  -0.0726  0.0353  1.0000  -2.4935   0.0000   0.0000   0.0000   0.3163
  14.000   0.8996   0.15626   0.15159  -0.0739  0.0360  1.0000  -2.4471   0.0000   0.0000   0.0000   0.3178
  14.100   0.8986   0.15884   0.15416  -0.0751  0.0368  1.0000  -2.4075   0.0000   0.0000   0.0000   0.3191
  14.200   0.8979   0.16133   0.15664  -0.0761  0.0375  1.0000  -2.3740   0.0000   0.0000   0.0000   0.3203
  14.300   0.8975   0.16376   0.15906  -0.0771  0.0383  1.0000  -2.3460   0.0000   0.0000   0.0000   0.3213
  14.400   0.8972   0.16618   0.16148  -0.0778  0.0393  1.0000  -2.3228   0.0000   0.0000   0.0000   0.3221
  14.600   0.8884   0.17811   0.17339  -0.0840  0.0555  1.0000  -1.9178   0.0000   0.0000   0.0000   0.3302
  14.700   0.8826   0.18441   0.17970  -0.0877  0.0736  1.0000  -1.7091   0.0000   0.0000   0.0000   0.3352
  14.800   0.8828   0.18670   0.18199  -0.0888  0.0744  1.0000  -1.6863   0.0000   0.0000   0.0000   0.3363
  14.900   0.8835   0.18889   0.18417  -0.0898  0.0749  1.0000  -1.6690   0.0000   0.0000   0.0000   0.3373
  15.000   0.8844   0.19100   0.18629  -0.0908  0.0752  1.0000  -1.6547   0.0000   0.0000   0.0000   0.3382
  15.100   0.8854   0.19308   0.18836  -0.0917  0.0753  1.0000  -1.6425   0.0000   0.0000   0.0000   0.3390
  15.200   0.8866   0.19512   0.19040  -0.0926  0.0752  1.0000  -1.6318   0.0000   0.0000   0.0000   0.3398
  15.300   0.8878   0.19715   0.19242  -0.0935  0.0750  1.0000  -1.6222   0.0000   0.0000   0.0000   0.3406
  15.400   0.8891   0.19915   0.19443  -0.0944  0.0747  1.0000  -1.6138   0.0000   0.0000   0.0000   0.3413
  15.500   0.8905   0.20114   0.19642  -0.0953  0.0744  1.0000  -1.6063   0.0000   0.0000   0.0000   0.3420
  15.600   0.8919   0.20312   0.19840  -0.0961  0.0740  1.0000  -1.5999   0.0000   0.0000   0.0000   0.3426
  15.700   0.8935   0.20509   0.20037  -0.0969  0.0736  1.0000  -1.5945   0.0000   0.0000   0.0000   0.3432
  15.800   0.8951   0.20706   0.20233  -0.0977  0.0731  1.0000  -1.5903   0.0000   0.0000   0.0000   0.3438
  15.900   0.8969   0.20901   0.20428  -0.0984  0.0726  1.0000  -1.5872   0.0000   0.0000   0.0000   0.3443
  16.000   0.8987   0.21095   0.20622  -0.0992  0.0720  1.0000  -1.5853   0.0000   0.0000   0.0000   0.3447
  16.100   0.9006   0.21288   0.20816  -0.0999  0.0714  1.0000  -1.5849   0.0000   0.0000   0.0000   0.3451
  16.200   0.9027   0.21480   0.21008  -0.1005  0.0708  1.0000  -1.5861   0.0000   0.0000   0.0000   0.3455
  16.300   0.9048   0.21672   0.21200  -0.1011  0.0702  1.0000  -1.5889   0.0000   0.0000   0.0000   0.3458
  16.400   0.9072   0.21864   0.21392  -0.1017  0.0696  1.0000  -1.5936   0.0000   0.0000   0.0000   0.3460
  16.500   0.9097   0.22056   0.21585  -0.1022  0.0690  1.0000  -1.6003   0.0000   0.0000   0.0000   0.3461
  16.600   0.9124   0.22248   0.21778  -0.1026  0.0683  1.0000  -1.6094   0.0000   0.0000   0.0000   0.3461
  16.700   0.9154   0.22444   0.21974  -0.1030  0.0677  1.0000  -1.6212   0.0000   0.0000   0.0000   0.3460
  16.800   0.9187   0.22643   0.22174  -0.1033  0.0671  1.0000  -1.6361   0.0000   0.0000   0.0000   0.3457
  16.900   0.9224   0.22851   0.22383  -0.1034  0.0665  1.0000  -1.6547   0.0000   0.0000   0.0000   0.3453
  17.000   0.9267   0.23073   0.22606  -0.1034  0.0659  1.0000  -1.6783   0.0000   0.0000   0.0000   0.3446
  17.100   0.9320   0.23321   0.22855  -0.1032  0.0653  1.0000  -1.7089   0.0000   0.0000   0.0000   0.3436
  17.200   0.9378   0.23603   0.23139  -0.1028  0.0646  1.0000  -1.7442   0.0000   0.0000   0.0000   0.3423
  17.300   0.9431   0.23959   0.23498  -0.1023  0.0639  1.0000  -1.7783   0.0000   0.0000   0.0000   0.3410
  17.400   0.9404   0.24907   0.24440  -0.1026  0.0625  1.0000  -1.7339   0.0000   0.0000   0.0000   0.3417
  17.500   0.9416   0.25120   0.24653  -0.1035  0.0624  1.0000  -1.7244   0.0000   0.0000   0.0000   0.3424
  17.600   0.9428   0.25330   0.24863  -0.1044  0.0624  1.0000  -1.7148   0.0000   0.0000   0.0000   0.3431
  17.700   0.9439   0.25537   0.25070  -0.1053  0.0623  1.0000  -1.7052   0.0000   0.0000   0.0000   0.3438
  17.800   0.9450   0.25740   0.25274  -0.1062  0.0623  1.0000  -1.6956   0.0000   0.0000   0.0000   0.3445
  17.900   0.9461   0.25940   0.25474  -0.1071  0.0622  1.0000  -1.6860   0.0000   0.0000   0.0000   0.3452
  18.000   0.9471   0.26135   0.25669  -0.1080  0.0622  1.0000  -1.6762   0.0000   0.0000   0.0000   0.3459
  18.100   0.9480   0.26325   0.25859  -0.1090  0.0621  1.0000  -1.6663   0.0000   0.0000   0.0000   0.3467
  18.200   0.9489   0.26508   0.26042  -0.1099  0.0620  1.0000  -1.6561   0.0000   0.0000   0.0000   0.3474
  18.300   0.9496   0.26682   0.26217  -0.1108  0.0619  1.0000  -1.6455   0.0000   0.0000   0.0000   0.3482
  18.400   0.9495   0.26839   0.26373  -0.1119  0.0617  1.0000  -1.6292   0.0000   0.0000   0.0000   0.3492
  18.500   0.9490   0.26980   0.26515  -0.1131  0.0615  1.0000  -1.6107   0.0000   0.0000   0.0000   0.3504
  18.600   0.9479   0.27102   0.26636  -0.1144  0.0613  1.0000  -1.5892   0.0000   0.0000   0.0000   0.3517
  18.700   0.9457   0.27197   0.26731  -0.1158  0.0610  1.0000  -1.5617   0.0000   0.0000   0.0000   0.3533
  18.800   0.9434   0.27287   0.26821  -0.1173  0.0605  1.0000  -1.5318   0.0000   0.0000   0.0000   0.3551
  18.900   0.9416   0.27390   0.26924  -0.1188  0.0599  1.0000  -1.5016   0.0000   0.0000   0.0000   0.3568
  19.000   0.9406   0.27527   0.27061  -0.1202  0.0590  1.0000  -1.4758   0.0000   0.0000   0.0000   0.3583
  19.100   0.9405   0.27698   0.27232  -0.1214  0.0581  1.0000  -1.4567   0.0000   0.0000   0.0000   0.3595
  19.200   0.9407   0.27889   0.27423  -0.1223  0.0572  1.0000  -1.4429   0.0000   0.0000   0.0000   0.3603
  19.300   0.9411   0.28089   0.27624  -0.1232  0.0563  1.0000  -1.4324   0.0000   0.0000   0.0000   0.3610
  19.400   0.9415   0.28293   0.27829  -0.1239  0.0555  1.0000  -1.4241   0.0000   0.0000   0.0000   0.3616
  19.500   0.9420   0.28499   0.28035  -0.1246  0.0547  1.0000  -1.4172   0.0000   0.0000   0.0000   0.3622
  19.600   0.9424   0.28704   0.28242  -0.1253  0.0539  1.0000  -1.4114   0.0000   0.0000   0.0000   0.3627
  19.700   0.9427   0.28909   0.28447  -0.1259  0.0532  1.0000  -1.4064   0.0000   0.0000   0.0000   0.3631
  19.800   0.9430   0.29112   0.28651  -0.1264  0.0525  1.0000  -1.4020   0.0000   0.0000   0.0000   0.3636
  19.900   0.9432   0.29313   0.28854  -0.1270  0.0518  1.0000  -1.3982   0.0000   0.0000   0.0000   0.3640
  20.000   0.9433   0.29511   0.29053  -0.1275  0.0511  1.0000  -1.3949   0.0000   0.0000   0.0000   0.3643
  20.100   0.9432   0.29707   0.29250  -0.1279  0.0505  1.0000  -1.3920   0.0000   0.0000   0.0000   0.3647
  20.200   0.9430   0.29898   0.29443  -0.1284  0.0499  1.0000  -1.3895   0.0000   0.0000   0.0000   0.3651
  20.300   0.9426   0.30086   0.29632  -0.1287  0.0493  1.0000  -1.3873   0.0000   0.0000   0.0000   0.3654
  20.400   0.9421   0.30268   0.29815  -0.1291  0.0487  1.0000  -1.3854   0.0000   0.0000   0.0000   0.3657
  20.500   0.9413   0.30444   0.29993  -0.1294  0.0482  1.0000  -1.3836   0.0000   0.0000   0.0000   0.3660
  20.600   0.9402   0.30613   0.30163  -0.1296  0.0477  1.0000  -1.3819   0.0000   0.0000   0.0000   0.3663
  20.700   0.9387   0.30771   0.30324  -0.1297  0.0472  1.0000  -1.3802   0.0000   0.0000   0.0000   0.3666
  20.800   0.9367   0.30917   0.30472  -0.1298  0.0467  1.0000  -1.3781   0.0000   0.0000   0.0000   0.3668
  20.900   0.9339   0.31043   0.30600  -0.1297  0.0462  1.0000  -1.3747   0.0000   0.0000   0.0000   0.3671
  21.000   0.9044   0.30580   0.30148  -0.1267  0.0462  1.0000  -1.3036   0.0000   0.0000   0.0000   0.3686
  21.100   0.8942   0.30463   0.30036  -0.1257  0.0459  1.0000  -1.2820   0.0000   0.0000   0.0000   0.3692
  21.200   0.8878   0.30420   0.29996  -0.1251  0.0455  1.0000  -1.2705   0.0000   0.0000   0.0000   0.3695
  21.300   0.8829   0.30406   0.29986  -0.1247  0.0452  1.0000  -1.2641   0.0000   0.0000   0.0000   0.3698
  21.400   0.8791   0.30412   0.29994  -0.1244  0.0448  1.0000  -1.2614   0.0000   0.0000   0.0000   0.3700
  21.500   0.8760   0.30433   0.30017  -0.1241  0.0444  1.0000  -1.2621   0.0000   0.0000   0.0000   0.3700
  21.600   0.8737   0.30471   0.30058  -0.1237  0.0440  1.0000  -1.2664   0.0000   0.0000   0.0000   0.3700
  21.700   0.8723   0.30535   0.30135  -0.1234  0.0436  1.0000  -1.2721   0.0000   0.0000   0.0000   0.3697
  21.800   0.8721   0.30642   0.30243  -0.1230  0.0432  1.0000  -1.2858   0.0000   0.0000   0.0000   0.3692
  21.900   0.8742   0.30854   0.30458  -0.1224  0.0427  1.0000  -1.3121   0.0000   0.0000   0.0000   0.3681
  22.000   0.8883   0.32173   0.31773  -0.1219  0.0414  1.0000  -1.3512   0.0000   0.0000   0.0000   0.3652
  22.100   0.8844   0.32167   0.31768  -0.1220  0.0414  1.0000  -1.3342   0.0000   0.0000   0.0000   0.3658
  22.200   0.8809   0.32165   0.31769  -0.1221  0.0414  1.0000  -1.3180   0.0000   0.0000   0.0000   0.3665
  22.300   0.8776   0.32168   0.31774  -0.1223  0.0413  1.0000  -1.3025   0.0000   0.0000   0.0000   0.3671
  22.400   0.8746   0.32171   0.31779  -0.1225  0.0413  1.0000  -1.2875   0.0000   0.0000   0.0000   0.3678
  22.500   0.8716   0.32174   0.31783  -0.1227  0.0413  1.0000  -1.2728   0.0000   0.0000   0.0000   0.3684
  22.600   0.8689   0.32178   0.31789  -0.1230  0.0413  1.0000  -1.2586   0.0000   0.0000   0.0000   0.3691
  22.700   0.8663   0.32183   0.31796  -0.1232  0.0412  1.0000  -1.2448   0.0000   0.0000   0.0000   0.3697
  22.800   0.8637   0.32184   0.31799  -0.1235  0.0412  1.0000  -1.2310   0.0000   0.0000   0.0000   0.3703
  22.900   0.8610   0.32176   0.31792  -0.1238  0.0412  1.0000  -1.2162   0.0000   0.0000   0.0000   0.3710
  23.000   0.8579   0.32152   0.31770  -0.1241  0.0411  1.0000  -1.1995   0.0000   0.0000   0.0000   0.3718
  23.100   0.8548   0.32122   0.31742  -0.1244  0.0411  1.0000  -1.1824   0.0000   0.0000   0.0000   0.3727
  23.200   0.8516   0.32086   0.31708  -0.1248  0.0410  1.0000  -1.1648   0.0000   0.0000   0.0000   0.3735
  23.300   0.8486   0.32052   0.31676  -0.1252  0.0410  1.0000  -1.1475   0.0000   0.0000   0.0000   0.3744
  23.400   0.8458   0.32021   0.31646  -0.1256  0.0409  1.0000  -1.1305   0.0000   0.0000   0.0000   0.3753
  23.500   0.8431   0.31991   0.31618  -0.1260  0.0409  1.0000  -1.1138   0.0000   0.0000   0.0000   0.3762
  23.600   0.8405   0.31964   0.31592  -0.1265  0.0408  1.0000  -1.0973   0.0000   0.0000   0.0000   0.3770
  23.700   0.8381   0.31939   0.31568  -0.1269  0.0407  1.0000  -1.0810   0.0000   0.0000   0.0000   0.3779
  23.800   0.8359   0.31916   0.31547  -0.1274  0.0406  1.0000  -1.0647   0.0000   0.0000   0.0000   0.3788
  23.900   0.8338   0.31898   0.31530  -0.1280  0.0405  1.0000  -1.0486   0.0000   0.0000   0.0000   0.3797
  24.000   0.8319   0.31885   0.31518  -0.1285  0.0404  1.0000  -1.0324   0.0000   0.0000   0.0000   0.3806
  24.100   0.8302   0.31878   0.31513  -0.1291  0.0402  1.0000  -1.0163   0.0000   0.0000   0.0000   0.3815
  24.200   0.8288   0.31881   0.31517  -0.1297  0.0400  1.0000  -1.0004   0.0000   0.0000   0.0000   0.3824
  24.300   0.8276   0.31896   0.31533  -0.1304  0.0398  1.0000  -0.9848   0.0000   0.0000   0.0000   0.3833
  24.400   0.8267   0.31925   0.31563  -0.1311  0.0395  1.0000  -0.9700   0.0000   0.0000   0.0000   0.3841
  24.500   0.8261   0.31967   0.31607  -0.1317  0.0391  1.0000  -0.9566   0.0000   0.0000   0.0000   0.3849
  24.600   0.8257   0.32020   0.31661  -0.1323  0.0387  1.0000  -0.9447   0.0000   0.0000   0.0000   0.3855
  24.700   0.8254   0.32080   0.31722  -0.1328  0.0383  1.0000  -0.9343   0.0000   0.0000   0.0000   0.3861
  24.800   0.8251   0.32144   0.31787  -0.1334  0.0379  1.0000  -0.9254   0.0000   0.0000   0.0000   0.3867
  24.900   0.8249   0.32209   0.31854  -0.1338  0.0374  1.0000  -0.9175   0.0000   0.0000   0.0000   0.3871
  25.000   0.8246   0.32275   0.31921  -0.1343  0.0370  1.0000  -0.9106   0.0000   0.0000   0.0000   0.3876
  25.100   0.8244   0.32341   0.31989  -0.1347  0.0366  1.0000  -0.9043   0.0000   0.0000   0.0000   0.3880
  25.200   0.8242   0.32407   0.32057  -0.1351  0.0362  1.0000  -0.8986   0.0000   0.0000   0.0000   0.3884
  25.300   0.8240   0.32473   0.32124  -0.1355  0.0358  1.0000  -0.8934   0.0000   0.0000   0.0000   0.3888
  25.400   0.8238   0.32539   0.32191  -0.1359  0.0354  1.0000  -0.8886   0.0000   0.0000   0.0000   0.3892
  25.500   0.8236   0.32605   0.32258  -0.1363  0.0350  1.0000  -0.8842   0.0000   0.0000   0.0000   0.3895
  25.600   0.8234   0.32671   0.32325  -0.1367  0.0346  1.0000  -0.8801   0.0000   0.0000   0.0000   0.3899
  25.700   0.8232   0.32736   0.32392  -0.1371  0.0342  1.0000  -0.8762   0.0000   0.0000   0.0000   0.3902
  25.800   0.8231   0.32801   0.32459  -0.1375  0.0339  1.0000  -0.8726   0.0000   0.0000   0.0000   0.3906
  25.900   0.8229   0.32866   0.32525  -0.1379  0.0335  1.0000  -0.8693   0.0000   0.0000   0.0000   0.3909
  26.000   0.8228   0.32931   0.32591  -0.1383  0.0332  1.0000  -0.8662   0.0000   0.0000   0.0000   0.3912
  26.100   0.8227   0.32996   0.32658  -0.1386  0.0328  1.0000  -0.8633   0.0000   0.0000   0.0000   0.3916
  26.200   0.8226   0.33060   0.32724  -0.1390  0.0325  1.0000  -0.8606   0.0000   0.0000   0.0000   0.3919
  26.300   0.8225   0.33125   0.32789  -0.1394  0.0322  1.0000  -0.8581   0.0000   0.0000   0.0000   0.3922
  26.400   0.8224   0.33189   0.32855  -0.1398  0.0318  1.0000  -0.8559   0.0000   0.0000   0.0000   0.3925
  26.500   0.8223   0.33253   0.32921  -0.1402  0.0315  1.0000  -0.8538   0.0000   0.0000   0.0000   0.3928
  26.600   0.8222   0.33317   0.32986  -0.1405  0.0312  1.0000  -0.8520   0.0000   0.0000   0.0000   0.3931
  26.700   0.8222   0.33381   0.33051  -0.1409  0.0309  1.0000  -0.8503   0.0000   0.0000   0.0000   0.3934
  26.800   0.8221   0.33445   0.33116  -0.1413  0.0306  1.0000  -0.8489   0.0000   0.0000   0.0000   0.3937
  26.900   0.8221   0.33508   0.33181  -0.1417  0.0304  1.0000  -0.8477   0.0000   0.0000   0.0000   0.3939
  27.000   0.8221   0.33571   0.33245  -0.1420  0.0301  1.0000  -0.8468   0.0000   0.0000   0.0000   0.3942
  27.100   0.8220   0.33634   0.33310  -0.1424  0.0298  1.0000  -0.8461   0.0000   0.0000   0.0000   0.3945
  27.200   0.8220   0.33697   0.33374  -0.1428  0.0295  1.0000  -0.8456   0.0000   0.0000   0.0000   0.3948
  27.300   0.8220   0.33759   0.33437  -0.1431  0.0293  1.0000  -0.8453   0.0000   0.0000   0.0000   0.3950
  27.400   0.8220   0.33821   0.33501  -0.1435  0.0290  1.0000  -0.8454   0.0000   0.0000   0.0000   0.3953
  27.500   0.8220   0.33883   0.33564  -0.1439  0.0288  1.0000  -0.8457   0.0000   0.0000   0.0000   0.3955
  27.600   0.8220   0.33945   0.33627  -0.1442  0.0285  1.0000  -0.8463   0.0000   0.0000   0.0000   0.3957
  27.700   0.8221   0.34006   0.33690  -0.1446  0.0283  1.0000  -0.8472   0.0000   0.0000   0.0000   0.3960
  27.800   0.8221   0.34067   0.33752  -0.1449  0.0281  1.0000  -0.8484   0.0000   0.0000   0.0000   0.3962
  27.900   0.8221   0.34128   0.33814  -0.1453  0.0278  1.0000  -0.8500   0.0000   0.0000   0.0000   0.3964
  28.000   0.8222   0.34188   0.33876  -0.1456  0.0276  1.0000  -0.8519   0.0000   0.0000   0.0000   0.3966
  28.100   0.8222   0.34249   0.33938  -0.1459  0.0274  1.0000  -0.8543   0.0000   0.0000   0.0000   0.3968
  28.200   0.8222   0.34309   0.34000  -0.1462  0.0272  1.0000  -0.8572   0.0000   0.0000   0.0000   0.3969
  28.300   0.8223   0.34370   0.34062  -0.1465  0.0270  1.0000  -0.8605   0.0000   0.0000   0.0000   0.3971
  28.400   0.8224   0.34432   0.34134  -0.1468  0.0268  1.0000  -0.8650   0.0000   0.0000   0.0000   0.3972
  28.500   0.8224   0.34495   0.34198  -0.1471  0.0266  1.0000  -0.8697   0.0000   0.0000   0.0000   0.3973
  28.600   0.8226   0.34560   0.34264  -0.1474  0.0264  1.0000  -0.8751   0.0000   0.0000   0.0000   0.3974
  28.700   0.8227   0.34628   0.34334  -0.1476  0.0262  1.0000  -0.8812   0.0000   0.0000   0.0000   0.3975
  28.800   0.8229   0.34701   0.34409  -0.1478  0.0260  1.0000  -0.8882   0.0000   0.0000   0.0000   0.3975
  28.900   0.8232   0.34784   0.34493  -0.1480  0.0258  1.0000  -0.8963   0.0000   0.0000   0.0000   0.3974
  29.000   0.8236   0.34881   0.34592  -0.1481  0.0256  1.0000  -0.9058   0.0000   0.0000   0.0000   0.3973
  29.100   0.8243   0.35006   0.34718  -0.1482  0.0254  1.0000  -0.9173   0.0000   0.0000   0.0000   0.3970
  29.200   0.8255   0.35186   0.34900  -0.1482  0.0252  1.0000  -0.9314   0.0000   0.0000   0.0000   0.3965
  29.300   0.8280   0.35523   0.35238  -0.1481  0.0249  1.0000  -0.9502   0.0000   0.0000   0.0000   0.3957


