xflr5 v6.61

 Calculated polar for: E222  (10.17%)

 1 1 Reynolds number fixed          Mach number fixed         

 xtrf =   1.000 (top)        1.000 (bottom)
 Mach =   0.000     Re =     0.400 e 6     Ncrit =   9.000

  alpha     CL        CD       CDp       Cm    Top Xtr Bot Xtr   Cpmin    Chinge    XCp    
 ------- -------- --------- --------- -------- ------- ------- -------- --------- ---------
 -10.000  -0.4131   0.10357   0.10090  -0.0305  1.0000  0.0310  -1.6192   0.0000   0.0000   0.0000   0.1676
  -9.900  -0.4126   0.10227   0.09961  -0.0309  1.0000  0.0314  -1.6231   0.0000   0.0000   0.0000   0.1667
  -9.800  -0.4122   0.10095   0.09829  -0.0313  1.0000  0.0318  -1.6292   0.0000   0.0000   0.0000   0.1658
  -9.700  -0.4119   0.09960   0.09696  -0.0316  1.0000  0.0322  -1.6369   0.0000   0.0000   0.0000   0.1649
  -9.600  -0.4118   0.09825   0.09561  -0.0320  1.0000  0.0326  -1.6459   0.0000   0.0000   0.0000   0.1640
  -9.500  -0.4119   0.09688   0.09426  -0.0325  1.0000  0.0329  -1.6562   0.0000   0.0000   0.0000   0.1631
  -9.400  -0.4121   0.09550   0.09289  -0.0329  1.0000  0.0333  -1.6676   0.0000   0.0000   0.0000   0.1623
  -9.300  -0.4125   0.09412   0.09152  -0.0333  1.0000  0.0337  -1.6802   0.0000   0.0000   0.0000   0.1614
  -9.200  -0.4131   0.09273   0.09015  -0.0337  1.0000  0.0341  -1.6939   0.0000   0.0000   0.0000   0.1606
  -9.100  -0.4138   0.09134   0.08877  -0.0341  1.0000  0.0344  -1.7085   0.0000   0.0000   0.0000   0.1599
  -9.000  -0.4146   0.08995   0.08740  -0.0345  1.0000  0.0348  -1.7240   0.0000   0.0000   0.0000   0.1592
  -8.900  -0.4156   0.08854   0.08600  -0.0350  1.0000  0.0352  -1.7405   0.0000   0.0000   0.0000   0.1584
  -8.800  -0.4167   0.08712   0.08460  -0.0354  1.0000  0.0356  -1.7583   0.0000   0.0000   0.0000   0.1577
  -8.700  -0.4181   0.08570   0.08319  -0.0359  1.0000  0.0361  -1.7774   0.0000   0.0000   0.0000   0.1571
  -8.600  -0.4197   0.08429   0.08180  -0.0363  1.0000  0.0365  -1.7977   0.0000   0.0000   0.0000   0.1565
  -8.500  -0.4216   0.08289   0.08041  -0.0367  1.0000  0.0369  -1.8192   0.0000   0.0000   0.0000   0.1560
  -8.400  -0.4239   0.08150   0.07904  -0.0371  1.0000  0.0373  -1.8418   0.0000   0.0000   0.0000   0.1556
  -8.300  -0.4260   0.08021   0.07777  -0.0374  1.0000  0.0377  -1.8606   0.0000   0.0000   0.0000   0.1555
  -8.200  -0.4281   0.07899   0.07657  -0.0376  1.0000  0.0381  -1.8781   0.0000   0.0000   0.0000   0.1555
  -8.100  -0.4306   0.07782   0.07543  -0.0378  1.0000  0.0384  -1.8950   0.0000   0.0000   0.0000   0.1559
  -8.000  -0.4338   0.07673   0.07435  -0.0378  1.0000  0.0388  -1.9120   0.0000   0.0000   0.0000   0.1566
  -7.900  -0.4382   0.07567   0.07332  -0.0377  1.0000  0.0390  -1.9310   0.0000   0.0000   0.0000   0.1580
  -7.800  -0.4446   0.07462   0.07230  -0.0373  1.0000  0.0392  -1.9544   0.0000   0.0000   0.0000   0.1603
  -7.700  -0.4535   0.07354   0.07125  -0.0366  1.0000  0.0392  -1.9841   0.0000   0.0000   0.0000   0.1635
  -7.600  -0.4624   0.07220   0.06993  -0.0365  1.0000  0.0391  -2.0189   0.0000   0.0000   0.0000   0.1655
  -7.500  -0.4695   0.07019   0.06795  -0.0379  1.0000  0.0391  -2.0638   0.0000   0.0000   0.0000   0.1639
  -7.400  -0.4773   0.06785   0.06561  -0.0396  1.0000  0.0391  -2.1188   0.0000   0.0000   0.0000   0.1618
  -7.300  -0.4819   0.06631   0.06405  -0.0401  1.0000  0.0393  -2.1502   0.0000   0.0000   0.0000   0.1617
  -7.200  -0.4852   0.06510   0.06281  -0.0403  1.0000  0.0396  -2.1711   0.0000   0.0000   0.0000   0.1620
  -7.100  -0.4747   0.06329   0.06091  -0.0439  0.9986  0.0401  -2.1752   0.0000   0.0000   0.0000   0.1526
  -7.000  -0.4643   0.06107   0.05859  -0.0477  0.9970  0.0404  -2.1853   0.0000   0.0000   0.0000   0.1423
  -6.900  -0.4556   0.05890   0.05632  -0.0507  0.9951  0.0405  -2.1945   0.0000   0.0000   0.0000   0.1336
  -6.800  -0.4467   0.05678   0.05410  -0.0534  0.9931  0.0406  -2.2008   0.0000   0.0000   0.0000   0.1253
  -6.700  -0.4372   0.05469   0.05190  -0.0560  0.9913  0.0407  -2.2034   0.0000   0.0000   0.0000   0.1169
  -6.600  -0.4270   0.05263   0.04973  -0.0584  0.9897  0.0407  -2.2025   0.0000   0.0000   0.0000   0.1081
  -6.500  -0.4320   0.04259   0.03927  -0.0654  0.9871  0.0423  -2.4608   0.0000   0.0000   0.0000   0.0934
  -6.400  -0.4297   0.03876   0.03533  -0.0669  0.9842  0.0439  -2.4920   0.0000   0.0000   0.0000   0.0889
  -6.300  -0.4201   0.03721   0.03374  -0.0680  0.9823  0.0449  -2.4497   0.0000   0.0000   0.0000   0.0829
  -6.200  -0.4090   0.03600   0.03249  -0.0690  0.9806  0.0459  -2.3975   0.0000   0.0000   0.0000   0.0760
  -6.100  -0.3969   0.03504   0.03151  -0.0700  0.9792  0.0468  -2.3363   0.0000   0.0000   0.0000   0.0684
  -6.000  -0.3844   0.03409   0.03052  -0.0710  0.9779  0.0478  -2.2774   0.0000   0.0000   0.0000   0.0599
  -5.900  -0.3716   0.03314   0.02952  -0.0721  0.9767  0.0490  -2.2216   0.0000   0.0000   0.0000   0.0506
  -5.800  -0.3586   0.03218   0.02851  -0.0732  0.9757  0.0503  -2.1695   0.0000   0.0000   0.0000   0.0405
  -5.700  -0.3452   0.03123   0.02749  -0.0743  0.9748  0.0519  -2.1205   0.0000   0.0000   0.0000   0.0293
  -5.600  -0.3314   0.03032   0.02648  -0.0754  0.9740  0.0537  -2.0737   0.0000   0.0000   0.0000   0.0170
  -5.500  -0.3169   0.02949   0.02556  -0.0765  0.9733  0.0559  -2.0273   0.0000   0.0000   0.0000   0.0031
  -5.400  -0.3016   0.02888   0.02487  -0.0775  0.9727  0.0582  -1.9775   0.0000   0.0000   0.0000  -0.0126
  -5.100  -0.2726   0.02529   0.02084  -0.0784  0.9644  0.0678  -1.9037   0.0000   0.0000   0.0000  -0.0435
  -5.000  -0.2605   0.02412   0.01964  -0.0792  0.9627  0.0700  -1.8549   0.0000   0.0000   0.0000  -0.0600
  -4.800  -0.2291   0.01804   0.01267  -0.0785  0.9607  0.0335  -2.1825   0.0000   0.0000   0.0000  -0.0996
  -4.700  -0.2148   0.01594   0.01017  -0.0782  0.9599  0.0266  -2.3143   0.0000   0.0000   0.0000  -0.1216
  -4.600  -0.1998   0.01565   0.00982  -0.0788  0.9588  0.0252  -2.2588   0.0000   0.0000   0.0000  -0.1519
  -4.500  -0.1848   0.01551   0.00966  -0.0794  0.9579  0.0243  -2.1842   0.0000   0.0000   0.0000  -0.1877
  -4.400  -0.1697   0.01543   0.00956  -0.0801  0.9570  0.0236  -2.1038   0.0000   0.0000   0.0000  -0.2307
  -4.300  -0.1543   0.01536   0.00949  -0.0809  0.9562  0.0231  -2.0199   0.0000   0.0000   0.0000  -0.2835
  -4.200  -0.1404   0.01411   0.00810  -0.0815  0.9555  0.0223  -2.0254   0.0000   0.0000   0.0000  -0.3398
  -4.100  -0.1256   0.01336   0.00726  -0.0822  0.9548  0.0218  -1.9914   0.0000   0.0000   0.0000  -0.4151
  -4.000  -0.1101   0.01284   0.00665  -0.0831  0.9541  0.0215  -1.9293   0.0000   0.0000   0.0000  -0.5160
  -3.900  -0.0942   0.01243   0.00600  -0.0840  0.9535  0.0210  -1.8451   0.0000   0.0000   0.0000  -0.6546
  -3.800  -0.0781   0.01200   0.00550  -0.0850  0.9529  0.0206  -1.7928   0.0000   0.0000   0.0000  -0.8528
  -3.700  -0.0733   0.01177   0.00522  -0.0836  0.9476  0.0204  -1.7604   0.0000   0.0000   0.0000  -0.9063
  -3.600  -0.0612   0.01149   0.00488  -0.0837  0.9450  0.0202  -1.7105   0.0000   0.0000   0.0000  -1.1360
  -3.500  -0.0477   0.01123   0.00456  -0.0841  0.9430  0.0199  -1.6550   0.0000   0.0000   0.0000  -1.5336
  -3.400  -0.0338   0.01101   0.00428  -0.0846  0.9414  0.0198  -1.5962   0.0000   0.0000   0.0000  -2.2863
  -3.300  -0.0194   0.01081   0.00403  -0.0852  0.9399  0.0196  -1.5350   0.0000   0.0000   0.0000  -4.1864
  -3.200  -0.0049   0.01064   0.00379  -0.0858  0.9384  0.0196  -1.4720   0.0000   0.0000   0.0000  -17.5576
  -3.100   0.0098   0.01048   0.00359  -0.0865  0.9368  0.0196  -1.4077   0.0000   0.0000   0.0000   9.1549
  -3.000   0.0248   0.01034   0.00340  -0.0871  0.9353  0.0198  -1.3420   0.0000   0.0000   0.0000   3.8029
  -2.900   0.0398   0.01020   0.00323  -0.0878  0.9338  0.0201  -1.2754   0.0000   0.0000   0.0000   2.4776
  -2.800   0.0548   0.01008   0.00307  -0.0885  0.9323  0.0206  -1.2079   0.0000   0.0000   0.0000   1.8790
  -2.700   0.0700   0.00996   0.00292  -0.0893  0.9308  0.0215  -1.1396   0.0000   0.0000   0.0000   1.5350
  -2.600   0.0855   0.00986   0.00279  -0.0901  0.9293  0.0232  -1.0711   0.0000   0.0000   0.0000   1.3118
  -2.500   0.0979   0.00936   0.00260  -0.0906  0.9270  0.0958  -1.0145   0.0000   0.0000   0.0000   1.1820
  -2.400   0.1061   0.00903   0.00251  -0.0902  0.9227  0.1531  -0.9645   0.0000   0.0000   0.0000   1.1060
  -2.300   0.1166   0.00875   0.00245  -0.0902  0.9190  0.2052  -0.9036   0.0000   0.0000   0.0000   1.0287
  -2.200   0.1282   0.00851   0.00239  -0.0905  0.9156  0.2488  -0.8367   0.0000   0.0000   0.0000   0.9596
  -2.100   0.1405   0.00832   0.00234  -0.0908  0.9123  0.2838  -0.7668   0.0000   0.0000   0.0000   0.8996
  -2.000   0.1533   0.00813   0.00228  -0.0912  0.9091  0.3185  -0.6951   0.0000   0.0000   0.0000   0.8476
  -1.900   0.1670   0.00798   0.00222  -0.0917  0.9061  0.3473  -0.6217   0.0000   0.0000   0.0000   0.8017
  -1.800   0.1809   0.00782   0.00217  -0.0923  0.9032  0.3786  -0.5486   0.0000   0.0000   0.0000   0.7625
  -1.700   0.1949   0.00768   0.00213  -0.0930  0.9001  0.4068  -0.4927   0.0000   0.0000   0.0000   0.7286
  -1.600   0.2057   0.00759   0.00212  -0.0929  0.8962  0.4298  -0.4537   0.0000   0.0000   0.0000   0.7030
  -1.500   0.2155   0.00753   0.00211  -0.0926  0.8917  0.4475  -0.4405   0.0000   0.0000   0.0000   0.6808
  -1.400   0.2259   0.00744   0.00211  -0.0924  0.8873  0.4686  -0.4478   0.0000   0.0000   0.0000   0.6601
  -1.300   0.2372   0.00738   0.00209  -0.0924  0.8828  0.4867  -0.4557   0.0000   0.0000   0.0000   0.6403
  -1.200   0.2491   0.00729   0.00207  -0.0925  0.8784  0.5079  -0.4642   0.0000   0.0000   0.0000   0.6220
  -1.100   0.2613   0.00720   0.00204  -0.0927  0.8741  0.5314  -0.4736   0.0000   0.0000   0.0000   0.6051
  -1.000   0.2738   0.00712   0.00202  -0.0929  0.8696  0.5565  -0.4831   0.0000   0.0000   0.0000   0.5896
  -0.900   0.2856   0.00702   0.00204  -0.0930  0.8649  0.5984  -0.4923   0.0000   0.0000   0.0000   0.5757
  -0.800   0.2942   0.00689   0.00210  -0.0924  0.8601  0.6443  -0.4999   0.0000   0.0000   0.0000   0.5640
  -0.700   0.3030   0.00678   0.00217  -0.0918  0.8548  0.6900  -0.5076   0.0000   0.0000   0.0000   0.5527
  -0.600   0.3118   0.00669   0.00225  -0.0911  0.8495  0.7331  -0.5154   0.0000   0.0000   0.0000   0.5417
  -0.500   0.3222   0.00667   0.00230  -0.0908  0.8443  0.7557  -0.5239   0.0000   0.0000   0.0000   0.5312
  -0.400   0.3329   0.00664   0.00229  -0.0905  0.8390  0.7681  -0.5331   0.0000   0.0000   0.0000   0.5213
  -0.300   0.3439   0.00663   0.00228  -0.0903  0.8336  0.7800  -0.5432   0.0000   0.0000   0.0000   0.5119
  -0.200   0.3553   0.00664   0.00227  -0.0902  0.8278  0.7907  -0.5534   0.0000   0.0000   0.0000   0.5032
  -0.100   0.3653   0.00664   0.00228  -0.0899  0.8230  0.7990  -0.5629   0.0000   0.0000   0.0000   0.4953
   0.000   0.3747   0.00662   0.00229  -0.0894  0.8173  0.8093  -0.5721   0.0000   0.0000   0.0000   0.4877
   0.100   0.3843   0.00660   0.00230  -0.0889  0.8113  0.8198  -0.5815   0.0000   0.0000   0.0000   0.4804
   0.200   0.3944   0.00661   0.00230  -0.0886  0.8054  0.8304  -0.5913   0.0000   0.0000   0.0000   0.4735
   0.300   0.4051   0.00662   0.00229  -0.0884  0.7997  0.8398  -0.6028   0.0000   0.0000   0.0000   0.4669
   0.400   0.4152   0.00663   0.00228  -0.0880  0.7937  0.8489  -0.6139   0.0000   0.0000   0.0000   0.4606
   0.500   0.4249   0.00665   0.00229  -0.0875  0.7873  0.8584  -0.6248   0.0000   0.0000   0.0000   0.4546
   0.600   0.4340   0.00664   0.00231  -0.0870  0.7826  0.8679  -0.6353   0.0000   0.0000   0.0000   0.4489
   0.700   0.4437   0.00664   0.00231  -0.0866  0.7767  0.8765  -0.6462   0.0000   0.0000   0.0000   0.4436
   0.800   0.4534   0.00665   0.00231  -0.0862  0.7701  0.8843  -0.6572   0.0000   0.0000   0.0000   0.4384
   0.900   0.4621   0.00665   0.00231  -0.0855  0.7633  0.8934  -0.6676   0.0000   0.0000   0.0000   0.4332
   1.000   0.4710   0.00666   0.00230  -0.0848  0.7565  0.9034  -0.6782   0.0000   0.0000   0.0000   0.4282
   1.100   0.4803   0.00670   0.00229  -0.0843  0.7494  0.9133  -0.6905   0.0000   0.0000   0.0000   0.4236
   1.200   0.4892   0.00671   0.00229  -0.0836  0.7431  0.9228  -0.7028   0.0000   0.0000   0.0000   0.4190
   1.300   0.4980   0.00668   0.00229  -0.0830  0.7380  0.9337  -0.7150   0.0000   0.0000   0.0000   0.4146
   1.400   0.5072   0.00668   0.00229  -0.0825  0.7317  0.9445  -0.7275   0.0000   0.0000   0.0000   0.4105
   1.500   0.5186   0.00667   0.00227  -0.0824  0.7245  0.9543  -0.7417   0.0000   0.0000   0.0000   0.4067
   1.600   0.5312   0.00668   0.00225  -0.0826  0.7167  0.9650  -0.7568   0.0000   0.0000   0.0000   0.4033
   1.700   0.5457   0.00671   0.00223  -0.0833  0.7087  0.9746  -0.7760   0.0000   0.0000   0.0000   0.4003
   1.800   0.5613   0.00676   0.00222  -0.0842  0.7004  0.9850  -0.7959   0.0000   0.0000   0.0000   0.3976
   1.900   0.5776   0.00676   0.00222  -0.0854  0.6952  0.9991  -0.8165   0.0000   0.0000   0.0000   0.3953
   2.000   0.5883   0.00679   0.00225  -0.0854  0.6893  1.0000  -0.8327   0.0000   0.0000   0.0000   0.3925
   2.100   0.5989   0.00682   0.00226  -0.0853  0.6820  1.0000  -0.8492   0.0000   0.0000   0.0000   0.3898
   2.200   0.6093   0.00687   0.00227  -0.0852  0.6737  1.0000  -0.8684   0.0000   0.0000   0.0000   0.3871
   2.300   0.6197   0.00694   0.00228  -0.0850  0.6647  1.0000  -0.8875   0.0000   0.0000   0.0000   0.3844
   2.400   0.6298   0.00703   0.00231  -0.0848  0.6550  1.0000  -0.9064   0.0000   0.0000   0.0000   0.3818
   2.500   0.6406   0.00708   0.00234  -0.0848  0.6485  1.0000  -0.9261   0.0000   0.0000   0.0000   0.3794
   2.600   0.6514   0.00712   0.00237  -0.0848  0.6424  1.0000  -0.9459   0.0000   0.0000   0.0000   0.3771
   2.700   0.6621   0.00716   0.00240  -0.0847  0.6347  1.0000  -0.9656   0.0000   0.0000   0.0000   0.3748
   2.800   0.6725   0.00723   0.00243  -0.0846  0.6257  1.0000  -0.9853   0.0000   0.0000   0.0000   0.3726
   2.900   0.6826   0.00732   0.00245  -0.0844  0.6158  1.0000  -1.0081   0.0000   0.0000   0.0000   0.3703
   3.000   0.6927   0.00741   0.00256  -0.0841  0.6065  1.0000  -1.0309   0.0000   0.0000   0.0000   0.3681
   3.100   0.6998   0.00757   0.00252  -0.0833  0.5681  1.0000  -1.0515   0.0000   0.0000   0.0000   0.3656
   3.200   0.7038   0.00796   0.00253  -0.0819  0.5073  1.0000  -1.0688   0.0000   0.0000   0.0000   0.3628
   3.300   0.7095   0.00832   0.00259  -0.0809  0.4547  1.0000  -1.0895   0.0000   0.0000   0.0000   0.3604
   3.400   0.7187   0.00848   0.00264  -0.0806  0.4300  1.0000  -1.1175   0.0000   0.0000   0.0000   0.3584
   3.500   0.7271   0.00871   0.00271  -0.0802  0.4066  1.0000  -1.1447   0.0000   0.0000   0.0000   0.3564
   3.600   0.7370   0.00884   0.00277  -0.0800  0.3897  1.0000  -1.1740   0.0000   0.0000   0.0000   0.3546
   3.700   0.7458   0.00906   0.00284  -0.0796  0.3669  1.0000  -1.2019   0.0000   0.0000   0.0000   0.3528
   3.800   0.7552   0.00923   0.00292  -0.0794  0.3481  1.0000  -1.2308   0.0000   0.0000   0.0000   0.3511
   3.900   0.7644   0.00943   0.00301  -0.0791  0.3274  1.0000  -1.2596   0.0000   0.0000   0.0000   0.3494
   4.000   0.7735   0.00964   0.00309  -0.0789  0.3074  1.0000  -1.2882   0.0000   0.0000   0.0000   0.3477
   4.100   0.7832   0.00980   0.00317  -0.0787  0.2908  1.0000  -1.3179   0.0000   0.0000   0.0000   0.3461
   4.200   0.7918   0.01006   0.00329  -0.0783  0.2687  1.0000  -1.3460   0.0000   0.0000   0.0000   0.3445
   4.300   0.8015   0.01023   0.00337  -0.0782  0.2513  1.0000  -1.4003   0.0000   0.0000   0.0000   0.3430
   4.400   0.8098   0.01053   0.00351  -0.0778  0.2264  1.0000  -1.4567   0.0000   0.0000   0.0000   0.3415
   4.500   0.8190   0.01075   0.00362  -0.0776  0.2063  1.0000  -1.5171   0.0000   0.0000   0.0000   0.3400
   4.600   0.8274   0.01106   0.00376  -0.0772  0.1818  1.0000  -1.5762   0.0000   0.0000   0.0000   0.3385
   4.700   0.8359   0.01135   0.00391  -0.0769  0.1581  1.0000  -1.6374   0.0000   0.0000   0.0000   0.3371
   4.800   0.8445   0.01164   0.00406  -0.0766  0.1358  1.0000  -1.7010   0.0000   0.0000   0.0000   0.3357
   4.900   0.8527   0.01198   0.00424  -0.0762  0.1124  1.0000  -1.7650   0.0000   0.0000   0.0000   0.3343
   5.000   0.8606   0.01235   0.00444  -0.0758  0.0880  1.0000  -1.8304   0.0000   0.0000   0.0000   0.3329
   5.100   0.8684   0.01273   0.00466  -0.0753  0.0643  1.0000  -1.8983   0.0000   0.0000   0.0000   0.3315
   5.200   0.8760   0.01314   0.00491  -0.0748  0.0403  1.0000  -1.9677   0.0000   0.0000   0.0000   0.3301
   5.300   0.8824   0.01369   0.00527  -0.0741  0.0117  1.0000  -2.0346   0.0000   0.0000   0.0000   0.3286
   5.400   0.8925   0.01383   0.00540  -0.0740  0.0111  1.0000  -2.1225   0.0000   0.0000   0.0000   0.3273
   5.500   0.9024   0.01397   0.00554  -0.0738  0.0105  1.0000  -2.2127   0.0000   0.0000   0.0000   0.3261
   5.600   0.9124   0.01411   0.00568  -0.0736  0.0101  1.0000  -2.3048   0.0000   0.0000   0.0000   0.3249
   5.700   0.9224   0.01425   0.00583  -0.0734  0.0097  1.0000  -2.3979   0.0000   0.0000   0.0000   0.3237
   5.800   0.9324   0.01439   0.00599  -0.0732  0.0094  1.0000  -2.4914   0.0000   0.0000   0.0000   0.3226
   5.900   0.9424   0.01452   0.00615  -0.0730  0.0092  1.0000  -2.5852   0.0000   0.0000   0.0000   0.3214
   6.000   0.9524   0.01466   0.00633  -0.0728  0.0090  1.0000  -2.6789   0.0000   0.0000   0.0000   0.3203
   6.100   0.9623   0.01481   0.00651  -0.0726  0.0088  1.0000  -2.7724   0.0000   0.0000   0.0000   0.3192
   6.200   0.9722   0.01496   0.00670  -0.0724  0.0088  1.0000  -2.8652   0.0000   0.0000   0.0000   0.3181
   6.300   0.9819   0.01511   0.00690  -0.0721  0.0087  1.0000  -2.9571   0.0000   0.0000   0.0000   0.3170
   6.400   0.9916   0.01528   0.00712  -0.0718  0.0086  1.0000  -3.0480   0.0000   0.0000   0.0000   0.3159
   6.500   1.0012   0.01547   0.00735  -0.0715  0.0086  1.0000  -3.1373   0.0000   0.0000   0.0000   0.3148
   6.600   1.0106   0.01567   0.00760  -0.0712  0.0086  1.0000  -3.2246   0.0000   0.0000   0.0000   0.3137
   6.700   1.0198   0.01589   0.00786  -0.0709  0.0087  1.0000  -3.3096   0.0000   0.0000   0.0000   0.3125
   6.800   1.0289   0.01613   0.00816  -0.0705  0.0087  1.0000  -3.3922   0.0000   0.0000   0.0000   0.3114
   6.900   1.0387   0.01626   0.00854  -0.0703  0.0091  1.0000  -3.4226   0.0000   0.0000   0.0000   0.3105
   7.000   1.0476   0.01651   0.00885  -0.0698  0.0092  1.0000  -3.5019   0.0000   0.0000   0.0000   0.3094
   7.100   1.0561   0.01680   0.00921  -0.0693  0.0092  1.0000  -3.5867   0.0000   0.0000   0.0000   0.3083
   7.200   1.0642   0.01713   0.00961  -0.0688  0.0093  1.0000  -3.6662   0.0000   0.0000   0.0000   0.3071
   7.300   1.0719   0.01749   0.01004  -0.0682  0.0093  1.0000  -3.7415   0.0000   0.0000   0.0000   0.3060
   7.400   1.0793   0.01788   0.01050  -0.0675  0.0094  1.0000  -3.8128   0.0000   0.0000   0.0000   0.3048
   7.500   1.0863   0.01831   0.01101  -0.0667  0.0095  1.0000  -3.8801   0.0000   0.0000   0.0000   0.3036
   7.600   1.0927   0.01878   0.01155  -0.0659  0.0096  1.0000  -3.9431   0.0000   0.0000   0.0000   0.3023
   7.700   1.0988   0.01930   0.01214  -0.0650  0.0098  1.0000  -4.0020   0.0000   0.0000   0.0000   0.3011
   7.800   1.1044   0.01985   0.01276  -0.0641  0.0099  1.0000  -4.0567   0.0000   0.0000   0.0000   0.2998
   7.900   1.1097   0.02044   0.01344  -0.0631  0.0100  1.0000  -4.1073   0.0000   0.0000   0.0000   0.2985
   8.000   1.1148   0.02109   0.01416  -0.0620  0.0102  1.0000  -4.1539   0.0000   0.0000   0.0000   0.2972
   8.100   1.1197   0.02180   0.01495  -0.0610  0.0104  1.0000  -4.1963   0.0000   0.0000   0.0000   0.2959
   8.200   1.1244   0.02257   0.01580  -0.0599  0.0106  1.0000  -4.2342   0.0000   0.0000   0.0000   0.2946
   8.300   1.1291   0.02345   0.01676  -0.0588  0.0108  1.0000  -4.2667   0.0000   0.0000   0.0000   0.2933
   8.400   1.1339   0.02447   0.01788  -0.0578  0.0110  1.0000  -4.2929   0.0000   0.0000   0.0000   0.2920
   8.500   1.1387   0.02577   0.01928  -0.0568  0.0113  1.0000  -4.3046   0.0000   0.0000   0.0000   0.2908
   8.600   1.1429   0.02891   0.02264  -0.0558  0.0121  1.0000  -4.2048   0.0000   0.0000   0.0000   0.2896
   8.700   1.1519   0.02873   0.02244  -0.0554  0.0124  1.0000  -4.3198   0.0000   0.0000   0.0000   0.2887
   8.800   1.1607   0.02862   0.02233  -0.0549  0.0128  1.0000  -4.4306   0.0000   0.0000   0.0000   0.2879
   8.900   1.1695   0.02861   0.02233  -0.0544  0.0133  1.0000  -4.5343   0.0000   0.0000   0.0000   0.2870
   9.000   1.1785   0.02880   0.02257  -0.0539  0.0141  1.0000  -4.6195   0.0000   0.0000   0.0000   0.2860
   9.100   1.1842   0.03697   0.03164  -0.0518  0.0227  1.0000  -4.1368   0.0000   0.0000   0.0000   0.2840
  11.000   1.0937   0.07090   0.06792  -0.0283  0.0386  1.0000  -3.5900   0.0000   0.0000   0.0000   0.2641
  11.100   1.0861   0.07249   0.06957  -0.0283  0.0384  1.0000  -3.5770   0.0000   0.0000   0.0000   0.2641
  11.200   1.0781   0.07421   0.07136  -0.0285  0.0383  1.0000  -3.5607   0.0000   0.0000   0.0000   0.2643
  11.300   1.0692   0.07607   0.07327  -0.0289  0.0382  1.0000  -3.5385   0.0000   0.0000   0.0000   0.2648
  11.400   1.0598   0.07808   0.07533  -0.0296  0.0381  1.0000  -3.5125   0.0000   0.0000   0.0000   0.2655
  11.500   1.0504   0.08026   0.07758  -0.0305  0.0381  1.0000  -3.4834   0.0000   0.0000   0.0000   0.2665
  11.600   1.0405   0.08268   0.08005  -0.0317  0.0381  1.0000  -3.4491   0.0000   0.0000   0.0000   0.2678
  11.700   1.0306   0.08529   0.08271  -0.0332  0.0380  1.0000  -3.4115   0.0000   0.0000   0.0000   0.2693
  11.800   1.0204   0.08813   0.08561  -0.0349  0.0380  1.0000  -3.3687   0.0000   0.0000   0.0000   0.2713
  11.900   1.0098   0.09125   0.08878  -0.0371  0.0381  1.0000  -3.3192   0.0000   0.0000   0.0000   0.2736
  12.000   0.9991   0.09462   0.09219  -0.0395  0.0381  1.0000  -3.2645   0.0000   0.0000   0.0000   0.2763
  12.100   0.9884   0.09826   0.09588  -0.0422  0.0381  1.0000  -3.2031   0.0000   0.0000   0.0000   0.2794
  12.200   0.9775   0.10224   0.09991  -0.0453  0.0381  1.0000  -3.1334   0.0000   0.0000   0.0000   0.2829
  12.300   0.9671   0.10653   0.10424  -0.0486  0.0380  1.0000  -3.0563   0.0000   0.0000   0.0000   0.2868
  12.400   0.9572   0.11121   0.10895  -0.0521  0.0378  1.0000  -2.9693   0.0000   0.0000   0.0000   0.2910
  12.500   0.9476   0.11649   0.11426  -0.0560  0.0374  1.0000  -2.8653   0.0000   0.0000   0.0000   0.2957
  12.600   0.9395   0.12221   0.11998  -0.0598  0.0367  1.0000  -2.7482   0.0000   0.0000   0.0000   0.3003
  12.700   0.9343   0.12640   0.12416  -0.0623  0.0360  1.0000  -2.6735   0.0000   0.0000   0.0000   0.3034
  12.800   0.9300   0.12999   0.12775  -0.0645  0.0355  1.0000  -2.6147   0.0000   0.0000   0.0000   0.3060
  12.900   0.9264   0.13327   0.13102  -0.0664  0.0350  1.0000  -2.5646   0.0000   0.0000   0.0000   0.3083
  13.000   0.9233   0.13633   0.13407  -0.0682  0.0345  1.0000  -2.5207   0.0000   0.0000   0.0000   0.3104
  13.100   0.9207   0.13921   0.13694  -0.0698  0.0340  1.0000  -2.4819   0.0000   0.0000   0.0000   0.3124
  13.200   0.9185   0.14194   0.13967  -0.0714  0.0335  1.0000  -2.4475   0.0000   0.0000   0.0000   0.3142
  13.300   0.9167   0.14446   0.14218  -0.0729  0.0331  1.0000  -2.4171   0.0000   0.0000   0.0000   0.3159
  13.400   0.9152   0.14679   0.14450  -0.0742  0.0327  1.0000  -2.3905   0.0000   0.0000   0.0000   0.3174
  13.500   0.9140   0.14901   0.14671  -0.0755  0.0322  1.0000  -2.3672   0.0000   0.0000   0.0000   0.3189
  13.600   0.9132   0.15116   0.14886  -0.0768  0.0319  1.0000  -2.3470   0.0000   0.0000   0.0000   0.3202
  13.700   0.9126   0.15327   0.15097  -0.0780  0.0315  1.0000  -2.3295   0.0000   0.0000   0.0000   0.3215
  13.800   0.9124   0.15534   0.15303  -0.0791  0.0311  1.0000  -2.3147   0.0000   0.0000   0.0000   0.3227
  13.900   0.9123   0.15737   0.15507  -0.0803  0.0308  1.0000  -2.3025   0.0000   0.0000   0.0000   0.3238
  14.000   0.9125   0.15937   0.15706  -0.0813  0.0304  1.0000  -2.2928   0.0000   0.0000   0.0000   0.3249
  14.100   0.9129   0.16134   0.15902  -0.0824  0.0301  1.0000  -2.2855   0.0000   0.0000   0.0000   0.3259
  14.200   0.9135   0.16326   0.16095  -0.0833  0.0298  1.0000  -2.2805   0.0000   0.0000   0.0000   0.3268
  14.300   0.9142   0.16516   0.16284  -0.0843  0.0295  1.0000  -2.2779   0.0000   0.0000   0.0000   0.3276
  14.400   0.9152   0.16701   0.16469  -0.0852  0.0292  1.0000  -2.2776   0.0000   0.0000   0.0000   0.3284
  14.500   0.9163   0.16883   0.16651  -0.0861  0.0289  1.0000  -2.2797   0.0000   0.0000   0.0000   0.3291
  14.600   0.9176   0.17062   0.16830  -0.0869  0.0286  1.0000  -2.2842   0.0000   0.0000   0.0000   0.3298
  14.700   0.9190   0.17237   0.17005  -0.0877  0.0283  1.0000  -2.2912   0.0000   0.0000   0.0000   0.3304
  14.800   0.9206   0.17409   0.17177  -0.0884  0.0280  1.0000  -2.3007   0.0000   0.0000   0.0000   0.3309
  14.900   0.9223   0.17577   0.17345  -0.0891  0.0278  1.0000  -2.3127   0.0000   0.0000   0.0000   0.3313
  15.000   0.9242   0.17741   0.17509  -0.0898  0.0275  1.0000  -2.3275   0.0000   0.0000   0.0000   0.3317
  15.100   0.9262   0.17902   0.17670  -0.0904  0.0273  1.0000  -2.3449   0.0000   0.0000   0.0000   0.3320
  15.200   0.9281   0.18069   0.17837  -0.0910  0.0270  1.0000  -2.3612   0.0000   0.0000   0.0000   0.3323
  15.300   0.9293   0.18257   0.18025  -0.0918  0.0267  1.0000  -2.3681   0.0000   0.0000   0.0000   0.3329
  15.400   0.9302   0.18454   0.18222  -0.0926  0.0264  1.0000  -2.3730   0.0000   0.0000   0.0000   0.3335
  15.500   0.9305   0.18675   0.18443  -0.0934  0.0260  1.0000  -2.3701   0.0000   0.0000   0.0000   0.3342
  15.600   0.9110   0.19724   0.19486  -0.0971  0.0245  1.0000  -2.0482   0.0000   0.0000   0.0000   0.3406
  15.700   0.9123   0.19959   0.19721  -0.0981  0.0245  1.0000  -2.0321   0.0000   0.0000   0.0000   0.3415
  15.800   0.9136   0.20193   0.19955  -0.0991  0.0245  1.0000  -2.0166   0.0000   0.0000   0.0000   0.3423
  15.900   0.9150   0.20426   0.20188  -0.1001  0.0245  1.0000  -2.0018   0.0000   0.0000   0.0000   0.3431
  16.000   0.9165   0.20658   0.20421  -0.1011  0.0245  1.0000  -1.9875   0.0000   0.0000   0.0000   0.3439
  16.100   0.9180   0.20889   0.20652  -0.1021  0.0244  1.0000  -1.9738   0.0000   0.0000   0.0000   0.3447
  16.200   0.9195   0.21119   0.20882  -0.1030  0.0244  1.0000  -1.9607   0.0000   0.0000   0.0000   0.3455
  16.300   0.9210   0.21348   0.21110  -0.1040  0.0244  1.0000  -1.9481   0.0000   0.0000   0.0000   0.3462
  16.400   0.9226   0.21576   0.21338  -0.1050  0.0244  1.0000  -1.9360   0.0000   0.0000   0.0000   0.3469
  16.500   0.9241   0.21802   0.21564  -0.1059  0.0244  1.0000  -1.9246   0.0000   0.0000   0.0000   0.3477
  16.600   0.9258   0.22027   0.21789  -0.1069  0.0243  1.0000  -1.9136   0.0000   0.0000   0.0000   0.3484
  16.700   0.9274   0.22249   0.22012  -0.1078  0.0243  1.0000  -1.9033   0.0000   0.0000   0.0000   0.3491
  16.800   0.9291   0.22470   0.22232  -0.1087  0.0243  1.0000  -1.8937   0.0000   0.0000   0.0000   0.3497
  16.900   0.9308   0.22688   0.22450  -0.1097  0.0242  1.0000  -1.8848   0.0000   0.0000   0.0000   0.3504
  17.000   0.9326   0.22902   0.22665  -0.1106  0.0242  1.0000  -1.8767   0.0000   0.0000   0.0000   0.3511
  17.100   0.9344   0.23111   0.22874  -0.1115  0.0241  1.0000  -1.8698   0.0000   0.0000   0.0000   0.3517
  17.200   0.9363   0.23314   0.23077  -0.1125  0.0240  1.0000  -1.8642   0.0000   0.0000   0.0000   0.3523
  17.300   0.9384   0.23508   0.23270  -0.1134  0.0239  1.0000  -1.8605   0.0000   0.0000   0.0000   0.3529
  17.400   0.9408   0.23688   0.23451  -0.1143  0.0236  1.0000  -1.8590   0.0000   0.0000   0.0000   0.3535
  17.500   0.9434   0.23858   0.23622  -0.1153  0.0233  1.0000  -1.8585   0.0000   0.0000   0.0000   0.3541
  17.600   0.9454   0.24045   0.23808  -0.1164  0.0229  1.0000  -1.8468   0.0000   0.0000   0.0000   0.3549
  17.700   0.9468   0.24256   0.24019  -0.1177  0.0224  1.0000  -1.8255   0.0000   0.0000   0.0000   0.3559
  17.800   0.9482   0.24478   0.24241  -0.1188  0.0219  1.0000  -1.8057   0.0000   0.0000   0.0000   0.3568
  17.900   0.9497   0.24704   0.24467  -0.1199  0.0213  1.0000  -1.7874   0.0000   0.0000   0.0000   0.3577
  18.000   0.9512   0.24932   0.24696  -0.1209  0.0206  1.0000  -1.7737   0.0000   0.0000   0.0000   0.3584
  18.100   0.9527   0.25160   0.24923  -0.1219  0.0200  1.0000  -1.7641   0.0000   0.0000   0.0000   0.3590
  18.200   0.9541   0.25385   0.25149  -0.1227  0.0195  1.0000  -1.7575   0.0000   0.0000   0.0000   0.3596
  18.300   0.9556   0.25609   0.25373  -0.1236  0.0189  1.0000  -1.7532   0.0000   0.0000   0.0000   0.3602
  18.400   0.9570   0.25830   0.25594  -0.1244  0.0184  1.0000  -1.7510   0.0000   0.0000   0.0000   0.3607
  18.500   0.9585   0.26049   0.25814  -0.1252  0.0180  1.0000  -1.7505   0.0000   0.0000   0.0000   0.3612
  18.600   0.9599   0.26266   0.26031  -0.1260  0.0175  1.0000  -1.7518   0.0000   0.0000   0.0000   0.3617
  18.700   0.9613   0.26481   0.26246  -0.1267  0.0171  1.0000  -1.7546   0.0000   0.0000   0.0000   0.3621
  18.800   0.9627   0.26694   0.26459  -0.1274  0.0168  1.0000  -1.7591   0.0000   0.0000   0.0000   0.3625
  18.900   0.9640   0.26904   0.26670  -0.1281  0.0164  1.0000  -1.7651   0.0000   0.0000   0.0000   0.3629
  19.000   0.9654   0.27111   0.26877  -0.1288  0.0160  1.0000  -1.7730   0.0000   0.0000   0.0000   0.3633
  19.100   0.9668   0.27316   0.27083  -0.1295  0.0157  1.0000  -1.7827   0.0000   0.0000   0.0000   0.3636
  19.200   0.9681   0.27518   0.27285  -0.1301  0.0154  1.0000  -1.7942   0.0000   0.0000   0.0000   0.3640
  19.300   0.9694   0.27717   0.27484  -0.1308  0.0151  1.0000  -1.8077   0.0000   0.0000   0.0000   0.3643
  19.400   0.9708   0.27912   0.27680  -0.1314  0.0149  1.0000  -1.8232   0.0000   0.0000   0.0000   0.3645
  19.500   0.9721   0.28104   0.27873  -0.1319  0.0146  1.0000  -1.8410   0.0000   0.0000   0.0000   0.3648
  19.600   0.9734   0.28293   0.28062  -0.1324  0.0144  1.0000  -1.8612   0.0000   0.0000   0.0000   0.3649
  19.700   0.9747   0.28478   0.28248  -0.1329  0.0141  1.0000  -1.8839   0.0000   0.0000   0.0000   0.3651
  19.800   0.9760   0.28660   0.28430  -0.1334  0.0139  1.0000  -1.9095   0.0000   0.0000   0.0000   0.3652
  19.900   0.9773   0.28838   0.28609  -0.1338  0.0137  1.0000  -1.9381   0.0000   0.0000   0.0000   0.3652
  20.000   0.9787   0.29012   0.28784  -0.1341  0.0135  1.0000  -1.9701   0.0000   0.0000   0.0000   0.3652
  20.100   0.9801   0.29185   0.28958  -0.1344  0.0133  1.0000  -2.0057   0.0000   0.0000   0.0000   0.3650
  20.200   0.9813   0.29364   0.29138  -0.1346  0.0131  1.0000  -2.0413   0.0000   0.0000   0.0000   0.3649
  20.700   0.9610   0.31111   0.30886  -0.1370  0.0119  1.0000  -1.7370   0.0000   0.0000   0.0000   0.3700
  20.800   0.9585   0.31293   0.31069  -0.1373  0.0119  1.0000  -1.7193   0.0000   0.0000   0.0000   0.3707
  20.900   0.9550   0.31451   0.31234  -0.1376  0.0119  1.0000  -1.6994   0.0000   0.0000   0.0000   0.3714
  21.000   0.9030   0.30426   0.30215  -0.1323  0.0119  1.0000  -1.5576   0.0000   0.0000   0.0000   0.3746
  21.100   0.8966   0.30405   0.30195  -0.1321  0.0119  1.0000  -1.5313   0.0000   0.0000   0.0000   0.3754
  21.200   0.8915   0.30407   0.30199  -0.1320  0.0119  1.0000  -1.5085   0.0000   0.0000   0.0000   0.3762
  21.300   0.8872   0.30423   0.30221  -0.1321  0.0119  1.0000  -1.4881   0.0000   0.0000   0.0000   0.3769
  21.400   0.8834   0.30449   0.30248  -0.1321  0.0119  1.0000  -1.4692   0.0000   0.0000   0.0000   0.3776
  21.500   0.8801   0.30480   0.30281  -0.1323  0.0119  1.0000  -1.4515   0.0000   0.0000   0.0000   0.3782
  21.600   0.8771   0.30516   0.30318  -0.1324  0.0119  1.0000  -1.4347   0.0000   0.0000   0.0000   0.3789
  21.700   0.8743   0.30556   0.30359  -0.1326  0.0119  1.0000  -1.4187   0.0000   0.0000   0.0000   0.3795
  21.800   0.8718   0.30599   0.30402  -0.1328  0.0119  1.0000  -1.4035   0.0000   0.0000   0.0000   0.3800
  21.900   0.8695   0.30644   0.30449  -0.1330  0.0119  1.0000  -1.3889   0.0000   0.0000   0.0000   0.3806
  22.000   0.8673   0.30692   0.30498  -0.1332  0.0119  1.0000  -1.3750   0.0000   0.0000   0.0000   0.3812
  22.100   0.8654   0.30742   0.30548  -0.1335  0.0119  1.0000  -1.3616   0.0000   0.0000   0.0000   0.3817
  22.200   0.8636   0.30793   0.30601  -0.1337  0.0119  1.0000  -1.3488   0.0000   0.0000   0.0000   0.3823
  22.300   0.8619   0.30846   0.30654  -0.1340  0.0118  1.0000  -1.3364   0.0000   0.0000   0.0000   0.3828
  22.400   0.8603   0.30900   0.30709  -0.1343  0.0118  1.0000  -1.3244   0.0000   0.0000   0.0000   0.3833
  22.500   0.8588   0.30955   0.30765  -0.1346  0.0118  1.0000  -1.3128   0.0000   0.0000   0.0000   0.3838
  22.600   0.8574   0.31011   0.30822  -0.1349  0.0118  1.0000  -1.3016   0.0000   0.0000   0.0000   0.3843
  22.700   0.8561   0.31067   0.30879  -0.1352  0.0118  1.0000  -1.2906   0.0000   0.0000   0.0000   0.3848
  22.800   0.8549   0.31125   0.30938  -0.1355  0.0118  1.0000  -1.2799   0.0000   0.0000   0.0000   0.3853
  22.900   0.8537   0.31183   0.30997  -0.1358  0.0118  1.0000  -1.2694   0.0000   0.0000   0.0000   0.3858
  23.000   0.8526   0.31242   0.31056  -0.1361  0.0118  1.0000  -1.2593   0.0000   0.0000   0.0000   0.3862
  23.100   0.8516   0.31301   0.31116  -0.1365  0.0118  1.0000  -1.2495   0.0000   0.0000   0.0000   0.3867
  23.200   0.8507   0.31361   0.31177  -0.1368  0.0117  1.0000  -1.2400   0.0000   0.0000   0.0000   0.3872
  23.300   0.8498   0.31421   0.31238  -0.1372  0.0117  1.0000  -1.2307   0.0000   0.0000   0.0000   0.3876
  23.400   0.8489   0.31482   0.31300  -0.1375  0.0117  1.0000  -1.2217   0.0000   0.0000   0.0000   0.3881
  23.500   0.8481   0.31543   0.31362  -0.1378  0.0117  1.0000  -1.2129   0.0000   0.0000   0.0000   0.3885
  23.600   0.8474   0.31605   0.31425  -0.1382  0.0117  1.0000  -1.2043   0.0000   0.0000   0.0000   0.3889
  23.700   0.8467   0.31667   0.31488  -0.1386  0.0117  1.0000  -1.1960   0.0000   0.0000   0.0000   0.3893
  23.800   0.8460   0.31730   0.31551  -0.1389  0.0117  1.0000  -1.1876   0.0000   0.0000   0.0000   0.3898
  23.900   0.8454   0.31793   0.31614  -0.1393  0.0116  1.0000  -1.1792   0.0000   0.0000   0.0000   0.3902
  24.000   0.8448   0.31856   0.31678  -0.1397  0.0116  1.0000  -1.1711   0.0000   0.0000   0.0000   0.3906
  24.100   0.8443   0.31919   0.31742  -0.1400  0.0116  1.0000  -1.1632   0.0000   0.0000   0.0000   0.3910
  24.200   0.8438   0.31983   0.31807  -0.1404  0.0116  1.0000  -1.1554   0.0000   0.0000   0.0000   0.3915
  24.300   0.8433   0.32047   0.31872  -0.1408  0.0116  1.0000  -1.1479   0.0000   0.0000   0.0000   0.3919
  24.400   0.8428   0.32111   0.31937  -0.1412  0.0116  1.0000  -1.1405   0.0000   0.0000   0.0000   0.3923
  24.500   0.8424   0.32176   0.32002  -0.1416  0.0115  1.0000  -1.1333   0.0000   0.0000   0.0000   0.3927
  24.600   0.8420   0.32241   0.32068  -0.1420  0.0115  1.0000  -1.1258   0.0000   0.0000   0.0000   0.3931
  24.700   0.8416   0.32307   0.32135  -0.1424  0.0115  1.0000  -1.1176   0.0000   0.0000   0.0000   0.3935
  24.800   0.8413   0.32373   0.32202  -0.1428  0.0115  1.0000  -1.1095   0.0000   0.0000   0.0000   0.3939
  24.900   0.8409   0.32440   0.32269  -0.1432  0.0114  1.0000  -1.1016   0.0000   0.0000   0.0000   0.3943
  25.000   0.8406   0.32507   0.32337  -0.1436  0.0114  1.0000  -1.0938   0.0000   0.0000   0.0000   0.3947
  25.100   0.8403   0.32575   0.32405  -0.1441  0.0114  1.0000  -1.0863   0.0000   0.0000   0.0000   0.3952
  25.200   0.8401   0.32643   0.32474  -0.1445  0.0114  1.0000  -1.0788   0.0000   0.0000   0.0000   0.3956
  25.300   0.8399   0.32711   0.32543  -0.1449  0.0113  1.0000  -1.0715   0.0000   0.0000   0.0000   0.3959
  25.400   0.8397   0.32780   0.32612  -0.1453  0.0113  1.0000  -1.0642   0.0000   0.0000   0.0000   0.3963
  25.500   0.8396   0.32849   0.32682  -0.1458  0.0113  1.0000  -1.0571   0.0000   0.0000   0.0000   0.3967
  25.600   0.8394   0.32919   0.32753  -0.1462  0.0112  1.0000  -1.0501   0.0000   0.0000   0.0000   0.3971
  25.700   0.8393   0.32989   0.32824  -0.1466  0.0112  1.0000  -1.0432   0.0000   0.0000   0.0000   0.3975
  25.800   0.8393   0.33060   0.32895  -0.1471  0.0111  1.0000  -1.0363   0.0000   0.0000   0.0000   0.3978
  25.900   0.8392   0.33131   0.32967  -0.1475  0.0111  1.0000  -1.0295   0.0000   0.0000   0.0000   0.3982
  26.000   0.8392   0.33203   0.33039  -0.1479  0.0110  1.0000  -1.0228   0.0000   0.0000   0.0000   0.3986
  26.100   0.8392   0.33275   0.33112  -0.1484  0.0110  1.0000  -1.0161   0.0000   0.0000   0.0000   0.3989


