xflr5 v6.61

 Calculated polar for: E222  (10.17%)

 1 1 Reynolds number fixed          Mach number fixed         

 xtrf =   1.000 (top)        1.000 (bottom)
 Mach =   0.000     Re =     0.719 e 6     Ncrit =   9.000

  alpha     CL        CD       CDp       Cm    Top Xtr Bot Xtr   Cpmin    Chinge    XCp    
 ------- -------- --------- --------- -------- ------- ------- -------- --------- ---------
 -10.000  -0.4249   0.09918   0.09718  -0.0313  1.0000  0.0173  -1.9277   0.0000   0.0000   0.0000   0.1677
  -9.900  -0.4249   0.09775   0.09575  -0.0317  1.0000  0.0176  -1.9399   0.0000   0.0000   0.0000   0.1667
  -9.800  -0.4249   0.09631   0.09432  -0.0321  1.0000  0.0179  -1.9529   0.0000   0.0000   0.0000   0.1658
  -9.700  -0.4250   0.09486   0.09288  -0.0326  1.0000  0.0182  -1.9672   0.0000   0.0000   0.0000   0.1649
  -9.600  -0.4253   0.09341   0.09144  -0.0330  1.0000  0.0186  -1.9823   0.0000   0.0000   0.0000   0.1640
  -9.500  -0.4256   0.09197   0.09001  -0.0335  1.0000  0.0189  -1.9979   0.0000   0.0000   0.0000   0.1631
  -9.400  -0.4259   0.09053   0.08858  -0.0339  1.0000  0.0193  -2.0139   0.0000   0.0000   0.0000   0.1621
  -9.300  -0.4260   0.08915   0.08721  -0.0344  1.0000  0.0198  -2.0281   0.0000   0.0000   0.0000   0.1612
  -9.200  -0.4247   0.08799   0.08606  -0.0347  1.0000  0.0204  -2.0292   0.0000   0.0000   0.0000   0.1603
  -9.100  -0.4117   0.08877   0.08684  -0.0346  1.0000  0.0220  -1.9212   0.0000   0.0000   0.0000   0.1580
  -9.000  -0.4094   0.08792   0.08600  -0.0349  1.0000  0.0223  -1.9069   0.0000   0.0000   0.0000   0.1569
  -8.900  -0.4090   0.08671   0.08480  -0.0352  1.0000  0.0224  -1.9118   0.0000   0.0000   0.0000   0.1561
  -8.800  -0.4093   0.08540   0.08349  -0.0355  1.0000  0.0225  -1.9227   0.0000   0.0000   0.0000   0.1555
  -8.700  -0.4102   0.08403   0.08213  -0.0359  1.0000  0.0225  -1.9372   0.0000   0.0000   0.0000   0.1550
  -8.600  -0.4115   0.08262   0.08073  -0.0362  1.0000  0.0225  -1.9544   0.0000   0.0000   0.0000   0.1547
  -8.500  -0.4132   0.08118   0.07931  -0.0365  1.0000  0.0226  -1.9740   0.0000   0.0000   0.0000   0.1545
  -8.400  -0.4154   0.07972   0.07786  -0.0367  1.0000  0.0226  -1.9959   0.0000   0.0000   0.0000   0.1545
  -8.300  -0.4182   0.07825   0.07641  -0.0369  1.0000  0.0226  -2.0200   0.0000   0.0000   0.0000   0.1547
  -8.200  -0.4217   0.07679   0.07496  -0.0371  1.0000  0.0226  -2.0464   0.0000   0.0000   0.0000   0.1552
  -8.100  -0.4261   0.07533   0.07353  -0.0371  1.0000  0.0226  -2.0753   0.0000   0.0000   0.0000   0.1562
  -8.000  -0.4315   0.07390   0.07211  -0.0370  1.0000  0.0226  -2.1070   0.0000   0.0000   0.0000   0.1577
  -7.900  -0.4383   0.07253   0.07076  -0.0367  1.0000  0.0226  -2.1417   0.0000   0.0000   0.0000   0.1599
  -7.800  -0.4470   0.07126   0.06951  -0.0361  1.0000  0.0226  -2.1797   0.0000   0.0000   0.0000   0.1630
  -7.700  -0.4569   0.06990   0.06818  -0.0357  0.9999  0.0226  -2.2240   0.0000   0.0000   0.0000   0.1659
  -7.600  -0.4477   0.06184   0.06005  -0.0495  0.9971  0.0226  -2.3962   0.0000   0.0000   0.0000   0.1334
  -7.500  -0.4411   0.05818   0.05630  -0.0550  0.9951  0.0226  -2.4527   0.0000   0.0000   0.0000   0.1193
  -7.400  -0.4347   0.05532   0.05334  -0.0591  0.9931  0.0226  -2.4869   0.0000   0.0000   0.0000   0.1081
  -7.300  -0.4273   0.05277   0.05070  -0.0626  0.9913  0.0227  -2.5085   0.0000   0.0000   0.0000   0.0976
  -7.200  -0.4189   0.05043   0.04826  -0.0656  0.9898  0.0227  -2.5210   0.0000   0.0000   0.0000   0.0872
  -7.100  -0.4097   0.04824   0.04596  -0.0685  0.9886  0.0228  -2.5262   0.0000   0.0000   0.0000   0.0767
  -7.000  -0.3998   0.04617   0.04378  -0.0711  0.9877  0.0228  -2.5254   0.0000   0.0000   0.0000   0.0660
  -6.900  -0.3923   0.04442   0.04192  -0.0726  0.9858  0.0228  -2.5219   0.0000   0.0000   0.0000   0.0587
  -6.800  -0.3854   0.04281   0.04022  -0.0737  0.9832  0.0228  -2.5158   0.0000   0.0000   0.0000   0.0526
  -6.700  -0.3989   0.03075   0.02751  -0.0793  0.9778  0.0249  -2.9605   0.0000   0.0000   0.0000   0.0448
  -6.600  -0.3885   0.02924   0.02596  -0.0806  0.9768  0.0260  -2.8978   0.0000   0.0000   0.0000   0.0362
  -6.500  -0.3764   0.02854   0.02524  -0.0816  0.9760  0.0270  -2.8053   0.0000   0.0000   0.0000   0.0269
  -6.400  -0.3639   0.02800   0.02469  -0.0825  0.9753  0.0279  -2.7114   0.0000   0.0000   0.0000   0.0169
  -6.300  -0.3512   0.02748   0.02416  -0.0834  0.9748  0.0288  -2.6217   0.0000   0.0000   0.0000   0.0062
  -6.200  -0.3383   0.02688   0.02353  -0.0843  0.9742  0.0299  -2.5407   0.0000   0.0000   0.0000  -0.0057
  -6.100  -0.3250   0.02625   0.02284  -0.0853  0.9737  0.0311  -2.4654   0.0000   0.0000   0.0000  -0.0189
  -6.000  -0.3114   0.02563   0.02217  -0.0863  0.9732  0.0326  -2.3933   0.0000   0.0000   0.0000  -0.0336
  -5.900  -0.2973   0.02508   0.02157  -0.0872  0.9727  0.0343  -2.3226   0.0000   0.0000   0.0000  -0.0500
  -5.800  -0.2902   0.02478   0.02123  -0.0864  0.9694  0.0357  -2.2715   0.0000   0.0000   0.0000  -0.0545
  -5.700  -0.2791   0.02476   0.02119  -0.0863  0.9671  0.0376  -2.2016   0.0000   0.0000   0.0000  -0.0659
  -5.600  -0.2648   0.02552   0.02198  -0.0863  0.9657  0.0394  -2.1019   0.0000   0.0000   0.0000  -0.0828
  -5.500  -0.2493   0.02682   0.02330  -0.0864  0.9645  0.0404  -1.9894   0.0000   0.0000   0.0000  -0.1034
  -5.400  -0.2362   0.02660   0.02301  -0.0868  0.9632  0.0406  -1.9320   0.0000   0.0000   0.0000  -0.1246
  -5.300  -0.2326   0.01992   0.01582  -0.0887  0.9607  0.0445  -2.0796   0.0000   0.0000   0.0000  -0.1386
  -5.200  -0.2201   0.01904   0.01492  -0.0894  0.9598  0.0463  -2.0185   0.0000   0.0000   0.0000  -0.1637
  -5.100  -0.2069   0.01846   0.01432  -0.0901  0.9589  0.0479  -1.9514   0.0000   0.0000   0.0000  -0.1934
  -5.000  -0.1932   0.01795   0.01379  -0.0908  0.9581  0.0496  -1.8842   0.0000   0.0000   0.0000  -0.2282
  -4.900  -0.1794   0.01747   0.01329  -0.0915  0.9573  0.0514  -1.8194   0.0000   0.0000   0.0000  -0.2686
  -4.800  -0.1656   0.01700   0.01279  -0.0921  0.9563  0.0535  -1.7580   0.0000   0.0000   0.0000  -0.3156
  -4.700  -0.1516   0.01657   0.01232  -0.0927  0.9553  0.0558  -1.6989   0.0000   0.0000   0.0000  -0.3715
  -4.500  -0.1215   0.01188   0.00683  -0.0917  0.9535  0.0260  -2.0042   0.0000   0.0000   0.0000  -0.5161
  -4.400  -0.1082   0.01195   0.00689  -0.0919  0.9518  0.0244  -1.9260   0.0000   0.0000   0.0000  -0.6117
  -4.200  -0.0890   0.01151   0.00625  -0.0911  0.9453  0.0240  -1.7865   0.0000   0.0000   0.0000  -0.7881
  -4.100  -0.0783   0.01059   0.00525  -0.0908  0.9426  0.0212  -1.8097   0.0000   0.0000   0.0000  -0.9249
  -4.000  -0.0667   0.01000   0.00456  -0.0907  0.9401  0.0200  -1.7953   0.0000   0.0000   0.0000  -1.1277
  -3.900  -0.0541   0.00958   0.00405  -0.0909  0.9378  0.0190  -1.7646   0.0000   0.0000   0.0000  -1.4538
  -3.800  -0.0406   0.00925   0.00363  -0.0913  0.9357  0.0181  -1.7237   0.0000   0.0000   0.0000  -2.0258
  -3.700  -0.0268   0.00898   0.00329  -0.0918  0.9335  0.0173  -1.6766   0.0000   0.0000   0.0000  -3.2190
  -3.600  -0.0127   0.00877   0.00301  -0.0923  0.9313  0.0167  -1.6238   0.0000   0.0000   0.0000  -7.1171
  -3.500   0.0015   0.00860   0.00278  -0.0928  0.9289  0.0162  -1.5649   0.0000   0.0000   0.0000  62.1139
  -3.400   0.0123   0.00848   0.00261  -0.0926  0.9255  0.0158  -1.5085   0.0000   0.0000   0.0000   7.8782
  -3.300   0.0225   0.00838   0.00247  -0.0923  0.9215  0.0155  -1.4504   0.0000   0.0000   0.0000   4.4027
  -3.200   0.0336   0.00829   0.00233  -0.0923  0.9178  0.0152  -1.3878   0.0000   0.0000   0.0000   3.0187
  -3.100   0.0455   0.00820   0.00221  -0.0924  0.9143  0.0150  -1.3223   0.0000   0.0000   0.0000   2.2968
  -3.000   0.0578   0.00812   0.00208  -0.0925  0.9107  0.0148  -1.2555   0.0000   0.0000   0.0000   1.8644
  -2.900   0.0704   0.00805   0.00197  -0.0928  0.9071  0.0147  -1.1880   0.0000   0.0000   0.0000   1.5788
  -2.800   0.0831   0.00799   0.00185  -0.0930  0.9033  0.0147  -1.1206   0.0000   0.0000   0.0000   1.3777
  -2.600   0.1063   0.00789   0.00168  -0.0931  0.8952  0.0148  -0.9949   0.0000   0.0000   0.0000   1.1315
  -2.500   0.1170   0.00784   0.00160  -0.0929  0.8907  0.0152  -0.9365   0.0000   0.0000   0.0000   1.0490
  -2.400   0.1282   0.00779   0.00153  -0.0928  0.8860  0.0159  -0.8796   0.0000   0.0000   0.0000   0.9787
  -2.300   0.1396   0.00774   0.00146  -0.0928  0.8814  0.0178  -0.8251   0.0000   0.0000   0.0000   0.9187
  -2.200   0.1512   0.00770   0.00145  -0.0929  0.8770  0.0207  -0.7662   0.0000   0.0000   0.0000   0.8673
  -2.100   0.1629   0.00766   0.00143  -0.0929  0.8725  0.0228  -0.7014   0.0000   0.0000   0.0000   0.8233
  -2.000   0.1736   0.00718   0.00129  -0.0932  0.8673  0.1141  -0.6415   0.0000   0.0000   0.0000   0.7890
  -1.900   0.1843   0.00701   0.00125  -0.0932  0.8632  0.1474  -0.5785   0.0000   0.0000   0.0000   0.7575
  -1.800   0.1949   0.00688   0.00123  -0.0931  0.8589  0.1752  -0.5164   0.0000   0.0000   0.0000   0.7297
  -1.700   0.2056   0.00678   0.00120  -0.0931  0.8539  0.1971  -0.4589   0.0000   0.0000   0.0000   0.7043
  -1.600   0.2163   0.00666   0.00118  -0.0931  0.8483  0.2253  -0.4398   0.0000   0.0000   0.0000   0.6814
  -1.500   0.2274   0.00660   0.00115  -0.0931  0.8425  0.2435  -0.4474   0.0000   0.0000   0.0000   0.6602
  -1.400   0.2383   0.00650   0.00113  -0.0931  0.8366  0.2731  -0.4550   0.0000   0.0000   0.0000   0.6414
  -1.300   0.2493   0.00644   0.00111  -0.0931  0.8305  0.2956  -0.4627   0.0000   0.0000   0.0000   0.6239
  -1.200   0.2601   0.00634   0.00111  -0.0931  0.8262  0.3247  -0.4710   0.0000   0.0000   0.0000   0.6082
  -1.100   0.2710   0.00627   0.00110  -0.0930  0.8221  0.3457  -0.4796   0.0000   0.0000   0.0000   0.5936
  -1.000   0.2817   0.00617   0.00110  -0.0930  0.8170  0.3722  -0.4882   0.0000   0.0000   0.0000   0.5803
  -0.900   0.2926   0.00613   0.00110  -0.0930  0.8110  0.3900  -0.4969   0.0000   0.0000   0.0000   0.5677
  -0.800   0.3032   0.00604   0.00110  -0.0929  0.8045  0.4219  -0.5054   0.0000   0.0000   0.0000   0.5562
  -0.700   0.3139   0.00599   0.00110  -0.0928  0.7976  0.4502  -0.5140   0.0000   0.0000   0.0000   0.5454
  -0.600   0.3242   0.00590   0.00111  -0.0927  0.7901  0.4942  -0.5225   0.0000   0.0000   0.0000   0.5355
  -0.500   0.3325   0.00543   0.00129  -0.0923  0.7856  0.6671  -0.5300   0.0000   0.0000   0.0000   0.5269
  -0.400   0.3432   0.00539   0.00130  -0.0921  0.7818  0.6839  -0.5394   0.0000   0.0000   0.0000   0.5178
  -0.300   0.3541   0.00539   0.00131  -0.0920  0.7769  0.6938  -0.5494   0.0000   0.0000   0.0000   0.5092
  -0.200   0.3651   0.00540   0.00131  -0.0920  0.7710  0.7010  -0.5595   0.0000   0.0000   0.0000   0.5011
  -0.100   0.3757   0.00541   0.00131  -0.0918  0.7643  0.7106  -0.5694   0.0000   0.0000   0.0000   0.4934
   0.000   0.3860   0.00541   0.00132  -0.0916  0.7568  0.7236  -0.5791   0.0000   0.0000   0.0000   0.4862
   0.100   0.3962   0.00543   0.00133  -0.0913  0.7481  0.7356  -0.5887   0.0000   0.0000   0.0000   0.4793
   0.200   0.4069   0.00545   0.00134  -0.0912  0.7424  0.7458  -0.5997   0.0000   0.0000   0.0000   0.4729
   0.400   0.4285   0.00543   0.00137  -0.0909  0.7325  0.7653  -0.6227   0.0000   0.0000   0.0000   0.4609
   0.500   0.4389   0.00544   0.00139  -0.0907  0.7262  0.7756  -0.6340   0.0000   0.0000   0.0000   0.4553
   0.600   0.4492   0.00546   0.00140  -0.0905  0.7188  0.7856  -0.6454   0.0000   0.0000   0.0000   0.4499
   0.700   0.4594   0.00550   0.00141  -0.0902  0.7103  0.7945  -0.6566   0.0000   0.0000   0.0000   0.4448
   0.800   0.4695   0.00555   0.00142  -0.0900  0.7004  0.8030  -0.6678   0.0000   0.0000   0.0000   0.4399
   0.900   0.4798   0.00554   0.00145  -0.0897  0.6957  0.8142  -0.6792   0.0000   0.0000   0.0000   0.4352
   1.000   0.4902   0.00554   0.00147  -0.0895  0.6907  0.8240  -0.6917   0.0000   0.0000   0.0000   0.4307
   1.100   0.5007   0.00555   0.00149  -0.0893  0.6849  0.8325  -0.7051   0.0000   0.0000   0.0000   0.4265
   1.200   0.5114   0.00559   0.00151  -0.0892  0.6785  0.8393  -0.7186   0.0000   0.0000   0.0000   0.4224
   1.300   0.5216   0.00562   0.00153  -0.0889  0.6714  0.8462  -0.7319   0.0000   0.0000   0.0000   0.4184
   1.400   0.5310   0.00566   0.00155  -0.0885  0.6629  0.8551  -0.7446   0.0000   0.0000   0.0000   0.4145
   1.500   0.5403   0.00571   0.00157  -0.0880  0.6527  0.8643  -0.7573   0.0000   0.0000   0.0000   0.4107
   1.600   0.5506   0.00572   0.00160  -0.0878  0.6478  0.8733  -0.7727   0.0000   0.0000   0.0000   0.4072
   1.700   0.5611   0.00574   0.00162  -0.0876  0.6418  0.8808  -0.7886   0.0000   0.0000   0.0000   0.4038
   1.800   0.5704   0.00575   0.00164  -0.0871  0.6345  0.8901  -0.8037   0.0000   0.0000   0.0000   0.4003
   1.900   0.5794   0.00578   0.00166  -0.0866  0.6266  0.8995  -0.8186   0.0000   0.0000   0.0000   0.3969
   2.000   0.5886   0.00584   0.00169  -0.0861  0.6183  0.9084  -0.8336   0.0000   0.0000   0.0000   0.3937
   2.100   0.5979   0.00591   0.00171  -0.0857  0.6080  0.9161  -0.8493   0.0000   0.0000   0.0000   0.3907
   2.200   0.6064   0.00592   0.00173  -0.0850  0.6009  0.9259  -0.8667   0.0000   0.0000   0.0000   0.3875
   2.300   0.6155   0.00592   0.00174  -0.0845  0.5955  0.9362  -0.8847   0.0000   0.0000   0.0000   0.3845
   2.500   0.6347   0.00597   0.00177  -0.0837  0.5791  0.9571  -0.9219   0.0000   0.0000   0.0000   0.3789
   2.600   0.6454   0.00602   0.00178  -0.0836  0.5694  0.9686  -0.9417   0.0000   0.0000   0.0000   0.3765
   2.700   0.6589   0.00609   0.00180  -0.0841  0.5582  0.9796  -0.9642   0.0000   0.0000   0.0000   0.3746
   2.800   0.6736   0.00613   0.00182  -0.0850  0.5506  0.9950  -0.9881   0.0000   0.0000   0.0000   0.3729
   2.900   0.6852   0.00617   0.00185  -0.0851  0.5440  1.0000  -1.0134   0.0000   0.0000   0.0000   0.3709
   3.000   0.6904   0.00658   0.00196  -0.0840  0.4768  1.0000  -1.0309   0.0000   0.0000   0.0000   0.3683
   3.100   0.6918   0.00738   0.00212  -0.0825  0.3620  1.0000  -1.0442   0.0000   0.0000   0.0000   0.3657
   3.200   0.6996   0.00773   0.00223  -0.0820  0.3168  1.0000  -1.0651   0.0000   0.0000   0.0000   0.3636
   3.300   0.7083   0.00801   0.00232  -0.0817  0.2828  1.0000  -1.0882   0.0000   0.0000   0.0000   0.3617
   3.400   0.7173   0.00827   0.00242  -0.0814  0.2532  1.0000  -1.1158   0.0000   0.0000   0.0000   0.3598
   3.500   0.7260   0.00856   0.00254  -0.0811  0.2226  1.0000  -1.1432   0.0000   0.0000   0.0000   0.3579
   3.600   0.7351   0.00881   0.00264  -0.0809  0.1983  1.0000  -1.1713   0.0000   0.0000   0.0000   0.3561
   3.700   0.7444   0.00904   0.00275  -0.0806  0.1740  1.0000  -1.1997   0.0000   0.0000   0.0000   0.3543
   3.800   0.7531   0.00934   0.00288  -0.0803  0.1462  1.0000  -1.2274   0.0000   0.0000   0.0000   0.3526
   3.900   0.7618   0.00964   0.00302  -0.0800  0.1218  1.0000  -1.2552   0.0000   0.0000   0.0000   0.3509
   4.000   0.7711   0.00987   0.00314  -0.0798  0.1013  1.0000  -1.2842   0.0000   0.0000   0.0000   0.3492
   4.100   0.7803   0.01012   0.00327  -0.0795  0.0822  1.0000  -1.3129   0.0000   0.0000   0.0000   0.3476
   4.200   0.7891   0.01041   0.00342  -0.0792  0.0613  1.0000  -1.3413   0.0000   0.0000   0.0000   0.3460
   4.300   0.7948   0.01108   0.00381  -0.0784  0.0118  1.0000  -1.3547   0.0000   0.0000   0.0000   0.3442
   4.400   0.8053   0.01118   0.00387  -0.0783  0.0112  1.0000  -1.4181   0.0000   0.0000   0.0000   0.3427
   4.500   0.8159   0.01126   0.00393  -0.0783  0.0105  1.0000  -1.4840   0.0000   0.0000   0.0000   0.3413
   4.600   0.8265   0.01135   0.00398  -0.0782  0.0099  1.0000  -1.5525   0.0000   0.0000   0.0000   0.3399
   4.700   0.8371   0.01144   0.00404  -0.0781  0.0091  1.0000  -1.6245   0.0000   0.0000   0.0000   0.3385
   4.800   0.8477   0.01152   0.00411  -0.0781  0.0082  1.0000  -1.7019   0.0000   0.0000   0.0000   0.3371
   4.900   0.8583   0.01161   0.00420  -0.0780  0.0075  1.0000  -1.7841   0.0000   0.0000   0.0000   0.3358
   5.000   0.8687   0.01171   0.00430  -0.0779  0.0069  1.0000  -1.8706   0.0000   0.0000   0.0000   0.3345
   5.100   0.8791   0.01182   0.00441  -0.0778  0.0066  1.0000  -1.9594   0.0000   0.0000   0.0000   0.3332
   5.200   0.8895   0.01193   0.00453  -0.0776  0.0063  1.0000  -2.0495   0.0000   0.0000   0.0000   0.3319
   5.300   0.8999   0.01204   0.00464  -0.0775  0.0061  1.0000  -2.1403   0.0000   0.0000   0.0000   0.3307
   5.400   0.9102   0.01214   0.00477  -0.0774  0.0060  1.0000  -2.2317   0.0000   0.0000   0.0000   0.3295
   5.500   0.9206   0.01226   0.00489  -0.0772  0.0059  1.0000  -2.3239   0.0000   0.0000   0.0000   0.3283
   5.600   0.9309   0.01237   0.00503  -0.0771  0.0059  1.0000  -2.4168   0.0000   0.0000   0.0000   0.3271
   5.700   0.9411   0.01248   0.00517  -0.0769  0.0059  1.0000  -2.5103   0.0000   0.0000   0.0000   0.3259
   5.800   0.9514   0.01260   0.00531  -0.0768  0.0059  1.0000  -2.6043   0.0000   0.0000   0.0000   0.3248
   5.900   0.9615   0.01273   0.00547  -0.0766  0.0059  1.0000  -2.6990   0.0000   0.0000   0.0000   0.3236
   6.000   0.9716   0.01286   0.00563  -0.0764  0.0059  1.0000  -2.7940   0.0000   0.0000   0.0000   0.3225
   6.100   0.9817   0.01300   0.00580  -0.0762  0.0060  1.0000  -2.8894   0.0000   0.0000   0.0000   0.3214
   6.200   0.9916   0.01315   0.00597  -0.0760  0.0061  1.0000  -2.9850   0.0000   0.0000   0.0000   0.3203
   6.300   1.0014   0.01332   0.00617  -0.0757  0.0062  1.0000  -3.0804   0.0000   0.0000   0.0000   0.3192
   6.400   1.0111   0.01350   0.00638  -0.0755  0.0063  1.0000  -3.1757   0.0000   0.0000   0.0000   0.3181
   6.500   1.0206   0.01369   0.00660  -0.0752  0.0064  1.0000  -3.2706   0.0000   0.0000   0.0000   0.3170
   6.600   1.0301   0.01388   0.00684  -0.0749  0.0066  1.0000  -3.3647   0.0000   0.0000   0.0000   0.3159
   6.700   1.0394   0.01410   0.00709  -0.0746  0.0068  1.0000  -3.4571   0.0000   0.0000   0.0000   0.3148
   6.800   1.0494   0.01422   0.00740  -0.0744  0.0068  1.0000  -3.5135   0.0000   0.0000   0.0000   0.3138
   6.900   1.0586   0.01443   0.00767  -0.0740  0.0070  1.0000  -3.6010   0.0000   0.0000   0.0000   0.3128
   7.000   1.0676   0.01468   0.00797  -0.0736  0.0072  1.0000  -3.6875   0.0000   0.0000   0.0000   0.3117
   7.100   1.0764   0.01496   0.00831  -0.0732  0.0074  1.0000  -3.7690   0.0000   0.0000   0.0000   0.3106
   7.200   1.0846   0.01528   0.00870  -0.0726  0.0076  1.0000  -3.8414   0.0000   0.0000   0.0000   0.3094
   7.300   1.0924   0.01567   0.00917  -0.0719  0.0079  1.0000  -3.9033   0.0000   0.0000   0.0000   0.3081
   7.400   1.0995   0.01612   0.00970  -0.0710  0.0083  1.0000  -3.9558   0.0000   0.0000   0.0000   0.3068
   7.500   1.1058   0.01664   0.01033  -0.0701  0.0087  1.0000  -3.9992   0.0000   0.0000   0.0000   0.3055
   7.600   1.1113   0.01726   0.01104  -0.0690  0.0092  1.0000  -4.0332   0.0000   0.0000   0.0000   0.3040
   7.700   1.1161   0.01798   0.01188  -0.0677  0.0097  1.0000  -4.0550   0.0000   0.0000   0.0000   0.3025
   7.800   1.1198   0.01889   0.01289  -0.0663  0.0104  1.0000  -4.0614   0.0000   0.0000   0.0000   0.3010
   7.900   1.1221   0.02020   0.01433  -0.0646  0.0111  1.0000  -4.0342   0.0000   0.0000   0.0000   0.2992
   8.000   1.1280   0.02127   0.01546  -0.0634  0.0131  1.0000  -4.0123   0.0000   0.0000   0.0000   0.2977
   8.100   1.1400   0.02097   0.01517  -0.0633  0.0146  1.0000  -4.1284   0.0000   0.0000   0.0000   0.2969
  12.900   1.0203   0.10136   0.09948  -0.0482  0.0179  1.0000  -4.0255   0.0000   0.0000   0.0000   0.2824
  13.900   0.9186   0.15401   0.15228  -0.0807  0.0225  1.0000  -2.5478   0.0000   0.0000   0.0000   0.3234
  14.000   0.9217   0.15573   0.15400  -0.0817  0.0216  1.0000  -2.5560   0.0000   0.0000   0.0000   0.3241
  14.100   0.9226   0.15792   0.15619  -0.0829  0.0209  1.0000  -2.5402   0.0000   0.0000   0.0000   0.3253
  14.200   0.9230   0.16023   0.15849  -0.0842  0.0202  1.0000  -2.5193   0.0000   0.0000   0.0000   0.3265
  14.300   0.9232   0.16253   0.16079  -0.0855  0.0196  1.0000  -2.4987   0.0000   0.0000   0.0000   0.3278
  14.400   0.9234   0.16479   0.16305  -0.0867  0.0190  1.0000  -2.4812   0.0000   0.0000   0.0000   0.3290
  14.500   0.9238   0.16699   0.16525  -0.0879  0.0185  1.0000  -2.4677   0.0000   0.0000   0.0000   0.3302
  14.600   0.9244   0.16912   0.16737  -0.0890  0.0180  1.0000  -2.4586   0.0000   0.0000   0.0000   0.3312
  14.700   0.9251   0.17115   0.16940  -0.0901  0.0175  1.0000  -2.4555   0.0000   0.0000   0.0000   0.3322
  14.800   0.9261   0.17309   0.17134  -0.0912  0.0170  1.0000  -2.4578   0.0000   0.0000   0.0000   0.3331
  14.900   0.9274   0.17493   0.17318  -0.0921  0.0166  1.0000  -2.4661   0.0000   0.0000   0.0000   0.3339
  15.000   0.9288   0.17666   0.17491  -0.0930  0.0162  1.0000  -2.4810   0.0000   0.0000   0.0000   0.3346
  15.100   0.9305   0.17828   0.17653  -0.0939  0.0158  1.0000  -2.5031   0.0000   0.0000   0.0000   0.3352
  15.200   0.9325   0.17978   0.17803  -0.0947  0.0154  1.0000  -2.5330   0.0000   0.0000   0.0000   0.3357
  15.300   0.9348   0.18113   0.17938  -0.0954  0.0151  1.0000  -2.5717   0.0000   0.0000   0.0000   0.3360
  15.400   0.9373   0.18233   0.18058  -0.0960  0.0147  1.0000  -2.6200   0.0000   0.0000   0.0000   0.3362
  15.500   0.9402   0.18335   0.18160  -0.0965  0.0144  1.0000  -2.6794   0.0000   0.0000   0.0000   0.3363
  15.600   0.9424   0.18468   0.18293  -0.0972  0.0141  1.0000  -2.7227   0.0000   0.0000   0.0000   0.3366
  15.700   0.9440   0.18620   0.18446  -0.0980  0.0138  1.0000  -2.7561   0.0000   0.0000   0.0000   0.3371
  15.800   0.9455   0.18780   0.18605  -0.0988  0.0135  1.0000  -2.7863   0.0000   0.0000   0.0000   0.3376
  15.900   0.9460   0.18971   0.18797  -0.0997  0.0132  1.0000  -2.7996   0.0000   0.0000   0.0000   0.3384
  16.000   0.9416   0.19358   0.19183  -0.1013  0.0126  1.0000  -2.7061   0.0000   0.0000   0.0000   0.3405
  16.100   0.9240   0.20454   0.20275  -0.1053  0.0119  1.0000  -2.2312   0.0000   0.0000   0.0000   0.3472
  16.200   0.9254   0.20693   0.20514  -0.1063  0.0119  1.0000  -2.2128   0.0000   0.0000   0.0000   0.3480
  16.300   0.9268   0.20930   0.20751  -0.1073  0.0119  1.0000  -2.1955   0.0000   0.0000   0.0000   0.3488
  16.400   0.9283   0.21167   0.20988  -0.1083  0.0119  1.0000  -2.1793   0.0000   0.0000   0.0000   0.3496
  16.500   0.9299   0.21401   0.21223  -0.1093  0.0119  1.0000  -2.1642   0.0000   0.0000   0.0000   0.3503
  16.600   0.9314   0.21635   0.21456  -0.1103  0.0119  1.0000  -2.1502   0.0000   0.0000   0.0000   0.3511
  16.700   0.9331   0.21866   0.21687  -0.1112  0.0119  1.0000  -2.1375   0.0000   0.0000   0.0000   0.3518
  16.800   0.9348   0.22095   0.21916  -0.1122  0.0118  1.0000  -2.1261   0.0000   0.0000   0.0000   0.3524
  16.900   0.9365   0.22321   0.22142  -0.1131  0.0118  1.0000  -2.1164   0.0000   0.0000   0.0000   0.3531
  17.000   0.9383   0.22542   0.22364  -0.1140  0.0118  1.0000  -2.1088   0.0000   0.0000   0.0000   0.3537
  17.100   0.9403   0.22758   0.22580  -0.1150  0.0117  1.0000  -2.1044   0.0000   0.0000   0.0000   0.3543
  17.200   0.9425   0.22963   0.22785  -0.1159  0.0117  1.0000  -2.1051   0.0000   0.0000   0.0000   0.3549
  17.300   0.9451   0.23147   0.22968  -0.1167  0.0115  1.0000  -2.1162   0.0000   0.0000   0.0000   0.3553
  17.400   0.9488   0.23290   0.23112  -0.1175  0.0113  1.0000  -2.1464   0.0000   0.0000   0.0000   0.3555
  17.500   0.9526   0.23435   0.23257  -0.1183  0.0108  1.0000  -2.1762   0.0000   0.0000   0.0000   0.3557
  17.600   0.9556   0.23622   0.23445  -0.1191  0.0104  1.0000  -2.1846   0.0000   0.0000   0.0000   0.3560
  17.700   0.9577   0.23848   0.23671  -0.1200  0.0100  1.0000  -2.1739   0.0000   0.0000   0.0000   0.3566
  17.800   0.9594   0.24090   0.23913  -0.1210  0.0097  1.0000  -2.1562   0.0000   0.0000   0.0000   0.3573
  17.900   0.9609   0.24333   0.24155  -0.1220  0.0094  1.0000  -2.1402   0.0000   0.0000   0.0000   0.3580
  18.000   0.9624   0.24574   0.24397  -0.1229  0.0091  1.0000  -2.1263   0.0000   0.0000   0.0000   0.3586
  18.100   0.9638   0.24814   0.24637  -0.1238  0.0088  1.0000  -2.1147   0.0000   0.0000   0.0000   0.3593
  18.200   0.9653   0.25051   0.24874  -0.1247  0.0085  1.0000  -2.1054   0.0000   0.0000   0.0000   0.3599
  18.300   0.9667   0.25287   0.25110  -0.1256  0.0082  1.0000  -2.0979   0.0000   0.0000   0.0000   0.3605
  18.400   0.9681   0.25521   0.25344  -0.1265  0.0080  1.0000  -2.0922   0.0000   0.0000   0.0000   0.3610
  18.500   0.9695   0.25753   0.25577  -0.1273  0.0078  1.0000  -2.0881   0.0000   0.0000   0.0000   0.3616
  18.600   0.9708   0.25984   0.25808  -0.1281  0.0076  1.0000  -2.0854   0.0000   0.0000   0.0000   0.3621
  18.700   0.9722   0.26214   0.26038  -0.1289  0.0074  1.0000  -2.0840   0.0000   0.0000   0.0000   0.3626
  18.800   0.9735   0.26442   0.26266  -0.1298  0.0072  1.0000  -2.0840   0.0000   0.0000   0.0000   0.3631
  18.900   0.9748   0.26668   0.26492  -0.1306  0.0070  1.0000  -2.0852   0.0000   0.0000   0.0000   0.3636
  19.000   0.9761   0.26893   0.26718  -0.1313  0.0068  1.0000  -2.0876   0.0000   0.0000   0.0000   0.3641
  19.100   0.9773   0.27117   0.26942  -0.1321  0.0067  1.0000  -2.0910   0.0000   0.0000   0.0000   0.3646
  19.200   0.9786   0.27340   0.27165  -0.1329  0.0065  1.0000  -2.0956   0.0000   0.0000   0.0000   0.3650
  19.300   0.9797   0.27561   0.27387  -0.1336  0.0064  1.0000  -2.1011   0.0000   0.0000   0.0000   0.3655
  19.400   0.9809   0.27781   0.27607  -0.1344  0.0062  1.0000  -2.1077   0.0000   0.0000   0.0000   0.3659
  19.500   0.9820   0.27999   0.27826  -0.1351  0.0061  1.0000  -2.1153   0.0000   0.0000   0.0000   0.3664
  19.600   0.9830   0.28216   0.28043  -0.1358  0.0060  1.0000  -2.1238   0.0000   0.0000   0.0000   0.3668
  19.700   0.9840   0.28431   0.28258  -0.1365  0.0059  1.0000  -2.1334   0.0000   0.0000   0.0000   0.3672
  19.800   0.9849   0.28645   0.28472  -0.1372  0.0058  1.0000  -2.1439   0.0000   0.0000   0.0000   0.3676
  19.900   0.9858   0.28857   0.28684  -0.1379  0.0057  1.0000  -2.1554   0.0000   0.0000   0.0000   0.3681
  20.000   0.9866   0.29066   0.28894  -0.1386  0.0056  1.0000  -2.1678   0.0000   0.0000   0.0000   0.3684
  20.100   0.9873   0.29274   0.29102  -0.1392  0.0055  1.0000  -2.1810   0.0000   0.0000   0.0000   0.3688
  20.200   0.9880   0.29479   0.29308  -0.1398  0.0054  1.0000  -2.1951   0.0000   0.0000   0.0000   0.3692
  20.300   0.9891   0.29631   0.29464  -0.1404  0.0052  1.0000  -2.2506   0.0000   0.0000   0.0000   0.3694
  20.400   0.9897   0.29820   0.29653  -0.1409  0.0051  1.0000  -2.2757   0.0000   0.0000   0.0000   0.3697
  20.500   0.9902   0.30009   0.29843  -0.1415  0.0050  1.0000  -2.2986   0.0000   0.0000   0.0000   0.3700
  20.600   0.9905   0.30197   0.30032  -0.1420  0.0049  1.0000  -2.3208   0.0000   0.0000   0.0000   0.3703
  20.700   0.9905   0.30387   0.30223  -0.1425  0.0048  1.0000  -2.3396   0.0000   0.0000   0.0000   0.3707
  20.800   0.9901   0.30587   0.30423  -0.1431  0.0048  1.0000  -2.3491   0.0000   0.0000   0.0000   0.3712
  20.900   0.9893   0.30786   0.30622  -0.1436  0.0047  1.0000  -2.3562   0.0000   0.0000   0.0000   0.3716
  21.000   0.9882   0.30980   0.30818  -0.1441  0.0046  1.0000  -2.3607   0.0000   0.0000   0.0000   0.3721
  21.100   0.9866   0.31171   0.31009  -0.1445  0.0046  1.0000  -2.3615   0.0000   0.0000   0.0000   0.3727
  21.200   0.9842   0.31354   0.31193  -0.1448  0.0045  1.0000  -2.3570   0.0000   0.0000   0.0000   0.3733
  21.300   0.9808   0.31525   0.31365  -0.1451  0.0044  1.0000  -2.3447   0.0000   0.0000   0.0000   0.3739


