xflr5 v6.61

 Calculated polar for: E222  (10.17%)

 1 1 Reynolds number fixed          Mach number fixed         

 xtrf =   1.000 (top)        1.000 (bottom)
 Mach =   0.000     Re =     0.160 e 6     Ncrit =   9.000

  alpha     CL        CD       CDp       Cm    Top Xtr Bot Xtr   Cpmin    Chinge    XCp    
 ------- -------- --------- --------- -------- ------- ------- -------- --------- ---------
 -10.000  -0.4158   0.11474   0.11058  -0.0353  1.0000  0.0634  -1.5361   0.0000   0.0000   0.0000   0.1571
  -9.900  -0.4156   0.11340   0.10927  -0.0358  1.0000  0.0634  -1.5478   0.0000   0.0000   0.0000   0.1558
  -9.800  -0.4156   0.11205   0.10793  -0.0364  1.0000  0.0634  -1.5600   0.0000   0.0000   0.0000   0.1546
  -9.700  -0.4283   0.10602   0.10198  -0.0377  1.0000  0.0646  -1.6683   0.0000   0.0000   0.0000   0.1541
  -9.600  -0.4311   0.10290   0.09887  -0.0376  1.0000  0.0658  -1.6817   0.0000   0.0000   0.0000   0.1552
  -9.500  -0.4266   0.10131   0.09728  -0.0366  1.0000  0.0666  -1.6456   0.0000   0.0000   0.0000   0.1566
  -9.400  -0.4224   0.10006   0.09604  -0.0358  1.0000  0.0673  -1.6120   0.0000   0.0000   0.0000   0.1576
  -9.300  -0.4189   0.09893   0.09491  -0.0353  1.0000  0.0680  -1.5845   0.0000   0.0000   0.0000   0.1583
  -9.200  -0.4157   0.09785   0.09384  -0.0348  1.0000  0.0687  -1.5604   0.0000   0.0000   0.0000   0.1588
  -9.100  -0.4127   0.09680   0.09280  -0.0344  1.0000  0.0695  -1.5385   0.0000   0.0000   0.0000   0.1593
  -9.000  -0.4104   0.09576   0.09176  -0.0341  1.0000  0.0702  -1.5214   0.0000   0.0000   0.0000   0.1596
  -8.900  -0.4086   0.09470   0.09072  -0.0339  1.0000  0.0710  -1.5084   0.0000   0.0000   0.0000   0.1598
  -8.800  -0.4072   0.09362   0.08966  -0.0338  1.0000  0.0718  -1.4989   0.0000   0.0000   0.0000   0.1599
  -8.700  -0.4063   0.09253   0.08858  -0.0338  1.0000  0.0726  -1.4923   0.0000   0.0000   0.0000   0.1599
  -8.600  -0.4057   0.09143   0.08750  -0.0337  1.0000  0.0734  -1.4879   0.0000   0.0000   0.0000   0.1600
  -8.500  -0.4055   0.09031   0.08640  -0.0338  1.0000  0.0743  -1.4861   0.0000   0.0000   0.0000   0.1600
  -8.400  -0.4058   0.08918   0.08529  -0.0338  1.0000  0.0752  -1.4867   0.0000   0.0000   0.0000   0.1600
  -8.300  -0.4065   0.08805   0.08418  -0.0339  1.0000  0.0761  -1.4896   0.0000   0.0000   0.0000   0.1601
  -8.200  -0.4076   0.08691   0.08306  -0.0340  1.0000  0.0770  -1.4947   0.0000   0.0000   0.0000   0.1603
  -8.100  -0.4093   0.08576   0.08194  -0.0341  1.0000  0.0779  -1.5019   0.0000   0.0000   0.0000   0.1605
  -8.000  -0.4115   0.08462   0.08083  -0.0342  1.0000  0.0788  -1.5112   0.0000   0.0000   0.0000   0.1609
  -7.900  -0.4143   0.08350   0.07974  -0.0342  1.0000  0.0797  -1.5224   0.0000   0.0000   0.0000   0.1615
  -7.800  -0.4178   0.08239   0.07866  -0.0342  1.0000  0.0806  -1.5359   0.0000   0.0000   0.0000   0.1623
  -7.700  -0.4222   0.08132   0.07762  -0.0342  1.0000  0.0814  -1.5516   0.0000   0.0000   0.0000   0.1635
  -7.600  -0.4277   0.08030   0.07664  -0.0340  1.0000  0.0822  -1.5695   0.0000   0.0000   0.0000   0.1652
  -7.500  -0.4344   0.07934   0.07572  -0.0336  1.0000  0.0829  -1.5895   0.0000   0.0000   0.0000   0.1673
  -7.400  -0.4417   0.07836   0.07479  -0.0334  1.0000  0.0835  -1.6117   0.0000   0.0000   0.0000   0.1694
  -7.300  -0.4477   0.07707   0.07353  -0.0340  1.0000  0.0843  -1.6380   0.0000   0.0000   0.0000   0.1691
  -7.200  -0.4536   0.07553   0.07203  -0.0355  1.0000  0.0853  -1.6713   0.0000   0.0000   0.0000   0.1670
  -7.100  -0.4598   0.07383   0.07034  -0.0376  1.0000  0.0863  -1.7146   0.0000   0.0000   0.0000   0.1636
  -7.000  -0.4636   0.07282   0.06929  -0.0398  1.0000  0.0882  -1.7561   0.0000   0.0000   0.0000   0.1598
  -6.900  -0.4658   0.07297   0.06937  -0.0409  1.0000  0.0897  -1.7805   0.0000   0.0000   0.0000   0.1578
  -6.800  -0.4683   0.07237   0.06872  -0.0411  1.0000  0.0901  -1.7950   0.0000   0.0000   0.0000   0.1580
  -6.700  -0.4702   0.07150   0.06780  -0.0411  1.0000  0.0904  -1.8069   0.0000   0.0000   0.0000   0.1584
  -6.600  -0.4716   0.07050   0.06676  -0.0411  1.0000  0.0905  -1.8168   0.0000   0.0000   0.0000   0.1589
  -6.500  -0.4725   0.06942   0.06564  -0.0410  1.0000  0.0906  -1.8253   0.0000   0.0000   0.0000   0.1593
  -6.400  -0.4729   0.06828   0.06445  -0.0409  1.0000  0.0907  -1.8324   0.0000   0.0000   0.0000   0.1597
  -6.300  -0.4969   0.05892   0.05511  -0.0435  1.0000  0.0941  -1.9742   0.0000   0.0000   0.0000   0.1586
  -6.200  -0.4962   0.05718   0.05339  -0.0431  1.0000  0.0953  -1.9608   0.0000   0.0000   0.0000   0.1593
  -6.100  -0.4928   0.05612   0.05237  -0.0423  1.0000  0.0962  -1.9304   0.0000   0.0000   0.0000   0.1604
  -6.000  -0.4895   0.05517   0.05145  -0.0416  1.0000  0.0972  -1.9021   0.0000   0.0000   0.0000   0.1615
  -5.900  -0.4863   0.05427   0.05057  -0.0409  1.0000  0.0982  -1.8760   0.0000   0.0000   0.0000   0.1624
  -5.800  -0.4832   0.05337   0.04968  -0.0403  1.0000  0.0993  -1.8523   0.0000   0.0000   0.0000   0.1631
  -5.700  -0.4799   0.05246   0.04876  -0.0399  1.0000  0.1006  -1.8309   0.0000   0.0000   0.0000   0.1635
  -5.600  -0.4765   0.05150   0.04779  -0.0396  1.0000  0.1019  -1.8119   0.0000   0.0000   0.0000   0.1636
  -5.500  -0.4728   0.05050   0.04677  -0.0394  1.0000  0.1035  -1.7953   0.0000   0.0000   0.0000   0.1634
  -5.400  -0.4687   0.04946   0.04569  -0.0393  1.0000  0.1054  -1.7808   0.0000   0.0000   0.0000   0.1628
  -5.300  -0.4642   0.04837   0.04455  -0.0394  1.0000  0.1075  -1.7686   0.0000   0.0000   0.0000   0.1618
  -5.200  -0.4591   0.04726   0.04338  -0.0397  1.0000  0.1099  -1.7586   0.0000   0.0000   0.0000   0.1604
  -4.900  -0.4218   0.03223   0.02675  -0.0459  1.0000  0.0554  -2.2496   0.0000   0.0000   0.0000   0.1372
  -4.800  -0.4043   0.02778   0.02143  -0.0469  1.0000  0.0444  -2.4590   0.0000   0.0000   0.0000   0.1296
  -4.700  -0.3948   0.02773   0.02127  -0.0464  1.0000  0.0427  -2.4296   0.0000   0.0000   0.0000   0.1282
  -4.600  -0.3783   0.02800   0.02150  -0.0471  0.9982  0.0416  -2.3560   0.0000   0.0000   0.0000   0.1210
  -4.500  -0.3629   0.02692   0.02031  -0.0481  0.9971  0.0401  -2.3285   0.0000   0.0000   0.0000   0.1130
  -4.400  -0.3482   0.02487   0.01802  -0.0491  0.9964  0.0390  -2.3421   0.0000   0.0000   0.0000   0.1043
  -4.300  -0.3329   0.02352   0.01648  -0.0501  0.9953  0.0381  -2.3306   0.0000   0.0000   0.0000   0.0950
  -4.200  -0.3173   0.02242   0.01521  -0.0510  0.9939  0.0374  -2.3103   0.0000   0.0000   0.0000   0.0846
  -4.100  -0.3014   0.02147   0.01412  -0.0518  0.9924  0.0368  -2.2845   0.0000   0.0000   0.0000   0.0731
  -4.000  -0.2852   0.02065   0.01317  -0.0527  0.9909  0.0363  -2.2542   0.0000   0.0000   0.0000   0.0601
  -3.900  -0.2689   0.01992   0.01233  -0.0537  0.9895  0.0359  -2.2195   0.0000   0.0000   0.0000   0.0452
  -3.800  -0.2524   0.01927   0.01160  -0.0546  0.9882  0.0356  -2.1806   0.0000   0.0000   0.0000   0.0282
  -3.700  -0.2361   0.01871   0.01096  -0.0556  0.9869  0.0353  -2.1381   0.0000   0.0000   0.0000   0.0090
  -3.600  -0.2221   0.01822   0.01040  -0.0562  0.9847  0.0352  -2.0953   0.0000   0.0000   0.0000  -0.0085
  -3.500  -0.2076   0.01779   0.00990  -0.0568  0.9826  0.0352  -2.0471   0.0000   0.0000   0.0000  -0.0297
  -3.400  -0.1925   0.01742   0.00945  -0.0577  0.9805  0.0351  -1.9899   0.0000   0.0000   0.0000  -0.0557
  -3.300  -0.1768   0.01719   0.00881  -0.0586  0.9784  0.0332  -1.8687   0.0000   0.0000   0.0000  -0.0878
  -3.200  -0.1603   0.01692   0.00846  -0.0597  0.9766  0.0335  -1.8146   0.0000   0.0000   0.0000  -0.1290
  -3.100  -0.1431   0.01669   0.00813  -0.0609  0.9749  0.0342  -1.7582   0.0000   0.0000   0.0000  -0.1830
  -3.000  -0.1251   0.01650   0.00785  -0.0623  0.9733  0.0353  -1.7001   0.0000   0.0000   0.0000  -0.2557
  -2.900  -0.1095   0.01632   0.00759  -0.0631  0.9709  0.0370  -1.6485   0.0000   0.0000   0.0000  -0.3348
  -2.800  -0.0964   0.01613   0.00732  -0.0634  0.9672  0.0394  -1.6047   0.0000   0.0000   0.0000  -0.4171
  -2.700  -0.0812   0.01577   0.00705  -0.0642  0.9643  0.0588  -1.5751   0.0000   0.0000   0.0000  -0.5521
  -2.600  -0.0659   0.01479   0.00685  -0.0659  0.9625  0.2112  -1.5310   0.0000   0.0000   0.0000  -0.7624
  -2.500  -0.0500   0.01445   0.00679  -0.0671  0.9602  0.2848  -1.4663   0.0000   0.0000   0.0000  -1.1080
  -2.400  -0.0344   0.01402   0.00685  -0.0684  0.9583  0.3889  -1.3914   0.0000   0.0000   0.0000  -1.7582
  -2.300  -0.0181   0.01388   0.00686  -0.0695  0.9564  0.4306  -1.3099   0.0000   0.0000   0.0000  -3.6256
  -2.200  -0.0017   0.01376   0.00690  -0.0706  0.9547  0.4674  -1.2246   0.0000   0.0000   0.0000  -42.3004
  -2.100   0.0154   0.01369   0.00694  -0.0719  0.9532  0.5015  -1.1357   0.0000   0.0000   0.0000   4.9490
  -2.000   0.0251   0.01359   0.00695  -0.0716  0.9492  0.5290  -1.0699   0.0000   0.0000   0.0000   3.1199
  -1.900   0.0363   0.01352   0.00695  -0.0716  0.9450  0.5524  -0.9998   0.0000   0.0000   0.0000   2.2373
  -1.800   0.0496   0.01342   0.00696  -0.0720  0.9415  0.5790  -0.9231   0.0000   0.0000   0.0000   1.7116
  -1.700   0.0642   0.01333   0.00697  -0.0726  0.9383  0.6088  -0.8429   0.0000   0.0000   0.0000   1.3874
  -1.600   0.0786   0.01321   0.00702  -0.0730  0.9356  0.6558  -0.7634   0.0000   0.0000   0.0000   1.1834
  -1.400   0.1063   0.01300   0.00719  -0.0732  0.9312  0.7471  -0.6193   0.0000   0.0000   0.0000   0.9412
  -1.300   0.1195   0.01294   0.00726  -0.0730  0.9294  0.7805  -0.5726   0.0000   0.0000   0.0000   0.8629
  -1.200   0.1304   0.01292   0.00730  -0.0725  0.9266  0.8054  -0.5320   0.0000   0.0000   0.0000   0.8083
  -1.100   0.1317   0.01291   0.00735  -0.0702  0.9201  0.8229  -0.5096   0.0000   0.0000   0.0000   0.7852
  -1.000   0.1416   0.01288   0.00733  -0.0698  0.9158  0.8408  -0.4725   0.0000   0.0000   0.0000   0.7442
  -0.900   0.1520   0.01280   0.00729  -0.0692  0.9122  0.8553  -0.4346   0.0000   0.0000   0.0000   0.7064
  -0.800   0.1646   0.01272   0.00722  -0.0691  0.9093  0.8717  -0.4271   0.0000   0.0000   0.0000   0.6707
  -0.700   0.1789   0.01262   0.00713  -0.0694  0.9068  0.8870  -0.4375   0.0000   0.0000   0.0000   0.6383
  -0.600   0.1939   0.01250   0.00702  -0.0697  0.9048  0.9025  -0.4483   0.0000   0.0000   0.0000   0.6097
  -0.500   0.2102   0.01239   0.00690  -0.0704  0.9030  0.9184  -0.4599   0.0000   0.0000   0.0000   0.5847
  -0.400   0.2287   0.01226   0.00678  -0.0715  0.9016  0.9331  -0.4727   0.0000   0.0000   0.0000   0.5622
  -0.300   0.2483   0.01215   0.00666  -0.0728  0.9003  0.9478  -0.4859   0.0000   0.0000   0.0000   0.5430
  -0.200   0.2717   0.01205   0.00656  -0.0751  0.8993  0.9597  -0.5014   0.0000   0.0000   0.0000   0.5260
  -0.100   0.2882   0.01202   0.00656  -0.0763  0.8952  0.9735  -0.5141   0.0000   0.0000   0.0000   0.5140
   0.000   0.3087   0.01194   0.00647  -0.0783  0.8913  0.9884  -0.5291   0.0000   0.0000   0.0000   0.5027
   0.100   0.3260   0.01185   0.00636  -0.0796  0.8869  1.0000  -0.5424   0.0000   0.0000   0.0000   0.4933
   0.200   0.3388   0.01177   0.00624  -0.0800  0.8822  1.0000  -0.5534   0.0000   0.0000   0.0000   0.4852
   0.300   0.3543   0.01166   0.00610  -0.0809  0.8784  1.0000  -0.5660   0.0000   0.0000   0.0000   0.4771
   0.400   0.3711   0.01154   0.00596  -0.0819  0.8751  1.0000  -0.5802   0.0000   0.0000   0.0000   0.4696
   0.500   0.3883   0.01142   0.00581  -0.0830  0.8722  1.0000  -0.5957   0.0000   0.0000   0.0000   0.4626
   0.600   0.4054   0.01132   0.00568  -0.0841  0.8694  1.0000  -0.6112   0.0000   0.0000   0.0000   0.4562
   0.700   0.4229   0.01123   0.00556  -0.0853  0.8666  1.0000  -0.6269   0.0000   0.0000   0.0000   0.4502
   0.800   0.4302   0.01126   0.00557  -0.0847  0.8604  1.0000  -0.6360   0.0000   0.0000   0.0000   0.4452
   0.900   0.4382   0.01127   0.00556  -0.0841  0.8536  1.0000  -0.6456   0.0000   0.0000   0.0000   0.4403
   1.000   0.4501   0.01122   0.00549  -0.0842  0.8478  1.0000  -0.6578   0.0000   0.0000   0.0000   0.4353
   1.100   0.4636   0.01114   0.00539  -0.0845  0.8427  1.0000  -0.6717   0.0000   0.0000   0.0000   0.4305
   1.200   0.4780   0.01106   0.00528  -0.0850  0.8381  1.0000  -0.6878   0.0000   0.0000   0.0000   0.4260
   1.300   0.4933   0.01098   0.00517  -0.0857  0.8339  1.0000  -0.7046   0.0000   0.0000   0.0000   0.4217
   1.400   0.5093   0.01093   0.00509  -0.0864  0.8298  1.0000  -0.7220   0.0000   0.0000   0.0000   0.4177
   1.500   0.5187   0.01096   0.00511  -0.0861  0.8239  1.0000  -0.7345   0.0000   0.0000   0.0000   0.4139
   1.600   0.5272   0.01099   0.00514  -0.0856  0.8168  1.0000  -0.7463   0.0000   0.0000   0.0000   0.4102
   1.700   0.5378   0.01098   0.00512  -0.0854  0.8101  1.0000  -0.7616   0.0000   0.0000   0.0000   0.4066
   1.800   0.5495   0.01095   0.00506  -0.0854  0.8037  1.0000  -0.7785   0.0000   0.0000   0.0000   0.4031
   1.900   0.5628   0.01090   0.00498  -0.0856  0.7978  1.0000  -0.7968   0.0000   0.0000   0.0000   0.3997
   2.000   0.5769   0.01087   0.00490  -0.0860  0.7922  1.0000  -0.8160   0.0000   0.0000   0.0000   0.3966
   2.100   0.5898   0.01089   0.00489  -0.0862  0.7863  1.0000  -0.8341   0.0000   0.0000   0.0000   0.3936
   2.200   0.5980   0.01093   0.00495  -0.0857  0.7792  1.0000  -0.8489   0.0000   0.0000   0.0000   0.3906
   2.300   0.6077   0.01095   0.00498  -0.0853  0.7717  1.0000  -0.8672   0.0000   0.0000   0.0000   0.3877
   2.400   0.6183   0.01096   0.00496  -0.0851  0.7643  1.0000  -0.8866   0.0000   0.0000   0.0000   0.3848
   2.500   0.6303   0.01095   0.00492  -0.0851  0.7572  1.0000  -0.9075   0.0000   0.0000   0.0000   0.3821
   2.600   0.6431   0.01095   0.00487  -0.0852  0.7503  1.0000  -0.9294   0.0000   0.0000   0.0000   0.3796
   2.700   0.6556   0.01100   0.00488  -0.0853  0.7433  1.0000  -0.9509   0.0000   0.0000   0.0000   0.3772
   2.800   0.6643   0.01105   0.00495  -0.0849  0.7361  1.0000  -0.9685   0.0000   0.0000   0.0000   0.3746
   2.900   0.6739   0.01108   0.00500  -0.0845  0.7284  1.0000  -0.9879   0.0000   0.0000   0.0000   0.3722
   3.000   0.6842   0.01111   0.00501  -0.0843  0.7205  1.0000  -1.0118   0.0000   0.0000   0.0000   0.3699
   3.100   0.6956   0.01113   0.00512  -0.0841  0.7139  1.0000  -1.0359   0.0000   0.0000   0.0000   0.3676
   3.200   0.7074   0.01116   0.00510  -0.0841  0.7066  1.0000  -1.0619   0.0000   0.0000   0.0000   0.3655
   3.300   0.7196   0.01124   0.00510  -0.0842  0.6986  1.0000  -1.0903   0.0000   0.0000   0.0000   0.3635
   3.400   0.7285   0.01128   0.00518  -0.0837  0.6913  1.0000  -1.1173   0.0000   0.0000   0.0000   0.3613
   3.500   0.7380   0.01132   0.00523  -0.0834  0.6829  1.0000  -1.1455   0.0000   0.0000   0.0000   0.3593
   3.600   0.7481   0.01136   0.00525  -0.0831  0.6742  1.0000  -1.1751   0.0000   0.0000   0.0000   0.3573
   3.700   0.7589   0.01141   0.00525  -0.0829  0.6656  1.0000  -1.2058   0.0000   0.0000   0.0000   0.3553
   3.800   0.7701   0.01148   0.00523  -0.0827  0.6559  1.0000  -1.2377   0.0000   0.0000   0.0000   0.3534
   3.900   0.7791   0.01152   0.00525  -0.0821  0.6434  1.0000  -1.2664   0.0000   0.0000   0.0000   0.3514
   4.000   0.7874   0.01152   0.00520  -0.0814  0.6262  1.0000  -1.2946   0.0000   0.0000   0.0000   0.3492
   4.100   0.7962   0.01160   0.00507  -0.0806  0.6052  1.0000  -1.3405   0.0000   0.0000   0.0000   0.3470
   4.200   0.8039   0.01163   0.00506  -0.0798  0.5846  1.0000  -1.3943   0.0000   0.0000   0.0000   0.3449
   4.300   0.8114   0.01176   0.00498  -0.0789  0.5589  1.0000  -1.4493   0.0000   0.0000   0.0000   0.3428
   4.400   0.8191   0.01187   0.00498  -0.0781  0.5343  1.0000  -1.5049   0.0000   0.0000   0.0000   0.3408
   4.500   0.8260   0.01208   0.00497  -0.0772  0.5069  1.0000  -1.5594   0.0000   0.0000   0.0000   0.3388
   4.600   0.8342   0.01222   0.00502  -0.0766  0.4834  1.0000  -1.6178   0.0000   0.0000   0.0000   0.3371
   4.700   0.8420   0.01242   0.00507  -0.0760  0.4622  1.0000  -1.6758   0.0000   0.0000   0.0000   0.3354
   4.800   0.8509   0.01258   0.00516  -0.0756  0.4484  1.0000  -1.7379   0.0000   0.0000   0.0000   0.3339
   4.900   0.8603   0.01271   0.00525  -0.0753  0.4333  1.0000  -1.8025   0.0000   0.0000   0.0000   0.3325
   5.000   0.8687   0.01290   0.00534  -0.0748  0.4168  1.0000  -1.8657   0.0000   0.0000   0.0000   0.3310
   5.100   0.8770   0.01311   0.00544  -0.0743  0.4017  1.0000  -1.9296   0.0000   0.0000   0.0000   0.3295
   5.200   0.8863   0.01326   0.00556  -0.0740  0.3864  1.0000  -1.9983   0.0000   0.0000   0.0000   0.3282
   5.300   0.8945   0.01348   0.00567  -0.0735  0.3684  1.0000  -2.0647   0.0000   0.0000   0.0000   0.3267
   5.400   0.9025   0.01371   0.00579  -0.0730  0.3517  1.0000  -2.1323   0.0000   0.0000   0.0000   0.3253
   5.500   0.9112   0.01391   0.00593  -0.0726  0.3330  1.0000  -2.2040   0.0000   0.0000   0.0000   0.3241
   5.600   0.9183   0.01421   0.00608  -0.0720  0.3130  1.0000  -2.2718   0.0000   0.0000   0.0000   0.3226
   5.700   0.9271   0.01442   0.00623  -0.0716  0.2953  1.0000  -2.3472   0.0000   0.0000   0.0000   0.3214
   5.800   0.9347   0.01471   0.00640  -0.0711  0.2752  1.0000  -2.4206   0.0000   0.0000   0.0000   0.3201
   5.900   0.9428   0.01498   0.00659  -0.0707  0.2585  1.0000  -2.4972   0.0000   0.0000   0.0000   0.3189
   6.000   0.9512   0.01523   0.00679  -0.0702  0.2414  1.0000  -2.5770   0.0000   0.0000   0.0000   0.3177
   6.100   0.9575   0.01566   0.00702  -0.0696  0.2127  1.0000  -2.6495   0.0000   0.0000   0.0000   0.3164
   6.200   0.9617   0.01630   0.00734  -0.0687  0.1675  1.0000  -2.7144   0.0000   0.0000   0.0000   0.3150
   6.300   0.9668   0.01691   0.00767  -0.0680  0.1305  1.0000  -2.7826   0.0000   0.0000   0.0000   0.3138
   6.400   0.9735   0.01738   0.00800  -0.0674  0.1074  1.0000  -2.8557   0.0000   0.0000   0.0000   0.3126
   6.500   0.9799   0.01789   0.00835  -0.0667  0.0840  1.0000  -2.9255   0.0000   0.0000   0.0000   0.3114
   6.700   0.9880   0.01943   0.00938  -0.0648  0.0240  1.0000  -3.0384   0.0000   0.0000   0.0000   0.3087
   6.800   0.9961   0.01976   0.00973  -0.0643  0.0215  1.0000  -3.1099   0.0000   0.0000   0.0000   0.3075
   6.900   1.0043   0.02009   0.01010  -0.0638  0.0198  1.0000  -3.1818   0.0000   0.0000   0.0000   0.3063
   7.000   1.0124   0.02043   0.01048  -0.0632  0.0187  1.0000  -3.2543   0.0000   0.0000   0.0000   0.3052
   7.100   1.0233   0.02040   0.01092  -0.0632  0.0223  1.0000  -3.3821   0.0000   0.0000   0.0000   0.3044
   7.200   1.0314   0.02074   0.01134  -0.0627  0.0212  1.0000  -3.4601   0.0000   0.0000   0.0000   0.3033
   7.300   1.0392   0.02111   0.01179  -0.0621  0.0202  1.0000  -3.5308   0.0000   0.0000   0.0000   0.3021
   7.400   1.0466   0.02150   0.01226  -0.0614  0.0194  1.0000  -3.5982   0.0000   0.0000   0.0000   0.3010
   7.500   1.0537   0.02191   0.01276  -0.0607  0.0188  1.0000  -3.6633   0.0000   0.0000   0.0000   0.2998
   7.600   1.0606   0.02235   0.01328  -0.0600  0.0183  1.0000  -3.7266   0.0000   0.0000   0.0000   0.2986
   7.700   1.0671   0.02281   0.01382  -0.0593  0.0178  1.0000  -3.7881   0.0000   0.0000   0.0000   0.2974
   7.800   1.0732   0.02329   0.01439  -0.0584  0.0175  1.0000  -3.8472   0.0000   0.0000   0.0000   0.2962
   7.900   1.0788   0.02380   0.01498  -0.0575  0.0173  1.0000  -3.9039   0.0000   0.0000   0.0000   0.2950
   8.000   1.0842   0.02433   0.01560  -0.0566  0.0171  1.0000  -3.9588   0.0000   0.0000   0.0000   0.2938
   8.100   1.0892   0.02489   0.01623  -0.0557  0.0169  1.0000  -4.0115   0.0000   0.0000   0.0000   0.2925
   8.200   1.0938   0.02548   0.01690  -0.0547  0.0168  1.0000  -4.0618   0.0000   0.0000   0.0000   0.2913
   8.300   1.0983   0.02610   0.01758  -0.0537  0.0168  1.0000  -4.1107   0.0000   0.0000   0.0000   0.2900
   8.400   1.1027   0.02674   0.01830  -0.0526  0.0167  1.0000  -4.1581   0.0000   0.0000   0.0000   0.2888
   8.500   1.1069   0.02742   0.01904  -0.0516  0.0167  1.0000  -4.2037   0.0000   0.0000   0.0000   0.2876
   8.600   1.1112   0.02812   0.01982  -0.0506  0.0167  1.0000  -4.2476   0.0000   0.0000   0.0000   0.2863
   8.700   1.1157   0.02887   0.02063  -0.0496  0.0168  1.0000  -4.2902   0.0000   0.0000   0.0000   0.2851
   8.800   1.1207   0.02967   0.02151  -0.0486  0.0168  1.0000  -4.3322   0.0000   0.0000   0.0000   0.2840
   8.900   1.1263   0.03055   0.02246  -0.0478  0.0169  1.0000  -4.3733   0.0000   0.0000   0.0000   0.2829
   9.000   1.1325   0.03150   0.02350  -0.0471  0.0171  1.0000  -4.4135   0.0000   0.0000   0.0000   0.2819
   9.100   1.1395   0.03255   0.02464  -0.0465  0.0173  1.0000  -4.4519   0.0000   0.0000   0.0000   0.2809
   9.200   1.1469   0.03369   0.02590  -0.0459  0.0175  1.0000  -4.4873   0.0000   0.0000   0.0000   0.2801
   9.300   1.1544   0.03494   0.02727  -0.0454  0.0177  1.0000  -4.5192   0.0000   0.0000   0.0000   0.2792
   9.400   1.1617   0.03628   0.02875  -0.0448  0.0180  1.0000  -4.5464   0.0000   0.0000   0.0000   0.2784
   9.500   1.1679   0.03767   0.03030  -0.0442  0.0184  1.0000  -4.5667   0.0000   0.0000   0.0000   0.2775
   9.600   1.1729   0.03913   0.03192  -0.0434  0.0187  1.0000  -4.5799   0.0000   0.0000   0.0000   0.2766
   9.700   1.1768   0.04062   0.03358  -0.0425  0.0191  1.0000  -4.5882   0.0000   0.0000   0.0000   0.2756
   9.800   1.1794   0.04212   0.03525  -0.0415  0.0194  1.0000  -4.5922   0.0000   0.0000   0.0000   0.2745
   9.900   1.1809   0.04363   0.03692  -0.0404  0.0197  1.0000  -4.5931   0.0000   0.0000   0.0000   0.2735
  10.000   1.1813   0.04514   0.03858  -0.0392  0.0201  1.0000  -4.5911   0.0000   0.0000   0.0000   0.2724
  10.100   1.1805   0.04665   0.04023  -0.0380  0.0204  1.0000  -4.5863   0.0000   0.0000   0.0000   0.2712
  10.200   1.1787   0.04814   0.04186  -0.0367  0.0207  1.0000  -4.5792   0.0000   0.0000   0.0000   0.2700
  10.300   1.1759   0.04962   0.04348  -0.0354  0.0210  1.0000  -4.5699   0.0000   0.0000   0.0000   0.2689
  10.400   1.1722   0.05111   0.04510  -0.0340  0.0212  1.0000  -4.5587   0.0000   0.0000   0.0000   0.2677
  10.500   1.1678   0.05259   0.04671  -0.0327  0.0214  1.0000  -4.5458   0.0000   0.0000   0.0000   0.2666
  10.600   1.1627   0.05410   0.04833  -0.0315  0.0217  1.0000  -4.5312   0.0000   0.0000   0.0000   0.2656
  10.700   1.1571   0.05563   0.04998  -0.0304  0.0219  1.0000  -4.5150   0.0000   0.0000   0.0000   0.2646
  10.800   1.1509   0.05718   0.05164  -0.0294  0.0220  1.0000  -4.4974   0.0000   0.0000   0.0000   0.2637
  10.900   1.1443   0.05876   0.05333  -0.0284  0.0222  1.0000  -4.4784   0.0000   0.0000   0.0000   0.2629
  11.000   1.1373   0.06039   0.05507  -0.0277  0.0224  1.0000  -4.4579   0.0000   0.0000   0.0000   0.2623
  11.100   1.1300   0.06209   0.05687  -0.0271  0.0225  1.0000  -4.4361   0.0000   0.0000   0.0000   0.2618
  11.200   1.1225   0.06385   0.05872  -0.0266  0.0226  1.0000  -4.4128   0.0000   0.0000   0.0000   0.2614
  11.300   1.1148   0.06567   0.06064  -0.0264  0.0227  1.0000  -4.3882   0.0000   0.0000   0.0000   0.2612
  11.400   1.1068   0.06755   0.06261  -0.0263  0.0228  1.0000  -4.3624   0.0000   0.0000   0.0000   0.2611
  11.500   1.0986   0.06949   0.06464  -0.0263  0.0229  1.0000  -4.3353   0.0000   0.0000   0.0000   0.2612
  11.600   1.0902   0.07145   0.06669  -0.0266  0.0230  1.0000  -4.3076   0.0000   0.0000   0.0000   0.2614
  11.700   1.0817   0.07350   0.06882  -0.0269  0.0231  1.0000  -4.2783   0.0000   0.0000   0.0000   0.2618
  11.800   1.0732   0.07565   0.07105  -0.0276  0.0232  1.0000  -4.2478   0.0000   0.0000   0.0000   0.2625
  11.900   1.0647   0.07791   0.07339  -0.0283  0.0232  1.0000  -4.2156   0.0000   0.0000   0.0000   0.2633
  12.000   1.0562   0.08027   0.07583  -0.0294  0.0233  1.0000  -4.1821   0.0000   0.0000   0.0000   0.2643
  12.100   1.0477   0.08274   0.07837  -0.0305  0.0233  1.0000  -4.1468   0.0000   0.0000   0.0000   0.2655
  12.200   1.0393   0.08531   0.08101  -0.0319  0.0233  1.0000  -4.1100   0.0000   0.0000   0.0000   0.2669
  12.300   1.0309   0.08799   0.08375  -0.0335  0.0234  1.0000  -4.0711   0.0000   0.0000   0.0000   0.2685
  12.400   1.0225   0.09077   0.08660  -0.0353  0.0234  1.0000  -4.0302   0.0000   0.0000   0.0000   0.2704
  12.500   1.0142   0.09367   0.08957  -0.0372  0.0234  1.0000  -3.9867   0.0000   0.0000   0.0000   0.2724
  12.600   1.0060   0.09669   0.09265  -0.0393  0.0234  1.0000  -3.9402   0.0000   0.0000   0.0000   0.2747
  12.700   0.9977   0.09985   0.09587  -0.0415  0.0234  1.0000  -3.8902   0.0000   0.0000   0.0000   0.2772
  12.800   0.9896   0.10315   0.09922  -0.0439  0.0234  1.0000  -3.8357   0.0000   0.0000   0.0000   0.2798
  12.900   0.9814   0.10664   0.10276  -0.0465  0.0233  1.0000  -3.7759   0.0000   0.0000   0.0000   0.2827
  13.000   0.9732   0.11030   0.10647  -0.0492  0.0233  1.0000  -3.7095   0.0000   0.0000   0.0000   0.2858
  13.100   0.9650   0.11417   0.11038  -0.0521  0.0233  1.0000  -3.6353   0.0000   0.0000   0.0000   0.2891
  13.200   0.9568   0.11829   0.11454  -0.0550  0.0233  1.0000  -3.5512   0.0000   0.0000   0.0000   0.2927
  13.300   0.9486   0.12259   0.11887  -0.0580  0.0234  1.0000  -3.4572   0.0000   0.0000   0.0000   0.2963
  13.400   0.9406   0.12702   0.12332  -0.0609  0.0234  1.0000  -3.3537   0.0000   0.0000   0.0000   0.2999
  13.500   0.9329   0.13137   0.12768  -0.0636  0.0236  1.0000  -3.2433   0.0000   0.0000   0.0000   0.3033
  13.600   0.9251   0.13563   0.13194  -0.0660  0.0239  1.0000  -3.1252   0.0000   0.0000   0.0000   0.3065
  13.900   0.9140   0.15133   0.14768  -0.0738  0.0297  1.0000  -2.5960   0.0000   0.0000   0.0000   0.3163
  14.000   0.9045   0.15744   0.15376  -0.0771  0.0323  1.0000  -2.3749   0.0000   0.0000   0.0000   0.3209
  14.100   0.9011   0.16112   0.15742  -0.0787  0.0347  1.0000  -2.2779   0.0000   0.0000   0.0000   0.3231
  14.200   0.8998   0.16390   0.16020  -0.0797  0.0371  1.0000  -2.2303   0.0000   0.0000   0.0000   0.3242
  14.400   0.8901   0.17513   0.17142  -0.0854  0.0527  1.0000  -1.8568   0.0000   0.0000   0.0000   0.3319
  14.500   0.8906   0.17739   0.17368  -0.0865  0.0529  1.0000  -1.8361   0.0000   0.0000   0.0000   0.3329
  14.600   0.8912   0.17958   0.17587  -0.0876  0.0530  1.0000  -1.8186   0.0000   0.0000   0.0000   0.3339
  14.700   0.8919   0.18172   0.17800  -0.0886  0.0529  1.0000  -1.8032   0.0000   0.0000   0.0000   0.3349
  14.800   0.8927   0.18382   0.18010  -0.0896  0.0526  1.0000  -1.7896   0.0000   0.0000   0.0000   0.3359
  14.900   0.8936   0.18588   0.18216  -0.0906  0.0523  1.0000  -1.7773   0.0000   0.0000   0.0000   0.3368
  15.000   0.8946   0.18792   0.18419  -0.0916  0.0520  1.0000  -1.7663   0.0000   0.0000   0.0000   0.3377
  15.100   0.8956   0.18994   0.18621  -0.0925  0.0516  1.0000  -1.7568   0.0000   0.0000   0.0000   0.3385
  15.200   0.8968   0.19195   0.18822  -0.0934  0.0512  1.0000  -1.7486   0.0000   0.0000   0.0000   0.3393
  15.300   0.8981   0.19394   0.19021  -0.0943  0.0508  1.0000  -1.7416   0.0000   0.0000   0.0000   0.3400
  15.400   0.8995   0.19592   0.19219  -0.0952  0.0503  1.0000  -1.7359   0.0000   0.0000   0.0000   0.3407
  15.500   0.9010   0.19789   0.19416  -0.0961  0.0499  1.0000  -1.7314   0.0000   0.0000   0.0000   0.3413
  15.600   0.9026   0.19985   0.19611  -0.0969  0.0495  1.0000  -1.7282   0.0000   0.0000   0.0000   0.3419
  15.700   0.9043   0.20179   0.19806  -0.0977  0.0490  1.0000  -1.7262   0.0000   0.0000   0.0000   0.3425
  15.800   0.9060   0.20372   0.19999  -0.0984  0.0486  1.0000  -1.7255   0.0000   0.0000   0.0000   0.3430
  15.900   0.9079   0.20564   0.20191  -0.0992  0.0482  1.0000  -1.7263   0.0000   0.0000   0.0000   0.3435
  16.000   0.9098   0.20755   0.20382  -0.0999  0.0477  1.0000  -1.7286   0.0000   0.0000   0.0000   0.3439
  16.100   0.9119   0.20945   0.20571  -0.1005  0.0473  1.0000  -1.7326   0.0000   0.0000   0.0000   0.3442
  16.200   0.9141   0.21133   0.20760  -0.1012  0.0469  1.0000  -1.7385   0.0000   0.0000   0.0000   0.3445
  16.300   0.9164   0.21320   0.20947  -0.1018  0.0465  1.0000  -1.7464   0.0000   0.0000   0.0000   0.3447
  16.400   0.9189   0.21506   0.21134  -0.1023  0.0460  1.0000  -1.7567   0.0000   0.0000   0.0000   0.3448
  16.500   0.9216   0.21691   0.21319  -0.1027  0.0456  1.0000  -1.7698   0.0000   0.0000   0.0000   0.3449
  16.600   0.9245   0.21876   0.21505  -0.1031  0.0452  1.0000  -1.7863   0.0000   0.0000   0.0000   0.3448
  16.700   0.9278   0.22062   0.21692  -0.1034  0.0448  1.0000  -1.8067   0.0000   0.0000   0.0000   0.3445
  16.800   0.9314   0.22252   0.21882  -0.1036  0.0444  1.0000  -1.8313   0.0000   0.0000   0.0000   0.3441
  16.900   0.9350   0.22445   0.22076  -0.1037  0.0440  1.0000  -1.8582   0.0000   0.0000   0.0000   0.3436
  17.000   0.9383   0.22650   0.22282  -0.1037  0.0435  1.0000  -1.8850   0.0000   0.0000   0.0000   0.3432
  17.100   0.9419   0.22882   0.22515  -0.1037  0.0431  1.0000  -1.9149   0.0000   0.0000   0.0000   0.3425
  17.200   0.9421   0.23277   0.22911  -0.1039  0.0423  1.0000  -1.9125   0.0000   0.0000   0.0000   0.3426
  17.300   0.9352   0.24052   0.23680  -0.1055  0.0414  1.0000  -1.8022   0.0000   0.0000   0.0000   0.3451
  17.400   0.9366   0.24277   0.23905  -0.1064  0.0414  1.0000  -1.7921   0.0000   0.0000   0.0000   0.3458
  17.500   0.9379   0.24500   0.24128  -0.1073  0.0413  1.0000  -1.7822   0.0000   0.0000   0.0000   0.3465
  17.600   0.9393   0.24722   0.24350  -0.1082  0.0413  1.0000  -1.7723   0.0000   0.0000   0.0000   0.3472
  17.700   0.9406   0.24942   0.24570  -0.1090  0.0413  1.0000  -1.7626   0.0000   0.0000   0.0000   0.3478
  17.800   0.9419   0.25160   0.24788  -0.1099  0.0412  1.0000  -1.7529   0.0000   0.0000   0.0000   0.3485
  17.900   0.9431   0.25375   0.25004  -0.1108  0.0412  1.0000  -1.7434   0.0000   0.0000   0.0000   0.3491
  18.000   0.9443   0.25588   0.25217  -0.1117  0.0411  1.0000  -1.7339   0.0000   0.0000   0.0000   0.3498
  18.100   0.9455   0.25798   0.25427  -0.1126  0.0411  1.0000  -1.7245   0.0000   0.0000   0.0000   0.3505
  18.200   0.9467   0.26004   0.25634  -0.1135  0.0410  1.0000  -1.7150   0.0000   0.0000   0.0000   0.3511
  18.300   0.9478   0.26206   0.25835  -0.1144  0.0410  1.0000  -1.7056   0.0000   0.0000   0.0000   0.3518
  18.400   0.9489   0.26402   0.26032  -0.1153  0.0409  1.0000  -1.6961   0.0000   0.0000   0.0000   0.3525
  18.500   0.9500   0.26590   0.26221  -0.1162  0.0407  1.0000  -1.6863   0.0000   0.0000   0.0000   0.3532
  18.600   0.9510   0.26770   0.26401  -0.1172  0.0406  1.0000  -1.6761   0.0000   0.0000   0.0000   0.3539
  18.700   0.9512   0.26937   0.26568  -0.1183  0.0404  1.0000  -1.6591   0.0000   0.0000   0.0000   0.3550
  18.800   0.9508   0.27092   0.26722  -0.1196  0.0401  1.0000  -1.6364   0.0000   0.0000   0.0000   0.3562
  18.900   0.9499   0.27241   0.26871  -0.1210  0.0397  1.0000  -1.6083   0.0000   0.0000   0.0000   0.3577
  19.000   0.9494   0.27400   0.27031  -0.1224  0.0392  1.0000  -1.5799   0.0000   0.0000   0.0000   0.3592
  19.100   0.9494   0.27582   0.27213  -0.1237  0.0386  1.0000  -1.5550   0.0000   0.0000   0.0000   0.3604
  19.200   0.9498   0.27784   0.27415  -0.1248  0.0379  1.0000  -1.5356   0.0000   0.0000   0.0000   0.3614
  19.300   0.9504   0.27995   0.27627  -0.1258  0.0373  1.0000  -1.5208   0.0000   0.0000   0.0000   0.3622
  19.400   0.9510   0.28211   0.27843  -0.1266  0.0367  1.0000  -1.5090   0.0000   0.0000   0.0000   0.3629
  19.500   0.9516   0.28428   0.28061  -0.1274  0.0361  1.0000  -1.4993   0.0000   0.0000   0.0000   0.3635
  19.600   0.9521   0.28645   0.28278  -0.1281  0.0355  1.0000  -1.4910   0.0000   0.0000   0.0000   0.3640
  19.700   0.9525   0.28861   0.28495  -0.1288  0.0350  1.0000  -1.4837   0.0000   0.0000   0.0000   0.3645
  19.800   0.9529   0.29076   0.28711  -0.1294  0.0345  1.0000  -1.4771   0.0000   0.0000   0.0000   0.3650
  19.900   0.9531   0.29288   0.28924  -0.1300  0.0340  1.0000  -1.4711   0.0000   0.0000   0.0000   0.3655
  20.000   0.9533   0.29499   0.29136  -0.1306  0.0336  1.0000  -1.4655   0.0000   0.0000   0.0000   0.3660
  20.100   0.9533   0.29707   0.29344  -0.1312  0.0331  1.0000  -1.4602   0.0000   0.0000   0.0000   0.3664
  20.200   0.9531   0.29911   0.29550  -0.1317  0.0327  1.0000  -1.4551   0.0000   0.0000   0.0000   0.3669
  20.300   0.9528   0.30112   0.29752  -0.1322  0.0323  1.0000  -1.4501   0.0000   0.0000   0.0000   0.3673
  20.400   0.9522   0.30308   0.29949  -0.1326  0.0319  1.0000  -1.4452   0.0000   0.0000   0.0000   0.3677
  20.500   0.9514   0.30499   0.30141  -0.1331  0.0315  1.0000  -1.4402   0.0000   0.0000   0.0000   0.3682
  20.600   0.9503   0.30683   0.30326  -0.1334  0.0312  1.0000  -1.4349   0.0000   0.0000   0.0000   0.3686
  20.700   0.9488   0.30857   0.30503  -0.1337  0.0308  1.0000  -1.4293   0.0000   0.0000   0.0000   0.3690
  20.800   0.9469   0.31021   0.30668  -0.1340  0.0305  1.0000  -1.4230   0.0000   0.0000   0.0000   0.3695
  20.900   0.9442   0.31168   0.30817  -0.1341  0.0302  1.0000  -1.4155   0.0000   0.0000   0.0000   0.3700
  21.000   0.9120   0.30686   0.30345  -0.1309  0.0302  1.0000  -1.3344   0.0000   0.0000   0.0000   0.3718
  21.100   0.9004   0.30549   0.30211  -0.1299  0.0300  1.0000  -1.3050   0.0000   0.0000   0.0000   0.3727
  21.200   0.8933   0.30501   0.30167  -0.1295  0.0298  1.0000  -1.2872   0.0000   0.0000   0.0000   0.3734
  21.300   0.8879   0.30484   0.30153  -0.1293  0.0295  1.0000  -1.2739   0.0000   0.0000   0.0000   0.3739
  21.400   0.8834   0.30483   0.30153  -0.1291  0.0292  1.0000  -1.2635   0.0000   0.0000   0.0000   0.3744
  21.500   0.8796   0.30491   0.30164  -0.1290  0.0289  1.0000  -1.2553   0.0000   0.0000   0.0000   0.3749
  21.600   0.8763   0.30506   0.30181  -0.1290  0.0287  1.0000  -1.2488   0.0000   0.0000   0.0000   0.3753
  21.700   0.8733   0.30525   0.30201  -0.1289  0.0284  1.0000  -1.2439   0.0000   0.0000   0.0000   0.3757
  21.800   0.8706   0.30548   0.30233  -0.1289  0.0281  1.0000  -1.2371   0.0000   0.0000   0.0000   0.3761
  21.900   0.8683   0.30573   0.30261  -0.1290  0.0279  1.0000  -1.2343   0.0000   0.0000   0.0000   0.3764
  22.000   0.8661   0.30602   0.30290  -0.1290  0.0276  1.0000  -1.2334   0.0000   0.0000   0.0000   0.3767
  22.100   0.8642   0.30632   0.30322  -0.1290  0.0274  1.0000  -1.2342   0.0000   0.0000   0.0000   0.3770
  22.200   0.8625   0.30664   0.30356  -0.1290  0.0271  1.0000  -1.2366   0.0000   0.0000   0.0000   0.3772
  22.300   0.8611   0.30699   0.30393  -0.1290  0.0269  1.0000  -1.2408   0.0000   0.0000   0.0000   0.3773
  22.400   0.8598   0.30737   0.30433  -0.1290  0.0266  1.0000  -1.2470   0.0000   0.0000   0.0000   0.3774
  22.500   0.8587   0.30780   0.30477  -0.1289  0.0264  1.0000  -1.2552   0.0000   0.0000   0.0000   0.3774
  22.600   0.8579   0.30831   0.30530  -0.1288  0.0261  1.0000  -1.2658   0.0000   0.0000   0.0000   0.3773
  22.700   0.8575   0.30896   0.30596  -0.1287  0.0259  1.0000  -1.2792   0.0000   0.0000   0.0000   0.3771
  22.800   0.8576   0.30988   0.30691  -0.1284  0.0256  1.0000  -1.2962   0.0000   0.0000   0.0000   0.3766
  22.900   0.8588   0.31158   0.30862  -0.1280  0.0253  1.0000  -1.3193   0.0000   0.0000   0.0000   0.3758
  23.000   0.8553   0.31735   0.31437  -0.1275  0.0245  1.0000  -1.2566   0.0000   0.0000   0.0000   0.3759
  23.100   0.8539   0.31783   0.31486  -0.1278  0.0245  1.0000  -1.2455   0.0000   0.0000   0.0000   0.3765
  23.200   0.8525   0.31831   0.31535  -0.1282  0.0245  1.0000  -1.2346   0.0000   0.0000   0.0000   0.3770
  23.300   0.8512   0.31880   0.31585  -0.1285  0.0245  1.0000  -1.2240   0.0000   0.0000   0.0000   0.3775
  23.400   0.8500   0.31929   0.31635  -0.1288  0.0245  1.0000  -1.2136   0.0000   0.0000   0.0000   0.3780
  23.500   0.8488   0.31977   0.31685  -0.1292  0.0245  1.0000  -1.2034   0.0000   0.0000   0.0000   0.3786
  23.600   0.8476   0.32024   0.31733  -0.1296  0.0245  1.0000  -1.1932   0.0000   0.0000   0.0000   0.3791
  23.700   0.8465   0.32071   0.31782  -0.1299  0.0244  1.0000  -1.1832   0.0000   0.0000   0.0000   0.3796
  23.800   0.8455   0.32119   0.31830  -0.1303  0.0244  1.0000  -1.1735   0.0000   0.0000   0.0000   0.3801
  23.900   0.8444   0.32166   0.31879  -0.1307  0.0244  1.0000  -1.1639   0.0000   0.0000   0.0000   0.3806
  24.000   0.8435   0.32214   0.31927  -0.1310  0.0244  1.0000  -1.1546   0.0000   0.0000   0.0000   0.3811
  24.100   0.8425   0.32261   0.31976  -0.1314  0.0244  1.0000  -1.1454   0.0000   0.0000   0.0000   0.3816
  24.200   0.8416   0.32307   0.32023  -0.1318  0.0244  1.0000  -1.1360   0.0000   0.0000   0.0000   0.3821
  24.300   0.8407   0.32351   0.32069  -0.1322  0.0243  1.0000  -1.1268   0.0000   0.0000   0.0000   0.3826
  24.400   0.8398   0.32396   0.32115  -0.1326  0.0243  1.0000  -1.1178   0.0000   0.0000   0.0000   0.3831
  24.500   0.8390   0.32441   0.32161  -0.1330  0.0243  1.0000  -1.1089   0.0000   0.0000   0.0000   0.3836
  24.600   0.8382   0.32486   0.32207  -0.1334  0.0243  1.0000  -1.1002   0.0000   0.0000   0.0000   0.3841
  24.700   0.8374   0.32528   0.32250  -0.1338  0.0243  1.0000  -1.0910   0.0000   0.0000   0.0000   0.3847
  24.800   0.8365   0.32569   0.32292  -0.1343  0.0242  1.0000  -1.0815   0.0000   0.0000   0.0000   0.3852
  24.900   0.8355   0.32602   0.32326  -0.1347  0.0242  1.0000  -1.0704   0.0000   0.0000   0.0000   0.3858
  25.000   0.8345   0.32637   0.32362  -0.1352  0.0242  1.0000  -1.0594   0.0000   0.0000   0.0000   0.3864
  25.100   0.8335   0.32672   0.32398  -0.1357  0.0241  1.0000  -1.0486   0.0000   0.0000   0.0000   0.3870
  25.200   0.8327   0.32708   0.32435  -0.1362  0.0241  1.0000  -1.0380   0.0000   0.0000   0.0000   0.3876
  25.300   0.8319   0.32745   0.32473  -0.1366  0.0241  1.0000  -1.0275   0.0000   0.0000   0.0000   0.3882
  25.400   0.8311   0.32783   0.32512  -0.1371  0.0240  1.0000  -1.0171   0.0000   0.0000   0.0000   0.3888
  25.500   0.8304   0.32822   0.32552  -0.1377  0.0240  1.0000  -1.0068   0.0000   0.0000   0.0000   0.3894
  25.600   0.8297   0.32863   0.32594  -0.1382  0.0239  1.0000  -0.9966   0.0000   0.0000   0.0000   0.3900
  25.700   0.8292   0.32905   0.32637  -0.1387  0.0239  1.0000  -0.9864   0.0000   0.0000   0.0000   0.3906
  25.800   0.8287   0.32949   0.32682  -0.1392  0.0238  1.0000  -0.9763   0.0000   0.0000   0.0000   0.3912
  25.900   0.8282   0.32995   0.32729  -0.1398  0.0237  1.0000  -0.9661   0.0000   0.0000   0.0000   0.3918
  26.000   0.8279   0.33043   0.32778  -0.1403  0.0236  1.0000  -0.9559   0.0000   0.0000   0.0000   0.3924
  26.100   0.8276   0.33095   0.32832  -0.1409  0.0235  1.0000  -0.9458   0.0000   0.0000   0.0000   0.3929
  26.200   0.8275   0.33151   0.32889  -0.1415  0.0234  1.0000  -0.9356   0.0000   0.0000   0.0000   0.3935
  26.300   0.8274   0.33212   0.32950  -0.1421  0.0232  1.0000  -0.9255   0.0000   0.0000   0.0000   0.3941
  26.400   0.8274   0.33277   0.33016  -0.1427  0.0231  1.0000  -0.9156   0.0000   0.0000   0.0000   0.3946
  26.500   0.8275   0.33346   0.33086  -0.1432  0.0229  1.0000  -0.9060   0.0000   0.0000   0.0000   0.3951
  26.600   0.8277   0.33418   0.33159  -0.1438  0.0227  1.0000  -0.8970   0.0000   0.0000   0.0000   0.3956
  26.700   0.8278   0.33492   0.33234  -0.1443  0.0225  1.0000  -0.8887   0.0000   0.0000   0.0000   0.3960
  26.800   0.8280   0.33566   0.33309  -0.1448  0.0222  1.0000  -0.8812   0.0000   0.0000   0.0000   0.3964
  26.900   0.8281   0.33641   0.33385  -0.1453  0.0220  1.0000  -0.8743   0.0000   0.0000   0.0000   0.3968
  27.000   0.8282   0.33715   0.33460  -0.1458  0.0218  1.0000  -0.8681   0.0000   0.0000   0.0000   0.3972
  27.100   0.8283   0.33788   0.33534  -0.1462  0.0215  1.0000  -0.8624   0.0000   0.0000   0.0000   0.3975
  27.200   0.8283   0.33861   0.33608  -0.1467  0.0213  1.0000  -0.8572   0.0000   0.0000   0.0000   0.3978
  27.300   0.8284   0.33933   0.33681  -0.1471  0.0211  1.0000  -0.8523   0.0000   0.0000   0.0000   0.3982
  27.400   0.8284   0.34005   0.33754  -0.1476  0.0209  1.0000  -0.8478   0.0000   0.0000   0.0000   0.3985
  27.500   0.8284   0.34076   0.33826  -0.1480  0.0206  1.0000  -0.8435   0.0000   0.0000   0.0000   0.3988
  27.600   0.8285   0.34147   0.33898  -0.1484  0.0204  1.0000  -0.8395   0.0000   0.0000   0.0000   0.3991
  27.700   0.8285   0.34217   0.33970  -0.1488  0.0202  1.0000  -0.8357   0.0000   0.0000   0.0000   0.3994
  27.800   0.8285   0.34288   0.34041  -0.1492  0.0200  1.0000  -0.8321   0.0000   0.0000   0.0000   0.3997
  27.900   0.8285   0.34358   0.34112  -0.1496  0.0198  1.0000  -0.8287   0.0000   0.0000   0.0000   0.4000
  28.000   0.8285   0.34428   0.34183  -0.1501  0.0196  1.0000  -0.8254   0.0000   0.0000   0.0000   0.4003
  28.100   0.8285   0.34497   0.34254  -0.1505  0.0194  1.0000  -0.8223   0.0000   0.0000   0.0000   0.4006
  28.200   0.8285   0.34567   0.34325  -0.1509  0.0193  1.0000  -0.8193   0.0000   0.0000   0.0000   0.4009
  28.300   0.8285   0.34636   0.34395  -0.1513  0.0191  1.0000  -0.8165   0.0000   0.0000   0.0000   0.4012
  28.400   0.8285   0.34706   0.34472  -0.1517  0.0189  1.0000  -0.8141   0.0000   0.0000   0.0000   0.4015
  28.500   0.8285   0.34775   0.34543  -0.1521  0.0187  1.0000  -0.8117   0.0000   0.0000   0.0000   0.4018
  28.600   0.8285   0.34844   0.34613  -0.1525  0.0185  1.0000  -0.8092   0.0000   0.0000   0.0000   0.4021
  28.700   0.8285   0.34913   0.34683  -0.1529  0.0184  1.0000  -0.8069   0.0000   0.0000   0.0000   0.4024
  28.800   0.8285   0.34982   0.34753  -0.1533  0.0182  1.0000  -0.8047   0.0000   0.0000   0.0000   0.4026
  28.900   0.8285   0.35051   0.34822  -0.1537  0.0180  1.0000  -0.8025   0.0000   0.0000   0.0000   0.4029
  29.000   0.8285   0.35120   0.34892  -0.1541  0.0179  1.0000  -0.8005   0.0000   0.0000   0.0000   0.4032
  29.100   0.8285   0.35188   0.34962  -0.1546  0.0177  1.0000  -0.7986   0.0000   0.0000   0.0000   0.4035
  29.200   0.8285   0.35257   0.35031  -0.1550  0.0176  1.0000  -0.7968   0.0000   0.0000   0.0000   0.4037
  29.300   0.8285   0.35325   0.35101  -0.1554  0.0174  1.0000  -0.7951   0.0000   0.0000   0.0000   0.4040
  29.400   0.8285   0.35394   0.35171  -0.1558  0.0172  1.0000  -0.7936   0.0000   0.0000   0.0000   0.4043
  29.500   0.8285   0.35462   0.35240  -0.1562  0.0171  1.0000  -0.8002   0.0000   0.0000   0.0000   0.4046
  29.600   0.8285   0.35530   0.35309  -0.1566  0.0169  1.0000  -0.8089   0.0000   0.0000   0.0000   0.4048
  29.700   0.8285   0.35596   0.35376  -0.1570  0.0166  1.0000  -0.8188   0.0000   0.0000   0.0000   0.4051
  29.800   0.8286   0.35659   0.35439  -0.1574  0.0162  1.0000  -0.8303   0.0000   0.0000   0.0000   0.4053
  29.900   0.8286   0.35716   0.35498  -0.1578  0.0156  1.0000  -0.8440   0.0000   0.0000   0.0000   0.4055
  30.000   0.8286   0.35769   0.35551  -0.1582  0.0151  1.0000  -0.8600   0.0000   0.0000   0.0000   0.4057


