xflr5 v6.61

 Calculated polar for: E387

 1 1 Reynolds number fixed          Mach number fixed         

 xtrf =   1.000 (top)        1.000 (bottom)
 Mach =   0.000     Re =     0.500 e 6     Ncrit =   9.000

  alpha     CL        CD       CDp       Cm    Top Xtr Bot Xtr   Cpmin    Chinge    XCp    
 ------- -------- --------- --------- -------- ------- ------- -------- --------- ---------
 -10.000  -0.3676   0.11157   0.10916  -0.0194  1.0000  0.0086  -1.8864   0.0000   0.0000   0.0000   0.1908
  -9.900  -0.3649   0.11038   0.10797  -0.0198  1.0000  0.0087  -1.8676   0.0000   0.0000   0.0000   0.1893
  -9.800  -0.3622   0.10920   0.10679  -0.0203  1.0000  0.0088  -1.8501   0.0000   0.0000   0.0000   0.1878
  -9.700  -0.3596   0.10801   0.10561  -0.0207  1.0000  0.0089  -1.8338   0.0000   0.0000   0.0000   0.1862
  -9.600  -0.3570   0.10683   0.10443  -0.0212  1.0000  0.0090  -1.8189   0.0000   0.0000   0.0000   0.1845
  -9.500  -0.3545   0.10564   0.10325  -0.0216  1.0000  0.0091  -1.8051   0.0000   0.0000   0.0000   0.1829
  -9.400  -0.3520   0.10445   0.10208  -0.0221  1.0000  0.0092  -1.7925   0.0000   0.0000   0.0000   0.1812
  -9.300  -0.3495   0.10327   0.10090  -0.0226  1.0000  0.0093  -1.7811   0.0000   0.0000   0.0000   0.1794
  -9.200  -0.3472   0.10208   0.09972  -0.0231  1.0000  0.0094  -1.7707   0.0000   0.0000   0.0000   0.1777
  -9.100  -0.3448   0.10089   0.09854  -0.0235  1.0000  0.0095  -1.7613   0.0000   0.0000   0.0000   0.1759
  -9.000  -0.3426   0.09971   0.09736  -0.0240  1.0000  0.0097  -1.7530   0.0000   0.0000   0.0000   0.1741
  -8.900  -0.3404   0.09853   0.09619  -0.0245  1.0000  0.0098  -1.7457   0.0000   0.0000   0.0000   0.1723
  -8.800  -0.3383   0.09735   0.09502  -0.0250  1.0000  0.0099  -1.7394   0.0000   0.0000   0.0000   0.1704
  -8.700  -0.3363   0.09618   0.09386  -0.0255  1.0000  0.0100  -1.7340   0.0000   0.0000   0.0000   0.1686
  -8.600  -0.3343   0.09500   0.09268  -0.0260  1.0000  0.0101  -1.7293   0.0000   0.0000   0.0000   0.1667
  -8.500  -0.3322   0.09380   0.09150  -0.0265  1.0000  0.0103  -1.7252   0.0000   0.0000   0.0000   0.1647
  -8.400  -0.3302   0.09260   0.09031  -0.0270  1.0000  0.0104  -1.7219   0.0000   0.0000   0.0000   0.1627
  -8.300  -0.3282   0.09140   0.08912  -0.0276  1.0000  0.0105  -1.7194   0.0000   0.0000   0.0000   0.1607
  -8.200  -0.3263   0.09020   0.08793  -0.0281  1.0000  0.0107  -1.7179   0.0000   0.0000   0.0000   0.1586
  -8.100  -0.3245   0.08900   0.08674  -0.0286  1.0000  0.0108  -1.7172   0.0000   0.0000   0.0000   0.1566
  -8.000  -0.3228   0.08780   0.08556  -0.0291  1.0000  0.0110  -1.7173   0.0000   0.0000   0.0000   0.1546
  -7.900  -0.3213   0.08661   0.08438  -0.0297  1.0000  0.0111  -1.7183   0.0000   0.0000   0.0000   0.1526
  -7.800  -0.3199   0.08543   0.08321  -0.0302  1.0000  0.0112  -1.7202   0.0000   0.0000   0.0000   0.1507
  -7.700  -0.3186   0.08426   0.08205  -0.0306  1.0000  0.0114  -1.7229   0.0000   0.0000   0.0000   0.1489
  -7.600  -0.3175   0.08308   0.08089  -0.0311  1.0000  0.0115  -1.7264   0.0000   0.0000   0.0000   0.1472
  -7.500  -0.3167   0.08192   0.07975  -0.0316  1.0000  0.0117  -1.7309   0.0000   0.0000   0.0000   0.1456
  -7.400  -0.3162   0.08079   0.07864  -0.0319  1.0000  0.0118  -1.7366   0.0000   0.0000   0.0000   0.1444
  -7.300  -0.3163   0.07970   0.07756  -0.0322  1.0000  0.0119  -1.7435   0.0000   0.0000   0.0000   0.1436
  -7.200  -0.3171   0.07865   0.07654  -0.0324  1.0000  0.0120  -1.7519   0.0000   0.0000   0.0000   0.1435
  -7.100  -0.3165   0.07747   0.07538  -0.0330  0.9976  0.0122  -1.7596   0.0000   0.0000   0.0000   0.1415
  -7.000  -0.3065   0.07539   0.07330  -0.0366  0.9860  0.0125  -1.7609   0.0000   0.0000   0.0000   0.1263
  -6.900  -0.2952   0.07318   0.07108  -0.0406  0.9747  0.0128  -1.7638   0.0000   0.0000   0.0000   0.1079
  -6.800  -0.2832   0.07089   0.06878  -0.0450  0.9628  0.0132  -1.7690   0.0000   0.0000   0.0000   0.0866
  -6.700  -0.2700   0.06847   0.06633  -0.0497  0.9508  0.0135  -1.7764   0.0000   0.0000   0.0000   0.0611
  -6.600  -0.2594   0.06627   0.06409  -0.0536  0.9348  0.0139  -1.7879   0.0000   0.0000   0.0000   0.0385
  -6.500  -0.2507   0.06424   0.06201  -0.0568  0.9188  0.0142  -1.8022   0.0000   0.0000   0.0000   0.0186
  -6.400  -0.2446   0.06245   0.06016  -0.0591  0.9019  0.0145  -1.8188   0.0000   0.0000   0.0000   0.0035
  -6.300  -0.2391   0.06071   0.05836  -0.0611  0.8879  0.0148  -1.8371   0.0000   0.0000   0.0000  -0.0104
  -6.200  -0.2336   0.05897   0.05656  -0.0630  0.8747  0.0151  -1.8568   0.0000   0.0000   0.0000  -0.0247
  -6.000  -0.2209   0.05544   0.05289  -0.0668  0.8539  0.0158  -1.8974   0.0000   0.0000   0.0000  -0.0572
  -5.900  -0.2133   0.05363   0.05102  -0.0687  0.8451  0.0162  -1.9188   0.0000   0.0000   0.0000  -0.0769
  -5.800  -0.2051   0.05203   0.04934  -0.0702  0.8364  0.0167  -1.9304   0.0000   0.0000   0.0000  -0.0974
  -5.700  -0.1959   0.05071   0.04794  -0.0714  0.8281  0.0173  -1.9285   0.0000   0.0000   0.0000  -0.1195
  -5.600  -0.1856   0.04967   0.04682  -0.0724  0.8205  0.0178  -1.9118   0.0000   0.0000   0.0000  -0.1454
  -5.500  -0.1757   0.04838   0.04546  -0.0735  0.8153  0.0181  -1.9045   0.0000   0.0000   0.0000  -0.1740
  -5.200  -0.1572   0.04120   0.03787  -0.0778  0.7978  0.0172  -2.0403   0.0000   0.0000   0.0000  -0.2508
  -5.100  -0.1433   0.04145   0.03804  -0.0776  0.7916  0.0183  -1.9650   0.0000   0.0000   0.0000  -0.2983
  -5.000  -0.1323   0.04076   0.03722  -0.0781  0.7851  0.0186  -1.9403   0.0000   0.0000   0.0000  -0.3474
  -4.900  -0.1228   0.03954   0.03587  -0.0787  0.7793  0.0187  -1.9387   0.0000   0.0000   0.0000  -0.3988
  -4.800  -0.1184   0.03465   0.03074  -0.0808  0.7768  0.0192  -2.1406   0.0000   0.0000   0.0000  -0.4409
  -4.700  -0.1154   0.03016   0.02603  -0.0826  0.7739  0.0208  -2.2584   0.0000   0.0000   0.0000  -0.4739
  -4.600  -0.1071   0.02949   0.02534  -0.0829  0.7700  0.0220  -2.1554   0.0000   0.0000   0.0000  -0.5325
  -4.500  -0.0984   0.02946   0.02535  -0.0830  0.7656  0.0232  -2.0181   0.0000   0.0000   0.0000  -0.6028
  -4.400  -0.0891   0.02924   0.02511  -0.0831  0.7612  0.0248  -1.9109   0.0000   0.0000   0.0000  -0.6919
  -4.300  -0.0794   0.02880   0.02461  -0.0832  0.7568  0.0267  -1.8318   0.0000   0.0000   0.0000  -0.8080
  -4.200  -0.0691   0.02826   0.02398  -0.0833  0.7524  0.0292  -1.7732   0.0000   0.0000   0.0000  -0.9663
  -4.100  -0.0573   0.02833   0.02397  -0.0830  0.7476  0.0326  -1.7079   0.0000   0.0000   0.0000  -1.2131
  -3.800  -0.0263   0.02451   0.01955  -0.0836  0.7345  0.0380  -1.7066   0.0000   0.0000   0.0000  -2.9568
  -3.700  -0.0178   0.02304   0.01808  -0.0841  0.7326  0.0405  -1.6500   0.0000   0.0000   0.0000  -4.5066
  -3.600  -0.0081   0.02268   0.01777  -0.0842  0.7300  0.0426  -1.5573   0.0000   0.0000   0.0000  -10.2209
  -3.500   0.0020   0.02239   0.01749  -0.0843  0.7271  0.0453  -1.4760   0.0000   0.0000   0.0000  42.1826
  -3.400   0.0127   0.02209   0.01716  -0.0843  0.7239  0.0488  -1.4105   0.0000   0.0000   0.0000   6.9408
  -3.300   0.0240   0.02182   0.01682  -0.0841  0.7205  0.0522  -1.3601   0.0000   0.0000   0.0000   3.7809
  -3.200   0.0357   0.02170   0.01663  -0.0839  0.7170  0.0547  -1.3130   0.0000   0.0000   0.0000   2.6153
  -3.100   0.0478   0.02196   0.01685  -0.0836  0.7134  0.0566  -1.2564   0.0000   0.0000   0.0000   2.0105
  -3.000   0.0599   0.02243   0.01725  -0.0832  0.7098  0.0576  -1.1963   0.0000   0.0000   0.0000   1.6476
  -2.500   0.1165   0.01298   0.00654  -0.0821  0.6928  0.0277  -1.4686   0.0000   0.0000   0.0000   0.9593
  -2.400   0.1288   0.01213   0.00543  -0.0814  0.6890  0.0205  -1.5427   0.0000   0.0000   0.0000   0.8862
  -2.300   0.1407   0.01249   0.00584  -0.0814  0.6879  0.0191  -1.4427   0.0000   0.0000   0.0000   0.8317
  -2.200   0.1514   0.01130   0.00453  -0.0810  0.6867  0.0173  -1.4877   0.0000   0.0000   0.0000   0.7881
  -2.100   0.1625   0.01075   0.00390  -0.0808  0.6852  0.0164  -1.4730   0.0000   0.0000   0.0000   0.7501
  -2.000   0.1737   0.01035   0.00344  -0.0806  0.6836  0.0157  -1.4441   0.0000   0.0000   0.0000   0.7168
  -1.900   0.1849   0.01005   0.00308  -0.0805  0.6818  0.0151  -1.4064   0.0000   0.0000   0.0000   0.6875
  -1.800   0.1962   0.00982   0.00278  -0.0804  0.6798  0.0147  -1.3618   0.0000   0.0000   0.0000   0.6617
  -1.700   0.2075   0.00964   0.00254  -0.0803  0.6777  0.0144  -1.3119   0.0000   0.0000   0.0000   0.6386
  -1.600   0.2189   0.00949   0.00234  -0.0802  0.6754  0.0141  -1.2580   0.0000   0.0000   0.0000   0.6179
  -1.500   0.2302   0.00939   0.00219  -0.0802  0.6730  0.0140  -1.2005   0.0000   0.0000   0.0000   0.5993
  -1.400   0.2416   0.00931   0.00206  -0.0801  0.6705  0.0139  -1.1402   0.0000   0.0000   0.0000   0.5825
  -1.300   0.2529   0.00925   0.00196  -0.0800  0.6680  0.0140  -1.0771   0.0000   0.0000   0.0000   0.5673
  -1.200   0.2641   0.00921   0.00186  -0.0800  0.6655  0.0141  -1.0110   0.0000   0.0000   0.0000   0.5534
  -1.100   0.2754   0.00918   0.00179  -0.0799  0.6628  0.0144  -0.9425   0.0000   0.0000   0.0000   0.5406
  -1.000   0.2866   0.00916   0.00172  -0.0799  0.6600  0.0149  -0.8715   0.0000   0.0000   0.0000   0.5289
  -0.900   0.2977   0.00915   0.00167  -0.0798  0.6569  0.0157  -0.7970   0.0000   0.0000   0.0000   0.5182
  -0.800   0.3089   0.00914   0.00164  -0.0797  0.6534  0.0171  -0.7167   0.0000   0.0000   0.0000   0.5082
  -0.700   0.3198   0.00891   0.00160  -0.0798  0.6494  0.0701  -0.6322   0.0000   0.0000   0.0000   0.4993
  -0.600   0.3286   0.00791   0.00174  -0.0801  0.6452  0.3822  -0.5985   0.0000   0.0000   0.0000   0.4936
  -0.500   0.3378   0.00748   0.00184  -0.0800  0.6412  0.5474  -0.6048   0.0000   0.0000   0.0000   0.4866
  -0.400   0.3439   0.00688   0.00192  -0.0790  0.6404  0.7486  -0.6099   0.0000   0.0000   0.0000   0.4792
  -0.300   0.3636   0.00634   0.00189  -0.0801  0.6393  1.0000  -0.6220   0.0000   0.0000   0.0000   0.4698
  -0.200   0.3747   0.00635   0.00188  -0.0801  0.6382  1.0000  -0.6293   0.0000   0.0000   0.0000   0.4632
  -0.100   0.3858   0.00637   0.00186  -0.0801  0.6369  1.0000  -0.6366   0.0000   0.0000   0.0000   0.4569
   0.000   0.3969   0.00638   0.00186  -0.0801  0.6354  1.0000  -0.6439   0.0000   0.0000   0.0000   0.4509
   0.100   0.4080   0.00640   0.00185  -0.0801  0.6339  1.0000  -0.6513   0.0000   0.0000   0.0000   0.4453
   0.200   0.4191   0.00641   0.00185  -0.0801  0.6322  1.0000  -0.6586   0.0000   0.0000   0.0000   0.4400
   0.300   0.4302   0.00643   0.00185  -0.0800  0.6304  1.0000  -0.6659   0.0000   0.0000   0.0000   0.4349
   0.400   0.4413   0.00645   0.00184  -0.0800  0.6285  1.0000  -0.6733   0.0000   0.0000   0.0000   0.4302
   0.500   0.4524   0.00648   0.00184  -0.0800  0.6266  1.0000  -0.6806   0.0000   0.0000   0.0000   0.4256
   0.600   0.4635   0.00650   0.00185  -0.0800  0.6245  1.0000  -0.6880   0.0000   0.0000   0.0000   0.4212
   0.700   0.4745   0.00653   0.00185  -0.0800  0.6224  1.0000  -0.6953   0.0000   0.0000   0.0000   0.4171
   0.800   0.4856   0.00655   0.00185  -0.0800  0.6202  1.0000  -0.7027   0.0000   0.0000   0.0000   0.4131
   0.900   0.4966   0.00659   0.00186  -0.0799  0.6179  1.0000  -0.7100   0.0000   0.0000   0.0000   0.4094
   1.000   0.5076   0.00662   0.00186  -0.0799  0.6156  1.0000  -0.7174   0.0000   0.0000   0.0000   0.4057
   1.100   0.5186   0.00666   0.00187  -0.0799  0.6132  1.0000  -0.7247   0.0000   0.0000   0.0000   0.4023
   1.200   0.5296   0.00670   0.00188  -0.0798  0.6106  1.0000  -0.7320   0.0000   0.0000   0.0000   0.3989
   1.300   0.5405   0.00675   0.00190  -0.0798  0.6079  1.0000  -0.7401   0.0000   0.0000   0.0000   0.3957
   1.400   0.5515   0.00680   0.00193  -0.0798  0.6046  1.0000  -0.7484   0.0000   0.0000   0.0000   0.3927
   1.500   0.5625   0.00687   0.00196  -0.0798  0.6008  1.0000  -0.7565   0.0000   0.0000   0.0000   0.3898
   1.600   0.5735   0.00696   0.00202  -0.0798  0.5965  1.0000  -0.7647   0.0000   0.0000   0.0000   0.3870
   1.700   0.5846   0.00706   0.00210  -0.0798  0.5925  1.0000  -0.7731   0.0000   0.0000   0.0000   0.3843
   1.800   0.5957   0.00706   0.00211  -0.0798  0.5918  1.0000  -0.7826   0.0000   0.0000   0.0000   0.3817
   1.900   0.6068   0.00707   0.00211  -0.0798  0.5908  1.0000  -0.7922   0.0000   0.0000   0.0000   0.3791
   2.000   0.6180   0.00708   0.00213  -0.0798  0.5897  1.0000  -0.8017   0.0000   0.0000   0.0000   0.3767
   2.100   0.6291   0.00709   0.00214  -0.0798  0.5884  1.0000  -0.8124   0.0000   0.0000   0.0000   0.3743
   2.200   0.6402   0.00711   0.00216  -0.0798  0.5868  1.0000  -0.8239   0.0000   0.0000   0.0000   0.3720
   2.300   0.6513   0.00712   0.00217  -0.0798  0.5851  1.0000  -0.8363   0.0000   0.0000   0.0000   0.3698
   2.400   0.6624   0.00714   0.00219  -0.0798  0.5830  1.0000  -0.8486   0.0000   0.0000   0.0000   0.3677
   2.500   0.6734   0.00716   0.00220  -0.0798  0.5808  1.0000  -0.8615   0.0000   0.0000   0.0000   0.3656
   2.600   0.6845   0.00717   0.00222  -0.0798  0.5784  1.0000  -0.8757   0.0000   0.0000   0.0000   0.3636
   2.700   0.6955   0.00719   0.00223  -0.0798  0.5759  1.0000  -0.8900   0.0000   0.0000   0.0000   0.3617
   2.800   0.7065   0.00720   0.00226  -0.0797  0.5724  1.0000  -0.9045   0.0000   0.0000   0.0000   0.3597
   2.900   0.7150   0.00719   0.00201  -0.0791  0.5399  1.0000  -0.9203   0.0000   0.0000   0.0000   0.3573
   3.000   0.7253   0.00719   0.00192  -0.0789  0.5211  1.0000  -0.9368   0.0000   0.0000   0.0000   0.3554
   3.100   0.7352   0.00729   0.00190  -0.0786  0.5067  1.0000  -0.9541   0.0000   0.0000   0.0000   0.3535
   3.200   0.7456   0.00737   0.00193  -0.0785  0.4980  1.0000  -0.9732   0.0000   0.0000   0.0000   0.3518
   3.300   0.7565   0.00741   0.00196  -0.0785  0.4936  1.0000  -0.9929   0.0000   0.0000   0.0000   0.3502
   3.400   0.7676   0.00744   0.00199  -0.0785  0.4904  1.0000  -1.0128   0.0000   0.0000   0.0000   0.3486
   3.500   0.7785   0.00748   0.00202  -0.0785  0.4861  1.0000  -1.0327   0.0000   0.0000   0.0000   0.3471
   3.600   0.7894   0.00752   0.00205  -0.0785  0.4806  1.0000  -1.0527   0.0000   0.0000   0.0000   0.3456
   3.700   0.8001   0.00758   0.00207  -0.0785  0.4736  1.0000  -1.0757   0.0000   0.0000   0.0000   0.3441
   3.800   0.8106   0.00766   0.00210  -0.0784  0.4657  1.0000  -1.0997   0.0000   0.0000   0.0000   0.3426
   3.900   0.8209   0.00776   0.00214  -0.0783  0.4568  1.0000  -1.1275   0.0000   0.0000   0.0000   0.3412
   4.000   0.8312   0.00785   0.00219  -0.0782  0.4472  1.0000  -1.1565   0.0000   0.0000   0.0000   0.3398
   4.100   0.8420   0.00790   0.00224  -0.0782  0.4419  1.0000  -1.1865   0.0000   0.0000   0.0000   0.3384
   4.200   0.8527   0.00797   0.00228  -0.0781  0.4334  1.0000  -1.2163   0.0000   0.0000   0.0000   0.3371
   4.300   0.8629   0.00808   0.00233  -0.0780  0.4206  1.0000  -1.2457   0.0000   0.0000   0.0000   0.3358
   4.400   0.8724   0.00826   0.00240  -0.0778  0.4036  1.0000  -1.2741   0.0000   0.0000   0.0000   0.3345
   4.500   0.8827   0.00837   0.00246  -0.0777  0.3920  1.0000  -1.3038   0.0000   0.0000   0.0000   0.3333
   4.600   0.8923   0.00855   0.00254  -0.0775  0.3718  1.0000  -1.3578   0.0000   0.0000   0.0000   0.3320
   4.700   0.9014   0.00879   0.00266  -0.0773  0.3483  1.0000  -1.4404   0.0000   0.0000   0.0000   0.3308
   4.800   0.9095   0.00915   0.00281  -0.0770  0.3134  1.0000  -1.5201   0.0000   0.0000   0.0000   0.3296
   4.900   0.9172   0.00958   0.00302  -0.0766  0.2748  1.0000  -1.5983   0.0000   0.0000   0.0000   0.3284
   5.000   0.9247   0.01004   0.00326  -0.0762  0.2350  1.0000  -1.6757   0.0000   0.0000   0.0000   0.3272
   5.100   0.9318   0.01055   0.00353  -0.0758  0.1945  1.0000  -1.7517   0.0000   0.0000   0.0000   0.3260
   5.200   0.9389   0.01107   0.00381  -0.0754  0.1546  1.0000  -1.8267   0.0000   0.0000   0.0000   0.3249
   5.300   0.9457   0.01160   0.00411  -0.0750  0.1141  1.0000  -1.8993   0.0000   0.0000   0.0000   0.3237
   5.400   0.9517   0.01224   0.00447  -0.0744  0.0715  1.0000  -1.9651   0.0000   0.0000   0.0000   0.3225
   5.500   0.9554   0.01317   0.00504  -0.0735  0.0140  1.0000  -2.0161   0.0000   0.0000   0.0000   0.3212
   5.600   0.9651   0.01333   0.00518  -0.0733  0.0127  1.0000  -2.0940   0.0000   0.0000   0.0000   0.3201
   5.700   0.9750   0.01349   0.00533  -0.0731  0.0119  1.0000  -2.1720   0.0000   0.0000   0.0000   0.3191
   5.800   0.9849   0.01363   0.00549  -0.0730  0.0112  1.0000  -2.2516   0.0000   0.0000   0.0000   0.3180
   5.900   0.9948   0.01377   0.00566  -0.0728  0.0108  1.0000  -2.3330   0.0000   0.0000   0.0000   0.3170
   6.000   1.0048   0.01391   0.00583  -0.0726  0.0106  1.0000  -2.4157   0.0000   0.0000   0.0000   0.3160
   6.100   1.0147   0.01405   0.00601  -0.0725  0.0104  1.0000  -2.4991   0.0000   0.0000   0.0000   0.3150
   6.200   1.0246   0.01420   0.00620  -0.0723  0.0103  1.0000  -2.5827   0.0000   0.0000   0.0000   0.3140
   6.300   1.0343   0.01435   0.00640  -0.0721  0.0102  1.0000  -2.6659   0.0000   0.0000   0.0000   0.3130
   6.400   1.0440   0.01451   0.00662  -0.0719  0.0102  1.0000  -2.7484   0.0000   0.0000   0.0000   0.3121
   6.500   1.0536   0.01469   0.00684  -0.0716  0.0102  1.0000  -2.8295   0.0000   0.0000   0.0000   0.3111
   6.600   1.0630   0.01488   0.00708  -0.0714  0.0103  1.0000  -2.9090   0.0000   0.0000   0.0000   0.3101
   6.700   1.0723   0.01509   0.00734  -0.0711  0.0103  1.0000  -2.9860   0.0000   0.0000   0.0000   0.3091
   6.800   1.0827   0.01514   0.00773  -0.0710  0.0111  1.0000  -3.1683   0.0000   0.0000   0.0000   0.3083
   6.900   1.0920   0.01534   0.00800  -0.0707  0.0113  1.0000  -3.2667   0.0000   0.0000   0.0000   0.3074
   7.000   1.1008   0.01558   0.00832  -0.0704  0.0114  1.0000  -3.3493   0.0000   0.0000   0.0000   0.3064
   7.100   1.1094   0.01586   0.00866  -0.0700  0.0114  1.0000  -3.4248   0.0000   0.0000   0.0000   0.3054
   7.200   1.1176   0.01618   0.00905  -0.0695  0.0115  1.0000  -3.4952   0.0000   0.0000   0.0000   0.3044
   7.300   1.1254   0.01653   0.00947  -0.0690  0.0116  1.0000  -3.5615   0.0000   0.0000   0.0000   0.3034
   7.400   1.1327   0.01692   0.00993  -0.0684  0.0116  1.0000  -3.6239   0.0000   0.0000   0.0000   0.3024
   7.500   1.1396   0.01734   0.01043  -0.0677  0.0117  1.0000  -3.6827   0.0000   0.0000   0.0000   0.3013
   7.600   1.1460   0.01780   0.01096  -0.0670  0.0119  1.0000  -3.7376   0.0000   0.0000   0.0000   0.3002
   7.700   1.1519   0.01829   0.01153  -0.0662  0.0120  1.0000  -3.7887   0.0000   0.0000   0.0000   0.2991
   7.800   1.1574   0.01882   0.01213  -0.0654  0.0121  1.0000  -3.8358   0.0000   0.0000   0.0000   0.2980
   7.900   1.1623   0.01939   0.01277  -0.0645  0.0122  1.0000  -3.8790   0.0000   0.0000   0.0000   0.2968
   8.000   1.1668   0.02000   0.01345  -0.0635  0.0124  1.0000  -3.9184   0.0000   0.0000   0.0000   0.2956
   8.100   1.1708   0.02065   0.01417  -0.0624  0.0126  1.0000  -3.9540   0.0000   0.0000   0.0000   0.2944
   8.200   1.1745   0.02135   0.01495  -0.0613  0.0127  1.0000  -3.9856   0.0000   0.0000   0.0000   0.2932
   8.300   1.1779   0.02211   0.01578  -0.0602  0.0129  1.0000  -4.0129   0.0000   0.0000   0.0000   0.2920
   8.400   1.1812   0.02296   0.01669  -0.0591  0.0131  1.0000  -4.0350   0.0000   0.0000   0.0000   0.2908
   8.500   1.1846   0.02395   0.01775  -0.0580  0.0133  1.0000  -4.0490   0.0000   0.0000   0.0000   0.2895
   8.600   1.1881   0.02530   0.01919  -0.0569  0.0136  1.0000  -4.0415   0.0000   0.0000   0.0000   0.2884
   8.700   1.1951   0.02688   0.02083  -0.0562  0.0145  1.0000  -4.0251   0.0000   0.0000   0.0000   0.2874
   8.800   1.2032   0.02690   0.02086  -0.0558  0.0148  1.0000  -4.1184   0.0000   0.0000   0.0000   0.2865
   8.900   1.2112   0.02697   0.02094  -0.0553  0.0152  1.0000  -4.2084   0.0000   0.0000   0.0000   0.2857
   9.000   1.2191   0.02710   0.02111  -0.0548  0.0158  1.0000  -4.2918   0.0000   0.0000   0.0000   0.2849
   9.100   1.2276   0.02740   0.02148  -0.0543  0.0167  1.0000  -4.3545   0.0000   0.0000   0.0000   0.2840
  15.100   0.9670   0.17629   0.17428  -0.0906  0.0271  1.0000  -2.3283   0.0000   0.0000   0.0000   0.3272
  15.200   0.9673   0.17892   0.17691  -0.0918  0.0271  1.0000  -2.3011   0.0000   0.0000   0.0000   0.3284
  15.300   0.9678   0.18149   0.17947  -0.0931  0.0271  1.0000  -2.2763   0.0000   0.0000   0.0000   0.3295
  15.400   0.9684   0.18399   0.18197  -0.0943  0.0270  1.0000  -2.2537   0.0000   0.0000   0.0000   0.3306
  15.500   0.9693   0.18644   0.18441  -0.0954  0.0270  1.0000  -2.2336   0.0000   0.0000   0.0000   0.3316
  15.600   0.9703   0.18880   0.18678  -0.0966  0.0269  1.0000  -2.2164   0.0000   0.0000   0.0000   0.3326
  15.700   0.9717   0.19106   0.18903  -0.0977  0.0268  1.0000  -2.2028   0.0000   0.0000   0.0000   0.3335
  15.800   0.9735   0.19313   0.19110  -0.0988  0.0267  1.0000  -2.1959   0.0000   0.0000   0.0000   0.3343
  15.900   0.9766   0.19478   0.19276  -0.0998  0.0263  1.0000  -2.2033   0.0000   0.0000   0.0000   0.3349
  16.000   0.9809   0.19615   0.19413  -0.1007  0.0256  1.0000  -2.2207   0.0000   0.0000   0.0000   0.3353
  16.100   0.9839   0.19802   0.19600  -0.1018  0.0248  1.0000  -2.2197   0.0000   0.0000   0.0000   0.3359
  16.200   0.9854   0.20037   0.19835  -0.1030  0.0241  1.0000  -2.2006   0.0000   0.0000   0.0000   0.3369
  16.300   0.9865   0.20282   0.20079  -0.1042  0.0235  1.0000  -2.1791   0.0000   0.0000   0.0000   0.3379
  16.400   0.9875   0.20523   0.20321  -0.1053  0.0228  1.0000  -2.1605   0.0000   0.0000   0.0000   0.3388
  16.500   0.9885   0.20761   0.20558  -0.1064  0.0222  1.0000  -2.1452   0.0000   0.0000   0.0000   0.3397
  16.600   0.9895   0.20993   0.20790  -0.1075  0.0216  1.0000  -2.1337   0.0000   0.0000   0.0000   0.3405
  16.700   0.9907   0.21215   0.21012  -0.1085  0.0209  1.0000  -2.1278   0.0000   0.0000   0.0000   0.3413
  16.800   0.9919   0.21427   0.21224  -0.1094  0.0203  1.0000  -2.1282   0.0000   0.0000   0.0000   0.3420
  16.900   0.9934   0.21622   0.21420  -0.1103  0.0196  1.0000  -2.1378   0.0000   0.0000   0.0000   0.3426
  17.000   0.9952   0.21795   0.21593  -0.1110  0.0189  1.0000  -2.1603   0.0000   0.0000   0.0000   0.3429
  17.100   0.9976   0.21933   0.21731  -0.1116  0.0182  1.0000  -2.2033   0.0000   0.0000   0.0000   0.3431
  17.200   1.0008   0.22011   0.21810  -0.1119  0.0174  1.0000  -2.2798   0.0000   0.0000   0.0000   0.3428
  17.300   1.0051   0.22008   0.21808  -0.1119  0.0166  1.0000  -2.4027   0.0000   0.0000   0.0000   0.3420
  17.400   1.0095   0.21979   0.21781  -0.1117  0.0159  1.0000  -2.5440   0.0000   0.0000   0.0000   0.3410
  17.500   1.0107   0.22126   0.21928  -0.1123  0.0154  1.0000  -2.5935   0.0000   0.0000   0.0000   0.3412
  17.600   1.0093   0.22409   0.22211  -0.1132  0.0149  1.0000  -2.5755   0.0000   0.0000   0.0000   0.3422
  17.700   0.9978   0.23250   0.23049  -0.1156  0.0142  1.0000  -2.2927   0.0000   0.0000   0.0000   0.3460
  18.900   1.0053   0.26471   0.26269  -0.1265  0.0139  1.0000  -2.0109   0.0000   0.0000   0.0000   0.3545
  19.000   1.0061   0.26716   0.26515  -0.1273  0.0139  1.0000  -1.9985   0.0000   0.0000   0.0000   0.3551
  19.100   1.0069   0.26961   0.26761  -0.1281  0.0139  1.0000  -1.9863   0.0000   0.0000   0.0000   0.3556
  19.200   1.0076   0.27206   0.27005  -0.1288  0.0139  1.0000  -1.9744   0.0000   0.0000   0.0000   0.3561
  19.300   1.0083   0.27449   0.27249  -0.1296  0.0139  1.0000  -1.9627   0.0000   0.0000   0.0000   0.3567
  19.400   1.0088   0.27692   0.27492  -0.1304  0.0139  1.0000  -1.9511   0.0000   0.0000   0.0000   0.3572
  19.500   1.0094   0.27933   0.27733  -0.1311  0.0138  1.0000  -1.9397   0.0000   0.0000   0.0000   0.3577
  19.600   1.0098   0.28173   0.27974  -0.1318  0.0138  1.0000  -1.9286   0.0000   0.0000   0.0000   0.3583
  19.700   1.0102   0.28411   0.28212  -0.1326  0.0138  1.0000  -1.9176   0.0000   0.0000   0.0000   0.3588
  20.700   1.0066   0.30653   0.30466  -0.1387  0.0135  1.0000  -1.8005   0.0000   0.0000   0.0000   0.3640
  20.800   1.0058   0.30829   0.30642  -0.1393  0.0134  1.0000  -1.7958   0.0000   0.0000   0.0000   0.3645
  20.900   1.0061   0.30975   0.30788  -0.1401  0.0130  1.0000  -1.7960   0.0000   0.0000   0.0000   0.3651
  21.000   1.0076   0.31160   0.30974  -0.1413  0.0114  1.0000  -1.7703   0.0000   0.0000   0.0000   0.3661
  21.100   1.0057   0.31339   0.31154  -0.1418  0.0102  1.0000  -1.7647   0.0000   0.0000   0.0000   0.3667
  21.200   1.0018   0.31471   0.31287  -0.1420  0.0094  1.0000  -1.7684   0.0000   0.0000   0.0000   0.3673
  21.500   0.9374   0.30469   0.30296  -0.1364  0.0085  1.0000  -1.6078   0.0000   0.0000   0.0000   0.3716
  21.600   0.9340   0.30471   0.30299  -0.1364  0.0079  1.0000  -1.6335   0.0000   0.0000   0.0000   0.3720
  21.700   0.9314   0.30469   0.30298  -0.1365  0.0074  1.0000  -1.6717   0.0000   0.0000   0.0000   0.3723
  21.800   0.9293   0.30461   0.30292  -0.1366  0.0069  1.0000  -1.7228   0.0000   0.0000   0.0000   0.3725
  21.900   0.9279   0.30446   0.30278  -0.1366  0.0066  1.0000  -1.7874   0.0000   0.0000   0.0000   0.3726
  22.000   0.9269   0.30419   0.30253  -0.1366  0.0063  1.0000  -1.8673   0.0000   0.0000   0.0000   0.3725
  22.100   0.9258   0.30387   0.30221  -0.1366  0.0059  1.0000  -1.9521   0.0000   0.0000   0.0000   0.3724
  22.200   0.9212   0.30369   0.30205  -0.1365  0.0055  1.0000  -1.9845   0.0000   0.0000   0.0000   0.3728
  22.300   0.9014   0.30564   0.30397  -0.1362  0.0049  1.0000  -1.6418   0.0000   0.0000   0.0000   0.3762
  22.400   0.8998   0.30633   0.30466  -0.1365  0.0048  1.0000  -1.6387   0.0000   0.0000   0.0000   0.3768
  22.500   0.8988   0.30700   0.30534  -0.1369  0.0047  1.0000  -1.6447   0.0000   0.0000   0.0000   0.3773
  22.600   0.8982   0.30766   0.30601  -0.1373  0.0046  1.0000  -1.6567   0.0000   0.0000   0.0000   0.3777
  22.700   0.8973   0.30833   0.30668  -0.1377  0.0045  1.0000  -1.6626   0.0000   0.0000   0.0000   0.3781
  22.800   0.8960   0.30902   0.30738  -0.1380  0.0044  1.0000  -1.6570   0.0000   0.0000   0.0000   0.3785
  22.900   0.8944   0.30974   0.30810  -0.1383  0.0043  1.0000  -1.6431   0.0000   0.0000   0.0000   0.3790
  23.000   0.8926   0.31045   0.30882  -0.1385  0.0043  1.0000  -1.6240   0.0000   0.0000   0.0000   0.3795
  23.100   0.8907   0.31117   0.30955  -0.1387  0.0042  1.0000  -1.6013   0.0000   0.0000   0.0000   0.3800
  23.200   0.8886   0.31189   0.31027  -0.1390  0.0043  1.0000  -1.5757   0.0000   0.0000   0.0000   0.3805
  23.300   0.8865   0.31261   0.31100  -0.1392  0.0043  1.0000  -1.5473   0.0000   0.0000   0.0000   0.3810
  23.400   0.8842   0.31333   0.31172  -0.1394  0.0044  1.0000  -1.5154   0.0000   0.0000   0.0000   0.3815
  23.500   0.8817   0.31406   0.31245  -0.1395  0.0045  1.0000  -1.4803   0.0000   0.0000   0.0000   0.3820
  23.600   0.8794   0.31478   0.31318  -0.1397  0.0046  1.0000  -1.4467   0.0000   0.0000   0.0000   0.3825
  23.700   0.8774   0.31551   0.31391  -0.1399  0.0046  1.0000  -1.4189   0.0000   0.0000   0.0000   0.3830
  23.800   0.8757   0.31624   0.31464  -0.1401  0.0047  1.0000  -1.3957   0.0000   0.0000   0.0000   0.3834
  23.900   0.8743   0.31697   0.31538  -0.1403  0.0047  1.0000  -1.3755   0.0000   0.0000   0.0000   0.3838
  24.000   0.8729   0.31771   0.31612  -0.1406  0.0047  1.0000  -1.3574   0.0000   0.0000   0.0000   0.3842
  24.100   0.8717   0.31845   0.31687  -0.1408  0.0047  1.0000  -1.3409   0.0000   0.0000   0.0000   0.3846
  24.200   0.8705   0.31919   0.31761  -0.1411  0.0047  1.0000  -1.3256   0.0000   0.0000   0.0000   0.3850
  24.300   0.8695   0.31993   0.31836  -0.1414  0.0048  1.0000  -1.3113   0.0000   0.0000   0.0000   0.3854
  24.400   0.8685   0.32068   0.31911  -0.1416  0.0048  1.0000  -1.2977   0.0000   0.0000   0.0000   0.3858
  24.500   0.8675   0.32143   0.31987  -0.1419  0.0048  1.0000  -1.2848   0.0000   0.0000   0.0000   0.3861
  24.600   0.8667   0.32218   0.32062  -0.1422  0.0048  1.0000  -1.2725   0.0000   0.0000   0.0000   0.3865
  24.700   0.8658   0.32294   0.32138  -0.1425  0.0048  1.0000  -1.2607   0.0000   0.0000   0.0000   0.3868
  24.800   0.8650   0.32369   0.32214  -0.1428  0.0048  1.0000  -1.2493   0.0000   0.0000   0.0000   0.3872
  24.900   0.8643   0.32445   0.32291  -0.1431  0.0048  1.0000  -1.2384   0.0000   0.0000   0.0000   0.3875
  25.000   0.8636   0.32521   0.32367  -0.1434  0.0048  1.0000  -1.2278   0.0000   0.0000   0.0000   0.3879
  25.100   0.8629   0.32597   0.32444  -0.1437  0.0048  1.0000  -1.2174   0.0000   0.0000   0.0000   0.3882
  25.200   0.8622   0.32674   0.32521  -0.1440  0.0048  1.0000  -1.2074   0.0000   0.0000   0.0000   0.3885
  25.300   0.8616   0.32751   0.32598  -0.1443  0.0048  1.0000  -1.1976   0.0000   0.0000   0.0000   0.3889
  25.400   0.8610   0.32827   0.32675  -0.1447  0.0048  1.0000  -1.1881   0.0000   0.0000   0.0000   0.3892
  25.500   0.8605   0.32904   0.32752  -0.1450  0.0048  1.0000  -1.1788   0.0000   0.0000   0.0000   0.3895
  25.600   0.8599   0.32981   0.32830  -0.1453  0.0048  1.0000  -1.1698   0.0000   0.0000   0.0000   0.3898
  25.700   0.8594   0.33059   0.32908  -0.1456  0.0048  1.0000  -1.1610   0.0000   0.0000   0.0000   0.3901
  25.800   0.8589   0.33136   0.32985  -0.1460  0.0048  1.0000  -1.1524   0.0000   0.0000   0.0000   0.3905
  25.900   0.8584   0.33214   0.33063  -0.1463  0.0048  1.0000  -1.1440   0.0000   0.0000   0.0000   0.3908
  26.000   0.8580   0.33291   0.33141  -0.1466  0.0048  1.0000  -1.1358   0.0000   0.0000   0.0000   0.3911
  26.100   0.8576   0.33369   0.33220  -0.1470  0.0048  1.0000  -1.1278   0.0000   0.0000   0.0000   0.3914
  26.200   0.8571   0.33447   0.33298  -0.1473  0.0048  1.0000  -1.1200   0.0000   0.0000   0.0000   0.3917
  26.300   0.8567   0.33525   0.33376  -0.1476  0.0048  1.0000  -1.1123   0.0000   0.0000   0.0000   0.3920
  26.400   0.8564   0.33603   0.33455  -0.1480  0.0048  1.0000  -1.1048   0.0000   0.0000   0.0000   0.3923
  26.500   0.8560   0.33681   0.33533  -0.1483  0.0048  1.0000  -1.0974   0.0000   0.0000   0.0000   0.3926
  26.600   0.8556   0.33759   0.33612  -0.1486  0.0048  1.0000  -1.0902   0.0000   0.0000   0.0000   0.3929


