xflr5 v6.61

 Calculated polar for: E387

 1 1 Reynolds number fixed          Mach number fixed         

 xtrf =   1.000 (top)        1.000 (bottom)
 Mach =   0.000     Re =     0.160 e 6     Ncrit =   9.000

  alpha     CL        CD       CDp       Cm    Top Xtr Bot Xtr   Cpmin    Chinge    XCp    
 ------- -------- --------- --------- -------- ------- ------- -------- --------- ---------
 -10.000  -0.3751   0.12030   0.11622  -0.0227  1.0000  0.0376  -1.4706   0.0000   0.0000   0.0000   0.1838
  -9.900  -0.3705   0.11833   0.11425  -0.0224  1.0000  0.0381  -1.4371   0.0000   0.0000   0.0000   0.1840
  -9.800  -0.3656   0.11660   0.11252  -0.0221  1.0000  0.0385  -1.4036   0.0000   0.0000   0.0000   0.1839
  -9.700  -0.3611   0.11504   0.11096  -0.0220  1.0000  0.0390  -1.3750   0.0000   0.0000   0.0000   0.1835
  -9.600  -0.3571   0.11359   0.10953  -0.0220  1.0000  0.0395  -1.3515   0.0000   0.0000   0.0000   0.1828
  -9.500  -0.3534   0.11223   0.10817  -0.0221  1.0000  0.0399  -1.3323   0.0000   0.0000   0.0000   0.1818
  -9.400  -0.3500   0.11092   0.10687  -0.0223  1.0000  0.0404  -1.3166   0.0000   0.0000   0.0000   0.1807
  -9.300  -0.3469   0.10965   0.10561  -0.0225  1.0000  0.0408  -1.3034   0.0000   0.0000   0.0000   0.1794
  -9.200  -0.3440   0.10840   0.10437  -0.0228  1.0000  0.0413  -1.2924   0.0000   0.0000   0.0000   0.1780
  -9.100  -0.3412   0.10718   0.10316  -0.0232  1.0000  0.0418  -1.2832   0.0000   0.0000   0.0000   0.1765
  -9.000  -0.3385   0.10596   0.10196  -0.0235  1.0000  0.0423  -1.2756   0.0000   0.0000   0.0000   0.1750
  -8.900  -0.3359   0.10476   0.10077  -0.0239  1.0000  0.0428  -1.2693   0.0000   0.0000   0.0000   0.1733
  -8.800  -0.3335   0.10357   0.09959  -0.0243  1.0000  0.0433  -1.2643   0.0000   0.0000   0.0000   0.1716
  -8.700  -0.3311   0.10239   0.09842  -0.0248  1.0000  0.0438  -1.2603   0.0000   0.0000   0.0000   0.1699
  -8.600  -0.3289   0.10122   0.09726  -0.0252  1.0000  0.0443  -1.2574   0.0000   0.0000   0.0000   0.1681
  -8.500  -0.3268   0.10005   0.09611  -0.0256  1.0000  0.0448  -1.2553   0.0000   0.0000   0.0000   0.1663
  -8.400  -0.3247   0.09888   0.09496  -0.0261  1.0000  0.0454  -1.2541   0.0000   0.0000   0.0000   0.1644
  -8.300  -0.3226   0.09771   0.09380  -0.0266  1.0000  0.0459  -1.2537   0.0000   0.0000   0.0000   0.1624
  -8.200  -0.3206   0.09654   0.09265  -0.0271  1.0000  0.0465  -1.2540   0.0000   0.0000   0.0000   0.1603
  -8.100  -0.3187   0.09538   0.09151  -0.0276  1.0000  0.0470  -1.2551   0.0000   0.0000   0.0000   0.1583
  -8.000  -0.3169   0.09423   0.09037  -0.0282  1.0000  0.0476  -1.2570   0.0000   0.0000   0.0000   0.1562
  -7.900  -0.3152   0.09308   0.08925  -0.0287  1.0000  0.0482  -1.2598   0.0000   0.0000   0.0000   0.1541
  -7.800  -0.3137   0.09195   0.08813  -0.0292  1.0000  0.0488  -1.2634   0.0000   0.0000   0.0000   0.1520
  -7.700  -0.3123   0.09084   0.08704  -0.0298  1.0000  0.0494  -1.2680   0.0000   0.0000   0.0000   0.1499
  -7.600  -0.3111   0.08974   0.08597  -0.0303  1.0000  0.0500  -1.2735   0.0000   0.0000   0.0000   0.1478
  -7.500  -0.3102   0.08867   0.08492  -0.0309  1.0000  0.0506  -1.2803   0.0000   0.0000   0.0000   0.1459
  -7.400  -0.3095   0.08762   0.08390  -0.0314  1.0000  0.0512  -1.2883   0.0000   0.0000   0.0000   0.1440
  -7.300  -0.3093   0.08663   0.08294  -0.0319  1.0000  0.0518  -1.2975   0.0000   0.0000   0.0000   0.1424
  -7.200  -0.3097   0.08570   0.08204  -0.0324  1.0000  0.0524  -1.3085   0.0000   0.0000   0.0000   0.1412
  -7.100  -0.3109   0.08485   0.08124  -0.0327  1.0000  0.0530  -1.3211   0.0000   0.0000   0.0000   0.1406
  -7.000  -0.3131   0.08410   0.08053  -0.0329  1.0000  0.0535  -1.3349   0.0000   0.0000   0.0000   0.1409
  -6.900  -0.3157   0.08340   0.07988  -0.0331  1.0000  0.0539  -1.3500   0.0000   0.0000   0.0000   0.1413
  -6.800  -0.3178   0.08270   0.07923  -0.0337  1.0000  0.0544  -1.3668   0.0000   0.0000   0.0000   0.1404
  -6.700  -0.3216   0.08217   0.07876  -0.0338  1.0000  0.0548  -1.3834   0.0000   0.0000   0.0000   0.1415
  -6.600  -0.3300   0.08201   0.07867  -0.0324  1.0000  0.0548  -1.3970   0.0000   0.0000   0.0000   0.1484
  -6.500  -0.3343   0.08166   0.07835  -0.0327  0.9982  0.0551  -1.4131   0.0000   0.0000   0.0000   0.1490
  -6.400  -0.3092   0.07998   0.07661  -0.0427  0.9917  0.0569  -1.4459   0.0000   0.0000   0.0000   0.1085
  -6.300  -0.2886   0.07814   0.07471  -0.0494  0.9876  0.0575  -1.4573   0.0000   0.0000   0.0000   0.0753
  -6.200  -0.2729   0.07615   0.07265  -0.0542  0.9823  0.0577  -1.4679   0.0000   0.0000   0.0000   0.0478
  -6.100  -0.2574   0.07400   0.07044  -0.0587  0.9779  0.0579  -1.4774   0.0000   0.0000   0.0000   0.0183
  -6.000  -0.2416   0.07178   0.06813  -0.0629  0.9747  0.0580  -1.4856   0.0000   0.0000   0.0000  -0.0144
  -5.900  -0.2381   0.06492   0.06127  -0.0684  0.9721  0.0594  -1.5910   0.0000   0.0000   0.0000  -0.0414
  -5.800  -0.2342   0.06149   0.05785  -0.0699  0.9666  0.0608  -1.5884   0.0000   0.0000   0.0000  -0.0526
  -5.700  -0.2256   0.05982   0.05620  -0.0699  0.9627  0.0620  -1.5304   0.0000   0.0000   0.0000  -0.0641
  -5.600  -0.2168   0.05880   0.05499  -0.0693  0.9595  0.0640  -1.4491   0.0000   0.0000   0.0000  -0.0738
  -5.500  -0.2041   0.05726   0.05345  -0.0709  0.9560  0.0655  -1.4067   0.0000   0.0000   0.0000  -0.1016
  -5.400  -0.1901   0.05559   0.05175  -0.0731  0.9529  0.0672  -1.3724   0.0000   0.0000   0.0000  -0.1393
  -5.300  -0.1780   0.05401   0.05013  -0.0752  0.9474  0.0690  -1.3495   0.0000   0.0000   0.0000  -0.1771
  -5.200  -0.1667   0.05245   0.04853  -0.0771  0.9404  0.0710  -1.3337   0.0000   0.0000   0.0000  -0.2176
  -5.100  -0.1534   0.05075   0.04676  -0.0796  0.9348  0.0734  -1.3219   0.0000   0.0000   0.0000  -0.2743
  -5.000  -0.1381   0.04899   0.04491  -0.0825  0.9300  0.0764  -1.3160   0.0000   0.0000   0.0000  -0.3530
  -4.900  -0.1180   0.04782   0.04353  -0.0861  0.9256  0.0815  -1.3233   0.0000   0.0000   0.0000  -0.4867
  -4.800  -0.1006   0.04970   0.04518  -0.0868  0.9164  0.0850  -1.2988   0.0000   0.0000   0.0000  -0.6212
  -4.600  -0.0906   0.04227   0.03749  -0.0908  0.9040  0.0887  -1.3733   0.0000   0.0000   0.0000  -0.7614
  -4.500  -0.0824   0.04025   0.03548  -0.0913  0.8994  0.0906  -1.3445   0.0000   0.0000   0.0000  -0.8674
  -4.300  -0.0656   0.03797   0.03319  -0.0913  0.8888  0.0936  -1.2759   0.0000   0.0000   0.0000  -1.1539
  -4.200  -0.0573   0.03700   0.03220  -0.0913  0.8828  0.0954  -1.2468   0.0000   0.0000   0.0000  -1.3558
  -4.100  -0.0483   0.03605   0.03120  -0.0913  0.8773  0.0974  -1.2200   0.0000   0.0000   0.0000  -1.6542
  -4.000  -0.0388   0.03509   0.03017  -0.0915  0.8723  0.0997  -1.1959   0.0000   0.0000   0.0000  -2.1243
  -3.900  -0.0286   0.03415   0.02913  -0.0916  0.8678  0.1023  -1.1744   0.0000   0.0000   0.0000  -2.9803
  -3.800  -0.0178   0.03323   0.02808  -0.0919  0.8636  0.1051  -1.1558   0.0000   0.0000   0.0000  -4.9524
  -3.700  -0.0068   0.03233   0.02705  -0.0921  0.8594  0.1075  -1.1407   0.0000   0.0000   0.0000  -13.4673
  -3.600   0.0138   0.02718   0.02099  -0.0926  0.8561  0.0536  -1.4545   0.0000   0.0000   0.0000   7.0259
  -3.500   0.0237   0.02460   0.01810  -0.0927  0.8518  0.0457  -1.5325   0.0000   0.0000   0.0000   4.1901
  -3.400   0.0379   0.02355   0.01655  -0.0919  0.8475  0.0373  -1.6351   0.0000   0.0000   0.0000   2.6988
  -3.300   0.0487   0.02324   0.01622  -0.0915  0.8430  0.0348  -1.5941   0.0000   0.0000   0.0000   2.1431
  -3.200   0.0587   0.02157   0.01432  -0.0914  0.8390  0.0332  -1.6177   0.0000   0.0000   0.0000   1.8193
  -3.100   0.0693   0.02046   0.01302  -0.0911  0.8351  0.0319  -1.6188   0.0000   0.0000   0.0000   1.5760
  -3.000   0.0801   0.01954   0.01192  -0.0908  0.8315  0.0307  -1.6132   0.0000   0.0000   0.0000   1.3925
  -2.900   0.0911   0.01874   0.01095  -0.0904  0.8280  0.0296  -1.6036   0.0000   0.0000   0.0000   1.2507
  -2.800   0.1022   0.01805   0.01010  -0.0901  0.8244  0.0287  -1.5905   0.0000   0.0000   0.0000   1.1388
  -2.700   0.1132   0.01744   0.00937  -0.0898  0.8208  0.0279  -1.5737   0.0000   0.0000   0.0000   1.0496
  -2.600   0.1240   0.01687   0.00872  -0.0896  0.8176  0.0272  -1.5523   0.0000   0.0000   0.0000   0.9780
  -2.500   0.1346   0.01636   0.00815  -0.0893  0.8140  0.0267  -1.5263   0.0000   0.0000   0.0000   0.9182
  -2.400   0.1452   0.01592   0.00764  -0.0890  0.8101  0.0263  -1.4962   0.0000   0.0000   0.0000   0.8674
  -2.300   0.1557   0.01554   0.00720  -0.0887  0.8062  0.0261  -1.4622   0.0000   0.0000   0.0000   0.8236
  -2.200   0.1662   0.01520   0.00680  -0.0884  0.8023  0.0259  -1.4246   0.0000   0.0000   0.0000   0.7854
  -2.100   0.1767   0.01491   0.00645  -0.0881  0.7984  0.0260  -1.3837   0.0000   0.0000   0.0000   0.7516
  -2.000   0.1873   0.01467   0.00613  -0.0878  0.7947  0.0262  -1.3401   0.0000   0.0000   0.0000   0.7214
  -1.900   0.1980   0.01447   0.00585  -0.0875  0.7911  0.0266  -1.2943   0.0000   0.0000   0.0000   0.6944
  -1.800   0.2088   0.01431   0.00561  -0.0872  0.7876  0.0272  -1.2468   0.0000   0.0000   0.0000   0.6699
  -1.700   0.2196   0.01421   0.00542  -0.0869  0.7839  0.0281  -1.1983   0.0000   0.0000   0.0000   0.6478
  -1.600   0.2306   0.01419   0.00531  -0.0868  0.7800  0.0294  -1.1495   0.0000   0.0000   0.0000   0.6280
  -1.500   0.2416   0.01407   0.00515  -0.0867  0.7775  0.0313  -1.1014   0.0000   0.0000   0.0000   0.6103
  -1.400   0.2526   0.01396   0.00501  -0.0866  0.7747  0.0343  -1.0550   0.0000   0.0000   0.0000   0.5940
  -1.300   0.2635   0.01379   0.00490  -0.0864  0.7717  0.0497  -1.0153   0.0000   0.0000   0.0000   0.5792
  -1.200   0.2731   0.01322   0.00487  -0.0865  0.7687  0.1710  -0.9695   0.0000   0.0000   0.0000   0.5678
  -1.100   0.2832   0.01292   0.00485  -0.0865  0.7655  0.2539  -0.9153   0.0000   0.0000   0.0000   0.5563
  -1.000   0.2903   0.01216   0.00496  -0.0862  0.7625  0.4747  -0.8636   0.0000   0.0000   0.0000   0.5474
  -0.900   0.2980   0.01178   0.00501  -0.0854  0.7595  0.6004  -0.8087   0.0000   0.0000   0.0000   0.5370
  -0.800   0.3041   0.01145   0.00507  -0.0839  0.7566  0.7214  -0.7562   0.0000   0.0000   0.0000   0.5264
  -0.600   0.3412   0.01095   0.00499  -0.0858  0.7512  1.0000  -0.5907   0.0000   0.0000   0.0000   0.5015
  -0.500   0.3518   0.01101   0.00498  -0.0856  0.7484  1.0000  -0.5974   0.0000   0.0000   0.0000   0.4934
  -0.400   0.3624   0.01108   0.00497  -0.0855  0.7456  1.0000  -0.6042   0.0000   0.0000   0.0000   0.4858
  -0.300   0.3731   0.01117   0.00499  -0.0854  0.7427  1.0000  -0.6110   0.0000   0.0000   0.0000   0.4786
  -0.200   0.3837   0.01130   0.00504  -0.0853  0.7396  1.0000  -0.6177   0.0000   0.0000   0.0000   0.4719
  -0.100   0.3943   0.01151   0.00518  -0.0852  0.7360  1.0000  -0.6242   0.0000   0.0000   0.0000   0.4657
   0.000   0.4050   0.01157   0.00522  -0.0852  0.7339  1.0000  -0.6307   0.0000   0.0000   0.0000   0.4599
   0.100   0.4157   0.01162   0.00524  -0.0852  0.7317  1.0000  -0.6373   0.0000   0.0000   0.0000   0.4543
   0.200   0.4263   0.01167   0.00526  -0.0851  0.7291  1.0000  -0.6439   0.0000   0.0000   0.0000   0.4490
   0.300   0.4369   0.01173   0.00529  -0.0851  0.7262  1.0000  -0.6505   0.0000   0.0000   0.0000   0.4439
   0.400   0.4475   0.01178   0.00531  -0.0850  0.7231  1.0000  -0.6571   0.0000   0.0000   0.0000   0.4390
   0.500   0.4581   0.01183   0.00533  -0.0849  0.7199  1.0000  -0.6638   0.0000   0.0000   0.0000   0.4343
   0.600   0.4687   0.01189   0.00535  -0.0848  0.7167  1.0000  -0.6706   0.0000   0.0000   0.0000   0.4298
   0.700   0.4794   0.01194   0.00537  -0.0847  0.7136  1.0000  -0.6776   0.0000   0.0000   0.0000   0.4255
   0.800   0.4901   0.01199   0.00538  -0.0846  0.7107  1.0000  -0.6855   0.0000   0.0000   0.0000   0.4213
   0.900   0.5008   0.01205   0.00541  -0.0845  0.7080  1.0000  -0.6934   0.0000   0.0000   0.0000   0.4174
   1.000   0.5116   0.01212   0.00544  -0.0844  0.7054  1.0000  -0.7012   0.0000   0.0000   0.0000   0.4136
   1.100   0.5223   0.01219   0.00547  -0.0843  0.7029  1.0000  -0.7092   0.0000   0.0000   0.0000   0.4099
   1.200   0.5331   0.01227   0.00552  -0.0842  0.7005  1.0000  -0.7171   0.0000   0.0000   0.0000   0.4064
   1.300   0.5438   0.01237   0.00558  -0.0841  0.6979  1.0000  -0.7249   0.0000   0.0000   0.0000   0.4030
   1.400   0.5545   0.01250   0.00567  -0.0840  0.6952  1.0000  -0.7330   0.0000   0.0000   0.0000   0.3998
   1.500   0.5651   0.01270   0.00584  -0.0840  0.6922  1.0000  -0.7417   0.0000   0.0000   0.0000   0.3968
   1.600   0.5754   0.01299   0.00610  -0.0840  0.6889  1.0000  -0.7501   0.0000   0.0000   0.0000   0.3940
   1.700   0.5862   0.01304   0.00616  -0.0840  0.6873  1.0000  -0.7589   0.0000   0.0000   0.0000   0.3912
   1.800   0.5968   0.01311   0.00624  -0.0839  0.6855  1.0000  -0.7676   0.0000   0.0000   0.0000   0.3886
   1.900   0.6074   0.01318   0.00632  -0.0839  0.6834  1.0000  -0.7774   0.0000   0.0000   0.0000   0.3860
   2.000   0.6180   0.01326   0.00641  -0.0839  0.6810  1.0000  -0.7874   0.0000   0.0000   0.0000   0.3836
   2.100   0.6286   0.01334   0.00649  -0.0839  0.6784  1.0000  -0.7978   0.0000   0.0000   0.0000   0.3811
   2.200   0.6392   0.01342   0.00657  -0.0838  0.6756  1.0000  -0.8094   0.0000   0.0000   0.0000   0.3787
   2.300   0.6498   0.01348   0.00664  -0.0837  0.6726  1.0000  -0.8211   0.0000   0.0000   0.0000   0.3764
   2.400   0.6604   0.01354   0.00669  -0.0836  0.6695  1.0000  -0.8329   0.0000   0.0000   0.0000   0.3741
   2.500   0.6710   0.01360   0.00674  -0.0835  0.6665  1.0000  -0.8457   0.0000   0.0000   0.0000   0.3719
   2.600   0.6817   0.01365   0.00679  -0.0834  0.6636  1.0000  -0.8595   0.0000   0.0000   0.0000   0.3697
   2.700   0.6924   0.01371   0.00684  -0.0833  0.6609  1.0000  -0.8734   0.0000   0.0000   0.0000   0.3675
   2.800   0.7032   0.01378   0.00690  -0.0832  0.6583  1.0000  -0.8875   0.0000   0.0000   0.0000   0.3655
   2.900   0.7140   0.01383   0.00699  -0.0831  0.6559  1.0000  -0.9037   0.0000   0.0000   0.0000   0.3634
   3.000   0.7248   0.01389   0.00703  -0.0830  0.6533  1.0000  -0.9201   0.0000   0.0000   0.0000   0.3614
   3.100   0.7355   0.01398   0.00709  -0.0829  0.6505  1.0000  -0.9364   0.0000   0.0000   0.0000   0.3595
   3.200   0.7460   0.01411   0.00720  -0.0827  0.6474  1.0000  -0.9553   0.0000   0.0000   0.0000   0.3576
   3.300   0.7564   0.01439   0.00746  -0.0826  0.6436  1.0000  -0.9740   0.0000   0.0000   0.0000   0.3559
   3.400   0.7664   0.01465   0.00772  -0.0826  0.6404  1.0000  -0.9923   0.0000   0.0000   0.0000   0.3543
   3.500   0.7770   0.01467   0.00776  -0.0825  0.6384  1.0000  -1.0115   0.0000   0.0000   0.0000   0.3527
   3.600   0.7874   0.01471   0.00783  -0.0824  0.6360  1.0000  -1.0307   0.0000   0.0000   0.0000   0.3511
   3.700   0.7978   0.01476   0.00791  -0.0823  0.6332  1.0000  -1.0515   0.0000   0.0000   0.0000   0.3495
   3.800   0.8082   0.01480   0.00797  -0.0822  0.6301  1.0000  -1.0750   0.0000   0.0000   0.0000   0.3480
   3.900   0.8186   0.01484   0.00803  -0.0821  0.6266  1.0000  -1.0990   0.0000   0.0000   0.0000   0.3464
   4.000   0.8291   0.01486   0.00807  -0.0819  0.6230  1.0000  -1.1280   0.0000   0.0000   0.0000   0.3449
   4.100   0.8397   0.01488   0.00810  -0.0818  0.6195  1.0000  -1.1574   0.0000   0.0000   0.0000   0.3433
   4.200   0.8503   0.01490   0.00812  -0.0816  0.6160  1.0000  -1.1871   0.0000   0.0000   0.0000   0.3418
   4.300   0.8611   0.01491   0.00812  -0.0815  0.6126  1.0000  -1.2172   0.0000   0.0000   0.0000   0.3403
   4.400   0.8719   0.01487   0.00807  -0.0813  0.6088  1.0000  -1.2478   0.0000   0.0000   0.0000   0.3388
   4.500   0.8828   0.01475   0.00790  -0.0809  0.6038  1.0000  -1.2793   0.0000   0.0000   0.0000   0.3371
   4.600   0.8934   0.01475   0.00780  -0.0805  0.5964  1.0000  -1.3285   0.0000   0.0000   0.0000   0.3354
   4.700   0.9033   0.01468   0.00773  -0.0800  0.5891  1.0000  -1.3842   0.0000   0.0000   0.0000   0.3339
   4.800   0.9131   0.01434   0.00740  -0.0795  0.5805  1.0000  -1.4418   0.0000   0.0000   0.0000   0.3322
   4.900   0.9232   0.01398   0.00701  -0.0789  0.5693  1.0000  -1.5229   0.0000   0.0000   0.0000   0.3305
   5.000   0.9334   0.01366   0.00658  -0.0782  0.5574  1.0000  -1.6173   0.0000   0.0000   0.0000   0.3287
   5.100   0.9435   0.01361   0.00633  -0.0776  0.5442  1.0000  -1.7118   0.0000   0.0000   0.0000   0.3271
   5.200   0.9529   0.01345   0.00623  -0.0772  0.5352  1.0000  -1.8023   0.0000   0.0000   0.0000   0.3257
   5.300   0.9628   0.01338   0.00620  -0.0769  0.5257  1.0000  -1.8954   0.0000   0.0000   0.0000   0.3244
   5.400   0.9730   0.01338   0.00620  -0.0767  0.5184  1.0000  -1.9902   0.0000   0.0000   0.0000   0.3232
   5.500   0.9831   0.01339   0.00619  -0.0764  0.5110  1.0000  -2.0860   0.0000   0.0000   0.0000   0.3221
   5.600   0.9930   0.01342   0.00616  -0.0761  0.5031  1.0000  -2.1821   0.0000   0.0000   0.0000   0.3208
   5.700   1.0028   0.01350   0.00616  -0.0758  0.4947  1.0000  -2.2779   0.0000   0.0000   0.0000   0.3197
   5.800   1.0129   0.01352   0.00626  -0.0756  0.4871  1.0000  -2.3742   0.0000   0.0000   0.0000   0.3186
   5.900   1.0227   0.01355   0.00633  -0.0754  0.4768  1.0000  -2.4698   0.0000   0.0000   0.0000   0.3176
   6.000   1.0322   0.01360   0.00634  -0.0750  0.4640  1.0000  -2.5638   0.0000   0.0000   0.0000   0.3164
   6.100   1.0410   0.01370   0.00632  -0.0745  0.4500  1.0000  -2.6543   0.0000   0.0000   0.0000   0.3152
   6.200   1.0506   0.01379   0.00643  -0.0743  0.4363  1.0000  -2.7449   0.0000   0.0000   0.0000   0.3142
   6.300   1.0588   0.01393   0.00649  -0.0737  0.4123  1.0000  -2.8280   0.0000   0.0000   0.0000   0.3130
   6.400   1.0633   0.01433   0.00654  -0.0727  0.3600  1.0000  -2.8940   0.0000   0.0000   0.0000   0.3116
   6.500   1.0652   0.01507   0.00681  -0.0714  0.2914  1.0000  -2.9456   0.0000   0.0000   0.0000   0.3101
   6.600   1.0684   0.01580   0.00723  -0.0705  0.2418  1.0000  -2.9979   0.0000   0.0000   0.0000   0.3089
   6.700   1.0714   0.01660   0.00773  -0.0696  0.1953  1.0000  -3.0441   0.0000   0.0000   0.0000   0.3078
   6.800   1.0721   0.01765   0.00837  -0.0685  0.1360  1.0000  -3.0771   0.0000   0.0000   0.0000   0.3066
   6.900   1.1198   0.01469   0.00833  -0.0729  0.3992  1.0000  -3.6585   0.0000   0.0000   0.0000   0.3077
   7.000   1.1282   0.01487   0.00851  -0.0725  0.3767  1.0000  -3.7646   0.0000   0.0000   0.0000   0.3067
   7.100   1.1330   0.01528   0.00867  -0.0715  0.3350  1.0000  -3.8460   0.0000   0.0000   0.0000   0.3055
   7.200   1.1340   0.01605   0.00901  -0.0702  0.2761  1.0000  -3.9007   0.0000   0.0000   0.0000   0.3041
   7.300   1.1347   0.01696   0.00953  -0.0690  0.2236  1.0000  -3.9403   0.0000   0.0000   0.0000   0.3029
   7.400   1.1339   0.01807   0.01023  -0.0677  0.1631  1.0000  -3.9502   0.0000   0.0000   0.0000   0.3016
   7.500   1.1284   0.01968   0.01123  -0.0659  0.0879  1.0000  -3.9101   0.0000   0.0000   0.0000   0.3002
   7.600   1.1227   0.02135   0.01243  -0.0638  0.0373  1.0000  -3.8219   0.0000   0.0000   0.0000   0.2985
   7.700   1.1238   0.02234   0.01340  -0.0623  0.0295  1.0000  -3.7822   0.0000   0.0000   0.0000   0.2971
   7.800   1.1259   0.02319   0.01437  -0.0609  0.0271  1.0000  -3.7660   0.0000   0.0000   0.0000   0.2956
   7.900   1.1305   0.02373   0.01501  -0.0601  0.0265  1.0000  -3.8003   0.0000   0.0000   0.0000   0.2945
   8.000   1.1347   0.02431   0.01569  -0.0591  0.0259  1.0000  -3.8332   0.0000   0.0000   0.0000   0.2933
   8.100   1.1381   0.02492   0.01638  -0.0581  0.0255  1.0000  -3.8648   0.0000   0.0000   0.0000   0.2921
   8.200   1.1412   0.02556   0.01710  -0.0570  0.0251  1.0000  -3.8957   0.0000   0.0000   0.0000   0.2910
   8.300   1.1439   0.02621   0.01782  -0.0559  0.0248  1.0000  -3.9256   0.0000   0.0000   0.0000   0.2898
   8.400   1.1457   0.02686   0.01854  -0.0547  0.0246  1.0000  -3.9534   0.0000   0.0000   0.0000   0.2885
   8.500   1.1477   0.02753   0.01927  -0.0535  0.0244  1.0000  -3.9813   0.0000   0.0000   0.0000   0.2872
   8.600   1.1499   0.02824   0.02004  -0.0524  0.0243  1.0000  -4.0093   0.0000   0.0000   0.0000   0.2860
   8.700   1.1523   0.02897   0.02083  -0.0513  0.0242  1.0000  -4.0378   0.0000   0.0000   0.0000   0.2848
   8.800   1.1555   0.02973   0.02164  -0.0503  0.0241  1.0000  -4.0673   0.0000   0.0000   0.0000   0.2837
   8.900   1.1594   0.03052   0.02249  -0.0494  0.0240  1.0000  -4.0978   0.0000   0.0000   0.0000   0.2827
   9.000   1.1640   0.03135   0.02338  -0.0485  0.0240  1.0000  -4.1297   0.0000   0.0000   0.0000   0.2816
   9.100   1.1698   0.03223   0.02432  -0.0478  0.0240  1.0000  -4.1632   0.0000   0.0000   0.0000   0.2807
   9.200   1.1767   0.03317   0.02533  -0.0472  0.0241  1.0000  -4.1982   0.0000   0.0000   0.0000   0.2798
   9.300   1.1849   0.03420   0.02644  -0.0467  0.0242  1.0000  -4.2341   0.0000   0.0000   0.0000   0.2789
   9.400   1.1939   0.03533   0.02765  -0.0463  0.0243  1.0000  -4.2697   0.0000   0.0000   0.0000   0.2782
   9.500   1.2035   0.03657   0.02900  -0.0460  0.0245  1.0000  -4.3041   0.0000   0.0000   0.0000   0.2775
   9.600   1.2127   0.03791   0.03046  -0.0458  0.0247  1.0000  -4.3346   0.0000   0.0000   0.0000   0.2769
   9.700   1.2214   0.03937   0.03204  -0.0455  0.0250  1.0000  -4.3609   0.0000   0.0000   0.0000   0.2762
   9.800   1.2292   0.04092   0.03373  -0.0452  0.0253  1.0000  -4.3821   0.0000   0.0000   0.0000   0.2756
   9.900   1.2357   0.04257   0.03552  -0.0447  0.0255  1.0000  -4.3972   0.0000   0.0000   0.0000   0.2750
  10.000   1.2408   0.04432   0.03741  -0.0442  0.0259  1.0000  -4.4054   0.0000   0.0000   0.0000   0.2743
  10.100   1.2443   0.04620   0.03943  -0.0436  0.0262  1.0000  -4.4055   0.0000   0.0000   0.0000   0.2736
  10.200   1.2462   0.04828   0.04168  -0.0429  0.0265  1.0000  -4.3944   0.0000   0.0000   0.0000   0.2728
  10.300   1.2464   0.05125   0.04482  -0.0423  0.0270  1.0000  -4.3511   0.0000   0.0000   0.0000   0.2722
  10.400   1.2543   0.05289   0.04656  -0.0421  0.0277  1.0000  -4.3794   0.0000   0.0000   0.0000   0.2717
  10.500   1.2594   0.05305   0.04677  -0.0413  0.0281  1.0000  -4.4415   0.0000   0.0000   0.0000   0.2708
  10.600   1.2634   0.05328   0.04704  -0.0404  0.0285  1.0000  -4.4958   0.0000   0.0000   0.0000   0.2699
  10.700   1.2662   0.05360   0.04744  -0.0394  0.0289  1.0000  -4.5393   0.0000   0.0000   0.0000   0.2689
  10.800   1.2673   0.05410   0.04804  -0.0383  0.0295  1.0000  -4.5655   0.0000   0.0000   0.0000   0.2678
  10.900   1.2661   0.05489   0.04898  -0.0371  0.0302  1.0000  -4.5641   0.0000   0.0000   0.0000   0.2667
  11.000   1.2616   0.05632   0.05063  -0.0357  0.0313  1.0000  -4.5153   0.0000   0.0000   0.0000   0.2656
  11.100   1.2546   0.05878   0.05336  -0.0343  0.0329  1.0000  -4.4128   0.0000   0.0000   0.0000   0.2646
  11.200   1.2446   0.06078   0.05556  -0.0332  0.0338  1.0000  -4.3445   0.0000   0.0000   0.0000   0.2638
  11.300   1.2350   0.06273   0.05766  -0.0324  0.0345  1.0000  -4.2897   0.0000   0.0000   0.0000   0.2632
  11.400   1.2258   0.06469   0.05975  -0.0318  0.0352  1.0000  -4.2423   0.0000   0.0000   0.0000   0.2628
  11.500   1.2168   0.06667   0.06187  -0.0314  0.0357  1.0000  -4.1994   0.0000   0.0000   0.0000   0.2625
  11.600   1.2078   0.06868   0.06398  -0.0311  0.0362  1.0000  -4.1605   0.0000   0.0000   0.0000   0.2624
  11.700   1.1989   0.07073   0.06614  -0.0311  0.0367  1.0000  -4.1234   0.0000   0.0000   0.0000   0.2624
  11.800   1.1899   0.07280   0.06831  -0.0312  0.0370  1.0000  -4.0886   0.0000   0.0000   0.0000   0.2626
  11.900   1.1809   0.07487   0.07047  -0.0315  0.0373  1.0000  -4.0549   0.0000   0.0000   0.0000   0.2628
  12.000   1.1716   0.07698   0.07266  -0.0319  0.0376  1.0000  -4.0224   0.0000   0.0000   0.0000   0.2632
  12.100   1.1625   0.07918   0.07494  -0.0324  0.0378  1.0000  -3.9889   0.0000   0.0000   0.0000   0.2637
  12.200   1.1533   0.08148   0.07732  -0.0331  0.0380  1.0000  -3.9551   0.0000   0.0000   0.0000   0.2644
  12.300   1.1441   0.08386   0.07977  -0.0340  0.0382  1.0000  -3.9204   0.0000   0.0000   0.0000   0.2653
  12.400   1.1350   0.08634   0.08232  -0.0350  0.0384  1.0000  -3.8845   0.0000   0.0000   0.0000   0.2663
  12.500   1.1256   0.08888   0.08494  -0.0362  0.0385  1.0000  -3.8483   0.0000   0.0000   0.0000   0.2674
  12.600   1.1164   0.09153   0.08765  -0.0375  0.0386  1.0000  -3.8098   0.0000   0.0000   0.0000   0.2687
  12.700   1.1070   0.09425   0.09043  -0.0389  0.0386  1.0000  -3.7706   0.0000   0.0000   0.0000   0.2702
  12.800   1.0977   0.09708   0.09332  -0.0406  0.0386  1.0000  -3.7290   0.0000   0.0000   0.0000   0.2719
  12.900   1.0883   0.10002   0.09631  -0.0424  0.0386  1.0000  -3.6849   0.0000   0.0000   0.0000   0.2737
  13.000   1.0787   0.10307   0.09942  -0.0443  0.0385  1.0000  -3.6385   0.0000   0.0000   0.0000   0.2758
  13.100   1.0692   0.10627   0.10267  -0.0465  0.0385  1.0000  -3.5877   0.0000   0.0000   0.0000   0.2780
  13.200   1.0595   0.10964   0.10609  -0.0488  0.0384  1.0000  -3.5332   0.0000   0.0000   0.0000   0.2806
  13.300   1.0498   0.11322   0.10971  -0.0513  0.0383  1.0000  -3.4719   0.0000   0.0000   0.0000   0.2833
  13.400   1.0399   0.11709   0.11362  -0.0541  0.0381  1.0000  -3.4033   0.0000   0.0000   0.0000   0.2864
  13.500   1.0299   0.12131   0.11787  -0.0571  0.0380  1.0000  -3.3237   0.0000   0.0000   0.0000   0.2898
  13.600   1.0199   0.12592   0.12250  -0.0604  0.0380  1.0000  -3.2300   0.0000   0.0000   0.0000   0.2935
  13.700   1.0099   0.13091   0.12750  -0.0638  0.0382  1.0000  -3.1179   0.0000   0.0000   0.0000   0.2975
  13.800   1.0005   0.13630   0.13288  -0.0671  0.0387  1.0000  -2.9887   0.0000   0.0000   0.0000   0.3015
  13.900   0.9933   0.14105   0.13761  -0.0698  0.0396  1.0000  -2.8769   0.0000   0.0000   0.0000   0.3048
  14.000   0.9878   0.14495   0.14150  -0.0719  0.0406  1.0000  -2.7927   0.0000   0.0000   0.0000   0.3072
  14.100   0.9830   0.14842   0.14495  -0.0735  0.0419  1.0000  -2.7246   0.0000   0.0000   0.0000   0.3092
  14.500   0.9790   0.16747   0.16403  -0.0802  0.0696  1.0000  -2.2383   0.0000   0.0000   0.0000   0.3165
  14.600   0.9812   0.16937   0.16593  -0.0805  0.0692  1.0000  -2.2473   0.0000   0.0000   0.0000   0.3165
  14.700   0.9820   0.17158   0.16814  -0.0809  0.0686  1.0000  -2.2492   0.0000   0.0000   0.0000   0.3167
  14.800   0.9801   0.17488   0.17143  -0.0814  0.0676  1.0000  -2.2359   0.0000   0.0000   0.0000   0.3173
  14.900   0.9656   0.18310   0.17957  -0.0843  0.0662  1.0000  -2.0939   0.0000   0.0000   0.0000   0.3217
  15.000   0.9658   0.18552   0.18199  -0.0856  0.0661  1.0000  -2.0733   0.0000   0.0000   0.0000   0.3228
  15.100   0.9661   0.18790   0.18436  -0.0868  0.0661  1.0000  -2.0534   0.0000   0.0000   0.0000   0.3239
  15.200   0.9664   0.19022   0.18668  -0.0880  0.0660  1.0000  -2.0342   0.0000   0.0000   0.0000   0.3251
  15.300   0.9668   0.19248   0.18893  -0.0892  0.0659  1.0000  -2.0156   0.0000   0.0000   0.0000   0.3262
  15.400   0.9673   0.19466   0.19111  -0.0904  0.0658  1.0000  -1.9976   0.0000   0.0000   0.0000   0.3273
  15.500   0.9678   0.19673   0.19317  -0.0916  0.0657  1.0000  -1.9800   0.0000   0.0000   0.0000   0.3284
  15.600   0.9684   0.19862   0.19506  -0.0929  0.0654  1.0000  -1.9624   0.0000   0.0000   0.0000   0.3296
  15.700   0.9691   0.20010   0.19653  -0.0945  0.0649  1.0000  -1.9436   0.0000   0.0000   0.0000   0.3310
  15.800   0.9681   0.20119   0.19761  -0.0971  0.0632  1.0000  -1.8999   0.0000   0.0000   0.0000   0.3337
  15.900   0.9671   0.20319   0.19960  -0.0991  0.0616  1.0000  -1.8608   0.0000   0.0000   0.0000   0.3359
  16.000   0.9669   0.20535   0.20175  -0.1006  0.0604  1.0000  -1.8355   0.0000   0.0000   0.0000   0.3373
  16.100   0.9671   0.20749   0.20389  -0.1018  0.0593  1.0000  -1.8168   0.0000   0.0000   0.0000   0.3385
  16.200   0.9676   0.20961   0.20601  -0.1030  0.0584  1.0000  -1.8025   0.0000   0.0000   0.0000   0.3394
  16.300   0.9684   0.21172   0.20811  -0.1040  0.0575  1.0000  -1.7915   0.0000   0.0000   0.0000   0.3403
  16.400   0.9693   0.21381   0.21020  -0.1049  0.0566  1.0000  -1.7829   0.0000   0.0000   0.0000   0.3410
  16.500   0.9704   0.21587   0.21227  -0.1058  0.0558  1.0000  -1.7764   0.0000   0.0000   0.0000   0.3417
  16.600   0.9717   0.21792   0.21432  -0.1066  0.0551  1.0000  -1.7719   0.0000   0.0000   0.0000   0.3423
  16.700   0.9730   0.21995   0.21635  -0.1074  0.0543  1.0000  -1.7693   0.0000   0.0000   0.0000   0.3428
  16.800   0.9745   0.22195   0.21835  -0.1081  0.0536  1.0000  -1.7684   0.0000   0.0000   0.0000   0.3432
  16.900   0.9761   0.22393   0.22034  -0.1088  0.0529  1.0000  -1.7695   0.0000   0.0000   0.0000   0.3436
  17.000   0.9778   0.22589   0.22230  -0.1095  0.0522  1.0000  -1.7725   0.0000   0.0000   0.0000   0.3440
  17.100   0.9796   0.22783   0.22424  -0.1101  0.0516  1.0000  -1.7778   0.0000   0.0000   0.0000   0.3442
  17.200   0.9815   0.22973   0.22615  -0.1107  0.0510  1.0000  -1.7855   0.0000   0.0000   0.0000   0.3444
  17.300   0.9837   0.23161   0.22804  -0.1111  0.0504  1.0000  -1.7958   0.0000   0.0000   0.0000   0.3445
  17.400   0.9860   0.23347   0.22990  -0.1115  0.0498  1.0000  -1.8093   0.0000   0.0000   0.0000   0.3445
  17.500   0.9886   0.23531   0.23175  -0.1119  0.0492  1.0000  -1.8265   0.0000   0.0000   0.0000   0.3443
  17.600   0.9915   0.23713   0.23358  -0.1121  0.0487  1.0000  -1.8485   0.0000   0.0000   0.0000   0.3440
  17.700   0.9950   0.23896   0.23542  -0.1121  0.0481  1.0000  -1.8761   0.0000   0.0000   0.0000   0.3435
  17.800   0.9987   0.24082   0.23729  -0.1120  0.0476  1.0000  -1.9087   0.0000   0.0000   0.0000   0.3428
  17.900   1.0023   0.24278   0.23927  -0.1119  0.0471  1.0000  -1.9431   0.0000   0.0000   0.0000   0.3421
  18.000   1.0058   0.24502   0.24153  -0.1116  0.0465  1.0000  -1.9784   0.0000   0.0000   0.0000   0.3413
  18.100   1.0068   0.24877   0.24529  -0.1115  0.0457  1.0000  -1.9907   0.0000   0.0000   0.0000   0.3409
  18.200   0.9987   0.25719   0.25365  -0.1129  0.0447  1.0000  -1.8772   0.0000   0.0000   0.0000   0.3432
  18.300   0.9995   0.25952   0.25598  -0.1138  0.0447  1.0000  -1.8650   0.0000   0.0000   0.0000   0.3439
  18.400   1.0002   0.26183   0.25830  -0.1146  0.0447  1.0000  -1.8529   0.0000   0.0000   0.0000   0.3445
  18.500   1.0009   0.26412   0.26059  -0.1155  0.0446  1.0000  -1.8410   0.0000   0.0000   0.0000   0.3452
  18.600   1.0015   0.26639   0.26286  -0.1163  0.0446  1.0000  -1.8291   0.0000   0.0000   0.0000   0.3458
  18.700   1.0022   0.26863   0.26510  -0.1172  0.0445  1.0000  -1.8173   0.0000   0.0000   0.0000   0.3465
  18.800   1.0027   0.27084   0.26731  -0.1181  0.0445  1.0000  -1.8056   0.0000   0.0000   0.0000   0.3471
  18.900   1.0033   0.27301   0.26949  -0.1189  0.0444  1.0000  -1.7939   0.0000   0.0000   0.0000   0.3478
  19.000   1.0037   0.27515   0.27163  -0.1197  0.0444  1.0000  -1.7823   0.0000   0.0000   0.0000   0.3484
  19.100   1.0041   0.27724   0.27372  -0.1206  0.0443  1.0000  -1.7706   0.0000   0.0000   0.0000   0.3491
  19.200   1.0045   0.27926   0.27575  -0.1215  0.0442  1.0000  -1.7587   0.0000   0.0000   0.0000   0.3497
  19.300   1.0048   0.28122   0.27771  -0.1223  0.0441  1.0000  -1.7467   0.0000   0.0000   0.0000   0.3504
  19.400   1.0050   0.28307   0.27957  -0.1232  0.0439  1.0000  -1.7341   0.0000   0.0000   0.0000   0.3512
  19.500   1.0043   0.28483   0.28133  -0.1243  0.0437  1.0000  -1.7139   0.0000   0.0000   0.0000   0.3522
  19.600   1.0030   0.28647   0.28297  -0.1255  0.0435  1.0000  -1.6893   0.0000   0.0000   0.0000   0.3534
  19.700   1.0009   0.28803   0.28453  -0.1268  0.0431  1.0000  -1.6580   0.0000   0.0000   0.0000   0.3548
  19.800   0.9991   0.28967   0.28617  -0.1281  0.0426  1.0000  -1.6261   0.0000   0.0000   0.0000   0.3563
  19.900   0.9979   0.29150   0.28801  -0.1294  0.0419  1.0000  -1.5973   0.0000   0.0000   0.0000   0.3576
  20.000   0.9970   0.29351   0.29001  -0.1304  0.0412  1.0000  -1.5741   0.0000   0.0000   0.0000   0.3586
  20.100   0.9963   0.29559   0.29210  -0.1312  0.0405  1.0000  -1.5558   0.0000   0.0000   0.0000   0.3594
  20.200   0.9955   0.29767   0.29419  -0.1319  0.0398  1.0000  -1.5405   0.0000   0.0000   0.0000   0.3601
  20.300   0.9945   0.29973   0.29625  -0.1325  0.0390  1.0000  -1.5274   0.0000   0.0000   0.0000   0.3607
  20.400   0.9934   0.30172   0.29825  -0.1331  0.0381  1.0000  -1.5167   0.0000   0.0000   0.0000   0.3613
  20.500   0.9922   0.30362   0.30016  -0.1336  0.0371  1.0000  -1.5087   0.0000   0.0000   0.0000   0.3618
  20.600   0.9907   0.30538   0.30194  -0.1340  0.0360  1.0000  -1.5047   0.0000   0.0000   0.0000   0.3622
  20.700   0.9882   0.30728   0.30395  -0.1343  0.0366  1.0000  -1.4811   0.0000   0.0000   0.0000   0.3628
  20.800   0.9856   0.30890   0.30558  -0.1345  0.0361  1.0000  -1.4696   0.0000   0.0000   0.0000   0.3632
  20.900   0.9822   0.31029   0.30699  -0.1346  0.0354  1.0000  -1.4602   0.0000   0.0000   0.0000   0.3637
  21.000   0.9459   0.30460   0.30139  -0.1308  0.0355  1.0000  -1.3716   0.0000   0.0000   0.0000   0.3653
  21.100   0.9359   0.30367   0.30049  -0.1301  0.0350  1.0000  -1.3471   0.0000   0.0000   0.0000   0.3660
  21.200   0.9292   0.30329   0.30014  -0.1297  0.0342  1.0000  -1.3339   0.0000   0.0000   0.0000   0.3666
  21.300   0.9241   0.30309   0.29997  -0.1294  0.0333  1.0000  -1.3309   0.0000   0.0000   0.0000   0.3669
  21.400   0.9205   0.30288   0.29978  -0.1291  0.0321  1.0000  -1.3437   0.0000   0.0000   0.0000   0.3670
  21.500   0.9192   0.30240   0.29932  -0.1284  0.0304  1.0000  -1.3969   0.0000   0.0000   0.0000   0.3663
  22.400   0.8899   0.30779   0.30482  -0.1266  0.0268  1.0000  -1.3447   0.0000   0.0000   0.0000   0.3680
  22.500   0.8872   0.30798   0.30502  -0.1270  0.0267  1.0000  -1.3256   0.0000   0.0000   0.0000   0.3689
  22.600   0.8838   0.30804   0.30509  -0.1276  0.0266  1.0000  -1.2986   0.0000   0.0000   0.0000   0.3700
  22.700   0.8806   0.30815   0.30520  -0.1284  0.0264  1.0000  -1.2696   0.0000   0.0000   0.0000   0.3712
  22.800   0.8781   0.30845   0.30550  -0.1293  0.0260  1.0000  -1.2374   0.0000   0.0000   0.0000   0.3726
  22.900   0.8767   0.30912   0.30618  -0.1304  0.0252  1.0000  -1.2010   0.0000   0.0000   0.0000   0.3740
  23.000   0.8758   0.31008   0.30714  -0.1312  0.0241  1.0000  -1.1726   0.0000   0.0000   0.0000   0.3750
  23.100   0.8747   0.31092   0.30799  -0.1317  0.0231  1.0000  -1.1568   0.0000   0.0000   0.0000   0.3756
  23.200   0.8735   0.31165   0.30874  -0.1321  0.0221  1.0000  -1.1472   0.0000   0.0000   0.0000   0.3761
  23.300   0.8723   0.31233   0.30943  -0.1324  0.0213  1.0000  -1.1407   0.0000   0.0000   0.0000   0.3766
  23.400   0.8711   0.31298   0.31008  -0.1327  0.0206  1.0000  -1.1364   0.0000   0.0000   0.0000   0.3770
  23.500   0.8701   0.31361   0.31072  -0.1330  0.0200  1.0000  -1.1338   0.0000   0.0000   0.0000   0.3774
  23.600   0.8690   0.31422   0.31135  -0.1333  0.0194  1.0000  -1.1327   0.0000   0.0000   0.0000   0.3777
  23.700   0.8681   0.31482   0.31195  -0.1335  0.0188  1.0000  -1.1329   0.0000   0.0000   0.0000   0.3781
  23.800   0.8672   0.31540   0.31255  -0.1338  0.0184  1.0000  -1.1344   0.0000   0.0000   0.0000   0.3784
  23.900   0.8663   0.31597   0.31313  -0.1340  0.0179  1.0000  -1.1373   0.0000   0.0000   0.0000   0.3787
  24.000   0.8655   0.31653   0.31369  -0.1343  0.0175  1.0000  -1.1415   0.0000   0.0000   0.0000   0.3789
  24.100   0.8648   0.31706   0.31424  -0.1345  0.0171  1.0000  -1.1472   0.0000   0.0000   0.0000   0.3792
  24.200   0.8641   0.31758   0.31477  -0.1347  0.0168  1.0000  -1.1544   0.0000   0.0000   0.0000   0.3794
  24.300   0.8635   0.31808   0.31528  -0.1349  0.0165  1.0000  -1.1634   0.0000   0.0000   0.0000   0.3796
  24.400   0.8629   0.31856   0.31577  -0.1351  0.0162  1.0000  -1.1744   0.0000   0.0000   0.0000   0.3797
  24.500   0.8624   0.31902   0.31624  -0.1353  0.0159  1.0000  -1.1876   0.0000   0.0000   0.0000   0.3798
  24.600   0.8619   0.31946   0.31669  -0.1354  0.0156  1.0000  -1.2033   0.0000   0.0000   0.0000   0.3798
  24.700   0.8616   0.31990   0.31714  -0.1354  0.0154  1.0000  -1.2220   0.0000   0.0000   0.0000   0.3797
  24.800   0.8613   0.32035   0.31761  -0.1354  0.0151  1.0000  -1.2445   0.0000   0.0000   0.0000   0.3796
  24.900   0.8612   0.32093   0.31820  -0.1352  0.0148  1.0000  -1.2717   0.0000   0.0000   0.0000   0.3791
  25.000   0.8617   0.32216   0.31944  -0.1346  0.0145  1.0000  -1.3033   0.0000   0.0000   0.0000   0.3782
  25.100   0.8573   0.32529   0.32254  -0.1343  0.0140  1.0000  -1.2248   0.0000   0.0000   0.0000   0.3788
  25.200   0.8566   0.32603   0.32328  -0.1347  0.0140  1.0000  -1.2154   0.0000   0.0000   0.0000   0.3792
  25.300   0.8560   0.32677   0.32402  -0.1351  0.0140  1.0000  -1.2061   0.0000   0.0000   0.0000   0.3796
  25.400   0.8554   0.32750   0.32476  -0.1355  0.0140  1.0000  -1.1969   0.0000   0.0000   0.0000   0.3800
  25.500   0.8547   0.32823   0.32550  -0.1358  0.0140  1.0000  -1.1880   0.0000   0.0000   0.0000   0.3804
  25.600   0.8542   0.32896   0.32624  -0.1362  0.0140  1.0000  -1.1792   0.0000   0.0000   0.0000   0.3808
  25.700   0.8536   0.32968   0.32697  -0.1366  0.0140  1.0000  -1.1705   0.0000   0.0000   0.0000   0.3812
  25.800   0.8530   0.33040   0.32769  -0.1370  0.0140  1.0000  -1.1617   0.0000   0.0000   0.0000   0.3816
  25.900   0.8524   0.33111   0.32841  -0.1374  0.0140  1.0000  -1.1531   0.0000   0.0000   0.0000   0.3820
  26.000   0.8519   0.33182   0.32912  -0.1378  0.0139  1.0000  -1.1446   0.0000   0.0000   0.0000   0.3824
  26.100   0.8514   0.33252   0.32984  -0.1382  0.0139  1.0000  -1.1362   0.0000   0.0000   0.0000   0.3828
  26.200   0.8509   0.33323   0.33055  -0.1386  0.0139  1.0000  -1.1280   0.0000   0.0000   0.0000   0.3832
  26.300   0.8504   0.33393   0.33126  -0.1390  0.0139  1.0000  -1.1198   0.0000   0.0000   0.0000   0.3836
  26.400   0.8499   0.33463   0.33197  -0.1394  0.0139  1.0000  -1.1118   0.0000   0.0000   0.0000   0.3840
  26.500   0.8495   0.33533   0.33268  -0.1398  0.0139  1.0000  -1.1039   0.0000   0.0000   0.0000   0.3844
  26.600   0.8490   0.33601   0.33336  -0.1402  0.0139  1.0000  -1.0955   0.0000   0.0000   0.0000   0.3848
  26.700   0.8485   0.33669   0.33405  -0.1406  0.0138  1.0000  -1.0872   0.0000   0.0000   0.0000   0.3852
  26.800   0.8481   0.33736   0.33473  -0.1410  0.0138  1.0000  -1.0790   0.0000   0.0000   0.0000   0.3856
  26.900   0.8477   0.33804   0.33541  -0.1415  0.0138  1.0000  -1.0708   0.0000   0.0000   0.0000   0.3860
  27.000   0.8472   0.33870   0.33608  -0.1419  0.0138  1.0000  -1.0619   0.0000   0.0000   0.0000   0.3864
  27.100   0.8467   0.33935   0.33673  -0.1424  0.0137  1.0000  -1.0518   0.0000   0.0000   0.0000   0.3869
  27.200   0.8462   0.34000   0.33739  -0.1429  0.0137  1.0000  -1.0417   0.0000   0.0000   0.0000   0.3874
  27.300   0.8457   0.34065   0.33805  -0.1434  0.0137  1.0000  -1.0316   0.0000   0.0000   0.0000   0.3879
  27.400   0.8453   0.34131   0.33872  -0.1439  0.0136  1.0000  -1.0216   0.0000   0.0000   0.0000   0.3884
  27.500   0.8449   0.34198   0.33940  -0.1444  0.0136  1.0000  -1.0114   0.0000   0.0000   0.0000   0.3889
  27.600   0.8445   0.34266   0.34008  -0.1449  0.0136  1.0000  -1.0012   0.0000   0.0000   0.0000   0.3893
  27.700   0.8442   0.34336   0.34079  -0.1454  0.0135  1.0000  -0.9909   0.0000   0.0000   0.0000   0.3898
  27.800   0.8440   0.34408   0.34151  -0.1459  0.0134  1.0000  -0.9804   0.0000   0.0000   0.0000   0.3903
  27.900   0.8438   0.34482   0.34226  -0.1465  0.0134  1.0000  -0.9696   0.0000   0.0000   0.0000   0.3908
  28.000   0.8437   0.34560   0.34305  -0.1470  0.0133  1.0000  -0.9585   0.0000   0.0000   0.0000   0.3913
  28.100   0.8437   0.34642   0.34387  -0.1476  0.0131  1.0000  -0.9471   0.0000   0.0000   0.0000   0.3918
  28.200   0.8438   0.34728   0.34473  -0.1482  0.0130  1.0000  -0.9356   0.0000   0.0000   0.0000   0.3922
  28.300   0.8440   0.34817   0.34563  -0.1487  0.0128  1.0000  -0.9243   0.0000   0.0000   0.0000   0.3926
  28.400   0.8442   0.34908   0.34655  -0.1493  0.0127  1.0000  -0.9136   0.0000   0.0000   0.0000   0.3930
  28.500   0.8444   0.34998   0.34746  -0.1498  0.0125  1.0000  -0.9040   0.0000   0.0000   0.0000   0.3934
  28.600   0.8445   0.35087   0.34835  -0.1502  0.0122  1.0000  -0.8955   0.0000   0.0000   0.0000   0.3937
  28.700   0.8446   0.35174   0.34923  -0.1507  0.0120  1.0000  -0.8881   0.0000   0.0000   0.0000   0.3940
  28.800   0.8447   0.35259   0.35009  -0.1511  0.0118  1.0000  -0.8816   0.0000   0.0000   0.0000   0.3943
  28.900   0.8447   0.35343   0.35100  -0.1515  0.0116  1.0000  -0.8763   0.0000   0.0000   0.0000   0.3946
  29.000   0.8446   0.35425   0.35183  -0.1519  0.0114  1.0000  -0.8713   0.0000   0.0000   0.0000   0.3949
  29.100   0.8446   0.35506   0.35265  -0.1523  0.0112  1.0000  -0.8667   0.0000   0.0000   0.0000   0.3951
  29.200   0.8445   0.35586   0.35346  -0.1527  0.0111  1.0000  -0.8625   0.0000   0.0000   0.0000   0.3954
  29.300   0.8445   0.35666   0.35427  -0.1531  0.0109  1.0000  -0.8586   0.0000   0.0000   0.0000   0.3957
  29.400   0.8444   0.35746   0.35507  -0.1535  0.0107  1.0000  -0.8549   0.0000   0.0000   0.0000   0.3959
  29.500   0.8443   0.35825   0.35586  -0.1539  0.0105  1.0000  -0.8516   0.0000   0.0000   0.0000   0.3962
  29.600   0.8442   0.35903   0.35666  -0.1543  0.0104  1.0000  -0.8484   0.0000   0.0000   0.0000   0.3964
  29.700   0.8441   0.35981   0.35745  -0.1547  0.0102  1.0000  -0.8454   0.0000   0.0000   0.0000   0.3967
  29.800   0.8441   0.36059   0.35824  -0.1551  0.0101  1.0000  -0.8426   0.0000   0.0000   0.0000   0.3969
  29.900   0.8440   0.36137   0.35902  -0.1555  0.0099  1.0000  -0.8400   0.0000   0.0000   0.0000   0.3972
  30.000   0.8439   0.36215   0.35980  -0.1559  0.0098  1.0000  -0.8375   0.0000   0.0000   0.0000   0.3974


