xflr5 v6.61

 Calculated polar for: E387

 1 1 Reynolds number fixed          Mach number fixed         

 xtrf =   1.000 (top)        1.000 (bottom)
 Mach =   0.000     Re =     0.400 e 6     Ncrit =   9.000

  alpha     CL        CD       CDp       Cm    Top Xtr Bot Xtr   Cpmin    Chinge    XCp    
 ------- -------- --------- --------- -------- ------- ------- -------- --------- ---------
 -10.000  -0.3605   0.11469   0.11200  -0.0177  1.0000  0.0134  -1.4607   0.0000   0.0000   0.0000   0.1946
  -9.900  -0.3581   0.11341   0.11073  -0.0183  1.0000  0.0136  -1.4637   0.0000   0.0000   0.0000   0.1928
  -9.800  -0.3557   0.11213   0.10946  -0.0189  1.0000  0.0138  -1.4670   0.0000   0.0000   0.0000   0.1909
  -9.700  -0.3533   0.11086   0.10819  -0.0194  1.0000  0.0140  -1.4707   0.0000   0.0000   0.0000   0.1889
  -9.600  -0.3509   0.10958   0.10692  -0.0200  1.0000  0.0142  -1.4749   0.0000   0.0000   0.0000   0.1869
  -9.500  -0.3486   0.10830   0.10565  -0.0206  1.0000  0.0144  -1.4796   0.0000   0.0000   0.0000   0.1849
  -9.400  -0.3463   0.10703   0.10439  -0.0212  1.0000  0.0146  -1.4848   0.0000   0.0000   0.0000   0.1829
  -9.300  -0.3440   0.10576   0.10313  -0.0218  1.0000  0.0148  -1.4906   0.0000   0.0000   0.0000   0.1808
  -9.200  -0.3417   0.10450   0.10187  -0.0224  1.0000  0.0151  -1.4972   0.0000   0.0000   0.0000   0.1786
  -9.100  -0.3394   0.10325   0.10062  -0.0230  1.0000  0.0153  -1.5045   0.0000   0.0000   0.0000   0.1764
  -9.000  -0.3372   0.10200   0.09939  -0.0236  1.0000  0.0155  -1.5126   0.0000   0.0000   0.0000   0.1742
  -8.900  -0.3350   0.10077   0.09817  -0.0243  1.0000  0.0158  -1.5218   0.0000   0.0000   0.0000   0.1719
  -8.800  -0.3329   0.09956   0.09697  -0.0249  1.0000  0.0160  -1.5320   0.0000   0.0000   0.0000   0.1695
  -8.700  -0.3308   0.09838   0.09579  -0.0256  1.0000  0.0163  -1.5433   0.0000   0.0000   0.0000   0.1670
  -8.600  -0.3287   0.09722   0.09464  -0.0263  1.0000  0.0166  -1.5555   0.0000   0.0000   0.0000   0.1644
  -8.500  -0.3266   0.09608   0.09351  -0.0271  1.0000  0.0168  -1.5686   0.0000   0.0000   0.0000   0.1616
  -8.400  -0.3242   0.09496   0.09241  -0.0279  1.0000  0.0171  -1.5819   0.0000   0.0000   0.0000   0.1585
  -8.300  -0.3216   0.09390   0.09136  -0.0287  1.0000  0.0174  -1.5921   0.0000   0.0000   0.0000   0.1553
  -8.200  -0.3181   0.09297   0.09044  -0.0294  1.0000  0.0177  -1.5922   0.0000   0.0000   0.0000   0.1522
  -8.100  -0.3148   0.09207   0.08956  -0.0301  1.0000  0.0179  -1.5901   0.0000   0.0000   0.0000   0.1491
  -8.000  -0.3118   0.09113   0.08863  -0.0308  1.0000  0.0181  -1.5895   0.0000   0.0000   0.0000   0.1461
  -7.900  -0.3093   0.09013   0.08764  -0.0314  1.0000  0.0182  -1.5911   0.0000   0.0000   0.0000   0.1433
  -7.800  -0.3072   0.08908   0.08660  -0.0320  1.0000  0.0183  -1.5947   0.0000   0.0000   0.0000   0.1406
  -7.700  -0.3053   0.08799   0.08553  -0.0326  1.0000  0.0184  -1.5997   0.0000   0.0000   0.0000   0.1381
  -7.600  -0.3036   0.08689   0.08445  -0.0332  1.0000  0.0184  -1.6061   0.0000   0.0000   0.0000   0.1357
  -7.500  -0.3024   0.08579   0.08337  -0.0337  1.0000  0.0184  -1.6135   0.0000   0.0000   0.0000   0.1337
  -7.400  -0.3017   0.08471   0.08230  -0.0341  1.0000  0.0185  -1.6220   0.0000   0.0000   0.0000   0.1320
  -7.300  -0.3015   0.08365   0.08128  -0.0345  1.0000  0.0185  -1.6315   0.0000   0.0000   0.0000   0.1310
  -7.200  -0.3023   0.08266   0.08031  -0.0346  1.0000  0.0185  -1.6421   0.0000   0.0000   0.0000   0.1309
  -7.100  -0.3039   0.08174   0.07942  -0.0346  1.0000  0.0185  -1.6537   0.0000   0.0000   0.0000   0.1317
  -7.000  -0.3003   0.08029   0.07799  -0.0362  0.9957  0.0186  -1.6639   0.0000   0.0000   0.0000   0.1249
  -6.900  -0.2881   0.07801   0.07570  -0.0405  0.9890  0.0186  -1.6735   0.0000   0.0000   0.0000   0.1048
  -6.800  -0.2761   0.07572   0.07340  -0.0448  0.9806  0.0186  -1.6852   0.0000   0.0000   0.0000   0.0833
  -6.700  -0.2629   0.07327   0.07093  -0.0494  0.9727  0.0187  -1.6987   0.0000   0.0000   0.0000   0.0573
  -6.600  -0.2506   0.07088   0.06852  -0.0537  0.9620  0.0187  -1.7143   0.0000   0.0000   0.0000   0.0308
  -6.500  -0.2369   0.06833   0.06593  -0.0583  0.9523  0.0187  -1.7321   0.0000   0.0000   0.0000  -0.0014
  -6.400  -0.2371   0.06125   0.05882  -0.0656  0.9373  0.0194  -1.9993   0.0000   0.0000   0.0000  -0.0319
  -6.300  -0.2327   0.05764   0.05515  -0.0692  0.9251  0.0201  -2.0683   0.0000   0.0000   0.0000  -0.0526
  -6.200  -0.2283   0.05574   0.05320  -0.0706  0.9114  0.0206  -2.0618   0.0000   0.0000   0.0000  -0.0645
  -6.100  -0.2230   0.05439   0.05178  -0.0715  0.8990  0.0211  -2.0259   0.0000   0.0000   0.0000  -0.0756
  -6.000  -0.2179   0.05361   0.05097  -0.0715  0.8884  0.0216  -1.9590   0.0000   0.0000   0.0000  -0.0831
  -5.900  -0.2124   0.05271   0.05002  -0.0718  0.8775  0.0221  -1.9058   0.0000   0.0000   0.0000  -0.0929
  -5.800  -0.2065   0.05170   0.04894  -0.0722  0.8673  0.0226  -1.8631   0.0000   0.0000   0.0000  -0.1048
  -5.700  -0.2001   0.05062   0.04779  -0.0728  0.8585  0.0232  -1.8262   0.0000   0.0000   0.0000  -0.1190
  -5.600  -0.1931   0.04938   0.04649  -0.0737  0.8510  0.0238  -1.7986   0.0000   0.0000   0.0000  -0.1367
  -5.500  -0.1858   0.04796   0.04499  -0.0748  0.8432  0.0243  -1.7858   0.0000   0.0000   0.0000  -0.1574
  -5.400  -0.1780   0.04587   0.04267  -0.0763  0.8357  0.0242  -1.8213   0.0000   0.0000   0.0000  -0.1840
  -5.300  -0.1704   0.04480   0.04152  -0.0769  0.8284  0.0252  -1.7839   0.0000   0.0000   0.0000  -0.2067
  -5.200  -0.1623   0.04360   0.04023  -0.0777  0.8213  0.0264  -1.7574   0.0000   0.0000   0.0000  -0.2344
  -5.100  -0.1532   0.04224   0.03881  -0.0787  0.8167  0.0278  -1.7394   0.0000   0.0000   0.0000  -0.2692
  -5.000  -0.1436   0.04087   0.03736  -0.0796  0.8116  0.0295  -1.7291   0.0000   0.0000   0.0000  -0.3103
  -4.900  -0.1326   0.03965   0.03604  -0.0804  0.8062  0.0316  -1.7255   0.0000   0.0000   0.0000  -0.3627
  -4.800  -0.1149   0.04120   0.03748  -0.0798  0.8004  0.0350  -1.6467   0.0000   0.0000   0.0000  -0.4521
  -4.700  -0.1037   0.04088   0.03703  -0.0801  0.7949  0.0355  -1.6200   0.0000   0.0000   0.0000  -0.5303
  -4.600  -0.0942   0.03995   0.03596  -0.0805  0.7894  0.0356  -1.6086   0.0000   0.0000   0.0000  -0.6130
  -4.400  -0.0845   0.03172   0.02725  -0.0836  0.7797  0.0378  -1.8073   0.0000   0.0000   0.0000  -0.7495
  -4.300  -0.0773   0.02997   0.02548  -0.0842  0.7770  0.0396  -1.7631   0.0000   0.0000   0.0000  -0.8496
  -4.200  -0.0686   0.02942   0.02498  -0.0843  0.7737  0.0413  -1.6742   0.0000   0.0000   0.0000  -0.9901
  -4.100  -0.0595   0.02898   0.02456  -0.0844  0.7699  0.0431  -1.5939   0.0000   0.0000   0.0000  -1.1812
  -4.000  -0.0498   0.02847   0.02401  -0.0844  0.7660  0.0454  -1.5296   0.0000   0.0000   0.0000  -1.4598
  -3.900  -0.0396   0.02789   0.02336  -0.0845  0.7621  0.0483  -1.4801   0.0000   0.0000   0.0000  -1.9042
  -3.800  -0.0287   0.02722   0.02259  -0.0846  0.7582  0.0509  -1.4472   0.0000   0.0000   0.0000  -2.7208
  -3.700  -0.0172   0.02680   0.02206  -0.0844  0.7542  0.0535  -1.4137   0.0000   0.0000   0.0000  -4.6895
  -3.600  -0.0051   0.02700   0.02217  -0.0841  0.7500  0.0559  -1.3654   0.0000   0.0000   0.0000  -16.5158
  -3.500   0.0076   0.02786   0.02294  -0.0835  0.7452  0.0575  -1.3014   0.0000   0.0000   0.0000  11.2982
  -3.400   0.0189   0.02763   0.02259  -0.0834  0.7401  0.0578  -1.2655   0.0000   0.0000   0.0000   4.6931
  -3.200   0.0347   0.02126   0.01577  -0.0850  0.7339  0.0638  -1.3226   0.0000   0.0000   0.0000   2.7134
  -3.100   0.0454   0.02048   0.01496  -0.0850  0.7317  0.0654  -1.2814   0.0000   0.0000   0.0000   2.1367
  -3.000   0.0562   0.01978   0.01423  -0.0850  0.7292  0.0668  -1.2408   0.0000   0.0000   0.0000   1.7723
  -2.900   0.0672   0.01911   0.01351  -0.0849  0.7265  0.0682  -1.2038   0.0000   0.0000   0.0000   1.5216
  -2.800   0.0784   0.01843   0.01275  -0.0848  0.7236  0.0693  -1.1722   0.0000   0.0000   0.0000   1.3384
  -2.700   0.0956   0.01515   0.00875  -0.0832  0.7216  0.0313  -1.4754   0.0000   0.0000   0.0000   1.1263
  -2.600   0.1078   0.01308   0.00629  -0.0824  0.7191  0.0229  -1.6345   0.0000   0.0000   0.0000   1.0201
  -2.500   0.1195   0.01294   0.00607  -0.0821  0.7161  0.0204  -1.5955   0.0000   0.0000   0.0000   0.9421
  -2.400   0.1310   0.01313   0.00626  -0.0820  0.7130  0.0193  -1.5096   0.0000   0.0000   0.0000   0.8797
  -2.300   0.1420   0.01249   0.00553  -0.0817  0.7101  0.0181  -1.4975   0.0000   0.0000   0.0000   0.8293
  -2.200   0.1527   0.01179   0.00472  -0.0815  0.7071  0.0174  -1.4919   0.0000   0.0000   0.0000   0.7867
  -2.100   0.1635   0.01134   0.00419  -0.0812  0.7039  0.0168  -1.4660   0.0000   0.0000   0.0000   0.7495
  -2.000   0.1744   0.01101   0.00377  -0.0810  0.7005  0.0164  -1.4310   0.0000   0.0000   0.0000   0.7170
  -1.900   0.1855   0.01075   0.00343  -0.0809  0.6967  0.0160  -1.3896   0.0000   0.0000   0.0000   0.6883
  -1.800   0.1967   0.01057   0.00317  -0.0808  0.6924  0.0157  -1.3428   0.0000   0.0000   0.0000   0.6627
  -1.700   0.2080   0.01042   0.00296  -0.0807  0.6889  0.0155  -1.2914   0.0000   0.0000   0.0000   0.6398
  -1.600   0.2193   0.01026   0.00275  -0.0807  0.6877  0.0154  -1.2366   0.0000   0.0000   0.0000   0.6192
  -1.500   0.2307   0.01014   0.00258  -0.0806  0.6863  0.0154  -1.1790   0.0000   0.0000   0.0000   0.6006
  -1.400   0.2420   0.01004   0.00244  -0.0805  0.6847  0.0154  -1.1193   0.0000   0.0000   0.0000   0.5838
  -1.300   0.2534   0.00996   0.00232  -0.0805  0.6828  0.0156  -1.0577   0.0000   0.0000   0.0000   0.5685
  -1.200   0.2647   0.00989   0.00223  -0.0805  0.6809  0.0158  -0.9943   0.0000   0.0000   0.0000   0.5545
  -1.100   0.2761   0.00984   0.00215  -0.0804  0.6788  0.0163  -0.9290   0.0000   0.0000   0.0000   0.5417
  -1.000   0.2874   0.00980   0.00209  -0.0804  0.6766  0.0170  -0.8608   0.0000   0.0000   0.0000   0.5300
  -0.900   0.2987   0.00977   0.00204  -0.0803  0.6744  0.0181  -0.7885   0.0000   0.0000   0.0000   0.5191
  -0.800   0.3099   0.00969   0.00199  -0.0803  0.6721  0.0302  -0.7133   0.0000   0.0000   0.0000   0.5091
  -0.700   0.3204   0.00922   0.00195  -0.0804  0.6697  0.1455  -0.6364   0.0000   0.0000   0.0000   0.5010
  -0.500   0.3426   0.00682   0.00222  -0.0806  0.6649  1.0000  -0.6066   0.0000   0.0000   0.0000   0.4849
  -0.400   0.3535   0.00685   0.00219  -0.0805  0.6621  1.0000  -0.6138   0.0000   0.0000   0.0000   0.4773
  -0.300   0.3643   0.00688   0.00217  -0.0804  0.6591  1.0000  -0.6210   0.0000   0.0000   0.0000   0.4702
  -0.200   0.3751   0.00693   0.00216  -0.0803  0.6559  1.0000  -0.6281   0.0000   0.0000   0.0000   0.4635
  -0.100   0.3860   0.00698   0.00216  -0.0803  0.6524  1.0000  -0.6353   0.0000   0.0000   0.0000   0.4573
   0.000   0.3969   0.00705   0.00218  -0.0802  0.6485  1.0000  -0.6423   0.0000   0.0000   0.0000   0.4513
   0.100   0.4079   0.00713   0.00221  -0.0802  0.6444  1.0000  -0.6494   0.0000   0.0000   0.0000   0.4458
   0.200   0.4190   0.00722   0.00226  -0.0803  0.6411  1.0000  -0.6564   0.0000   0.0000   0.0000   0.4406
   0.300   0.4301   0.00723   0.00226  -0.0802  0.6402  1.0000  -0.6637   0.0000   0.0000   0.0000   0.4355
   0.400   0.4412   0.00724   0.00225  -0.0802  0.6392  1.0000  -0.6710   0.0000   0.0000   0.0000   0.4307
   0.500   0.4523   0.00726   0.00225  -0.0802  0.6380  1.0000  -0.6783   0.0000   0.0000   0.0000   0.4261
   0.600   0.4634   0.00728   0.00226  -0.0802  0.6366  1.0000  -0.6856   0.0000   0.0000   0.0000   0.4218
   0.700   0.4744   0.00730   0.00226  -0.0802  0.6350  1.0000  -0.6929   0.0000   0.0000   0.0000   0.4176
   0.800   0.4855   0.00732   0.00227  -0.0802  0.6333  1.0000  -0.7002   0.0000   0.0000   0.0000   0.4137
   0.900   0.4966   0.00734   0.00228  -0.0802  0.6315  1.0000  -0.7075   0.0000   0.0000   0.0000   0.4099
   1.000   0.5077   0.00737   0.00229  -0.0802  0.6296  1.0000  -0.7148   0.0000   0.0000   0.0000   0.4063
   1.100   0.5187   0.00740   0.00230  -0.0802  0.6275  1.0000  -0.7221   0.0000   0.0000   0.0000   0.4028
   1.200   0.5298   0.00743   0.00232  -0.0801  0.6255  1.0000  -0.7301   0.0000   0.0000   0.0000   0.3995
   1.300   0.5408   0.00746   0.00233  -0.0801  0.6234  1.0000  -0.7384   0.0000   0.0000   0.0000   0.3963
   1.400   0.5519   0.00749   0.00235  -0.0801  0.6213  1.0000  -0.7467   0.0000   0.0000   0.0000   0.3932
   1.500   0.5629   0.00752   0.00236  -0.0801  0.6191  1.0000  -0.7550   0.0000   0.0000   0.0000   0.3902
   1.600   0.5739   0.00756   0.00238  -0.0801  0.6168  1.0000  -0.7633   0.0000   0.0000   0.0000   0.3874
   1.700   0.5849   0.00759   0.00239  -0.0800  0.6143  1.0000  -0.7722   0.0000   0.0000   0.0000   0.3846
   1.800   0.5958   0.00763   0.00241  -0.0800  0.6117  1.0000  -0.7816   0.0000   0.0000   0.0000   0.3820
   1.900   0.6067   0.00768   0.00243  -0.0799  0.6088  1.0000  -0.7910   0.0000   0.0000   0.0000   0.3794
   2.000   0.6176   0.00774   0.00245  -0.0799  0.6056  1.0000  -0.8005   0.0000   0.0000   0.0000   0.3769
   2.100   0.6285   0.00781   0.00250  -0.0799  0.6020  1.0000  -0.8110   0.0000   0.0000   0.0000   0.3746
   2.200   0.6395   0.00792   0.00258  -0.0799  0.5979  1.0000  -0.8223   0.0000   0.0000   0.0000   0.3723
   2.300   0.6505   0.00806   0.00270  -0.0799  0.5934  1.0000  -0.8343   0.0000   0.0000   0.0000   0.3702
   2.400   0.6615   0.00809   0.00273  -0.0799  0.5919  1.0000  -0.8466   0.0000   0.0000   0.0000   0.3681
   2.500   0.6726   0.00809   0.00274  -0.0799  0.5908  1.0000  -0.8594   0.0000   0.0000   0.0000   0.3660
   2.600   0.6836   0.00810   0.00275  -0.0799  0.5895  1.0000  -0.8736   0.0000   0.0000   0.0000   0.3639
   2.700   0.6946   0.00810   0.00277  -0.0799  0.5878  1.0000  -0.8878   0.0000   0.0000   0.0000   0.3620
   2.800   0.7056   0.00812   0.00278  -0.0799  0.5859  1.0000  -0.9024   0.0000   0.0000   0.0000   0.3601
   2.900   0.7162   0.00800   0.00268  -0.0796  0.5788  1.0000  -0.9191   0.0000   0.0000   0.0000   0.3580
   3.000   0.7261   0.00790   0.00246  -0.0792  0.5634  1.0000  -0.9358   0.0000   0.0000   0.0000   0.3558
   3.100   0.7354   0.00800   0.00239  -0.0788  0.5452  1.0000  -0.9527   0.0000   0.0000   0.0000   0.3538
   3.200   0.7462   0.00794   0.00234  -0.0787  0.5375  1.0000  -0.9725   0.0000   0.0000   0.0000   0.3520
   3.300   0.7568   0.00795   0.00231  -0.0786  0.5281  1.0000  -0.9922   0.0000   0.0000   0.0000   0.3503
   3.400   0.7673   0.00799   0.00230  -0.0785  0.5188  1.0000  -1.0117   0.0000   0.0000   0.0000   0.3486
   3.500   0.7778   0.00805   0.00231  -0.0784  0.5113  1.0000  -1.0313   0.0000   0.0000   0.0000   0.3470
   3.600   0.7883   0.00812   0.00233  -0.0783  0.5053  1.0000  -1.0508   0.0000   0.0000   0.0000   0.3454
   3.700   0.7987   0.00819   0.00237  -0.0782  0.4991  1.0000  -1.0732   0.0000   0.0000   0.0000   0.3439
   3.800   0.8095   0.00825   0.00242  -0.0781  0.4944  1.0000  -1.0974   0.0000   0.0000   0.0000   0.3425
   3.900   0.8205   0.00828   0.00246  -0.0781  0.4911  1.0000  -1.1258   0.0000   0.0000   0.0000   0.3411
   4.000   0.8314   0.00832   0.00249  -0.0781  0.4867  1.0000  -1.1557   0.0000   0.0000   0.0000   0.3397
   4.100   0.8422   0.00837   0.00253  -0.0781  0.4811  1.0000  -1.1856   0.0000   0.0000   0.0000   0.3384
   4.200   0.8528   0.00843   0.00257  -0.0780  0.4738  1.0000  -1.2154   0.0000   0.0000   0.0000   0.3370
   4.300   0.8631   0.00851   0.00260  -0.0779  0.4648  1.0000  -1.2450   0.0000   0.0000   0.0000   0.3357
   4.400   0.8731   0.00862   0.00264  -0.0777  0.4543  1.0000  -1.2741   0.0000   0.0000   0.0000   0.3344
   4.500   0.8833   0.00871   0.00270  -0.0776  0.4456  1.0000  -1.3037   0.0000   0.0000   0.0000   0.3331
   4.600   0.8940   0.00877   0.00275  -0.0776  0.4379  1.0000  -1.3533   0.0000   0.0000   0.0000   0.3319
   4.700   0.9042   0.00887   0.00280  -0.0775  0.4256  1.0000  -1.4409   0.0000   0.0000   0.0000   0.3307
   4.800   0.9136   0.00904   0.00286  -0.0773  0.4088  1.0000  -1.5265   0.0000   0.0000   0.0000   0.3295
   4.900   0.9234   0.00919   0.00294  -0.0771  0.3940  1.0000  -1.6144   0.0000   0.0000   0.0000   0.3283
   5.000   0.9326   0.00940   0.00303  -0.0769  0.3703  1.0000  -1.7008   0.0000   0.0000   0.0000   0.3271
   5.100   0.9409   0.00971   0.00317  -0.0765  0.3395  1.0000  -1.7838   0.0000   0.0000   0.0000   0.3259
   5.200   0.9479   0.01017   0.00337  -0.0760  0.2955  1.0000  -1.8611   0.0000   0.0000   0.0000   0.3247
   5.300   0.9544   0.01072   0.00365  -0.0756  0.2493  1.0000  -1.9357   0.0000   0.0000   0.0000   0.3236
   5.400   0.9607   0.01131   0.00396  -0.0750  0.2031  1.0000  -2.0076   0.0000   0.0000   0.0000   0.3224
   5.500   0.9662   0.01199   0.00434  -0.0745  0.1545  1.0000  -2.0742   0.0000   0.0000   0.0000   0.3213
   5.600   0.9723   0.01260   0.00469  -0.0739  0.1116  1.0000  -2.1400   0.0000   0.0000   0.0000   0.3202
   5.700   0.9772   0.01335   0.00514  -0.0733  0.0650  1.0000  -2.1968   0.0000   0.0000   0.0000   0.3190
   5.800   0.9810   0.01422   0.00571  -0.0724  0.0170  1.0000  -2.2467   0.0000   0.0000   0.0000   0.3177
   5.900   0.9907   0.01440   0.00589  -0.0722  0.0135  1.0000  -2.3227   0.0000   0.0000   0.0000   0.3167
   6.000   1.0004   0.01455   0.00607  -0.0720  0.0129  1.0000  -2.4013   0.0000   0.0000   0.0000   0.3156
   6.100   1.0102   0.01471   0.00626  -0.0718  0.0125  1.0000  -2.4805   0.0000   0.0000   0.0000   0.3146
   6.200   1.0199   0.01487   0.00646  -0.0716  0.0121  1.0000  -2.5596   0.0000   0.0000   0.0000   0.3136
   6.300   1.0295   0.01504   0.00667  -0.0713  0.0119  1.0000  -2.6383   0.0000   0.0000   0.0000   0.3126
   6.400   1.0390   0.01522   0.00689  -0.0711  0.0118  1.0000  -2.7159   0.0000   0.0000   0.0000   0.3116
   6.500   1.0484   0.01541   0.00712  -0.0708  0.0117  1.0000  -2.7925   0.0000   0.0000   0.0000   0.3106
   6.600   1.0577   0.01562   0.00737  -0.0705  0.0116  1.0000  -2.8680   0.0000   0.0000   0.0000   0.3097
   6.700   1.0668   0.01584   0.00765  -0.0702  0.0116  1.0000  -2.9426   0.0000   0.0000   0.0000   0.3087
   6.800   1.0769   0.01594   0.00811  -0.0701  0.0124  1.0000  -3.1108   0.0000   0.0000   0.0000   0.3078
   6.900   1.0862   0.01612   0.00838  -0.0698  0.0127  1.0000  -3.2266   0.0000   0.0000   0.0000   0.3069
   7.000   1.0949   0.01637   0.00871  -0.0695  0.0128  1.0000  -3.3113   0.0000   0.0000   0.0000   0.3059
   7.100   1.1032   0.01667   0.00909  -0.0690  0.0128  1.0000  -3.3865   0.0000   0.0000   0.0000   0.3049
   7.200   1.1113   0.01699   0.00949  -0.0685  0.0128  1.0000  -3.4561   0.0000   0.0000   0.0000   0.3039
   7.300   1.1188   0.01736   0.00994  -0.0680  0.0128  1.0000  -3.5209   0.0000   0.0000   0.0000   0.3029
   7.400   1.1258   0.01777   0.01042  -0.0674  0.0128  1.0000  -3.5818   0.0000   0.0000   0.0000   0.3018
   7.500   1.1325   0.01820   0.01094  -0.0667  0.0129  1.0000  -3.6389   0.0000   0.0000   0.0000   0.3008
   7.600   1.1386   0.01868   0.01149  -0.0659  0.0129  1.0000  -3.6923   0.0000   0.0000   0.0000   0.2997
   7.700   1.1442   0.01919   0.01208  -0.0651  0.0130  1.0000  -3.7419   0.0000   0.0000   0.0000   0.2985
   7.800   1.1492   0.01975   0.01271  -0.0642  0.0130  1.0000  -3.7877   0.0000   0.0000   0.0000   0.2974
   7.900   1.1537   0.02034   0.01337  -0.0633  0.0131  1.0000  -3.8299   0.0000   0.0000   0.0000   0.2962
   8.000   1.1577   0.02097   0.01407  -0.0623  0.0132  1.0000  -3.8687   0.0000   0.0000   0.0000   0.2950
   8.100   1.1613   0.02164   0.01481  -0.0612  0.0133  1.0000  -3.9039   0.0000   0.0000   0.0000   0.2938
   8.200   1.1646   0.02236   0.01559  -0.0601  0.0134  1.0000  -3.9355   0.0000   0.0000   0.0000   0.2926
   8.300   1.1677   0.02313   0.01643  -0.0590  0.0135  1.0000  -3.9632   0.0000   0.0000   0.0000   0.2914
   8.400   1.1707   0.02398   0.01735  -0.0579  0.0136  1.0000  -3.9861   0.0000   0.0000   0.0000   0.2901
   8.500   1.1736   0.02497   0.01841  -0.0567  0.0137  1.0000  -4.0012   0.0000   0.0000   0.0000   0.2889
   8.600   1.1769   0.02644   0.01996  -0.0556  0.0139  1.0000  -3.9887   0.0000   0.0000   0.0000   0.2877
   8.700   1.1838   0.02745   0.02104  -0.0550  0.0143  1.0000  -4.0192   0.0000   0.0000   0.0000   0.2868
   8.800   1.1911   0.02772   0.02133  -0.0545  0.0145  1.0000  -4.0981   0.0000   0.0000   0.0000   0.2860
   8.900   1.1981   0.02799   0.02163  -0.0539  0.0147  1.0000  -4.1757   0.0000   0.0000   0.0000   0.2851
   9.000   1.2050   0.02828   0.02194  -0.0533  0.0150  1.0000  -4.2521   0.0000   0.0000   0.0000   0.2842
   9.100   1.2119   0.02859   0.02228  -0.0527  0.0154  1.0000  -4.3265   0.0000   0.0000   0.0000   0.2833
   9.200   1.2189   0.02894   0.02268  -0.0521  0.0158  1.0000  -4.3974   0.0000   0.0000   0.0000   0.2824
   9.300   1.2264   0.02938   0.02318  -0.0515  0.0163  1.0000  -4.4599   0.0000   0.0000   0.0000   0.2815
  13.600   1.0108   0.13233   0.13021  -0.0669  0.0358  1.0000  -2.8876   0.0000   0.0000   0.0000   0.3008
  13.700   1.0044   0.13683   0.13470  -0.0697  0.0355  1.0000  -2.8011   0.0000   0.0000   0.0000   0.3040
  13.800   1.0002   0.14025   0.13810  -0.0718  0.0351  1.0000  -2.7454   0.0000   0.0000   0.0000   0.3064
  13.900   0.9970   0.14324   0.14109  -0.0736  0.0347  1.0000  -2.7031   0.0000   0.0000   0.0000   0.3084
  14.000   0.9946   0.14598   0.14382  -0.0752  0.0343  1.0000  -2.6697   0.0000   0.0000   0.0000   0.3101
  14.100   0.9927   0.14854   0.14638  -0.0766  0.0339  1.0000  -2.6433   0.0000   0.0000   0.0000   0.3116
  14.200   0.9914   0.15096   0.14879  -0.0780  0.0335  1.0000  -2.6227   0.0000   0.0000   0.0000   0.3130
  14.300   0.9905   0.15325   0.15108  -0.0793  0.0331  1.0000  -2.6073   0.0000   0.0000   0.0000   0.3143
  14.400   0.9900   0.15543   0.15325  -0.0804  0.0327  1.0000  -2.5967   0.0000   0.0000   0.0000   0.3154
  14.500   0.9899   0.15751   0.15533  -0.0815  0.0324  1.0000  -2.5905   0.0000   0.0000   0.0000   0.3164
  14.600   0.9900   0.15950   0.15732  -0.0825  0.0320  1.0000  -2.5886   0.0000   0.0000   0.0000   0.3173
  14.700   0.9905   0.16140   0.15921  -0.0834  0.0317  1.0000  -2.5909   0.0000   0.0000   0.0000   0.3180
  14.800   0.9912   0.16321   0.16102  -0.0843  0.0314  1.0000  -2.5973   0.0000   0.0000   0.0000   0.3187
  14.900   0.9922   0.16493   0.16275  -0.0850  0.0310  1.0000  -2.6077   0.0000   0.0000   0.0000   0.3192
  15.000   0.9935   0.16657   0.16439  -0.0857  0.0307  1.0000  -2.6222   0.0000   0.0000   0.0000   0.3197
  15.100   0.9949   0.16814   0.16596  -0.0864  0.0304  1.0000  -2.6407   0.0000   0.0000   0.0000   0.3200
  15.200   0.9957   0.16998   0.16781  -0.0872  0.0301  1.0000  -2.6483   0.0000   0.0000   0.0000   0.3207
  15.300   0.9960   0.17198   0.16980  -0.0881  0.0298  1.0000  -2.6506   0.0000   0.0000   0.0000   0.3214
  15.400   0.9961   0.17403   0.17185  -0.0890  0.0294  1.0000  -2.6512   0.0000   0.0000   0.0000   0.3222
  15.500   0.9957   0.17628   0.17410  -0.0899  0.0291  1.0000  -2.6452   0.0000   0.0000   0.0000   0.3230
  15.600   0.9929   0.17932   0.17714  -0.0911  0.0285  1.0000  -2.6098   0.0000   0.0000   0.0000   0.3244
  15.700   0.9701   0.19097   0.18870  -0.0958  0.0273  1.0000  -2.2421   0.0000   0.0000   0.0000   0.3317
  15.800   0.9707   0.19354   0.19128  -0.0969  0.0273  1.0000  -2.2191   0.0000   0.0000   0.0000   0.3327
  15.900   0.9715   0.19609   0.19382  -0.0980  0.0272  1.0000  -2.1972   0.0000   0.0000   0.0000   0.3336
  16.000   0.9723   0.19862   0.19635  -0.0991  0.0272  1.0000  -2.1764   0.0000   0.0000   0.0000   0.3346
  16.100   0.9732   0.20112   0.19885  -0.1002  0.0272  1.0000  -2.1566   0.0000   0.0000   0.0000   0.3355
  16.200   0.9741   0.20361   0.20134  -0.1013  0.0272  1.0000  -2.1377   0.0000   0.0000   0.0000   0.3363
  16.300   0.9751   0.20607   0.20380  -0.1023  0.0272  1.0000  -2.1197   0.0000   0.0000   0.0000   0.3372
  16.400   0.9761   0.20852   0.20624  -0.1033  0.0272  1.0000  -2.1026   0.0000   0.0000   0.0000   0.3380
  16.500   0.9772   0.21094   0.20867  -0.1043  0.0271  1.0000  -2.0863   0.0000   0.0000   0.0000   0.3388
  16.600   0.9784   0.21335   0.21107  -0.1054  0.0271  1.0000  -2.0707   0.0000   0.0000   0.0000   0.3396
  16.700   0.9796   0.21573   0.21346  -0.1064  0.0271  1.0000  -2.0560   0.0000   0.0000   0.0000   0.3404
  16.800   0.9808   0.21808   0.21581  -0.1073  0.0270  1.0000  -2.0422   0.0000   0.0000   0.0000   0.3412
  16.900   0.9821   0.22041   0.21813  -0.1083  0.0270  1.0000  -2.0294   0.0000   0.0000   0.0000   0.3419
  17.000   0.9835   0.22268   0.22040  -0.1093  0.0269  1.0000  -2.0178   0.0000   0.0000   0.0000   0.3426
  17.100   0.9850   0.22487   0.22260  -0.1103  0.0269  1.0000  -2.0080   0.0000   0.0000   0.0000   0.3433
  17.200   0.9868   0.22695   0.22468  -0.1113  0.0267  1.0000  -2.0011   0.0000   0.0000   0.0000   0.3440
  17.300   0.9891   0.22876   0.22649  -0.1123  0.0265  1.0000  -1.9999   0.0000   0.0000   0.0000   0.3446
  17.400   0.9926   0.23009   0.22782  -0.1134  0.0258  1.0000  -2.0085   0.0000   0.0000   0.0000   0.3451
  17.500   0.9951   0.23200   0.22973  -0.1147  0.0249  1.0000  -1.9937   0.0000   0.0000   0.0000   0.3461
  17.600   0.9962   0.23436   0.23209  -0.1160  0.0241  1.0000  -1.9683   0.0000   0.0000   0.0000   0.3472
  17.700   0.9972   0.23676   0.23449  -0.1172  0.0232  1.0000  -1.9481   0.0000   0.0000   0.0000   0.3481
  17.800   0.9982   0.23909   0.23682  -0.1182  0.0223  1.0000  -1.9358   0.0000   0.0000   0.0000   0.3489
  17.900   0.9994   0.24132   0.23905  -0.1192  0.0214  1.0000  -1.9314   0.0000   0.0000   0.0000   0.3496
  18.000   1.0008   0.24342   0.24115  -0.1200  0.0205  1.0000  -1.9359   0.0000   0.0000   0.0000   0.3501
  18.100   1.0023   0.24533   0.24307  -0.1208  0.0196  1.0000  -1.9513   0.0000   0.0000   0.0000   0.3505
  18.200   1.0042   0.24700   0.24474  -0.1214  0.0187  1.0000  -1.9816   0.0000   0.0000   0.0000   0.3508
  18.300   1.0066   0.24826   0.24601  -0.1219  0.0178  1.0000  -2.0348   0.0000   0.0000   0.0000   0.3507
  18.400   1.0100   0.24889   0.24665  -0.1220  0.0169  1.0000  -2.1249   0.0000   0.0000   0.0000   0.3502
  18.500   1.0145   0.24885   0.24662  -0.1217  0.0161  1.0000  -2.2571   0.0000   0.0000   0.0000   0.3491
  18.600   1.0176   0.24951   0.24730  -0.1217  0.0156  1.0000  -2.3524   0.0000   0.0000   0.0000   0.3484
  18.700   1.0184   0.25150   0.24929  -0.1223  0.0153  1.0000  -2.3760   0.0000   0.0000   0.0000   0.3487
  18.800   1.0182   0.25401   0.25180  -0.1230  0.0150  1.0000  -2.3759   0.0000   0.0000   0.0000   0.3493
  18.900   1.0042   0.26393   0.26168  -0.1250  0.0140  1.0000  -2.0621   0.0000   0.0000   0.0000   0.3531
  19.000   1.0049   0.26642   0.26417  -0.1258  0.0140  1.0000  -2.0480   0.0000   0.0000   0.0000   0.3537
  19.100   1.0056   0.26891   0.26666  -0.1265  0.0140  1.0000  -2.0340   0.0000   0.0000   0.0000   0.3542
  19.200   1.0062   0.27139   0.26914  -0.1273  0.0140  1.0000  -2.0203   0.0000   0.0000   0.0000   0.3548
  19.300   1.0067   0.27386   0.27162  -0.1281  0.0140  1.0000  -2.0067   0.0000   0.0000   0.0000   0.3553
  19.400   1.0072   0.27632   0.27409  -0.1288  0.0140  1.0000  -1.9931   0.0000   0.0000   0.0000   0.3559
  19.500   1.0076   0.27878   0.27654  -0.1296  0.0140  1.0000  -1.9797   0.0000   0.0000   0.0000   0.3564
  19.600   1.0079   0.28122   0.27899  -0.1303  0.0140  1.0000  -1.9663   0.0000   0.0000   0.0000   0.3570
  20.400   1.0060   0.30009   0.29796  -0.1353  0.0139  1.0000  -1.8538   0.0000   0.0000   0.0000   0.3611
  20.500   1.0049   0.30230   0.30018  -0.1358  0.0139  1.0000  -1.8391   0.0000   0.0000   0.0000   0.3616
  20.600   1.0035   0.30444   0.30233  -0.1363  0.0139  1.0000  -1.8239   0.0000   0.0000   0.0000   0.3622
  20.700   1.0017   0.30651   0.30441  -0.1368  0.0139  1.0000  -1.8080   0.0000   0.0000   0.0000   0.3628
  20.800   0.9994   0.30846   0.30637  -0.1372  0.0139  1.0000  -1.7912   0.0000   0.0000   0.0000   0.3634
  20.900   0.9965   0.31027   0.30818  -0.1376  0.0138  1.0000  -1.7730   0.0000   0.0000   0.0000   0.3640
  21.000   0.9916   0.31168   0.30961  -0.1377  0.0138  1.0000  -1.7504   0.0000   0.0000   0.0000   0.3648
  21.100   0.9399   0.30195   0.29997  -0.1324  0.0138  1.0000  -1.6099   0.0000   0.0000   0.0000   0.3674
  21.200   0.9332   0.30180   0.29983  -0.1322  0.0138  1.0000  -1.5834   0.0000   0.0000   0.0000   0.3682
  21.300   0.9278   0.30187   0.29992  -0.1322  0.0138  1.0000  -1.5607   0.0000   0.0000   0.0000   0.3689
  21.400   0.9233   0.30209   0.30015  -0.1323  0.0137  1.0000  -1.5406   0.0000   0.0000   0.0000   0.3696
  21.500   0.9194   0.30241   0.30048  -0.1324  0.0137  1.0000  -1.5230   0.0000   0.0000   0.0000   0.3703
  21.600   0.9162   0.30279   0.30087  -0.1326  0.0136  1.0000  -1.5079   0.0000   0.0000   0.0000   0.3709
  21.700   0.9137   0.30324   0.30133  -0.1329  0.0135  1.0000  -1.4956   0.0000   0.0000   0.0000   0.3716
  21.800   0.9124   0.30389   0.30198  -0.1336  0.0131  1.0000  -1.4837   0.0000   0.0000   0.0000   0.3723
  21.900   0.9144   0.30560   0.30370  -0.1350  0.0111  1.0000  -1.4485   0.0000   0.0000   0.0000   0.3735
  22.000   0.9124   0.30620   0.30431  -0.1353  0.0098  1.0000  -1.4502   0.0000   0.0000   0.0000   0.3741
  22.100   0.9104   0.30660   0.30472  -0.1355  0.0088  1.0000  -1.4654   0.0000   0.0000   0.0000   0.3745
  22.200   0.9086   0.30692   0.30505  -0.1358  0.0081  1.0000  -1.4897   0.0000   0.0000   0.0000   0.3749
  22.300   0.9071   0.30718   0.30531  -0.1360  0.0075  1.0000  -1.5223   0.0000   0.0000   0.0000   0.3752
  22.400   0.9058   0.30737   0.30551  -0.1361  0.0071  1.0000  -1.5633   0.0000   0.0000   0.0000   0.3754
  22.500   0.9049   0.30747   0.30562  -0.1363  0.0067  1.0000  -1.6138   0.0000   0.0000   0.0000   0.3756
  22.600   0.9042   0.30747   0.30563  -0.1364  0.0064  1.0000  -1.6749   0.0000   0.0000   0.0000   0.3756
  22.700   0.9037   0.30734   0.30552  -0.1365  0.0061  1.0000  -1.7482   0.0000   0.0000   0.0000   0.3755
  22.800   0.9027   0.30722   0.30541  -0.1364  0.0058  1.0000  -1.8156   0.0000   0.0000   0.0000   0.3754
  23.100   0.8822   0.31018   0.30835  -0.1364  0.0050  1.0000  -1.5073   0.0000   0.0000   0.0000   0.3789
  23.200   0.8806   0.31091   0.30909  -0.1366  0.0049  1.0000  -1.4907   0.0000   0.0000   0.0000   0.3794
  23.300   0.8791   0.31164   0.30982  -0.1369  0.0049  1.0000  -1.4745   0.0000   0.0000   0.0000   0.3799
  23.400   0.8777   0.31237   0.31056  -0.1372  0.0049  1.0000  -1.4588   0.0000   0.0000   0.0000   0.3803
  23.500   0.8763   0.31311   0.31130  -0.1375  0.0049  1.0000  -1.4435   0.0000   0.0000   0.0000   0.3808
  23.600   0.8750   0.31385   0.31204  -0.1378  0.0049  1.0000  -1.4286   0.0000   0.0000   0.0000   0.3812
  23.700   0.8737   0.31458   0.31279  -0.1381  0.0049  1.0000  -1.4139   0.0000   0.0000   0.0000   0.3817
  23.800   0.8725   0.31532   0.31353  -0.1384  0.0049  1.0000  -1.3996   0.0000   0.0000   0.0000   0.3821
  23.900   0.8714   0.31607   0.31428  -0.1386  0.0049  1.0000  -1.3857   0.0000   0.0000   0.0000   0.3825
  24.000   0.8703   0.31681   0.31503  -0.1389  0.0049  1.0000  -1.3722   0.0000   0.0000   0.0000   0.3829
  24.100   0.8692   0.31756   0.31578  -0.1392  0.0049  1.0000  -1.3591   0.0000   0.0000   0.0000   0.3833
  24.200   0.8683   0.31830   0.31653  -0.1395  0.0049  1.0000  -1.3464   0.0000   0.0000   0.0000   0.3837
  24.300   0.8673   0.31906   0.31729  -0.1398  0.0049  1.0000  -1.3340   0.0000   0.0000   0.0000   0.3840
  24.400   0.8664   0.31981   0.31805  -0.1401  0.0049  1.0000  -1.3219   0.0000   0.0000   0.0000   0.3844
  24.500   0.8655   0.32056   0.31881  -0.1404  0.0049  1.0000  -1.3102   0.0000   0.0000   0.0000   0.3848
  24.600   0.8647   0.32132   0.31957  -0.1407  0.0049  1.0000  -1.2988   0.0000   0.0000   0.0000   0.3851
  24.700   0.8639   0.32208   0.32034  -0.1410  0.0049  1.0000  -1.2877   0.0000   0.0000   0.0000   0.3855
  24.800   0.8632   0.32284   0.32110  -0.1413  0.0049  1.0000  -1.2770   0.0000   0.0000   0.0000   0.3859
  24.900   0.8625   0.32361   0.32187  -0.1416  0.0049  1.0000  -1.2664   0.0000   0.0000   0.0000   0.3862
  25.000   0.8618   0.32437   0.32264  -0.1420  0.0049  1.0000  -1.2562   0.0000   0.0000   0.0000   0.3865
  25.100   0.8611   0.32514   0.32341  -0.1423  0.0049  1.0000  -1.2462   0.0000   0.0000   0.0000   0.3869
  25.200   0.8605   0.32590   0.32418  -0.1426  0.0049  1.0000  -1.2364   0.0000   0.0000   0.0000   0.3872
  25.300   0.8599   0.32667   0.32496  -0.1429  0.0049  1.0000  -1.2269   0.0000   0.0000   0.0000   0.3876
  25.400   0.8593   0.32745   0.32573  -0.1432  0.0049  1.0000  -1.2176   0.0000   0.0000   0.0000   0.3879
  25.500   0.8588   0.32822   0.32651  -0.1436  0.0049  1.0000  -1.2085   0.0000   0.0000   0.0000   0.3882
  25.600   0.8583   0.32899   0.32729  -0.1439  0.0049  1.0000  -1.1996   0.0000   0.0000   0.0000   0.3885
  25.700   0.8578   0.32977   0.32807  -0.1442  0.0049  1.0000  -1.1909   0.0000   0.0000   0.0000   0.3888
  25.800   0.8573   0.33054   0.32885  -0.1446  0.0049  1.0000  -1.1824   0.0000   0.0000   0.0000   0.3892
  25.900   0.8568   0.33132   0.32964  -0.1449  0.0049  1.0000  -1.1741   0.0000   0.0000   0.0000   0.3895
  26.000   0.8564   0.33210   0.33042  -0.1452  0.0049  1.0000  -1.1660   0.0000   0.0000   0.0000   0.3898
  26.100   0.8560   0.33288   0.33120  -0.1456  0.0049  1.0000  -1.1580   0.0000   0.0000   0.0000   0.3901
  26.200   0.8556   0.33366   0.33199  -0.1459  0.0049  1.0000  -1.1501   0.0000   0.0000   0.0000   0.3904
  26.300   0.8552   0.33445   0.33278  -0.1462  0.0049  1.0000  -1.1425   0.0000   0.0000   0.0000   0.3907
  26.400   0.8548   0.33523   0.33356  -0.1466  0.0049  1.0000  -1.1349   0.0000   0.0000   0.0000   0.3910
  26.500   0.8545   0.33601   0.33435  -0.1469  0.0049  1.0000  -1.1276   0.0000   0.0000   0.0000   0.3913
  26.600   0.8541   0.33680   0.33514  -0.1473  0.0049  1.0000  -1.1203   0.0000   0.0000   0.0000   0.3916
  26.700   0.8538   0.33758   0.33593  -0.1476  0.0049  1.0000  -1.1132   0.0000   0.0000   0.0000   0.3919
  26.800   0.8535   0.33837   0.33672  -0.1480  0.0049  1.0000  -1.1062   0.0000   0.0000   0.0000   0.3922
  26.900   0.8532   0.33916   0.33752  -0.1483  0.0049  1.0000  -1.0993   0.0000   0.0000   0.0000   0.3925
  27.000   0.8529   0.33994   0.33831  -0.1487  0.0049  1.0000  -1.0924   0.0000   0.0000   0.0000   0.3928
  27.100   0.8526   0.34073   0.33910  -0.1490  0.0049  1.0000  -1.0855   0.0000   0.0000   0.0000   0.3930
  27.200   0.8523   0.34152   0.33990  -0.1494  0.0049  1.0000  -1.0789   0.0000   0.0000   0.0000   0.3933
  27.300   0.8520   0.34231   0.34069  -0.1497  0.0049  1.0000  -1.0723   0.0000   0.0000   0.0000   0.3936
  27.400   0.8518   0.34310   0.34148  -0.1501  0.0049  1.0000  -1.0658   0.0000   0.0000   0.0000   0.3939
  27.500   0.8515   0.34389   0.34228  -0.1504  0.0049  1.0000  -1.0595   0.0000   0.0000   0.0000   0.3942
  27.600   0.8513   0.34468   0.34307  -0.1508  0.0049  1.0000  -1.0532   0.0000   0.0000   0.0000   0.3945


