xflr5 v6.61

 Calculated polar for: E387

 1 1 Reynolds number fixed          Mach number fixed         

 xtrf =   1.000 (top)        1.000 (bottom)
 Mach =   0.000     Re =     0.100 e 6     Ncrit =   9.000

  alpha     CL        CD       CDp       Cm    Top Xtr Bot Xtr   Cpmin    Chinge    XCp    
 ------- -------- --------- --------- -------- ------- ------- -------- --------- ---------
 -10.000  -0.3808   0.13273   0.12762  -0.0247  1.0000  0.0580  -1.3494   0.0000   0.0000   0.0000   0.1800
  -9.700  -0.3757   0.12150   0.11646  -0.0253  1.0000  0.0599  -1.3807   0.0000   0.0000   0.0000   0.1775
  -9.600  -0.3680   0.11839   0.11334  -0.0242  1.0000  0.0609  -1.3316   0.0000   0.0000   0.0000   0.1789
  -9.500  -0.3612   0.11619   0.11114  -0.0236  1.0000  0.0618  -1.2915   0.0000   0.0000   0.0000   0.1795
  -9.400  -0.3557   0.11440   0.10936  -0.0232  1.0000  0.0626  -1.2617   0.0000   0.0000   0.0000   0.1794
  -9.300  -0.3511   0.11285   0.10781  -0.0231  1.0000  0.0635  -1.2390   0.0000   0.0000   0.0000   0.1788
  -9.200  -0.3471   0.11143   0.10640  -0.0231  1.0000  0.0643  -1.2213   0.0000   0.0000   0.0000   0.1780
  -9.100  -0.3435   0.11010   0.10508  -0.0233  1.0000  0.0651  -1.2072   0.0000   0.0000   0.0000   0.1769
  -9.000  -0.3403   0.10882   0.10381  -0.0235  1.0000  0.0659  -1.1960   0.0000   0.0000   0.0000   0.1757
  -8.900  -0.3373   0.10759   0.10259  -0.0237  1.0000  0.0668  -1.1870   0.0000   0.0000   0.0000   0.1743
  -8.800  -0.3345   0.10638   0.10140  -0.0240  1.0000  0.0676  -1.1798   0.0000   0.0000   0.0000   0.1729
  -8.700  -0.3320   0.10520   0.10023  -0.0244  1.0000  0.0685  -1.1743   0.0000   0.0000   0.0000   0.1713
  -8.600  -0.3296   0.10403   0.09908  -0.0248  1.0000  0.0694  -1.1701   0.0000   0.0000   0.0000   0.1697
  -8.500  -0.3273   0.10288   0.09795  -0.0252  1.0000  0.0704  -1.1672   0.0000   0.0000   0.0000   0.1680
  -8.400  -0.3252   0.10175   0.09684  -0.0256  1.0000  0.0713  -1.1655   0.0000   0.0000   0.0000   0.1662
  -8.300  -0.3233   0.10063   0.09574  -0.0261  1.0000  0.0723  -1.1649   0.0000   0.0000   0.0000   0.1643
  -8.200  -0.3214   0.09953   0.09465  -0.0266  1.0000  0.0733  -1.1655   0.0000   0.0000   0.0000   0.1623
  -8.100  -0.3197   0.09844   0.09359  -0.0271  1.0000  0.0744  -1.1673   0.0000   0.0000   0.0000   0.1602
  -8.000  -0.3182   0.09738   0.09255  -0.0277  1.0000  0.0754  -1.1704   0.0000   0.0000   0.0000   0.1580
  -7.900  -0.3170   0.09637   0.09156  -0.0284  1.0000  0.0765  -1.1753   0.0000   0.0000   0.0000   0.1558
  -7.800  -0.3161   0.09542   0.09064  -0.0290  1.0000  0.0776  -1.1822   0.0000   0.0000   0.0000   0.1535
  -7.700  -0.3156   0.09455   0.08981  -0.0298  1.0000  0.0787  -1.1917   0.0000   0.0000   0.0000   0.1511
  -7.600  -0.3158   0.09382   0.08912  -0.0306  1.0000  0.0799  -1.2046   0.0000   0.0000   0.0000   0.1486
  -7.500  -0.3168   0.09327   0.08861  -0.0316  1.0000  0.0809  -1.2213   0.0000   0.0000   0.0000   0.1461
  -7.400  -0.3190   0.09294   0.08833  -0.0325  1.0000  0.0819  -1.2419   0.0000   0.0000   0.0000   0.1440
  -7.300  -0.3222   0.09278   0.08823  -0.0334  1.0000  0.0826  -1.2640   0.0000   0.0000   0.0000   0.1423
  -7.200  -0.3244   0.09265   0.08816  -0.0351  1.0000  0.0834  -1.2886   0.0000   0.0000   0.0000   0.1382
  -7.100  -0.3257   0.09245   0.08800  -0.0371  1.0000  0.0839  -1.3142   0.0000   0.0000   0.0000   0.1324
  -7.000  -0.3261   0.09214   0.08773  -0.0387  1.0000  0.0844  -1.3330   0.0000   0.0000   0.0000   0.1278
  -6.900  -0.3265   0.09170   0.08732  -0.0398  1.0000  0.0847  -1.3468   0.0000   0.0000   0.0000   0.1250
  -6.800  -0.3278   0.09120   0.08686  -0.0403  1.0000  0.0849  -1.3596   0.0000   0.0000   0.0000   0.1238
  -6.700  -0.3307   0.09075   0.08645  -0.0403  1.0000  0.0850  -1.3717   0.0000   0.0000   0.0000   0.1251
  -6.600  -0.3359   0.09044   0.08618  -0.0396  1.0000  0.0851  -1.3833   0.0000   0.0000   0.0000   0.1292
  -6.500  -0.3432   0.09029   0.08607  -0.0383  1.0000  0.0851  -1.3946   0.0000   0.0000   0.0000   0.1356
  -6.400  -0.3518   0.09024   0.08606  -0.0368  1.0000  0.0851  -1.4059   0.0000   0.0000   0.0000   0.1428
  -6.300  -0.3600   0.09018   0.08604  -0.0354  1.0000  0.0852  -1.4169   0.0000   0.0000   0.0000   0.1493
  -6.200  -0.3673   0.09005   0.08594  -0.0342  1.0000  0.0852  -1.4276   0.0000   0.0000   0.0000   0.1544
  -6.100  -0.3546   0.08841   0.08423  -0.0383  0.9968  0.0854  -1.4347   0.0000   0.0000   0.0000   0.1396
  -6.000  -0.3535   0.08229   0.07817  -0.0420  0.9938  0.0868  -1.4930   0.0000   0.0000   0.0000   0.1288
  -5.900  -0.3508   0.07833   0.07427  -0.0414  0.9919  0.0885  -1.4662   0.0000   0.0000   0.0000   0.1295
  -5.800  -0.3428   0.07619   0.07216  -0.0405  0.9900  0.0900  -1.4113   0.0000   0.0000   0.0000   0.1294
  -5.700  -0.3325   0.07444   0.07042  -0.0404  0.9880  0.0917  -1.3575   0.0000   0.0000   0.0000   0.1260
  -5.600  -0.3218   0.07287   0.06883  -0.0409  0.9849  0.0936  -1.3167   0.0000   0.0000   0.0000   0.1202
  -5.500  -0.3105   0.07130   0.06697  -0.0421  0.9811  0.0961  -1.2847   0.0000   0.0000   0.0000   0.1116
  -5.400  -0.2970   0.06954   0.06519  -0.0447  0.9775  0.0987  -1.2606   0.0000   0.0000   0.0000   0.0968
  -5.300  -0.2815   0.06763   0.06324  -0.0482  0.9744  0.1018  -1.2428   0.0000   0.0000   0.0000   0.0758
  -5.200  -0.2644   0.06563   0.06119  -0.0526  0.9713  0.1056  -1.2333   0.0000   0.0000   0.0000   0.0478
  -5.100  -0.2499   0.06408   0.05956  -0.0569  0.9650  0.1101  -1.2381   0.0000   0.0000   0.0000   0.0192
  -5.000  -0.2109   0.06638   0.06141  -0.0673  0.9580  0.1176  -1.2613   0.0000   0.0000   0.0000  -0.0728
  -4.900  -0.2105   0.05903   0.05410  -0.0714  0.9555  0.1210  -1.3130   0.0000   0.0000   0.0000  -0.0928
  -4.800  -0.1997   0.05643   0.05160  -0.0719  0.9538  0.1233  -1.2694   0.0000   0.0000   0.0000  -0.1136
  -4.700  -0.1861   0.05457   0.04978  -0.0728  0.9522  0.1258  -1.2232   0.0000   0.0000   0.0000  -0.1449
  -4.600  -0.1762   0.05327   0.04849  -0.0732  0.9479  0.1283  -1.1907   0.0000   0.0000   0.0000  -0.1697
  -4.500  -0.1662   0.05207   0.04728  -0.0738  0.9427  0.1311  -1.1628   0.0000   0.0000   0.0000  -0.1984
  -4.400  -0.1520   0.05066   0.04584  -0.0755  0.9387  0.1350  -1.1366   0.0000   0.0000   0.0000  -0.2514
  -4.300  -0.1349   0.04914   0.04424  -0.0782  0.9352  0.1402  -1.1167   0.0000   0.0000   0.0000  -0.3347
  -4.200  -0.1090   0.04822   0.04289  -0.0848  0.9311  0.1581  -1.1333   0.0000   0.0000   0.0000  -0.5344
  -4.100  -0.0972   0.04536   0.04009  -0.0862  0.9290  0.1611  -1.1073   0.0000   0.0000   0.0000  -0.6436
  -4.000  -0.0823   0.04351   0.03826  -0.0874  0.9270  0.1637  -1.0752   0.0000   0.0000   0.0000  -0.8199
  -3.900  -0.0699   0.04212   0.03686  -0.0883  0.9236  0.1661  -1.0510   0.0000   0.0000   0.0000  -1.0232
  -3.800  -0.0631   0.04115   0.03585  -0.0881  0.9172  0.1677  -1.0379   0.0000   0.0000   0.0000  -1.1578
  -3.700  -0.0258   0.03318   0.02635  -0.0929  0.9138  0.0551  -1.5224   0.0000   0.0000   0.0000  -3.3884
  -3.600  -0.0137   0.03114   0.02412  -0.0937  0.9101  0.0520  -1.5364   0.0000   0.0000   0.0000  -6.6678
  -3.500   0.0005   0.02941   0.02215  -0.0946  0.9068  0.0489  -1.5510   0.0000   0.0000   0.0000  207.7248
  -3.400   0.0158   0.02776   0.02019  -0.0953  0.9040  0.0457  -1.5756   0.0000   0.0000   0.0000   6.3531
  -3.300   0.0320   0.02617   0.01822  -0.0959  0.9016  0.0426  -1.6118   0.0000   0.0000   0.0000   3.2754
  -3.200   0.0486   0.02494   0.01668  -0.0965  0.8993  0.0402  -1.6293   0.0000   0.0000   0.0000   2.2531
  -3.100   0.0651   0.02416   0.01567  -0.0970  0.8971  0.0386  -1.6152   0.0000   0.0000   0.0000   1.7523
  -3.000   0.0802   0.02364   0.01500  -0.0974  0.8945  0.0377  -1.5808   0.0000   0.0000   0.0000   1.4744
  -2.900   0.0870   0.02338   0.01468  -0.0966  0.8890  0.0372  -1.5542   0.0000   0.0000   0.0000   1.3687
  -2.800   0.0969   0.02301   0.01423  -0.0962  0.8843  0.0367  -1.5213   0.0000   0.0000   0.0000   1.2510
  -2.700   0.1082   0.02256   0.01370  -0.0961  0.8802  0.0364  -1.4866   0.0000   0.0000   0.0000   1.1449
  -2.600   0.1203   0.02202   0.01309  -0.0961  0.8766  0.0362  -1.4525   0.0000   0.0000   0.0000   1.0546
  -2.500   0.1330   0.02142   0.01241  -0.0961  0.8733  0.0361  -1.4198   0.0000   0.0000   0.0000   0.9783
  -2.400   0.1459   0.02077   0.01169  -0.0962  0.8704  0.0361  -1.3888   0.0000   0.0000   0.0000   0.9144
  -2.300   0.1587   0.02013   0.01099  -0.0963  0.8676  0.0364  -1.3588   0.0000   0.0000   0.0000   0.8609
  -2.200   0.1714   0.01954   0.01033  -0.0964  0.8650  0.0370  -1.3286   0.0000   0.0000   0.0000   0.8158
  -2.100   0.1841   0.01905   0.00976  -0.0964  0.8625  0.0381  -1.2968   0.0000   0.0000   0.0000   0.7769
  -2.000   0.1955   0.01873   0.00935  -0.0962  0.8594  0.0396  -1.2639   0.0000   0.0000   0.0000   0.7452
  -1.900   0.2033   0.01856   0.00914  -0.0957  0.8547  0.0414  -1.2345   0.0000   0.0000   0.0000   0.7235
  -1.800   0.2123   0.01839   0.00894  -0.0953  0.8500  0.0441  -1.2006   0.0000   0.0000   0.0000   0.7012
  -1.700   0.2223   0.01823   0.00873  -0.0949  0.8456  0.0482  -1.1653   0.0000   0.0000   0.0000   0.6792
  -1.600   0.2332   0.01803   0.00848  -0.0946  0.8415  0.0554  -1.1359   0.0000   0.0000   0.0000   0.6579
  -1.500   0.2441   0.01750   0.00823  -0.0945  0.8379  0.1135  -1.1235   0.0000   0.0000   0.0000   0.6388
  -1.400   0.2536   0.01659   0.00821  -0.0946  0.8346  0.3281  -1.0902   0.0000   0.0000   0.0000   0.6245
  -1.300   0.2620   0.01591   0.00824  -0.0940  0.8316  0.5188  -1.0450   0.0000   0.0000   0.0000   0.6102
  -1.200   0.2784   0.01471   0.00821  -0.0930  0.8300  0.9353  -0.9679   0.0000   0.0000   0.0000   0.5855
  -1.100   0.2986   0.01467   0.00803  -0.0947  0.8274  1.0000  -0.8839   0.0000   0.0000   0.0000   0.5680
  -1.000   0.3100   0.01477   0.00802  -0.0945  0.8246  1.0000  -0.8222   0.0000   0.0000   0.0000   0.5558
  -0.900   0.3210   0.01494   0.00809  -0.0944  0.8217  1.0000  -0.7599   0.0000   0.0000   0.0000   0.5448
  -0.800   0.3300   0.01508   0.00818  -0.0942  0.8183  1.0000  -0.7014   0.0000   0.0000   0.0000   0.5362
  -0.600   0.3485   0.01537   0.00839  -0.0938  0.8108  1.0000  -0.5775   0.0000   0.0000   0.0000   0.5196
  -0.500   0.3582   0.01550   0.00846  -0.0937  0.8071  1.0000  -0.5831   0.0000   0.0000   0.0000   0.5118
  -0.400   0.3681   0.01562   0.00851  -0.0936  0.8036  1.0000  -0.5889   0.0000   0.0000   0.0000   0.5042
  -0.300   0.3784   0.01572   0.00856  -0.0934  0.8002  1.0000  -0.5950   0.0000   0.0000   0.0000   0.4969
  -0.200   0.3890   0.01582   0.00859  -0.0933  0.7970  1.0000  -0.6014   0.0000   0.0000   0.0000   0.4898
  -0.100   0.3998   0.01591   0.00861  -0.0932  0.7941  1.0000  -0.6079   0.0000   0.0000   0.0000   0.4829
   0.000   0.4107   0.01599   0.00863  -0.0931  0.7913  1.0000  -0.6147   0.0000   0.0000   0.0000   0.4763
   0.100   0.4217   0.01608   0.00865  -0.0930  0.7887  1.0000  -0.6215   0.0000   0.0000   0.0000   0.4701
   0.200   0.4327   0.01618   0.00869  -0.0928  0.7862  1.0000  -0.6283   0.0000   0.0000   0.0000   0.4640
   0.300   0.4436   0.01632   0.00877  -0.0927  0.7835  1.0000  -0.6351   0.0000   0.0000   0.0000   0.4583
   0.400   0.4541   0.01655   0.00894  -0.0925  0.7807  1.0000  -0.6424   0.0000   0.0000   0.0000   0.4529
   0.500   0.4635   0.01673   0.00909  -0.0924  0.7776  1.0000  -0.6487   0.0000   0.0000   0.0000   0.4485
   0.600   0.4727   0.01688   0.00922  -0.0923  0.7741  1.0000  -0.6548   0.0000   0.0000   0.0000   0.4443
   0.700   0.4821   0.01703   0.00935  -0.0922  0.7703  1.0000  -0.6611   0.0000   0.0000   0.0000   0.4402
   0.800   0.4915   0.01717   0.00947  -0.0920  0.7664  1.0000  -0.6676   0.0000   0.0000   0.0000   0.4361
   0.900   0.5012   0.01730   0.00957  -0.0918  0.7626  1.0000  -0.6743   0.0000   0.0000   0.0000   0.4321
   1.000   0.5112   0.01743   0.00967  -0.0917  0.7592  1.0000  -0.6813   0.0000   0.0000   0.0000   0.4281
   1.100   0.5214   0.01755   0.00976  -0.0915  0.7560  1.0000  -0.6884   0.0000   0.0000   0.0000   0.4242
   1.200   0.5318   0.01767   0.00985  -0.0914  0.7532  1.0000  -0.6967   0.0000   0.0000   0.0000   0.4205
   1.300   0.5424   0.01778   0.00993  -0.0913  0.7504  1.0000  -0.7054   0.0000   0.0000   0.0000   0.4168
   1.400   0.5531   0.01788   0.01001  -0.0911  0.7479  1.0000  -0.7142   0.0000   0.0000   0.0000   0.4132
   1.500   0.5640   0.01799   0.01009  -0.0910  0.7454  1.0000  -0.7231   0.0000   0.0000   0.0000   0.4097
   1.600   0.5748   0.01811   0.01018  -0.0909  0.7430  1.0000  -0.7321   0.0000   0.0000   0.0000   0.4063
   1.700   0.5856   0.01826   0.01030  -0.0907  0.7407  1.0000  -0.7414   0.0000   0.0000   0.0000   0.4030
   1.800   0.5962   0.01850   0.01050  -0.0905  0.7382  1.0000  -0.7514   0.0000   0.0000   0.0000   0.3999
   1.900   0.6059   0.01889   0.01087  -0.0903  0.7354  1.0000  -0.7605   0.0000   0.0000   0.0000   0.3971
   2.000   0.6152   0.01908   0.01108  -0.0904  0.7329  1.0000  -0.7689   0.0000   0.0000   0.0000   0.3948
   2.100   0.6244   0.01930   0.01132  -0.0904  0.7301  1.0000  -0.7786   0.0000   0.0000   0.0000   0.3926
   2.200   0.6335   0.01951   0.01155  -0.0904  0.7267  1.0000  -0.7884   0.0000   0.0000   0.0000   0.3904
   2.300   0.6428   0.01972   0.01177  -0.0903  0.7232  1.0000  -0.7985   0.0000   0.0000   0.0000   0.3881
   2.400   0.6523   0.01989   0.01195  -0.0901  0.7195  1.0000  -0.8090   0.0000   0.0000   0.0000   0.3858
   2.500   0.6620   0.02004   0.01210  -0.0900  0.7158  1.0000  -0.8208   0.0000   0.0000   0.0000   0.3834
   2.600   0.6719   0.02017   0.01223  -0.0898  0.7123  1.0000  -0.8336   0.0000   0.0000   0.0000   0.3810
   2.700   0.6821   0.02027   0.01233  -0.0896  0.7090  1.0000  -0.8468   0.0000   0.0000   0.0000   0.3786
   2.800   0.6925   0.02037   0.01243  -0.0894  0.7061  1.0000  -0.8602   0.0000   0.0000   0.0000   0.3763
   2.900   0.7030   0.02048   0.01254  -0.0892  0.7034  1.0000  -0.8754   0.0000   0.0000   0.0000   0.3740
   3.000   0.7138   0.02056   0.01270  -0.0890  0.7010  1.0000  -0.8915   0.0000   0.0000   0.0000   0.3718
   3.100   0.7247   0.02065   0.01277  -0.0888  0.6986  1.0000  -0.9079   0.0000   0.0000   0.0000   0.3695
   3.200   0.7357   0.02075   0.01286  -0.0886  0.6962  1.0000  -0.9249   0.0000   0.0000   0.0000   0.3673
   3.300   0.7466   0.02091   0.01299  -0.0883  0.6936  1.0000  -0.9444   0.0000   0.0000   0.0000   0.3651
   3.400   0.7568   0.02125   0.01331  -0.0880  0.6905  1.0000  -0.9632   0.0000   0.0000   0.0000   0.3631
   3.500   0.7656   0.02157   0.01365  -0.0879  0.6873  1.0000  -0.9798   0.0000   0.0000   0.0000   0.3614
   3.600   0.7741   0.02176   0.01388  -0.0878  0.6838  1.0000  -0.9961   0.0000   0.0000   0.0000   0.3600
   3.700   0.7827   0.02199   0.01415  -0.0877  0.6800  1.0000  -1.0125   0.0000   0.0000   0.0000   0.3585
   3.800   0.7916   0.02220   0.01440  -0.0876  0.6760  1.0000  -1.0312   0.0000   0.0000   0.0000   0.3570
   3.900   0.8009   0.02240   0.01462  -0.0874  0.6721  1.0000  -1.0527   0.0000   0.0000   0.0000   0.3554
   4.000   0.8104   0.02255   0.01479  -0.0872  0.6683  1.0000  -1.0749   0.0000   0.0000   0.0000   0.3538
   4.100   0.8204   0.02265   0.01491  -0.0870  0.6645  1.0000  -1.1001   0.0000   0.0000   0.0000   0.3521
   4.200   0.8308   0.02269   0.01496  -0.0867  0.6609  1.0000  -1.1290   0.0000   0.0000   0.0000   0.3503
   4.300   0.8416   0.02268   0.01496  -0.0863  0.6575  1.0000  -1.1589   0.0000   0.0000   0.0000   0.3485
   4.400   0.8528   0.02263   0.01491  -0.0860  0.6542  1.0000  -1.1899   0.0000   0.0000   0.0000   0.3466
   4.500   0.8644   0.02257   0.01484  -0.0857  0.6511  1.0000  -1.2218   0.0000   0.0000   0.0000   0.3448
   4.600   0.8761   0.02256   0.01483  -0.0853  0.6481  1.0000  -1.2539   0.0000   0.0000   0.0000   0.3430
   4.700   0.8874   0.02267   0.01493  -0.0850  0.6449  1.0000  -1.3113   0.0000   0.0000   0.0000   0.3413
   4.800   0.8967   0.02314   0.01540  -0.0847  0.6408  1.0000  -1.3633   0.0000   0.0000   0.0000   0.3398
   4.900   0.9051   0.02324   0.01557  -0.0845  0.6370  1.0000  -1.4119   0.0000   0.0000   0.0000   0.3386
   5.000   0.9133   0.02339   0.01580  -0.0842  0.6324  1.0000  -1.4612   0.0000   0.0000   0.0000   0.3374
   5.100   0.9221   0.02354   0.01600  -0.0840  0.6276  1.0000  -1.5129   0.0000   0.0000   0.0000   0.3361
   5.200   0.9313   0.02363   0.01615  -0.0837  0.6227  1.0000  -1.5737   0.0000   0.0000   0.0000   0.3348
   5.300   0.9412   0.02363   0.01618  -0.0833  0.6179  1.0000  -1.6625   0.0000   0.0000   0.0000   0.3333
   5.400   0.9519   0.02352   0.01610  -0.0829  0.6133  1.0000  -1.7573   0.0000   0.0000   0.0000   0.3318
   5.500   0.9635   0.02333   0.01592  -0.0824  0.6090  1.0000  -1.8583   0.0000   0.0000   0.0000   0.3302
   5.600   0.9766   0.02289   0.01547  -0.0819  0.6042  1.0000  -1.9706   0.0000   0.0000   0.0000   0.3284
   5.700   0.9922   0.02201   0.01446  -0.0809  0.5960  1.0000  -2.1034   0.0000   0.0000   0.0000   0.3259
   5.800   1.0009   0.02162   0.01409  -0.0799  0.5857  1.0000  -2.1986   0.0000   0.0000   0.0000   0.3241
   5.900   1.0106   0.02078   0.01326  -0.0787  0.5715  1.0000  -2.3027   0.0000   0.0000   0.0000   0.3220
   6.000   1.0240   0.01947   0.01179  -0.0773  0.5552  1.0000  -2.4332   0.0000   0.0000   0.0000   0.3194
   6.100   1.0357   0.01885   0.01099  -0.0763  0.5407  1.0000  -2.5501   0.0000   0.0000   0.0000   0.3175
   6.200   1.0435   0.01863   0.01086  -0.0756  0.5281  1.0000  -2.6411   0.0000   0.0000   0.0000   0.3161
   6.300   1.0529   0.01850   0.01078  -0.0751  0.5184  1.0000  -2.7393   0.0000   0.0000   0.0000   0.3148
   6.400   1.0630   0.01836   0.01063  -0.0746  0.5094  1.0000  -2.8409   0.0000   0.0000   0.0000   0.3135
   6.500   1.0736   0.01822   0.01042  -0.0740  0.5004  1.0000  -2.9449   0.0000   0.0000   0.0000   0.3122
   6.600   1.0831   0.01823   0.01043  -0.0736  0.4913  1.0000  -3.0403   0.0000   0.0000   0.0000   0.3110
   6.700   1.0915   0.01827   0.01061  -0.0731  0.4802  1.0000  -3.1273   0.0000   0.0000   0.0000   0.3100
   6.800   1.1037   0.01969   0.01325  -0.0746  0.5095  1.0000  -3.3967   0.0000   0.0000   0.0000   0.3105
   6.900   1.1140   0.01989   0.01360  -0.0744  0.5068  1.0000  -3.5270   0.0000   0.0000   0.0000   0.3096
   7.000   1.1259   0.01963   0.01326  -0.0739  0.4964  1.0000  -3.6683   0.0000   0.0000   0.0000   0.3083
   7.100   1.1327   0.01954   0.01333  -0.0731  0.4826  1.0000  -3.7700   0.0000   0.0000   0.0000   0.3070
   7.200   1.1407   0.01923   0.01303  -0.0721  0.4625  1.0000  -3.8819   0.0000   0.0000   0.0000   0.3056
   7.300   1.1487   0.01904   0.01272  -0.0711  0.4410  1.0000  -3.9913   0.0000   0.0000   0.0000   0.3041
   7.400   1.1555   0.01906   0.01276  -0.0703  0.4172  1.0000  -4.0860   0.0000   0.0000   0.0000   0.3029
   7.500   1.1619   0.01915   0.01273  -0.0693  0.3918  1.0000  -4.1764   0.0000   0.0000   0.0000   0.3016
   7.600   1.1654   0.01943   0.01275  -0.0680  0.3504  1.0000  -4.2471   0.0000   0.0000   0.0000   0.3001
   7.700   1.1666   0.02002   0.01298  -0.0666  0.2989  1.0000  -4.2981   0.0000   0.0000   0.0000   0.2987
   7.800   1.1665   0.02082   0.01345  -0.0652  0.2523  1.0000  -4.3294   0.0000   0.0000   0.0000   0.2974
   7.900   1.1634   0.02198   0.01418  -0.0636  0.1980  1.0000  -4.3286   0.0000   0.0000   0.0000   0.2960
   8.000   1.1557   0.02361   0.01525  -0.0616  0.1303  1.0000  -4.2806   0.0000   0.0000   0.0000   0.2945
   8.100   1.1430   0.02579   0.01674  -0.0590  0.0703  1.0000  -4.1615   0.0000   0.0000   0.0000   0.2927
   8.200   1.1380   0.02724   0.01803  -0.0569  0.0525  1.0000  -4.0628   0.0000   0.0000   0.0000   0.2910
   8.300   1.1343   0.02847   0.01923  -0.0551  0.0464  1.0000  -4.0178   0.0000   0.0000   0.0000   0.2894
   8.400   1.1329   0.02942   0.02024  -0.0534  0.0438  1.0000  -3.9947   0.0000   0.0000   0.0000   0.2879
   8.500   1.1342   0.03012   0.02103  -0.0521  0.0422  1.0000  -3.9990   0.0000   0.0000   0.0000   0.2866
   8.600   1.1355   0.03086   0.02184  -0.0509  0.0408  1.0000  -4.0065   0.0000   0.0000   0.0000   0.2853
   8.700   1.1370   0.03162   0.02266  -0.0497  0.0396  1.0000  -4.0176   0.0000   0.0000   0.0000   0.2840
   8.800   1.1388   0.03240   0.02350  -0.0486  0.0386  1.0000  -4.0316   0.0000   0.0000   0.0000   0.2828
   8.900   1.1413   0.03319   0.02435  -0.0475  0.0377  1.0000  -4.0491   0.0000   0.0000   0.0000   0.2817
   9.000   1.1445   0.03400   0.02521  -0.0466  0.0370  1.0000  -4.0696   0.0000   0.0000   0.0000   0.2806
   9.100   1.1487   0.03483   0.02609  -0.0457  0.0363  1.0000  -4.0934   0.0000   0.0000   0.0000   0.2796
   9.200   1.1540   0.03569   0.02700  -0.0449  0.0358  1.0000  -4.1206   0.0000   0.0000   0.0000   0.2786
   9.300   1.1608   0.03659   0.02795  -0.0442  0.0353  1.0000  -4.1513   0.0000   0.0000   0.0000   0.2776
   9.400   1.1690   0.03755   0.02897  -0.0436  0.0349  1.0000  -4.1845   0.0000   0.0000   0.0000   0.2767
   9.500   1.1788   0.03861   0.03010  -0.0432  0.0346  1.0000  -4.2203   0.0000   0.0000   0.0000   0.2759
   9.600   1.1901   0.03978   0.03136  -0.0430  0.0345  1.0000  -4.2571   0.0000   0.0000   0.0000   0.2752
   9.700   1.2018   0.04109   0.03278  -0.0428  0.0344  1.0000  -4.2913   0.0000   0.0000   0.0000   0.2746
   9.800   1.2134   0.04252   0.03435  -0.0427  0.0345  1.0000  -4.3217   0.0000   0.0000   0.0000   0.2741
   9.900   1.2239   0.04406   0.03603  -0.0425  0.0347  1.0000  -4.3461   0.0000   0.0000   0.0000   0.2735
  10.000   1.2323   0.04563   0.03776  -0.0422  0.0350  1.0000  -4.3635   0.0000   0.0000   0.0000   0.2729
  10.100   1.2388   0.04722   0.03952  -0.0417  0.0353  1.0000  -4.3741   0.0000   0.0000   0.0000   0.2721
  10.200   1.2430   0.04880   0.04127  -0.0410  0.0357  1.0000  -4.3775   0.0000   0.0000   0.0000   0.2714
  10.300   1.2456   0.05038   0.04302  -0.0402  0.0360  1.0000  -4.3767   0.0000   0.0000   0.0000   0.2705
  10.400   1.2470   0.05195   0.04475  -0.0393  0.0364  1.0000  -4.3732   0.0000   0.0000   0.0000   0.2697
  10.500   1.2471   0.05352   0.04647  -0.0384  0.0368  1.0000  -4.3671   0.0000   0.0000   0.0000   0.2688
  10.600   1.2460   0.05507   0.04817  -0.0374  0.0371  1.0000  -4.3589   0.0000   0.0000   0.0000   0.2679
  10.700   1.2439   0.05661   0.04986  -0.0364  0.0375  1.0000  -4.3489   0.0000   0.0000   0.0000   0.2670
  10.800   1.2409   0.05814   0.05153  -0.0354  0.0378  1.0000  -4.3374   0.0000   0.0000   0.0000   0.2662
  10.900   1.2371   0.05968   0.05320  -0.0345  0.0381  1.0000  -4.3245   0.0000   0.0000   0.0000   0.2654
  11.000   1.2326   0.06124   0.05488  -0.0337  0.0384  1.0000  -4.3104   0.0000   0.0000   0.0000   0.2647
  11.100   1.2276   0.06283   0.05658  -0.0329  0.0387  1.0000  -4.2951   0.0000   0.0000   0.0000   0.2641
  11.200   1.2220   0.06442   0.05830  -0.0323  0.0390  1.0000  -4.2786   0.0000   0.0000   0.0000   0.2635
  11.300   1.2160   0.06606   0.06004  -0.0317  0.0392  1.0000  -4.2610   0.0000   0.0000   0.0000   0.2631
  11.400   1.2096   0.06775   0.06183  -0.0313  0.0395  1.0000  -4.2423   0.0000   0.0000   0.0000   0.2627
  11.500   1.2030   0.06949   0.06368  -0.0310  0.0397  1.0000  -4.2224   0.0000   0.0000   0.0000   0.2625
  11.600   1.1959   0.07129   0.06558  -0.0308  0.0399  1.0000  -4.2012   0.0000   0.0000   0.0000   0.2624
  11.700   1.1887   0.07315   0.06753  -0.0308  0.0401  1.0000  -4.1789   0.0000   0.0000   0.0000   0.2624
  11.800   1.1811   0.07506   0.06954  -0.0309  0.0403  1.0000  -4.1552   0.0000   0.0000   0.0000   0.2625
  11.900   1.1732   0.07700   0.07157  -0.0311  0.0405  1.0000  -4.1303   0.0000   0.0000   0.0000   0.2627
  12.000   1.1650   0.07900   0.07366  -0.0314  0.0406  1.0000  -4.1041   0.0000   0.0000   0.0000   0.2630
  12.100   1.1566   0.08109   0.07583  -0.0319  0.0408  1.0000  -4.0764   0.0000   0.0000   0.0000   0.2635
  12.200   1.1482   0.08327   0.07809  -0.0325  0.0409  1.0000  -4.0473   0.0000   0.0000   0.0000   0.2641
  12.300   1.1395   0.08553   0.08043  -0.0333  0.0410  1.0000  -4.0163   0.0000   0.0000   0.0000   0.2648
  12.400   1.1309   0.08789   0.08286  -0.0342  0.0412  1.0000  -3.9837   0.0000   0.0000   0.0000   0.2657
  12.500   1.1220   0.09034   0.08539  -0.0353  0.0413  1.0000  -3.9491   0.0000   0.0000   0.0000   0.2668
  12.600   1.1130   0.09288   0.08800  -0.0365  0.0414  1.0000  -3.9124   0.0000   0.0000   0.0000   0.2680
  12.700   1.1041   0.09551   0.09069  -0.0378  0.0415  1.0000  -3.8737   0.0000   0.0000   0.0000   0.2693
  12.800   1.0948   0.09825   0.09349  -0.0393  0.0416  1.0000  -3.8322   0.0000   0.0000   0.0000   0.2709
  12.900   1.0856   0.10108   0.09638  -0.0410  0.0417  1.0000  -3.7882   0.0000   0.0000   0.0000   0.2726
  13.000   1.0762   0.10403   0.09938  -0.0428  0.0418  1.0000  -3.7411   0.0000   0.0000   0.0000   0.2745
  13.100   1.0668   0.10710   0.10251  -0.0447  0.0419  1.0000  -3.6904   0.0000   0.0000   0.0000   0.2766
  13.200   1.0575   0.11029   0.10574  -0.0468  0.0420  1.0000  -3.6362   0.0000   0.0000   0.0000   0.2788
  13.300   1.0480   0.11365   0.10914  -0.0491  0.0421  1.0000  -3.5772   0.0000   0.0000   0.0000   0.2813
  13.400   1.0389   0.11713   0.11266  -0.0515  0.0423  1.0000  -3.5142   0.0000   0.0000   0.0000   0.2839
  13.500   1.0297   0.12082   0.11638  -0.0540  0.0424  1.0000  -3.4454   0.0000   0.0000   0.0000   0.2867
  13.600   1.0211   0.12454   0.12013  -0.0565  0.0426  1.0000  -3.3735   0.0000   0.0000   0.0000   0.2896
  13.700   1.0128   0.12834   0.12393  -0.0590  0.0429  1.0000  -3.2974   0.0000   0.0000   0.0000   0.2925
  13.800   1.0054   0.13213   0.12774  -0.0614  0.0433  1.0000  -3.2205   0.0000   0.0000   0.0000   0.2952
  13.900   0.9986   0.13597   0.13157  -0.0635  0.0438  1.0000  -3.1430   0.0000   0.0000   0.0000   0.2977
  14.100   1.0067   0.13902   0.13470  -0.0642  0.0464  1.0000  -3.1494   0.0000   0.0000   0.0000   0.2977
  14.200   0.9840   0.15181   0.14745  -0.0733  0.0497  1.0000  -2.7248   0.0000   0.0000   0.0000   0.3090
  14.300   0.9690   0.16008   0.15564  -0.0785  0.0534  1.0000  -2.4602   0.0000   0.0000   0.0000   0.3157
  14.400   0.9646   0.16435   0.15989  -0.0807  0.0563  1.0000  -2.3582   0.0000   0.0000   0.0000   0.3183
  14.500   0.9630   0.16757   0.16309  -0.0819  0.0591  1.0000  -2.3030   0.0000   0.0000   0.0000   0.3197
  14.600   0.9642   0.17012   0.16564  -0.0820  0.0624  1.0000  -2.2895   0.0000   0.0000   0.0000   0.3196
  14.800   0.9603   0.18301   0.17855  -0.0880  0.0972  1.0000  -1.9429   0.0000   0.0000   0.0000   0.3265
  14.900   0.9615   0.18518   0.18072  -0.0888  0.0970  1.0000  -1.9329   0.0000   0.0000   0.0000   0.3271
  15.000   0.9632   0.18729   0.18283  -0.0895  0.0967  1.0000  -1.9284   0.0000   0.0000   0.0000   0.3275
  15.100   0.9655   0.18936   0.18491  -0.0899  0.0963  1.0000  -1.9291   0.0000   0.0000   0.0000   0.3276
  15.200   0.9685   0.19144   0.18699  -0.0902  0.0959  1.0000  -1.9350   0.0000   0.0000   0.0000   0.3275
  15.300   0.9717   0.19354   0.18910  -0.0904  0.0953  1.0000  -1.9443   0.0000   0.0000   0.0000   0.3273
  15.400   0.9755   0.19577   0.19134  -0.0904  0.0948  1.0000  -1.9582   0.0000   0.0000   0.0000   0.3268
  15.500   0.9799   0.19827   0.19385  -0.0902  0.0941  1.0000  -1.9769   0.0000   0.0000   0.0000   0.3260
  15.600   0.9849   0.20163   0.19723  -0.0897  0.0932  1.0000  -1.9993   0.0000   0.0000   0.0000   0.3249
  15.700   0.9776   0.21008   0.20562  -0.0910  0.0916  1.0000  -1.9329   0.0000   0.0000   0.0000   0.3269
  15.800   0.9781   0.21225   0.20779  -0.0921  0.0915  1.0000  -1.9177   0.0000   0.0000   0.0000   0.3278
  15.900   0.9787   0.21437   0.20991  -0.0932  0.0915  1.0000  -1.9026   0.0000   0.0000   0.0000   0.3288
  16.000   0.9792   0.21642   0.21195  -0.0943  0.0914  1.0000  -1.8875   0.0000   0.0000   0.0000   0.3297
  16.100   0.9796   0.21839   0.21391  -0.0954  0.0913  1.0000  -1.8724   0.0000   0.0000   0.0000   0.3307
  16.200   0.9800   0.22024   0.21576  -0.0965  0.0911  1.0000  -1.8570   0.0000   0.0000   0.0000   0.3317
  16.300   0.9803   0.22193   0.21745  -0.0977  0.0909  1.0000  -1.8409   0.0000   0.0000   0.0000   0.3328
  16.400   0.9804   0.22337   0.21888  -0.0990  0.0906  1.0000  -1.8233   0.0000   0.0000   0.0000   0.3340
  16.500   0.9781   0.22429   0.21978  -0.1009  0.0901  1.0000  -1.7909   0.0000   0.0000   0.0000   0.3360
  16.600   0.9735   0.22456   0.22002  -0.1035  0.0888  1.0000  -1.7415   0.0000   0.0000   0.0000   0.3391
  16.700   0.9690   0.22531   0.22076  -0.1059  0.0870  1.0000  -1.6948   0.0000   0.0000   0.0000   0.3419
  16.800   0.9677   0.22691   0.22234  -0.1074  0.0853  1.0000  -1.6687   0.0000   0.0000   0.0000   0.3436
  16.900   0.9677   0.22877   0.22421  -0.1086  0.0839  1.0000  -1.6526   0.0000   0.0000   0.0000   0.3447
  17.000   0.9683   0.23073   0.22617  -0.1096  0.0825  1.0000  -1.6417   0.0000   0.0000   0.0000   0.3455
  17.100   0.9692   0.23272   0.22816  -0.1105  0.0812  1.0000  -1.6340   0.0000   0.0000   0.0000   0.3461
  17.200   0.9703   0.23472   0.23016  -0.1113  0.0800  1.0000  -1.6288   0.0000   0.0000   0.0000   0.3467
  17.300   0.9716   0.23672   0.23216  -0.1120  0.0789  1.0000  -1.6257   0.0000   0.0000   0.0000   0.3471
  17.400   0.9731   0.23871   0.23416  -0.1126  0.0778  1.0000  -1.6245   0.0000   0.0000   0.0000   0.3475
  17.500   0.9746   0.24069   0.23615  -0.1133  0.0767  1.0000  -1.6251   0.0000   0.0000   0.0000   0.3478
  17.600   0.9764   0.24266   0.23812  -0.1138  0.0757  1.0000  -1.6276   0.0000   0.0000   0.0000   0.3480
  17.700   0.9782   0.24463   0.24010  -0.1143  0.0747  1.0000  -1.6322   0.0000   0.0000   0.0000   0.3482
  17.800   0.9803   0.24659   0.24207  -0.1147  0.0738  1.0000  -1.6390   0.0000   0.0000   0.0000   0.3482
  17.900   0.9825   0.24855   0.24404  -0.1151  0.0729  1.0000  -1.6483   0.0000   0.0000   0.0000   0.3481
  18.000   0.9850   0.25053   0.24603  -0.1153  0.0721  1.0000  -1.6606   0.0000   0.0000   0.0000   0.3479
  18.100   0.9879   0.25254   0.24805  -0.1155  0.0713  1.0000  -1.6764   0.0000   0.0000   0.0000   0.3476
  18.200   0.9912   0.25463   0.25016  -0.1155  0.0705  1.0000  -1.6969   0.0000   0.0000   0.0000   0.3470
  18.300   0.9953   0.25688   0.25242  -0.1153  0.0698  1.0000  -1.7236   0.0000   0.0000   0.0000   0.3462
  18.400   1.0009   0.25948   0.25504  -0.1148  0.0690  1.0000  -1.7609   0.0000   0.0000   0.0000   0.3449
  18.500   1.0081   0.26280   0.25840  -0.1139  0.0681  1.0000  -1.8099   0.0000   0.0000   0.0000   0.3430
  18.600   1.0091   0.27401   0.26958  -0.1129  0.0662  1.0000  -1.8031   0.0000   0.0000   0.0000   0.3419
  18.700   1.0095   0.27616   0.27173  -0.1138  0.0662  1.0000  -1.7910   0.0000   0.0000   0.0000   0.3425
  18.800   1.0098   0.27827   0.27384  -0.1146  0.0661  1.0000  -1.7790   0.0000   0.0000   0.0000   0.3432
  18.900   1.0101   0.28033   0.27591  -0.1155  0.0661  1.0000  -1.7668   0.0000   0.0000   0.0000   0.3439
  19.000   1.0102   0.28236   0.27794  -0.1164  0.0660  1.0000  -1.7546   0.0000   0.0000   0.0000   0.3446
  19.100   1.0103   0.28432   0.27991  -0.1172  0.0660  1.0000  -1.7421   0.0000   0.0000   0.0000   0.3453
  19.200   1.0103   0.28622   0.28181  -0.1181  0.0659  1.0000  -1.7294   0.0000   0.0000   0.0000   0.3460
  19.300   1.0102   0.28805   0.28364  -0.1189  0.0658  1.0000  -1.7164   0.0000   0.0000   0.0000   0.3468
  19.400   1.0096   0.28976   0.28535  -0.1199  0.0656  1.0000  -1.7013   0.0000   0.0000   0.0000   0.3476
  19.500   1.0081   0.29128   0.28688  -0.1209  0.0655  1.0000  -1.6807   0.0000   0.0000   0.0000   0.3487
  19.600   1.0062   0.29267   0.28826  -0.1219  0.0653  1.0000  -1.6586   0.0000   0.0000   0.0000   0.3498
  19.700   1.0035   0.29384   0.28944  -0.1231  0.0651  1.0000  -1.6327   0.0000   0.0000   0.0000   0.3511
  19.800   0.9996   0.29477   0.29037  -0.1243  0.0648  1.0000  -1.6010   0.0000   0.0000   0.0000   0.3527
  19.900   0.9955   0.29565   0.29125  -0.1256  0.0643  1.0000  -1.5673   0.0000   0.0000   0.0000   0.3543
  20.000   0.9918   0.29663   0.29223  -0.1269  0.0637  1.0000  -1.5333   0.0000   0.0000   0.0000   0.3560
  20.100   0.9889   0.29790   0.29350  -0.1281  0.0628  1.0000  -1.5031   0.0000   0.0000   0.0000   0.3575
  20.200   0.9868   0.29947   0.29508  -0.1290  0.0619  1.0000  -1.4793   0.0000   0.0000   0.0000   0.3586
  20.300   0.9849   0.30120   0.29681  -0.1297  0.0610  1.0000  -1.4608   0.0000   0.0000   0.0000   0.3594
  20.400   0.9831   0.30296   0.29859  -0.1303  0.0600  1.0000  -1.4455   0.0000   0.0000   0.0000   0.3601
  20.500   0.9810   0.30468   0.30033  -0.1308  0.0592  1.0000  -1.4318   0.0000   0.0000   0.0000   0.3608
  20.600   0.9786   0.30633   0.30198  -0.1311  0.0584  1.0000  -1.4188   0.0000   0.0000   0.0000   0.3613
  20.700   0.9755   0.30783   0.30351  -0.1313  0.0576  1.0000  -1.4058   0.0000   0.0000   0.0000   0.3619
  20.800   0.9710   0.30900   0.30470  -0.1313  0.0569  1.0000  -1.3904   0.0000   0.0000   0.0000   0.3624
  20.900   0.9409   0.30438   0.30017  -0.1281  0.0569  1.0000  -1.3200   0.0000   0.0000   0.0000   0.3636
  21.000   0.9301   0.30332   0.29915  -0.1272  0.0563  1.0000  -1.2918   0.0000   0.0000   0.0000   0.3643
  21.100   0.9227   0.30292   0.29878  -0.1268  0.0557  1.0000  -1.2716   0.0000   0.0000   0.0000   0.3649
  21.200   0.9169   0.30279   0.29868  -0.1265  0.0551  1.0000  -1.2554   0.0000   0.0000   0.0000   0.3654
  21.300   0.9120   0.30281   0.29872  -0.1263  0.0545  1.0000  -1.2417   0.0000   0.0000   0.0000   0.3659
  21.400   0.9079   0.30292   0.29897  -0.1263  0.0539  1.0000  -1.2249   0.0000   0.0000   0.0000   0.3663
  21.500   0.9042   0.30309   0.29917  -0.1262  0.0533  1.0000  -1.2144   0.0000   0.0000   0.0000   0.3667
  21.600   0.9009   0.30332   0.29941  -0.1261  0.0527  1.0000  -1.2057   0.0000   0.0000   0.0000   0.3671
  21.700   0.8979   0.30357   0.29969  -0.1261  0.0521  1.0000  -1.1987   0.0000   0.0000   0.0000   0.3674
  21.800   0.8952   0.30386   0.30000  -0.1261  0.0515  1.0000  -1.1933   0.0000   0.0000   0.0000   0.3677
  21.900   0.8927   0.30417   0.30033  -0.1261  0.0509  1.0000  -1.1895   0.0000   0.0000   0.0000   0.3680
  22.000   0.8906   0.30451   0.30069  -0.1260  0.0503  1.0000  -1.1874   0.0000   0.0000   0.0000   0.3682
  22.100   0.8887   0.30487   0.30106  -0.1260  0.0497  1.0000  -1.1873   0.0000   0.0000   0.0000   0.3683
  22.200   0.8870   0.30525   0.30147  -0.1259  0.0491  1.0000  -1.1897   0.0000   0.0000   0.0000   0.3683
  22.300   0.8862   0.30566   0.30189  -0.1257  0.0483  1.0000  -1.2034   0.0000   0.0000   0.0000   0.3681
  22.400   0.9047   0.31784   0.31407  -0.1227  0.0446  1.0000  -1.3498   0.0000   0.0000   0.0000   0.3616
  22.500   0.8991   0.31655   0.31279  -0.1230  0.0445  1.0000  -1.3228   0.0000   0.0000   0.0000   0.3627
  22.600   0.8921   0.31486   0.31111  -0.1234  0.0443  1.0000  -1.2880   0.0000   0.0000   0.0000   0.3642
  22.700   0.8848   0.31304   0.30931  -0.1240  0.0441  1.0000  -1.2497   0.0000   0.0000   0.0000   0.3659
  22.800   0.8782   0.31138   0.30765  -0.1247  0.0438  1.0000  -1.2105   0.0000   0.0000   0.0000   0.3677
  22.900   0.8726   0.31008   0.30636  -0.1257  0.0433  1.0000  -1.1694   0.0000   0.0000   0.0000   0.3697
  23.000   0.8690   0.30955   0.30583  -0.1271  0.0423  1.0000  -1.1266   0.0000   0.0000   0.0000   0.3717
  23.100   0.8675   0.31004   0.30633  -0.1282  0.0405  1.0000  -1.0968   0.0000   0.0000   0.0000   0.3731
  23.200   0.8663   0.31072   0.30701  -0.1287  0.0392  1.0000  -1.0835   0.0000   0.0000   0.0000   0.3738
  23.300   0.8651   0.31137   0.30768  -0.1290  0.0381  1.0000  -1.0747   0.0000   0.0000   0.0000   0.3743
  23.400   0.8640   0.31201   0.30833  -0.1294  0.0371  1.0000  -1.0682   0.0000   0.0000   0.0000   0.3747
  23.500   0.8629   0.31263   0.30896  -0.1296  0.0361  1.0000  -1.0635   0.0000   0.0000   0.0000   0.3751
  23.600   0.8619   0.31323   0.30957  -0.1299  0.0352  1.0000  -1.0603   0.0000   0.0000   0.0000   0.3754
  23.700   0.8610   0.31382   0.31018  -0.1302  0.0344  1.0000  -1.0586   0.0000   0.0000   0.0000   0.3757
  23.800   0.8601   0.31440   0.31077  -0.1304  0.0336  1.0000  -1.0583   0.0000   0.0000   0.0000   0.3760
  23.900   0.8593   0.31496   0.31134  -0.1306  0.0329  1.0000  -1.0596   0.0000   0.0000   0.0000   0.3762
  24.000   0.8586   0.31551   0.31190  -0.1308  0.0322  1.0000  -1.0625   0.0000   0.0000   0.0000   0.3764
  24.100   0.8580   0.31604   0.31244  -0.1310  0.0316  1.0000  -1.0672   0.0000   0.0000   0.0000   0.3766
  24.200   0.8574   0.31655   0.31297  -0.1311  0.0310  1.0000  -1.0741   0.0000   0.0000   0.0000   0.3767
  24.300   0.8570   0.31706   0.31349  -0.1312  0.0304  1.0000  -1.0834   0.0000   0.0000   0.0000   0.3767
  24.400   0.8567   0.31757   0.31402  -0.1312  0.0299  1.0000  -1.0960   0.0000   0.0000   0.0000   0.3766
  24.500   0.8565   0.31812   0.31458  -0.1311  0.0294  1.0000  -1.1128   0.0000   0.0000   0.0000   0.3764
  24.600   0.8568   0.31882   0.31530  -0.1309  0.0289  1.0000  -1.1357   0.0000   0.0000   0.0000   0.3759
  24.700   0.8580   0.32008   0.31658  -0.1304  0.0284  1.0000  -1.1702   0.0000   0.0000   0.0000   0.3750
  25.100   0.8609   0.33006   0.32656  -0.1302  0.0272  1.0000  -1.1732   0.0000   0.0000   0.0000   0.3737
  25.200   0.8597   0.33051   0.32702  -0.1306  0.0272  1.0000  -1.1623   0.0000   0.0000   0.0000   0.3742
  25.300   0.8586   0.33092   0.32743  -0.1310  0.0272  1.0000  -1.1512   0.0000   0.0000   0.0000   0.3748
  25.400   0.8574   0.33130   0.32783  -0.1314  0.0271  1.0000  -1.1401   0.0000   0.0000   0.0000   0.3753
  25.500   0.8561   0.33162   0.32816  -0.1319  0.0271  1.0000  -1.1280   0.0000   0.0000   0.0000   0.3759
  25.600   0.8544   0.33180   0.32834  -0.1323  0.0271  1.0000  -1.1132   0.0000   0.0000   0.0000   0.3766
  25.700   0.8529   0.33198   0.32853  -0.1328  0.0270  1.0000  -1.0987   0.0000   0.0000   0.0000   0.3773
  25.800   0.8514   0.33217   0.32873  -0.1333  0.0270  1.0000  -1.0844   0.0000   0.0000   0.0000   0.3780
  25.900   0.8499   0.33238   0.32894  -0.1338  0.0269  1.0000  -1.0701   0.0000   0.0000   0.0000   0.3786
  26.000   0.8485   0.33260   0.32917  -0.1343  0.0269  1.0000  -1.0560   0.0000   0.0000   0.0000   0.3793
  26.100   0.8473   0.33284   0.32942  -0.1348  0.0268  1.0000  -1.0420   0.0000   0.0000   0.0000   0.3800
  26.200   0.8461   0.33310   0.32969  -0.1354  0.0267  1.0000  -1.0279   0.0000   0.0000   0.0000   0.3807
  26.300   0.8449   0.33338   0.32998  -0.1359  0.0267  1.0000  -1.0138   0.0000   0.0000   0.0000   0.3814
  26.400   0.8439   0.33371   0.33031  -0.1365  0.0266  1.0000  -0.9996   0.0000   0.0000   0.0000   0.3821
  26.500   0.8431   0.33407   0.33069  -0.1371  0.0264  1.0000  -0.9853   0.0000   0.0000   0.0000   0.3829
  26.600   0.8423   0.33450   0.33112  -0.1377  0.0263  1.0000  -0.9708   0.0000   0.0000   0.0000   0.3836
  26.700   0.8417   0.33501   0.33164  -0.1384  0.0261  1.0000  -0.9563   0.0000   0.0000   0.0000   0.3843
  26.800   0.8414   0.33561   0.33224  -0.1390  0.0259  1.0000  -0.9420   0.0000   0.0000   0.0000   0.3849
  26.900   0.8411   0.33630   0.33294  -0.1397  0.0256  1.0000  -0.9283   0.0000   0.0000   0.0000   0.3856
  27.000   0.8411   0.33708   0.33373  -0.1403  0.0253  1.0000  -0.9156   0.0000   0.0000   0.0000   0.3861
  27.100   0.8411   0.33790   0.33456  -0.1409  0.0250  1.0000  -0.9046   0.0000   0.0000   0.0000   0.3866
  27.200   0.8410   0.33874   0.33540  -0.1414  0.0246  1.0000  -0.8952   0.0000   0.0000   0.0000   0.3871
  27.300   0.8410   0.33957   0.33624  -0.1418  0.0242  1.0000  -0.8873   0.0000   0.0000   0.0000   0.3875
  27.400   0.8409   0.34039   0.33708  -0.1423  0.0238  1.0000  -0.8806   0.0000   0.0000   0.0000   0.3878
  27.500   0.8409   0.34120   0.33790  -0.1427  0.0234  1.0000  -0.8747   0.0000   0.0000   0.0000   0.3882
  27.600   0.8408   0.34200   0.33871  -0.1431  0.0230  1.0000  -0.8696   0.0000   0.0000   0.0000   0.3885
  27.700   0.8407   0.34279   0.33951  -0.1435  0.0227  1.0000  -0.8651   0.0000   0.0000   0.0000   0.3888
  27.800   0.8405   0.34358   0.34030  -0.1439  0.0223  1.0000  -0.8610   0.0000   0.0000   0.0000   0.3891
  27.900   0.8404   0.34435   0.34109  -0.1443  0.0220  1.0000  -0.8573   0.0000   0.0000   0.0000   0.3894
  28.000   0.8403   0.34513   0.34187  -0.1447  0.0217  1.0000  -0.8539   0.0000   0.0000   0.0000   0.3897
  28.100   0.8402   0.34589   0.34265  -0.1451  0.0213  1.0000  -0.8508   0.0000   0.0000   0.0000   0.3900
  28.200   0.8401   0.34665   0.34342  -0.1455  0.0210  1.0000  -0.8480   0.0000   0.0000   0.0000   0.3902
  28.300   0.8400   0.34741   0.34419  -0.1459  0.0207  1.0000  -0.8455   0.0000   0.0000   0.0000   0.3905
  28.400   0.8399   0.34817   0.34495  -0.1463  0.0204  1.0000  -0.8431   0.0000   0.0000   0.0000   0.3908
  28.500   0.8397   0.34892   0.34571  -0.1467  0.0202  1.0000  -0.8411   0.0000   0.0000   0.0000   0.3911
  28.600   0.8396   0.34967   0.34647  -0.1470  0.0199  1.0000  -0.8392   0.0000   0.0000   0.0000   0.3913
  28.700   0.8395   0.35041   0.34723  -0.1474  0.0196  1.0000  -0.8376   0.0000   0.0000   0.0000   0.3916
  28.800   0.8394   0.35116   0.34798  -0.1478  0.0194  1.0000  -0.8362   0.0000   0.0000   0.0000   0.3918
  28.900   0.8393   0.35189   0.34873  -0.1482  0.0191  1.0000  -0.8350   0.0000   0.0000   0.0000   0.3921
  29.000   0.8392   0.35262   0.34955  -0.1485  0.0188  1.0000  -0.8348   0.0000   0.0000   0.0000   0.3923
  29.100   0.8391   0.35336   0.35029  -0.1489  0.0186  1.0000  -0.8344   0.0000   0.0000   0.0000   0.3926
  29.200   0.8390   0.35408   0.35103  -0.1493  0.0183  1.0000  -0.8341   0.0000   0.0000   0.0000   0.3928
  29.300   0.8389   0.35481   0.35176  -0.1497  0.0181  1.0000  -0.8340   0.0000   0.0000   0.0000   0.3931
  29.400   0.8388   0.35552   0.35249  -0.1500  0.0179  1.0000  -0.8341   0.0000   0.0000   0.0000   0.3933
  29.500   0.8388   0.35624   0.35321  -0.1504  0.0177  1.0000  -0.8345   0.0000   0.0000   0.0000   0.3935
  29.600   0.8387   0.35695   0.35393  -0.1508  0.0174  1.0000  -0.8353   0.0000   0.0000   0.0000   0.3938
  29.700   0.8386   0.35765   0.35465  -0.1511  0.0172  1.0000  -0.8363   0.0000   0.0000   0.0000   0.3940
  29.800   0.8385   0.35835   0.35535  -0.1515  0.0170  1.0000  -0.8377   0.0000   0.0000   0.0000   0.3942
  29.900   0.8384   0.35904   0.35605  -0.1519  0.0168  1.0000  -0.8396   0.0000   0.0000   0.0000   0.3944
  30.000   0.8383   0.35972   0.35675  -0.1522  0.0166  1.0000  -0.8418   0.0000   0.0000   0.0000   0.3946


