xflr5 v6.61

 Calculated polar for: E387

 1 1 Reynolds number fixed          Mach number fixed         

 xtrf =   1.000 (top)        1.000 (bottom)
 Mach =   0.000     Re =     0.300 e 6     Ncrit =   9.000

  alpha     CL        CD       CDp       Cm    Top Xtr Bot Xtr   Cpmin    Chinge    XCp    
 ------- -------- --------- --------- -------- ------- ------- -------- --------- ---------
 -10.000  -0.3568   0.12023   0.11715  -0.0213  1.0000  0.0187  -1.4911   0.0000   0.0000   0.0000   0.1841
  -9.900  -0.3543   0.11892   0.11584  -0.0220  1.0000  0.0187  -1.4966   0.0000   0.0000   0.0000   0.1819
  -9.800  -0.3518   0.11760   0.11454  -0.0226  1.0000  0.0187  -1.5024   0.0000   0.0000   0.0000   0.1798
  -9.700  -0.3494   0.11629   0.11323  -0.0232  1.0000  0.0187  -1.5083   0.0000   0.0000   0.0000   0.1776
  -9.600  -0.3469   0.11497   0.11192  -0.0238  1.0000  0.0187  -1.5144   0.0000   0.0000   0.0000   0.1754
  -9.500  -0.3445   0.11366   0.11062  -0.0245  1.0000  0.0187  -1.5207   0.0000   0.0000   0.0000   0.1731
  -9.400  -0.3421   0.11235   0.10931  -0.0251  1.0000  0.0187  -1.5272   0.0000   0.0000   0.0000   0.1708
  -9.300  -0.3513   0.10698   0.10399  -0.0262  1.0000  0.0195  -1.7100   0.0000   0.0000   0.0000   0.1697
  -9.200  -0.3514   0.10488   0.10191  -0.0266  1.0000  0.0198  -1.7298   0.0000   0.0000   0.0000   0.1687
  -9.100  -0.3504   0.10325   0.10028  -0.0269  1.0000  0.0201  -1.7279   0.0000   0.0000   0.0000   0.1675
  -9.000  -0.3476   0.10186   0.09891  -0.0269  1.0000  0.0204  -1.6963   0.0000   0.0000   0.0000   0.1671
  -8.900  -0.3444   0.10063   0.09768  -0.0268  1.0000  0.0208  -1.6601   0.0000   0.0000   0.0000   0.1665
  -8.800  -0.3409   0.09946   0.09652  -0.0268  1.0000  0.0211  -1.6216   0.0000   0.0000   0.0000   0.1659
  -8.700  -0.3376   0.09832   0.09539  -0.0268  1.0000  0.0214  -1.5882   0.0000   0.0000   0.0000   0.1651
  -8.600  -0.3345   0.09720   0.09428  -0.0270  1.0000  0.0218  -1.5608   0.0000   0.0000   0.0000   0.1640
  -8.500  -0.3316   0.09608   0.09317  -0.0272  1.0000  0.0221  -1.5380   0.0000   0.0000   0.0000   0.1626
  -8.400  -0.3289   0.09496   0.09206  -0.0275  1.0000  0.0224  -1.5192   0.0000   0.0000   0.0000   0.1611
  -8.300  -0.3264   0.09384   0.09094  -0.0278  1.0000  0.0228  -1.5035   0.0000   0.0000   0.0000   0.1595
  -8.200  -0.3240   0.09271   0.08983  -0.0282  1.0000  0.0231  -1.4906   0.0000   0.0000   0.0000   0.1578
  -8.100  -0.3218   0.09159   0.08872  -0.0286  1.0000  0.0235  -1.4802   0.0000   0.0000   0.0000   0.1561
  -8.000  -0.3197   0.09046   0.08761  -0.0290  1.0000  0.0239  -1.4719   0.0000   0.0000   0.0000   0.1543
  -7.900  -0.3178   0.08934   0.08650  -0.0294  1.0000  0.0243  -1.4655   0.0000   0.0000   0.0000   0.1524
  -7.800  -0.3160   0.08821   0.08539  -0.0299  1.0000  0.0246  -1.4608   0.0000   0.0000   0.0000   0.1506
  -7.700  -0.3144   0.08709   0.08429  -0.0303  1.0000  0.0250  -1.4577   0.0000   0.0000   0.0000   0.1488
  -7.600  -0.3130   0.08598   0.08319  -0.0307  1.0000  0.0254  -1.4560   0.0000   0.0000   0.0000   0.1471
  -7.500  -0.3118   0.08487   0.08210  -0.0311  1.0000  0.0258  -1.4557   0.0000   0.0000   0.0000   0.1454
  -7.400  -0.3108   0.08377   0.08103  -0.0315  1.0000  0.0262  -1.4568   0.0000   0.0000   0.0000   0.1439
  -7.300  -0.3102   0.08270   0.07998  -0.0319  1.0000  0.0266  -1.4593   0.0000   0.0000   0.0000   0.1427
  -7.200  -0.3102   0.08166   0.07896  -0.0322  1.0000  0.0270  -1.4633   0.0000   0.0000   0.0000   0.1419
  -7.100  -0.3109   0.08068   0.07801  -0.0323  1.0000  0.0274  -1.4689   0.0000   0.0000   0.0000   0.1419
  -7.000  -0.3126   0.07978   0.07715  -0.0322  1.0000  0.0277  -1.4763   0.0000   0.0000   0.0000   0.1428
  -6.900  -0.3158   0.07901   0.07642  -0.0318  1.0000  0.0279  -1.4857   0.0000   0.0000   0.0000   0.1452
  -6.800  -0.3191   0.07825   0.07571  -0.0316  0.9995  0.0282  -1.4957   0.0000   0.0000   0.0000   0.1472
  -6.700  -0.3070   0.07606   0.07351  -0.0358  0.9919  0.0291  -1.4971   0.0000   0.0000   0.0000   0.1294
  -6.600  -0.2937   0.07378   0.07122  -0.0406  0.9865  0.0302  -1.5039   0.0000   0.0000   0.0000   0.1078
  -6.500  -0.2801   0.07154   0.06896  -0.0455  0.9787  0.0314  -1.5172   0.0000   0.0000   0.0000   0.0834
  -6.400  -0.2621   0.06919   0.06659  -0.0519  0.9719  0.0329  -1.5400   0.0000   0.0000   0.0000   0.0477
  -6.300  -0.2414   0.06768   0.06503  -0.0581  0.9614  0.0345  -1.5515   0.0000   0.0000   0.0000   0.0050
  -6.200  -0.2218   0.06605   0.06333  -0.0634  0.9533  0.0352  -1.5512   0.0000   0.0000   0.0000  -0.0407
  -6.100  -0.2081   0.06416   0.06138  -0.0672  0.9430  0.0354  -1.5612   0.0000   0.0000   0.0000  -0.0777
  -6.000  -0.1957   0.06220   0.05933  -0.0704  0.9327  0.0355  -1.5740   0.0000   0.0000   0.0000  -0.1150
  -5.900  -0.1850   0.06021   0.05709  -0.0730  0.9231  0.0356  -1.5904   0.0000   0.0000   0.0000  -0.1499
  -5.800  -0.1772   0.05859   0.05539  -0.0746  0.9114  0.0357  -1.6033   0.0000   0.0000   0.0000  -0.1765
  -5.700  -0.1694   0.05698   0.05369  -0.0760  0.9009  0.0357  -1.6153   0.0000   0.0000   0.0000  -0.2042
  -5.600  -0.1624   0.05547   0.05207  -0.0771  0.8915  0.0358  -1.6260   0.0000   0.0000   0.0000  -0.2308
  -5.400  -0.1670   0.04587   0.04248  -0.0813  0.8740  0.0386  -1.8149   0.0000   0.0000   0.0000  -0.2430
  -5.300  -0.1614   0.04493   0.04137  -0.0810  0.8663  0.0395  -1.7535   0.0000   0.0000   0.0000  -0.2577
  -5.200  -0.1553   0.04434   0.04077  -0.0806  0.8592  0.0407  -1.6801   0.0000   0.0000   0.0000  -0.2749
  -5.100  -0.1485   0.04363   0.04005  -0.0806  0.8529  0.0419  -1.6205   0.0000   0.0000   0.0000  -0.2988
  -5.000  -0.1411   0.04281   0.03919  -0.0808  0.8463  0.0433  -1.5722   0.0000   0.0000   0.0000  -0.3286
  -4.900  -0.1331   0.04186   0.03819  -0.0811  0.8398  0.0450  -1.5353   0.0000   0.0000   0.0000  -0.3654
  -4.800  -0.1245   0.04066   0.03689  -0.0817  0.8337  0.0464  -1.5172   0.0000   0.0000   0.0000  -0.4124
  -4.700  -0.1155   0.03944   0.03556  -0.0823  0.8278  0.0479  -1.5033   0.0000   0.0000   0.0000  -0.4688
  -4.600  -0.1059   0.03823   0.03423  -0.0829  0.8218  0.0497  -1.4930   0.0000   0.0000   0.0000  -0.5399
  -4.500  -0.0952   0.03706   0.03296  -0.0835  0.8178  0.0517  -1.4854   0.0000   0.0000   0.0000  -0.6354
  -4.400  -0.0834   0.03633   0.03213  -0.0839  0.8133  0.0541  -1.4720   0.0000   0.0000   0.0000  -0.7646
  -4.300  -0.0695   0.03693   0.03260  -0.0836  0.8083  0.0566  -1.4299   0.0000   0.0000   0.0000  -0.9642
  -4.200  -0.0570   0.03731   0.03285  -0.0834  0.8033  0.0576  -1.3901   0.0000   0.0000   0.0000  -1.2262
  -3.900  -0.0360   0.02884   0.02384  -0.0861  0.7907  0.0624  -1.4692   0.0000   0.0000   0.0000  -2.1650
  -3.800  -0.0269   0.02777   0.02272  -0.0862  0.7861  0.0638  -1.4305   0.0000   0.0000   0.0000  -2.9843
  -3.600  -0.0071   0.02615   0.02101  -0.0863  0.7780  0.0665  -1.3470   0.0000   0.0000   0.0000  -11.9689
  -3.500   0.0032   0.02537   0.02019  -0.0864  0.7751  0.0682  -1.3091   0.0000   0.0000   0.0000  27.1512
  -3.400   0.0138   0.02461   0.01937  -0.0864  0.7719  0.0700  -1.2745   0.0000   0.0000   0.0000   6.5437
  -3.300   0.0246   0.02386   0.01854  -0.0864  0.7686  0.0718  -1.2436   0.0000   0.0000   0.0000   3.7806
  -3.200   0.0357   0.02311   0.01769  -0.0864  0.7650  0.0736  -1.2163   0.0000   0.0000   0.0000   2.6894
  -3.100   0.0468   0.02234   0.01681  -0.0863  0.7614  0.0750  -1.1926   0.0000   0.0000   0.0000   2.1071
  -2.900   0.0763   0.01700   0.01037  -0.0846  0.7555  0.0310  -1.5550   0.0000   0.0000   0.0000   1.3682
  -2.800   0.0877   0.01550   0.00861  -0.0842  0.7521  0.0267  -1.6157   0.0000   0.0000   0.0000   1.2172
  -2.700   0.0993   0.01433   0.00716  -0.0836  0.7486  0.0229  -1.6815   0.0000   0.0000   0.0000   1.0980
  -2.600   0.1106   0.01399   0.00668  -0.0832  0.7446  0.0211  -1.6581   0.0000   0.0000   0.0000   1.0079
  -2.500   0.1219   0.01391   0.00655  -0.0830  0.7400  0.0201  -1.5972   0.0000   0.0000   0.0000   0.9361
  -2.400   0.1332   0.01391   0.00651  -0.0829  0.7353  0.0193  -1.5276   0.0000   0.0000   0.0000   0.8764
  -2.300   0.1446   0.01385   0.00645  -0.0828  0.7334  0.0188  -1.4568   0.0000   0.0000   0.0000   0.8263
  -2.200   0.1553   0.01301   0.00551  -0.0826  0.7314  0.0183  -1.4556   0.0000   0.0000   0.0000   0.7849
  -2.100   0.1661   0.01249   0.00494  -0.0824  0.7291  0.0180  -1.4295   0.0000   0.0000   0.0000   0.7487
  -2.000   0.1771   0.01209   0.00449  -0.0822  0.7267  0.0177  -1.3936   0.0000   0.0000   0.0000   0.7168
  -1.900   0.1881   0.01178   0.00413  -0.0821  0.7240  0.0175  -1.3514   0.0000   0.0000   0.0000   0.6886
  -1.800   0.1992   0.01154   0.00383  -0.0820  0.7213  0.0174  -1.3046   0.0000   0.0000   0.0000   0.6635
  -1.700   0.2103   0.01134   0.00357  -0.0819  0.7185  0.0173  -1.2541   0.0000   0.0000   0.0000   0.6409
  -1.600   0.2215   0.01119   0.00335  -0.0818  0.7157  0.0174  -1.2006   0.0000   0.0000   0.0000   0.6206
  -1.500   0.2327   0.01107   0.00317  -0.0816  0.7129  0.0174  -1.1446   0.0000   0.0000   0.0000   0.6022
  -1.400   0.2438   0.01098   0.00300  -0.0815  0.7100  0.0176  -1.0867   0.0000   0.0000   0.0000   0.5855
  -1.300   0.2550   0.01091   0.00286  -0.0814  0.7072  0.0179  -1.0274   0.0000   0.0000   0.0000   0.5703
  -1.200   0.2661   0.01085   0.00275  -0.0813  0.7043  0.0183  -0.9669   0.0000   0.0000   0.0000   0.5563
  -1.100   0.2773   0.01081   0.00266  -0.0812  0.7012  0.0195  -0.9102   0.0000   0.0000   0.0000   0.5434
  -1.000   0.2885   0.01079   0.00260  -0.0811  0.6980  0.0238  -0.8539   0.0000   0.0000   0.0000   0.5316
  -0.900   0.2997   0.01075   0.00257  -0.0811  0.6943  0.0344  -0.7879   0.0000   0.0000   0.0000   0.5209
  -0.800   0.3098   0.01020   0.00261  -0.0814  0.6904  0.1903  -0.7211   0.0000   0.0000   0.0000   0.5128
  -0.700   0.3201   0.00983   0.00265  -0.0815  0.6883  0.3025  -0.6473   0.0000   0.0000   0.0000   0.5046
  -0.600   0.3331   0.00791   0.00289  -0.0814  0.6872  1.0000  -0.5971   0.0000   0.0000   0.0000   0.4942
  -0.500   0.3440   0.00792   0.00288  -0.0813  0.6857  1.0000  -0.6042   0.0000   0.0000   0.0000   0.4862
  -0.400   0.3550   0.00794   0.00286  -0.0813  0.6839  1.0000  -0.6113   0.0000   0.0000   0.0000   0.4787
  -0.300   0.3659   0.00796   0.00285  -0.0813  0.6818  1.0000  -0.6184   0.0000   0.0000   0.0000   0.4717
  -0.200   0.3768   0.00798   0.00284  -0.0812  0.6795  1.0000  -0.6255   0.0000   0.0000   0.0000   0.4650
  -0.100   0.3877   0.00801   0.00283  -0.0812  0.6770  1.0000  -0.6326   0.0000   0.0000   0.0000   0.4587
   0.000   0.3986   0.00803   0.00281  -0.0811  0.6744  1.0000  -0.6398   0.0000   0.0000   0.0000   0.4527
   0.100   0.4096   0.00806   0.00280  -0.0810  0.6717  1.0000  -0.6470   0.0000   0.0000   0.0000   0.4471
   0.200   0.4205   0.00809   0.00279  -0.0810  0.6690  1.0000  -0.6541   0.0000   0.0000   0.0000   0.4417
   0.300   0.4314   0.00812   0.00279  -0.0809  0.6664  1.0000  -0.6613   0.0000   0.0000   0.0000   0.4366
   0.400   0.4423   0.00815   0.00278  -0.0809  0.6639  1.0000  -0.6685   0.0000   0.0000   0.0000   0.4318
   0.500   0.4532   0.00819   0.00279  -0.0808  0.6614  1.0000  -0.6757   0.0000   0.0000   0.0000   0.4271
   0.600   0.4641   0.00824   0.00279  -0.0808  0.6589  1.0000  -0.6829   0.0000   0.0000   0.0000   0.4228
   0.700   0.4750   0.00829   0.00280  -0.0807  0.6563  1.0000  -0.6900   0.0000   0.0000   0.0000   0.4186
   0.800   0.4859   0.00835   0.00282  -0.0807  0.6536  1.0000  -0.6972   0.0000   0.0000   0.0000   0.4146
   0.900   0.4969   0.00843   0.00285  -0.0806  0.6506  1.0000  -0.7043   0.0000   0.0000   0.0000   0.4108
   1.000   0.5078   0.00853   0.00292  -0.0806  0.6472  1.0000  -0.7113   0.0000   0.0000   0.0000   0.4072
   1.100   0.5188   0.00867   0.00302  -0.0807  0.6433  1.0000  -0.7189   0.0000   0.0000   0.0000   0.4038
   1.200   0.5298   0.00877   0.00311  -0.0807  0.6408  1.0000  -0.7268   0.0000   0.0000   0.0000   0.4005
   1.300   0.5408   0.00879   0.00312  -0.0807  0.6398  1.0000  -0.7351   0.0000   0.0000   0.0000   0.3973
   1.400   0.5519   0.00881   0.00314  -0.0807  0.6385  1.0000  -0.7433   0.0000   0.0000   0.0000   0.3943
   1.500   0.5629   0.00884   0.00317  -0.0807  0.6371  1.0000  -0.7515   0.0000   0.0000   0.0000   0.3913
   1.600   0.5739   0.00887   0.00320  -0.0807  0.6355  1.0000  -0.7599   0.0000   0.0000   0.0000   0.3885
   1.700   0.5849   0.00890   0.00323  -0.0806  0.6337  1.0000  -0.7692   0.0000   0.0000   0.0000   0.3857
   1.800   0.5959   0.00893   0.00326  -0.0806  0.6317  1.0000  -0.7785   0.0000   0.0000   0.0000   0.3831
   1.900   0.6068   0.00896   0.00328  -0.0806  0.6295  1.0000  -0.7878   0.0000   0.0000   0.0000   0.3805
   2.000   0.6178   0.00899   0.00331  -0.0806  0.6271  1.0000  -0.7978   0.0000   0.0000   0.0000   0.3780
   2.100   0.6287   0.00902   0.00333  -0.0805  0.6246  1.0000  -0.8085   0.0000   0.0000   0.0000   0.3756
   2.200   0.6397   0.00906   0.00335  -0.0805  0.6221  1.0000  -0.8201   0.0000   0.0000   0.0000   0.3733
   2.300   0.6506   0.00909   0.00338  -0.0805  0.6196  1.0000  -0.8323   0.0000   0.0000   0.0000   0.3710
   2.400   0.6615   0.00912   0.00340  -0.0804  0.6171  1.0000  -0.8445   0.0000   0.0000   0.0000   0.3688
   2.500   0.6724   0.00916   0.00343  -0.0804  0.6146  1.0000  -0.8573   0.0000   0.0000   0.0000   0.3667
   2.600   0.6833   0.00920   0.00345  -0.0803  0.6120  1.0000  -0.8713   0.0000   0.0000   0.0000   0.3646
   2.700   0.6942   0.00925   0.00347  -0.0802  0.6092  1.0000  -0.8854   0.0000   0.0000   0.0000   0.3626
   2.800   0.7050   0.00930   0.00350  -0.0802  0.6062  1.0000  -0.8998   0.0000   0.0000   0.0000   0.3607
   2.900   0.7158   0.00936   0.00358  -0.0801  0.6030  1.0000  -0.9161   0.0000   0.0000   0.0000   0.3588
   3.000   0.7267   0.00948   0.00365  -0.0801  0.5990  1.0000  -0.9324   0.0000   0.0000   0.0000   0.3570
   3.100   0.7373   0.00965   0.00379  -0.0800  0.5922  1.0000  -0.9496   0.0000   0.0000   0.0000   0.3552
   3.200   0.7479   0.00950   0.00364  -0.0798  0.5887  1.0000  -0.9695   0.0000   0.0000   0.0000   0.3533
   3.300   0.7584   0.00937   0.00351  -0.0796  0.5829  1.0000  -0.9893   0.0000   0.0000   0.0000   0.3514
   3.400   0.7688   0.00927   0.00338  -0.0793  0.5752  1.0000  -1.0093   0.0000   0.0000   0.0000   0.3496
   3.500   0.7791   0.00921   0.00326  -0.0791  0.5663  1.0000  -1.0291   0.0000   0.0000   0.0000   0.3478
   3.600   0.7892   0.00921   0.00316  -0.0787  0.5566  1.0000  -1.0488   0.0000   0.0000   0.0000   0.3460
   3.700   0.7991   0.00931   0.00315  -0.0785  0.5446  1.0000  -1.0708   0.0000   0.0000   0.0000   0.3443
   3.800   0.8097   0.00926   0.00312  -0.0784  0.5388  1.0000  -1.0952   0.0000   0.0000   0.0000   0.3428
   3.900   0.8203   0.00924   0.00310  -0.0782  0.5313  1.0000  -1.1230   0.0000   0.0000   0.0000   0.3413
   4.000   0.8308   0.00926   0.00310  -0.0781  0.5232  1.0000  -1.1525   0.0000   0.0000   0.0000   0.3398
   4.100   0.8413   0.00930   0.00311  -0.0780  0.5162  1.0000  -1.1821   0.0000   0.0000   0.0000   0.3384
   4.200   0.8517   0.00936   0.00313  -0.0779  0.5103  1.0000  -1.2117   0.0000   0.0000   0.0000   0.3370
   4.300   0.8620   0.00943   0.00315  -0.0777  0.5040  1.0000  -1.2412   0.0000   0.0000   0.0000   0.3357
   4.400   0.8723   0.00952   0.00320  -0.0776  0.4971  1.0000  -1.2707   0.0000   0.0000   0.0000   0.3343
   4.500   0.8830   0.00957   0.00325  -0.0776  0.4928  1.0000  -1.3010   0.0000   0.0000   0.0000   0.3331
   4.600   0.8938   0.00960   0.00330  -0.0775  0.4877  1.0000  -1.3389   0.0000   0.0000   0.0000   0.3319
   4.700   0.9044   0.00965   0.00335  -0.0774  0.4807  1.0000  -1.4231   0.0000   0.0000   0.0000   0.3307
   4.800   0.9147   0.00971   0.00339  -0.0773  0.4721  1.0000  -1.5122   0.0000   0.0000   0.0000   0.3295
   4.900   0.9247   0.00981   0.00342  -0.0771  0.4618  1.0000  -1.6012   0.0000   0.0000   0.0000   0.3283
   5.000   0.9342   0.00993   0.00346  -0.0769  0.4502  1.0000  -1.6895   0.0000   0.0000   0.0000   0.3271
   5.100   0.9446   0.01001   0.00353  -0.0768  0.4414  1.0000  -1.7821   0.0000   0.0000   0.0000   0.3259
   5.200   0.9547   0.01010   0.00359  -0.0767  0.4282  1.0000  -1.8744   0.0000   0.0000   0.0000   0.3248
   5.300   0.9636   0.01029   0.00365  -0.0763  0.4082  1.0000  -1.9620   0.0000   0.0000   0.0000   0.3236
   5.400   0.9727   0.01048   0.00374  -0.0761  0.3874  1.0000  -2.0506   0.0000   0.0000   0.0000   0.3225
   5.500   0.9800   0.01082   0.00387  -0.0756  0.3535  1.0000  -2.1311   0.0000   0.0000   0.0000   0.3213
   5.600   0.9866   0.01129   0.00408  -0.0750  0.3096  1.0000  -2.2067   0.0000   0.0000   0.0000   0.3201
   5.700   0.9923   0.01187   0.00437  -0.0744  0.2609  1.0000  -2.2761   0.0000   0.0000   0.0000   0.3190
   5.800   0.9981   0.01248   0.00472  -0.0738  0.2152  1.0000  -2.3426   0.0000   0.0000   0.0000   0.3178
   5.900   1.0012   0.01341   0.00524  -0.0730  0.1522  1.0000  -2.3951   0.0000   0.0000   0.0000   0.3167
   6.000   1.0032   0.01445   0.00584  -0.0720  0.0846  1.0000  -2.4410   0.0000   0.0000   0.0000   0.3155
   6.100   1.0059   0.01541   0.00645  -0.0711  0.0315  1.0000  -2.4877   0.0000   0.0000   0.0000   0.3142
   6.200   1.0136   0.01580   0.00677  -0.0706  0.0212  1.0000  -2.5528   0.0000   0.0000   0.0000   0.3132
   6.300   1.0224   0.01605   0.00702  -0.0703  0.0167  1.0000  -2.6191   0.0000   0.0000   0.0000   0.3121
   6.400   1.0317   0.01627   0.00728  -0.0700  0.0146  1.0000  -2.6785   0.0000   0.0000   0.0000   0.3110
   6.500   1.0407   0.01651   0.00755  -0.0696  0.0139  1.0000  -2.7405   0.0000   0.0000   0.0000   0.3100
   6.600   1.0497   0.01674   0.00784  -0.0693  0.0137  1.0000  -2.8109   0.0000   0.0000   0.0000   0.3090
   6.700   1.0586   0.01699   0.00815  -0.0689  0.0135  1.0000  -2.8814   0.0000   0.0000   0.0000   0.3080
   6.800   1.0672   0.01725   0.00848  -0.0685  0.0135  1.0000  -2.9513   0.0000   0.0000   0.0000   0.3070
   6.900   1.0781   0.01719   0.00884  -0.0687  0.0158  1.0000  -3.2030   0.0000   0.0000   0.0000   0.3063
   7.000   1.0870   0.01742   0.00915  -0.0683  0.0158  1.0000  -3.2980   0.0000   0.0000   0.0000   0.3054
   7.100   1.0952   0.01772   0.00956  -0.0679  0.0154  1.0000  -3.3642   0.0000   0.0000   0.0000   0.3043
   7.200   1.1028   0.01809   0.01004  -0.0673  0.0151  1.0000  -3.4211   0.0000   0.0000   0.0000   0.3033
   7.300   1.1099   0.01851   0.01057  -0.0667  0.0148  1.0000  -3.4738   0.0000   0.0000   0.0000   0.3022
   7.400   1.1164   0.01897   0.01113  -0.0660  0.0146  1.0000  -3.5236   0.0000   0.0000   0.0000   0.3011
   7.500   1.1221   0.01948   0.01174  -0.0652  0.0145  1.0000  -3.5709   0.0000   0.0000   0.0000   0.3000
   7.600   1.1274   0.02002   0.01236  -0.0643  0.0145  1.0000  -3.6170   0.0000   0.0000   0.0000   0.2988
   7.700   1.1323   0.02058   0.01300  -0.0635  0.0144  1.0000  -3.6619   0.0000   0.0000   0.0000   0.2977
   7.800   1.1367   0.02116   0.01366  -0.0625  0.0145  1.0000  -3.7061   0.0000   0.0000   0.0000   0.2965
   7.900   1.1410   0.02175   0.01431  -0.0616  0.0145  1.0000  -3.7503   0.0000   0.0000   0.0000   0.2953
   8.000   1.1452   0.02234   0.01496  -0.0606  0.0145  1.0000  -3.7951   0.0000   0.0000   0.0000   0.2942
   8.100   1.1493   0.02293   0.01560  -0.0597  0.0146  1.0000  -3.8405   0.0000   0.0000   0.0000   0.2931
   8.200   1.1535   0.02351   0.01624  -0.0588  0.0147  1.0000  -3.8870   0.0000   0.0000   0.0000   0.2919
   8.300   1.1578   0.02410   0.01687  -0.0578  0.0147  1.0000  -3.9348   0.0000   0.0000   0.0000   0.2908
   8.400   1.1618   0.02466   0.01748  -0.0569  0.0148  1.0000  -3.9826   0.0000   0.0000   0.0000   0.2897
   8.500   1.1658   0.02522   0.01808  -0.0559  0.0149  1.0000  -4.0312   0.0000   0.0000   0.0000   0.2885
   8.600   1.1700   0.02577   0.01868  -0.0550  0.0151  1.0000  -4.0816   0.0000   0.0000   0.0000   0.2874
   8.700   1.1746   0.02633   0.01928  -0.0541  0.0152  1.0000  -4.1335   0.0000   0.0000   0.0000   0.2864
   8.800   1.1794   0.02689   0.01989  -0.0532  0.0154  1.0000  -4.1867   0.0000   0.0000   0.0000   0.2853
   8.900   1.1845   0.02745   0.02049  -0.0525  0.0155  1.0000  -4.2410   0.0000   0.0000   0.0000   0.2843
   9.000   1.1899   0.02802   0.02111  -0.0517  0.0157  1.0000  -4.2959   0.0000   0.0000   0.0000   0.2834
   9.100   1.1956   0.02860   0.02175  -0.0510  0.0160  1.0000  -4.3506   0.0000   0.0000   0.0000   0.2824
   9.200   1.2015   0.02921   0.02241  -0.0503  0.0162  1.0000  -4.4041   0.0000   0.0000   0.0000   0.2815
   9.300   1.2079   0.02986   0.02313  -0.0497  0.0166  1.0000  -4.4545   0.0000   0.0000   0.0000   0.2806
   9.400   1.2152   0.03061   0.02396  -0.0491  0.0170  1.0000  -4.4979   0.0000   0.0000   0.0000   0.2797
   9.500   1.2243   0.03161   0.02508  -0.0486  0.0177  1.0000  -4.5238   0.0000   0.0000   0.0000   0.2789
   9.600   1.2392   0.03347   0.02715  -0.0486  0.0191  1.0000  -4.5032   0.0000   0.0000   0.0000   0.2783
   9.700   1.2544   0.03627   0.03022  -0.0488  0.0211  1.0000  -4.4406   0.0000   0.0000   0.0000   0.2779
   9.800   1.2624   0.03879   0.03296  -0.0483  0.0228  1.0000  -4.3923   0.0000   0.0000   0.0000   0.2771
   9.900   1.2662   0.04130   0.03567  -0.0475  0.0242  1.0000  -4.3487   0.0000   0.0000   0.0000   0.2763
  10.000   1.2660   0.04439   0.03897  -0.0466  0.0255  1.0000  -4.2829   0.0000   0.0000   0.0000   0.2754
  14.400   0.9641   0.16356   0.16099  -0.0809  0.0444  1.0000  -2.2986   0.0000   0.0000   0.0000   0.3184
  14.500   0.9638   0.16617   0.16360  -0.0824  0.0444  1.0000  -2.2694   0.0000   0.0000   0.0000   0.3199
  14.600   0.9640   0.16858   0.16600  -0.0839  0.0442  1.0000  -2.2454   0.0000   0.0000   0.0000   0.3214
  14.700   0.9661   0.17035   0.16777  -0.0855  0.0436  1.0000  -2.2360   0.0000   0.0000   0.0000   0.3227
  14.800   0.9705   0.17172   0.16914  -0.0870  0.0420  1.0000  -2.2366   0.0000   0.0000   0.0000   0.3238
  14.900   0.9716   0.17403   0.17144  -0.0885  0.0410  1.0000  -2.2142   0.0000   0.0000   0.0000   0.3251
  15.000   0.9715   0.17660   0.17401  -0.0900  0.0401  1.0000  -2.1830   0.0000   0.0000   0.0000   0.3266
  15.100   0.9715   0.17909   0.17650  -0.0914  0.0393  1.0000  -2.1566   0.0000   0.0000   0.0000   0.3280
  15.200   0.9716   0.18151   0.17891  -0.0927  0.0385  1.0000  -2.1343   0.0000   0.0000   0.0000   0.3292
  15.300   0.9720   0.18386   0.18126  -0.0939  0.0378  1.0000  -2.1156   0.0000   0.0000   0.0000   0.3303
  15.400   0.9725   0.18615   0.18355  -0.0950  0.0372  1.0000  -2.1001   0.0000   0.0000   0.0000   0.3313
  15.500   0.9731   0.18839   0.18578  -0.0961  0.0366  1.0000  -2.0873   0.0000   0.0000   0.0000   0.3323
  15.600   0.9739   0.19058   0.18797  -0.0972  0.0360  1.0000  -2.0770   0.0000   0.0000   0.0000   0.3331
  15.700   0.9747   0.19273   0.19012  -0.0982  0.0354  1.0000  -2.0688   0.0000   0.0000   0.0000   0.3340
  15.800   0.9757   0.19483   0.19222  -0.0991  0.0349  1.0000  -2.0629   0.0000   0.0000   0.0000   0.3347
  15.900   0.9768   0.19690   0.19429  -0.1000  0.0344  1.0000  -2.0593   0.0000   0.0000   0.0000   0.3354
  16.000   0.9781   0.19893   0.19631  -0.1009  0.0339  1.0000  -2.0579   0.0000   0.0000   0.0000   0.3360
  16.100   0.9794   0.20091   0.19830  -0.1017  0.0334  1.0000  -2.0590   0.0000   0.0000   0.0000   0.3366
  16.200   0.9809   0.20285   0.20024  -0.1025  0.0330  1.0000  -2.0624   0.0000   0.0000   0.0000   0.3371
  16.300   0.9825   0.20476   0.20215  -0.1032  0.0326  1.0000  -2.0682   0.0000   0.0000   0.0000   0.3375
  16.400   0.9842   0.20663   0.20402  -0.1039  0.0322  1.0000  -2.0762   0.0000   0.0000   0.0000   0.3379
  16.500   0.9860   0.20846   0.20586  -0.1046  0.0318  1.0000  -2.0865   0.0000   0.0000   0.0000   0.3382
  16.600   0.9879   0.21026   0.20766  -0.1052  0.0314  1.0000  -2.0994   0.0000   0.0000   0.0000   0.3385
  16.700   0.9900   0.21201   0.20942  -0.1058  0.0311  1.0000  -2.1151   0.0000   0.0000   0.0000   0.3387
  16.800   0.9922   0.21373   0.21114  -0.1063  0.0308  1.0000  -2.1335   0.0000   0.0000   0.0000   0.3388
  16.900   0.9943   0.21546   0.21288  -0.1068  0.0304  1.0000  -2.1523   0.0000   0.0000   0.0000   0.3389
  17.000   0.9965   0.21717   0.21459  -0.1073  0.0301  1.0000  -2.1736   0.0000   0.0000   0.0000   0.3390
  17.100   0.9987   0.21886   0.21629  -0.1077  0.0298  1.0000  -2.1974   0.0000   0.0000   0.0000   0.3390
  17.200   1.0011   0.22055   0.21798  -0.1080  0.0295  1.0000  -2.2236   0.0000   0.0000   0.0000   0.3389
  17.300   1.0031   0.22238   0.21982  -0.1084  0.0292  1.0000  -2.2463   0.0000   0.0000   0.0000   0.3389
  17.400   1.0038   0.22469   0.22213  -0.1090  0.0288  1.0000  -2.2510   0.0000   0.0000   0.0000   0.3393
  17.500   1.0027   0.22784   0.22529  -0.1097  0.0283  1.0000  -2.2330   0.0000   0.0000   0.0000   0.3400
  17.600   0.9900   0.23734   0.23472  -0.1121  0.0273  1.0000  -2.0058   0.0000   0.0000   0.0000   0.3439
  17.700   0.9911   0.23979   0.23718  -0.1130  0.0273  1.0000  -1.9922   0.0000   0.0000   0.0000   0.3446
  17.800   0.9921   0.24224   0.23963  -0.1139  0.0272  1.0000  -1.9789   0.0000   0.0000   0.0000   0.3452
  17.900   0.9932   0.24468   0.24207  -0.1148  0.0272  1.0000  -1.9658   0.0000   0.0000   0.0000   0.3458
  18.000   0.9942   0.24711   0.24450  -0.1157  0.0272  1.0000  -1.9528   0.0000   0.0000   0.0000   0.3465
  18.100   0.9952   0.24951   0.24691  -0.1165  0.0272  1.0000  -1.9401   0.0000   0.0000   0.0000   0.3471
  18.200   0.9962   0.25190   0.24930  -0.1174  0.0272  1.0000  -1.9277   0.0000   0.0000   0.0000   0.3478
  18.300   0.9971   0.25426   0.25166  -0.1183  0.0271  1.0000  -1.9155   0.0000   0.0000   0.0000   0.3484
  18.400   0.9981   0.25658   0.25398  -0.1192  0.0271  1.0000  -1.9036   0.0000   0.0000   0.0000   0.3491
  18.500   0.9990   0.25886   0.25626  -0.1201  0.0271  1.0000  -1.8922   0.0000   0.0000   0.0000   0.3497
  18.600   1.0000   0.26106   0.25846  -0.1210  0.0270  1.0000  -1.8815   0.0000   0.0000   0.0000   0.3504
  18.700   1.0011   0.26315   0.26055  -0.1220  0.0269  1.0000  -1.8720   0.0000   0.0000   0.0000   0.3511
  18.800   1.0023   0.26504   0.26245  -0.1229  0.0267  1.0000  -1.8648   0.0000   0.0000   0.0000   0.3517
  18.900   1.0043   0.26647   0.26388  -0.1241  0.0263  1.0000  -1.8622   0.0000   0.0000   0.0000   0.3525
  19.000   1.0055   0.26800   0.26541  -0.1257  0.0255  1.0000  -1.8375   0.0000   0.0000   0.0000   0.3538
  19.100   1.0059   0.27020   0.26760  -0.1273  0.0243  1.0000  -1.8003   0.0000   0.0000   0.0000   0.3552
  19.200   1.0067   0.27252   0.26993  -0.1284  0.0229  1.0000  -1.7800   0.0000   0.0000   0.0000   0.3562
  19.300   1.0075   0.27473   0.27214  -0.1293  0.0216  1.0000  -1.7765   0.0000   0.0000   0.0000   0.3568
  19.400   1.0084   0.27676   0.27418  -0.1300  0.0204  1.0000  -1.7855   0.0000   0.0000   0.0000   0.3572
  19.500   1.0094   0.27862   0.27605  -0.1307  0.0193  1.0000  -1.8045   0.0000   0.0000   0.0000   0.3576
  19.600   1.0105   0.28038   0.27781  -0.1312  0.0184  1.0000  -1.8300   0.0000   0.0000   0.0000   0.3578
  19.700   1.0115   0.28216   0.27960  -0.1317  0.0178  1.0000  -1.8538   0.0000   0.0000   0.0000   0.3580
  19.800   1.0123   0.28405   0.28149  -0.1322  0.0174  1.0000  -1.8711   0.0000   0.0000   0.0000   0.3582
  20.000   1.0118   0.28914   0.28666  -0.1337  0.0177  1.0000  -1.8165   0.0000   0.0000   0.0000   0.3594
  20.100   1.0120   0.29115   0.28868  -0.1342  0.0175  1.0000  -1.8221   0.0000   0.0000   0.0000   0.3598
  20.200   1.0124   0.29299   0.29053  -0.1347  0.0171  1.0000  -1.8382   0.0000   0.0000   0.0000   0.3600
  20.300   1.0127   0.29479   0.29234  -0.1351  0.0168  1.0000  -1.8563   0.0000   0.0000   0.0000   0.3602
  20.400   1.0130   0.29647   0.29403  -0.1354  0.0165  1.0000  -1.8812   0.0000   0.0000   0.0000   0.3603
  20.500   1.0135   0.29801   0.29558  -0.1356  0.0162  1.0000  -1.9142   0.0000   0.0000   0.0000   0.3602
  20.600   1.0142   0.29939   0.29698  -0.1357  0.0158  1.0000  -1.9581   0.0000   0.0000   0.0000   0.3600
  20.700   1.0152   0.30058   0.29818  -0.1356  0.0155  1.0000  -2.0186   0.0000   0.0000   0.0000   0.3595
  20.800   1.0151   0.30206   0.29968  -0.1354  0.0151  1.0000  -2.0678   0.0000   0.0000   0.0000   0.3592
  20.900   1.0097   0.30490   0.30253  -0.1354  0.0146  1.0000  -2.0425   0.0000   0.0000   0.0000   0.3598
  21.300   0.9266   0.30119   0.29893  -0.1297  0.0140  1.0000  -1.6166   0.0000   0.0000   0.0000   0.3664
  21.400   0.9216   0.30139   0.29914  -0.1297  0.0140  1.0000  -1.5925   0.0000   0.0000   0.0000   0.3671
  21.500   0.9172   0.30168   0.29945  -0.1298  0.0140  1.0000  -1.5700   0.0000   0.0000   0.0000   0.3678
  21.600   0.9132   0.30204   0.29982  -0.1299  0.0140  1.0000  -1.5487   0.0000   0.0000   0.0000   0.3685
  21.700   0.9096   0.30245   0.30024  -0.1301  0.0140  1.0000  -1.5283   0.0000   0.0000   0.0000   0.3691
  21.800   0.9063   0.30291   0.30070  -0.1303  0.0139  1.0000  -1.5090   0.0000   0.0000   0.0000   0.3698
  21.900   0.9032   0.30340   0.30120  -0.1305  0.0139  1.0000  -1.4905   0.0000   0.0000   0.0000   0.3704
  22.000   0.9004   0.30393   0.30174  -0.1307  0.0139  1.0000  -1.4727   0.0000   0.0000   0.0000   0.3710
  22.100   0.8977   0.30448   0.30230  -0.1310  0.0138  1.0000  -1.4553   0.0000   0.0000   0.0000   0.3716
  22.200   0.8952   0.30505   0.30288  -0.1312  0.0138  1.0000  -1.4387   0.0000   0.0000   0.0000   0.3723
  22.300   0.8930   0.30565   0.30349  -0.1315  0.0138  1.0000  -1.4230   0.0000   0.0000   0.0000   0.3729
  22.400   0.8909   0.30626   0.30411  -0.1318  0.0137  1.0000  -1.4082   0.0000   0.0000   0.0000   0.3734
  22.500   0.8890   0.30688   0.30473  -0.1322  0.0137  1.0000  -1.3937   0.0000   0.0000   0.0000   0.3740
  22.600   0.8873   0.30750   0.30536  -0.1325  0.0136  1.0000  -1.3803   0.0000   0.0000   0.0000   0.3746
  22.700   0.8859   0.30815   0.30601  -0.1330  0.0135  1.0000  -1.3675   0.0000   0.0000   0.0000   0.3752
  22.800   0.8847   0.30888   0.30674  -0.1336  0.0133  1.0000  -1.3492   0.0000   0.0000   0.0000   0.3760
  22.900   0.8845   0.30998   0.30785  -0.1346  0.0127  1.0000  -1.3183   0.0000   0.0000   0.0000   0.3771
  23.000   0.8849   0.31136   0.30923  -0.1355  0.0114  1.0000  -1.2850   0.0000   0.0000   0.0000   0.3780
  23.100   0.8839   0.31217   0.31005  -0.1359  0.0105  1.0000  -1.2752   0.0000   0.0000   0.0000   0.3785
  23.200   0.8827   0.31286   0.31074  -0.1362  0.0098  1.0000  -1.2719   0.0000   0.0000   0.0000   0.3789
  23.300   0.8815   0.31349   0.31139  -0.1365  0.0093  1.0000  -1.2716   0.0000   0.0000   0.0000   0.3793
  23.400   0.8804   0.31411   0.31202  -0.1368  0.0088  1.0000  -1.2733   0.0000   0.0000   0.0000   0.3797
  23.500   0.8793   0.31471   0.31263  -0.1371  0.0084  1.0000  -1.2764   0.0000   0.0000   0.0000   0.3801
  23.600   0.8783   0.31530   0.31322  -0.1374  0.0081  1.0000  -1.2807   0.0000   0.0000   0.0000   0.3804
  23.700   0.8773   0.31589   0.31381  -0.1377  0.0078  1.0000  -1.2861   0.0000   0.0000   0.0000   0.3808
  23.800   0.8764   0.31646   0.31440  -0.1380  0.0076  1.0000  -1.2925   0.0000   0.0000   0.0000   0.3811
  23.900   0.8756   0.31702   0.31497  -0.1383  0.0073  1.0000  -1.2999   0.0000   0.0000   0.0000   0.3814
  24.000   0.8748   0.31758   0.31553  -0.1386  0.0071  1.0000  -1.3081   0.0000   0.0000   0.0000   0.3818
  24.100   0.8740   0.31813   0.31609  -0.1388  0.0069  1.0000  -1.3173   0.0000   0.0000   0.0000   0.3821
  24.200   0.8733   0.31867   0.31664  -0.1391  0.0068  1.0000  -1.3273   0.0000   0.0000   0.0000   0.3823
  24.300   0.8726   0.31920   0.31718  -0.1394  0.0066  1.0000  -1.3383   0.0000   0.0000   0.0000   0.3826
  24.400   0.8719   0.31972   0.31770  -0.1397  0.0065  1.0000  -1.3501   0.0000   0.0000   0.0000   0.3829
  24.500   0.8713   0.32023   0.31822  -0.1399  0.0063  1.0000  -1.3628   0.0000   0.0000   0.0000   0.3831
  24.600   0.8707   0.32073   0.31873  -0.1402  0.0062  1.0000  -1.3766   0.0000   0.0000   0.0000   0.3833
  24.700   0.8701   0.32122   0.31922  -0.1404  0.0061  1.0000  -1.3911   0.0000   0.0000   0.0000   0.3835
  24.800   0.8696   0.32169   0.31971  -0.1407  0.0060  1.0000  -1.4064   0.0000   0.0000   0.0000   0.3837
  24.900   0.8690   0.32216   0.32018  -0.1409  0.0059  1.0000  -1.4220   0.0000   0.0000   0.0000   0.3839
  25.000   0.8684   0.32263   0.32066  -0.1411  0.0058  1.0000  -1.4378   0.0000   0.0000   0.0000   0.3840
  25.100   0.8679   0.32310   0.32114  -0.1413  0.0057  1.0000  -1.4530   0.0000   0.0000   0.0000   0.3841
  25.200   0.8672   0.32361   0.32165  -0.1414  0.0056  1.0000  -1.4643   0.0000   0.0000   0.0000   0.3842
  25.300   0.8662   0.32424   0.32230  -0.1416  0.0055  1.0000  -1.4622   0.0000   0.0000   0.0000   0.3845
  25.400   0.8649   0.32495   0.32301  -0.1418  0.0054  1.0000  -1.4521   0.0000   0.0000   0.0000   0.3848
  25.500   0.8631   0.32580   0.32386  -0.1420  0.0053  1.0000  -1.4255   0.0000   0.0000   0.0000   0.3852
  25.600   0.8602   0.32698   0.32504  -0.1420  0.0052  1.0000  -1.3612   0.0000   0.0000   0.0000   0.3858
  25.700   0.8562   0.32869   0.32672  -0.1420  0.0050  1.0000  -1.2476   0.0000   0.0000   0.0000   0.3866
  25.800   0.8558   0.32947   0.32751  -0.1424  0.0050  1.0000  -1.2386   0.0000   0.0000   0.0000   0.3869
  25.900   0.8553   0.33026   0.32830  -0.1427  0.0050  1.0000  -1.2299   0.0000   0.0000   0.0000   0.3873
  26.000   0.8549   0.33105   0.32910  -0.1431  0.0050  1.0000  -1.2211   0.0000   0.0000   0.0000   0.3876
  26.100   0.8544   0.33184   0.32989  -0.1434  0.0050  1.0000  -1.2126   0.0000   0.0000   0.0000   0.3879
  26.200   0.8540   0.33263   0.33069  -0.1438  0.0050  1.0000  -1.2042   0.0000   0.0000   0.0000   0.3882
  26.300   0.8536   0.33342   0.33149  -0.1441  0.0050  1.0000  -1.1959   0.0000   0.0000   0.0000   0.3886
  26.400   0.8532   0.33421   0.33228  -0.1445  0.0050  1.0000  -1.1879   0.0000   0.0000   0.0000   0.3889
  26.500   0.8529   0.33500   0.33308  -0.1448  0.0050  1.0000  -1.1800   0.0000   0.0000   0.0000   0.3892
  26.600   0.8525   0.33580   0.33388  -0.1452  0.0050  1.0000  -1.1722   0.0000   0.0000   0.0000   0.3895
  26.700   0.8522   0.33659   0.33467  -0.1455  0.0050  1.0000  -1.1646   0.0000   0.0000   0.0000   0.3898
  26.800   0.8518   0.33738   0.33547  -0.1459  0.0050  1.0000  -1.1571   0.0000   0.0000   0.0000   0.3901
  26.900   0.8515   0.33818   0.33627  -0.1462  0.0050  1.0000  -1.1497   0.0000   0.0000   0.0000   0.3904
  27.000   0.8512   0.33897   0.33707  -0.1466  0.0050  1.0000  -1.1425   0.0000   0.0000   0.0000   0.3907
  27.100   0.8509   0.33977   0.33787  -0.1470  0.0050  1.0000  -1.1354   0.0000   0.0000   0.0000   0.3910
  27.200   0.8507   0.34056   0.33867  -0.1473  0.0050  1.0000  -1.1284   0.0000   0.0000   0.0000   0.3913
  27.300   0.8504   0.34135   0.33947  -0.1477  0.0050  1.0000  -1.1216   0.0000   0.0000   0.0000   0.3916
  27.400   0.8501   0.34215   0.34027  -0.1480  0.0050  1.0000  -1.1148   0.0000   0.0000   0.0000   0.3919
  27.500   0.8499   0.34295   0.34107  -0.1484  0.0050  1.0000  -1.1082   0.0000   0.0000   0.0000   0.3922
  27.600   0.8496   0.34374   0.34187  -0.1488  0.0050  1.0000  -1.1016   0.0000   0.0000   0.0000   0.3925
  27.700   0.8494   0.34454   0.34267  -0.1491  0.0050  1.0000  -1.0952   0.0000   0.0000   0.0000   0.3928
  27.800   0.8492   0.34533   0.34347  -0.1495  0.0050  1.0000  -1.0888   0.0000   0.0000   0.0000   0.3930
  27.900   0.8489   0.34612   0.34427  -0.1499  0.0050  1.0000  -1.0826   0.0000   0.0000   0.0000   0.3933
  28.000   0.8487   0.34692   0.34507  -0.1502  0.0050  1.0000  -1.0764   0.0000   0.0000   0.0000   0.3936
  28.100   0.8485   0.34771   0.34587  -0.1506  0.0050  1.0000  -1.0704   0.0000   0.0000   0.0000   0.3939
  28.200   0.8483   0.34851   0.34667  -0.1510  0.0050  1.0000  -1.0644   0.0000   0.0000   0.0000   0.3942
  28.300   0.8481   0.34930   0.34747  -0.1514  0.0049  1.0000  -1.0585   0.0000   0.0000   0.0000   0.3944
  28.400   0.8479   0.35009   0.34827  -0.1517  0.0049  1.0000  -1.0527   0.0000   0.0000   0.0000   0.3947
  28.500   0.8477   0.35089   0.34907  -0.1521  0.0049  1.0000  -1.0469   0.0000   0.0000   0.0000   0.3950
  28.600   0.8476   0.35168   0.34992  -0.1525  0.0049  1.0000  -1.0424   0.0000   0.0000   0.0000   0.3952
  28.700   0.8474   0.35248   0.35072  -0.1528  0.0049  1.0000  -1.0371   0.0000   0.0000   0.0000   0.3955
  28.800   0.8472   0.35327   0.35152  -0.1532  0.0049  1.0000  -1.0318   0.0000   0.0000   0.0000   0.3958
  28.900   0.8471   0.35407   0.35231  -0.1536  0.0049  1.0000  -1.0265   0.0000   0.0000   0.0000   0.3960
  29.000   0.8469   0.35486   0.35311  -0.1540  0.0049  1.0000  -1.0213   0.0000   0.0000   0.0000   0.3963
  29.100   0.8467   0.35565   0.35391  -0.1543  0.0049  1.0000  -1.0161   0.0000   0.0000   0.0000   0.3966


