xflr5 v6.61

 Calculated polar for: E387

 1 1 Reynolds number fixed          Mach number fixed         

 xtrf =   1.000 (top)        1.000 (bottom)
 Mach =   0.000     Re =     0.563 e 6     Ncrit =   9.000

  alpha     CL        CD       CDp       Cm    Top Xtr Bot Xtr   Cpmin    Chinge    XCp    
 ------- -------- --------- --------- -------- ------- ------- -------- --------- ---------
 -10.000  -0.3523   0.11565   0.11334  -0.0194  1.0000  0.0070  -1.6308   0.0000   0.0000   0.0000   0.1884
  -9.900  -0.3498   0.11431   0.11200  -0.0200  1.0000  0.0070  -1.6373   0.0000   0.0000   0.0000   0.1864
  -9.300  -0.3471   0.10288   0.10064  -0.0242  1.0000  0.0074  -1.9986   0.0000   0.0000   0.0000   0.1741
  -9.200  -0.3481   0.10079   0.09856  -0.0249  1.0000  0.0075  -2.0748   0.0000   0.0000   0.0000   0.1723
  -9.100  -0.3479   0.09907   0.09685  -0.0255  1.0000  0.0076  -2.1158   0.0000   0.0000   0.0000   0.1706
  -9.000  -0.3472   0.09754   0.09532  -0.0261  1.0000  0.0078  -2.1391   0.0000   0.0000   0.0000   0.1689
  -8.900  -0.3462   0.09612   0.09391  -0.0266  1.0000  0.0079  -2.1517   0.0000   0.0000   0.0000   0.1672
  -8.800  -0.3449   0.09477   0.09257  -0.0271  1.0000  0.0080  -2.1572   0.0000   0.0000   0.0000   0.1654
  -8.700  -0.3433   0.09345   0.09126  -0.0277  1.0000  0.0081  -2.1577   0.0000   0.0000   0.0000   0.1636
  -8.600  -0.3417   0.09217   0.08999  -0.0282  1.0000  0.0082  -2.1550   0.0000   0.0000   0.0000   0.1618
  -8.500  -0.3400   0.09092   0.08875  -0.0287  1.0000  0.0083  -2.1501   0.0000   0.0000   0.0000   0.1599
  -8.400  -0.3383   0.08969   0.08753  -0.0292  1.0000  0.0084  -2.1441   0.0000   0.0000   0.0000   0.1580
  -8.300  -0.3366   0.08848   0.08633  -0.0297  1.0000  0.0084  -2.1374   0.0000   0.0000   0.0000   0.1562
  -8.200  -0.3350   0.08729   0.08515  -0.0302  1.0000  0.0085  -2.1306   0.0000   0.0000   0.0000   0.1543
  -8.100  -0.3333   0.08614   0.08401  -0.0307  1.0000  0.0086  -2.1195   0.0000   0.0000   0.0000   0.1526
  -8.000  -0.3315   0.08504   0.08292  -0.0311  1.0000  0.0087  -2.1041   0.0000   0.0000   0.0000   0.1510
  -7.900  -0.3299   0.08394   0.08184  -0.0315  1.0000  0.0088  -2.0901   0.0000   0.0000   0.0000   0.1494
  -7.800  -0.3283   0.08285   0.08076  -0.0318  1.0000  0.0089  -2.0761   0.0000   0.0000   0.0000   0.1479
  -7.700  -0.3269   0.08177   0.07969  -0.0322  1.0000  0.0090  -2.0630   0.0000   0.0000   0.0000   0.1465
  -7.600  -0.3258   0.08069   0.07863  -0.0325  1.0000  0.0091  -2.0524   0.0000   0.0000   0.0000   0.1453
  -7.500  -0.3251   0.07964   0.07760  -0.0328  1.0000  0.0092  -2.0445   0.0000   0.0000   0.0000   0.1443
  -7.400  -0.3250   0.07861   0.07659  -0.0330  1.0000  0.0093  -2.0397   0.0000   0.0000   0.0000   0.1437
  -7.300  -0.3256   0.07762   0.07562  -0.0331  1.0000  0.0094  -2.0386   0.0000   0.0000   0.0000   0.1439
  -7.200  -0.3211   0.07621   0.07422  -0.0346  0.9931  0.0095  -2.0252   0.0000   0.0000   0.0000   0.1376
  -7.100  -0.3107   0.07431   0.07231  -0.0380  0.9814  0.0097  -2.0017   0.0000   0.0000   0.0000   0.1231
  -7.000  -0.2986   0.07224   0.07023  -0.0420  0.9708  0.0100  -1.9793   0.0000   0.0000   0.0000   0.1047
  -6.900  -0.2864   0.07012   0.06809  -0.0461  0.9575  0.0102  -1.9614   0.0000   0.0000   0.0000   0.0843
  -6.800  -0.2743   0.06798   0.06593  -0.0502  0.9434  0.0105  -1.9484   0.0000   0.0000   0.0000   0.0621
  -6.600  -0.2583   0.06431   0.06216  -0.0559  0.9084  0.0109  -1.9443   0.0000   0.0000   0.0000   0.0288
  -6.500  -0.2534   0.06272   0.06050  -0.0577  0.8923  0.0110  -1.9491   0.0000   0.0000   0.0000   0.0173
  -6.400  -0.2488   0.06113   0.05885  -0.0595  0.8783  0.0112  -1.9561   0.0000   0.0000   0.0000   0.0062
  -6.300  -0.2441   0.05953   0.05718  -0.0611  0.8653  0.0114  -1.9642   0.0000   0.0000   0.0000  -0.0051
  -6.200  -0.2388   0.05785   0.05545  -0.0629  0.8552  0.0116  -1.9730   0.0000   0.0000   0.0000  -0.0183
  -6.100  -0.2329   0.05611   0.05366  -0.0648  0.8459  0.0118  -1.9826   0.0000   0.0000   0.0000  -0.0329
  -6.000  -0.2268   0.05436   0.05185  -0.0666  0.8366  0.0120  -1.9931   0.0000   0.0000   0.0000  -0.0482
  -5.900  -0.2204   0.05260   0.05001  -0.0683  0.8275  0.0123  -2.0045   0.0000   0.0000   0.0000  -0.0644
  -5.800  -0.2133   0.05079   0.04813  -0.0700  0.8199  0.0125  -2.0161   0.0000   0.0000   0.0000  -0.0828
  -5.700  -0.2057   0.04892   0.04621  -0.0717  0.8143  0.0128  -2.0281   0.0000   0.0000   0.0000  -0.1035
  -5.600  -0.1977   0.04706   0.04429  -0.0733  0.8082  0.0132  -2.0409   0.0000   0.0000   0.0000  -0.1257
  -5.500  -0.1895   0.04521   0.04236  -0.0747  0.8019  0.0135  -2.0545   0.0000   0.0000   0.0000  -0.1495
  -5.400  -0.1812   0.04340   0.04045  -0.0760  0.7956  0.0139  -2.0688   0.0000   0.0000   0.0000  -0.1749
  -5.300  -0.1726   0.04160   0.03854  -0.0771  0.7892  0.0142  -2.0842   0.0000   0.0000   0.0000  -0.2025
  -5.000  -0.1460   0.03574   0.03221  -0.0802  0.7749  0.0137  -2.1775   0.0000   0.0000   0.0000  -0.3057
  -4.900  -0.1362   0.03421   0.03059  -0.0808  0.7712  0.0144  -2.1768   0.0000   0.0000   0.0000  -0.3501
  -4.800  -0.1262   0.03282   0.02909  -0.0812  0.7671  0.0151  -2.1720   0.0000   0.0000   0.0000  -0.4013
  -4.700  -0.1158   0.03167   0.02784  -0.0815  0.7629  0.0160  -2.1574   0.0000   0.0000   0.0000  -0.4621
  -4.600  -0.1045   0.03109   0.02718  -0.0815  0.7584  0.0171  -2.1147   0.0000   0.0000   0.0000  -0.5382
  -4.500  -0.0902   0.03257   0.02863  -0.0807  0.7534  0.0185  -1.9689   0.0000   0.0000   0.0000  -0.6552
  -4.400  -0.0793   0.03217   0.02809  -0.0808  0.7485  0.0187  -1.9268   0.0000   0.0000   0.0000  -0.7803
  -4.300  -0.0773   0.02511   0.02053  -0.0828  0.7450  0.0207  -2.2277   0.0000   0.0000   0.0000  -0.8331
  -4.200  -0.0688   0.02443   0.01981  -0.0831  0.7393  0.0222  -2.1220   0.0000   0.0000   0.0000  -0.9715
  -4.100  -0.0593   0.02444   0.01986  -0.0833  0.7349  0.0237  -1.9809   0.0000   0.0000   0.0000  -1.1694
  -4.000  -0.0493   0.02436   0.01980  -0.0834  0.7329  0.0256  -1.8622   0.0000   0.0000   0.0000  -1.4595
  -3.900  -0.0388   0.02412   0.01954  -0.0835  0.7305  0.0283  -1.7724   0.0000   0.0000   0.0000  -1.9247
  -3.800  -0.0272   0.02420   0.01958  -0.0834  0.7276  0.0319  -1.6906   0.0000   0.0000   0.0000  -2.8458
  -3.700  -0.0118   0.02723   0.02268  -0.0824  0.7237  0.0355  -1.5157   0.0000   0.0000   0.0000  -6.7785
  -3.600  -0.0007   0.02687   0.02220  -0.0823  0.7203  0.0357  -1.4760   0.0000   0.0000   0.0000  -119.1907
  -3.500   0.0041   0.02081   0.01571  -0.0837  0.7180  0.0393  -1.6345   0.0000   0.0000   0.0000  20.7735
  -3.400   0.0137   0.02024   0.01516  -0.0839  0.7143  0.0418  -1.5486   0.0000   0.0000   0.0000   6.4381
  -3.300   0.0237   0.02003   0.01498  -0.0839  0.7104  0.0444  -1.4583   0.0000   0.0000   0.0000   3.8239
  -3.200   0.0341   0.01985   0.01476  -0.0839  0.7065  0.0479  -1.3834   0.0000   0.0000   0.0000   2.7282
  -3.100   0.0452   0.01973   0.01458  -0.0838  0.7024  0.0518  -1.3225   0.0000   0.0000   0.0000   2.1162
  -3.000   0.0567   0.01960   0.01438  -0.0835  0.6981  0.0544  -1.2739   0.0000   0.0000   0.0000   1.7324
  -2.900   0.0685   0.01966   0.01438  -0.0833  0.6934  0.0562  -1.2221   0.0000   0.0000   0.0000   1.4730
  -2.800   0.0806   0.02001   0.01468  -0.0830  0.6890  0.0574  -1.1629   0.0000   0.0000   0.0000   1.2858
  -2.700   0.0925   0.01989   0.01451  -0.0828  0.6879  0.0578  -1.1177   0.0000   0.0000   0.0000   1.1512
  -2.600   0.1007   0.01588   0.01017  -0.0836  0.6870  0.0638  -1.1720   0.0000   0.0000   0.0000   1.0843
  -2.500   0.1120   0.01520   0.00946  -0.0835  0.6856  0.0651  -1.1351   0.0000   0.0000   0.0000   0.9998
  -2.400   0.1281   0.01151   0.00503  -0.0814  0.6847  0.0226  -1.5421   0.0000   0.0000   0.0000   0.8892
  -2.300   0.1401   0.01170   0.00520  -0.0812  0.6829  0.0198  -1.4710   0.0000   0.0000   0.0000   0.8330
  -2.200   0.1514   0.01110   0.00454  -0.0810  0.6810  0.0176  -1.4681   0.0000   0.0000   0.0000   0.7879
  -2.100   0.1623   0.01043   0.00379  -0.0807  0.6791  0.0164  -1.4681   0.0000   0.0000   0.0000   0.7498
  -2.000   0.1735   0.01001   0.00329  -0.0805  0.6769  0.0155  -1.4454   0.0000   0.0000   0.0000   0.7165
  -1.900   0.1847   0.00971   0.00291  -0.0804  0.6746  0.0148  -1.4116   0.0000   0.0000   0.0000   0.6871
  -1.800   0.1960   0.00947   0.00260  -0.0802  0.6722  0.0143  -1.3697   0.0000   0.0000   0.0000   0.6612
  -1.700   0.2073   0.00930   0.00236  -0.0801  0.6697  0.0138  -1.3217   0.0000   0.0000   0.0000   0.6381
  -1.600   0.2186   0.00917   0.00217  -0.0800  0.6671  0.0135  -1.2687   0.0000   0.0000   0.0000   0.6174
  -1.500   0.2299   0.00908   0.00202  -0.0800  0.6645  0.0133  -1.2116   0.0000   0.0000   0.0000   0.5989
  -1.400   0.2411   0.00901   0.00189  -0.0799  0.6617  0.0132  -1.1502   0.0000   0.0000   0.0000   0.5821
  -1.300   0.2524   0.00897   0.00179  -0.0798  0.6587  0.0132  -1.0849   0.0000   0.0000   0.0000   0.5669
  -1.200   0.2636   0.00895   0.00171  -0.0797  0.6555  0.0133  -1.0172   0.0000   0.0000   0.0000   0.5531
  -1.100   0.2748   0.00894   0.00164  -0.0797  0.6518  0.0135  -0.9474   0.0000   0.0000   0.0000   0.5404
  -1.000   0.2860   0.00894   0.00159  -0.0797  0.6476  0.0138  -0.8755   0.0000   0.0000   0.0000   0.5288
  -0.900   0.2973   0.00895   0.00157  -0.0797  0.6432  0.0145  -0.8005   0.0000   0.0000   0.0000   0.5180
  -0.800   0.3087   0.00893   0.00154  -0.0796  0.6408  0.0158  -0.7191   0.0000   0.0000   0.0000   0.5080
  -0.600   0.3295   0.00786   0.00157  -0.0800  0.6389  0.2958  -0.5996   0.0000   0.0000   0.0000   0.4924
  -0.500   0.3399   0.00757   0.00158  -0.0800  0.6377  0.3901  -0.6067   0.0000   0.0000   0.0000   0.4851
  -0.400   0.3491   0.00706   0.00164  -0.0799  0.6363  0.5637  -0.6131   0.0000   0.0000   0.0000   0.4785
  -0.300   0.3554   0.00649   0.00172  -0.0789  0.6348  0.7620  -0.6183   0.0000   0.0000   0.0000   0.4714
  -0.200   0.3748   0.00600   0.00170  -0.0801  0.6332  0.9998  -0.6302   0.0000   0.0000   0.0000   0.4629
  -0.100   0.3859   0.00601   0.00170  -0.0801  0.6316  1.0000  -0.6375   0.0000   0.0000   0.0000   0.4566
   0.000   0.3970   0.00603   0.00169  -0.0800  0.6298  1.0000  -0.6449   0.0000   0.0000   0.0000   0.4507
   0.100   0.4081   0.00605   0.00168  -0.0800  0.6279  1.0000  -0.6522   0.0000   0.0000   0.0000   0.4451
   0.200   0.4192   0.00607   0.00168  -0.0800  0.6259  1.0000  -0.6596   0.0000   0.0000   0.0000   0.4398
   0.300   0.4303   0.00609   0.00167  -0.0800  0.6238  1.0000  -0.6669   0.0000   0.0000   0.0000   0.4347
   0.400   0.4413   0.00612   0.00167  -0.0800  0.6217  1.0000  -0.6743   0.0000   0.0000   0.0000   0.4299
   0.500   0.4524   0.00614   0.00167  -0.0799  0.6194  1.0000  -0.6816   0.0000   0.0000   0.0000   0.4254
   0.600   0.4634   0.00617   0.00167  -0.0799  0.6171  1.0000  -0.6889   0.0000   0.0000   0.0000   0.4210
   0.700   0.4744   0.00621   0.00167  -0.0799  0.6148  1.0000  -0.6963   0.0000   0.0000   0.0000   0.4169
   0.800   0.4854   0.00624   0.00167  -0.0798  0.6122  1.0000  -0.7036   0.0000   0.0000   0.0000   0.4129
   0.900   0.4964   0.00629   0.00168  -0.0798  0.6095  1.0000  -0.7109   0.0000   0.0000   0.0000   0.4092
   1.000   0.5073   0.00633   0.00170  -0.0798  0.6064  1.0000  -0.7182   0.0000   0.0000   0.0000   0.4055
   1.100   0.5183   0.00639   0.00172  -0.0798  0.6030  1.0000  -0.7254   0.0000   0.0000   0.0000   0.4021
   1.200   0.5293   0.00646   0.00176  -0.0798  0.5993  1.0000  -0.7326   0.0000   0.0000   0.0000   0.3988
   1.300   0.5404   0.00654   0.00181  -0.0798  0.5952  1.0000  -0.7404   0.0000   0.0000   0.0000   0.3957
   1.400   0.5515   0.00660   0.00185  -0.0798  0.5924  1.0000  -0.7486   0.0000   0.0000   0.0000   0.3927
   1.500   0.5627   0.00661   0.00186  -0.0798  0.5917  1.0000  -0.7571   0.0000   0.0000   0.0000   0.3897
   1.600   0.5739   0.00661   0.00186  -0.0798  0.5908  1.0000  -0.7656   0.0000   0.0000   0.0000   0.3869
   1.700   0.5850   0.00662   0.00187  -0.0798  0.5897  1.0000  -0.7741   0.0000   0.0000   0.0000   0.3842
   1.800   0.5962   0.00663   0.00188  -0.0798  0.5884  1.0000  -0.7836   0.0000   0.0000   0.0000   0.3815
   1.900   0.6073   0.00665   0.00189  -0.0798  0.5869  1.0000  -0.7932   0.0000   0.0000   0.0000   0.3790
   2.000   0.6184   0.00666   0.00191  -0.0798  0.5853  1.0000  -0.8028   0.0000   0.0000   0.0000   0.3766
   2.100   0.6296   0.00668   0.00192  -0.0798  0.5834  1.0000  -0.8134   0.0000   0.0000   0.0000   0.3742
   2.200   0.6407   0.00670   0.00194  -0.0798  0.5814  1.0000  -0.8249   0.0000   0.0000   0.0000   0.3719
   2.300   0.6518   0.00672   0.00195  -0.0798  0.5791  1.0000  -0.8372   0.0000   0.0000   0.0000   0.3697
   2.400   0.6629   0.00673   0.00197  -0.0798  0.5767  1.0000  -0.8496   0.0000   0.0000   0.0000   0.3676
   2.500   0.6739   0.00676   0.00198  -0.0798  0.5741  1.0000  -0.8624   0.0000   0.0000   0.0000   0.3655
   2.600   0.6849   0.00679   0.00199  -0.0798  0.5712  1.0000  -0.8766   0.0000   0.0000   0.0000   0.3635
   2.700   0.6959   0.00682   0.00201  -0.0797  0.5680  1.0000  -0.8908   0.0000   0.0000   0.0000   0.3615
   2.800   0.7059   0.00686   0.00198  -0.0795  0.5563  1.0000  -0.9049   0.0000   0.0000   0.0000   0.3595
   2.900   0.7150   0.00686   0.00177  -0.0790  0.5183  1.0000  -0.9210   0.0000   0.0000   0.0000   0.3572
   3.000   0.7245   0.00700   0.00176  -0.0787  0.4979  1.0000  -0.9365   0.0000   0.0000   0.0000   0.3553
   3.100   0.7355   0.00703   0.00179  -0.0787  0.4928  1.0000  -0.9546   0.0000   0.0000   0.0000   0.3536
   3.200   0.7465   0.00707   0.00181  -0.0787  0.4883  1.0000  -0.9743   0.0000   0.0000   0.0000   0.3519
   3.300   0.7574   0.00711   0.00183  -0.0787  0.4827  1.0000  -0.9940   0.0000   0.0000   0.0000   0.3503
   3.400   0.7682   0.00716   0.00185  -0.0787  0.4761  1.0000  -1.0137   0.0000   0.0000   0.0000   0.3487
   3.500   0.7788   0.00723   0.00188  -0.0786  0.4682  1.0000  -1.0333   0.0000   0.0000   0.0000   0.3471
   3.600   0.7891   0.00733   0.00192  -0.0785  0.4592  1.0000  -1.0528   0.0000   0.0000   0.0000   0.3456
   3.700   0.7995   0.00742   0.00196  -0.0784  0.4495  1.0000  -1.0754   0.0000   0.0000   0.0000   0.3441
   3.800   0.8104   0.00748   0.00200  -0.0784  0.4444  1.0000  -1.0997   0.0000   0.0000   0.0000   0.3427
   3.900   0.8212   0.00753   0.00204  -0.0784  0.4383  1.0000  -1.1282   0.0000   0.0000   0.0000   0.3413
   4.000   0.8317   0.00761   0.00208  -0.0783  0.4281  1.0000  -1.1577   0.0000   0.0000   0.0000   0.3399
   4.100   0.8417   0.00775   0.00213  -0.0782  0.4139  1.0000  -1.1864   0.0000   0.0000   0.0000   0.3385
   4.200   0.8516   0.00790   0.00220  -0.0780  0.3992  1.0000  -1.2152   0.0000   0.0000   0.0000   0.3372
   4.300   0.8620   0.00800   0.00226  -0.0780  0.3873  1.0000  -1.2447   0.0000   0.0000   0.0000   0.3359
   4.400   0.8713   0.00823   0.00235  -0.0778  0.3645  1.0000  -1.2728   0.0000   0.0000   0.0000   0.3346
   4.500   0.8808   0.00843   0.00245  -0.0776  0.3436  1.0000  -1.3012   0.0000   0.0000   0.0000   0.3333
   4.600   0.8892   0.00877   0.00260  -0.0773  0.3107  1.0000  -1.3499   0.0000   0.0000   0.0000   0.3321
   4.700   0.8976   0.00913   0.00278  -0.0770  0.2774  1.0000  -1.4290   0.0000   0.0000   0.0000   0.3308
   4.800   0.9057   0.00952   0.00298  -0.0767  0.2419  1.0000  -1.5077   0.0000   0.0000   0.0000   0.3296
   4.900   0.9135   0.00995   0.00321  -0.0764  0.2058  1.0000  -1.5858   0.0000   0.0000   0.0000   0.3284
   5.000   0.9212   0.01040   0.00345  -0.0760  0.1695  1.0000  -1.6633   0.0000   0.0000   0.0000   0.3273
   5.100   0.9285   0.01089   0.00371  -0.0756  0.1326  1.0000  -1.7391   0.0000   0.0000   0.0000   0.3261
   5.200   0.9354   0.01143   0.00401  -0.0752  0.0945  1.0000  -1.8117   0.0000   0.0000   0.0000   0.3249
   5.300   0.9415   0.01205   0.00437  -0.0746  0.0515  1.0000  -1.8784   0.0000   0.0000   0.0000   0.3237
   5.400   0.9473   0.01273   0.00479  -0.0739  0.0132  1.0000  -1.9404   0.0000   0.0000   0.0000   0.3224
   5.500   0.9572   0.01288   0.00492  -0.0738  0.0119  1.0000  -2.0179   0.0000   0.0000   0.0000   0.3213
   5.600   0.9672   0.01303   0.00505  -0.0736  0.0109  1.0000  -2.0947   0.0000   0.0000   0.0000   0.3203
   5.700   0.9772   0.01316   0.00521  -0.0735  0.0102  1.0000  -2.1734   0.0000   0.0000   0.0000   0.3192
   5.800   0.9873   0.01329   0.00537  -0.0733  0.0099  1.0000  -2.2547   0.0000   0.0000   0.0000   0.3182
   5.900   0.9973   0.01342   0.00553  -0.0732  0.0097  1.0000  -2.3378   0.0000   0.0000   0.0000   0.3172
   6.000   1.0073   0.01356   0.00570  -0.0730  0.0096  1.0000  -2.4220   0.0000   0.0000   0.0000   0.3162
   6.100   1.0173   0.01369   0.00587  -0.0728  0.0095  1.0000  -2.5069   0.0000   0.0000   0.0000   0.3152
   6.200   1.0271   0.01384   0.00606  -0.0727  0.0095  1.0000  -2.5921   0.0000   0.0000   0.0000   0.3142
   6.300   1.0369   0.01399   0.00626  -0.0725  0.0095  1.0000  -2.6772   0.0000   0.0000   0.0000   0.3132
   6.400   1.0466   0.01415   0.00647  -0.0723  0.0095  1.0000  -2.7615   0.0000   0.0000   0.0000   0.3123
   6.500   1.0562   0.01433   0.00670  -0.0720  0.0096  1.0000  -2.8447   0.0000   0.0000   0.0000   0.3113
   6.600   1.0656   0.01452   0.00694  -0.0718  0.0097  1.0000  -2.9262   0.0000   0.0000   0.0000   0.3103
   6.700   1.0749   0.01473   0.00719  -0.0715  0.0098  1.0000  -3.0054   0.0000   0.0000   0.0000   0.3094
   6.800   1.0854   0.01477   0.00757  -0.0715  0.0104  1.0000  -3.1908   0.0000   0.0000   0.0000   0.3086
   6.900   1.0947   0.01497   0.00783  -0.0712  0.0106  1.0000  -3.2860   0.0000   0.0000   0.0000   0.3076
   7.000   1.1037   0.01520   0.00813  -0.0708  0.0107  1.0000  -3.3678   0.0000   0.0000   0.0000   0.3067
   7.100   1.1123   0.01548   0.00847  -0.0704  0.0108  1.0000  -3.4427   0.0000   0.0000   0.0000   0.3057
   7.200   1.1206   0.01580   0.00885  -0.0700  0.0109  1.0000  -3.5128   0.0000   0.0000   0.0000   0.3047
   7.300   1.1284   0.01614   0.00927  -0.0694  0.0110  1.0000  -3.5788   0.0000   0.0000   0.0000   0.3037
   7.400   1.1359   0.01652   0.00972  -0.0689  0.0111  1.0000  -3.6408   0.0000   0.0000   0.0000   0.3026
   7.500   1.1429   0.01694   0.01021  -0.0682  0.0113  1.0000  -3.6989   0.0000   0.0000   0.0000   0.3015
   7.600   1.1494   0.01739   0.01074  -0.0675  0.0114  1.0000  -3.7533   0.0000   0.0000   0.0000   0.3005
   7.700   1.1555   0.01788   0.01130  -0.0667  0.0116  1.0000  -3.8036   0.0000   0.0000   0.0000   0.2993
   7.800   1.1610   0.01842   0.01191  -0.0659  0.0117  1.0000  -3.8496   0.0000   0.0000   0.0000   0.2982
   7.900   1.1660   0.01899   0.01256  -0.0649  0.0119  1.0000  -3.8913   0.0000   0.0000   0.0000   0.2970
   8.000   1.1705   0.01961   0.01325  -0.0639  0.0121  1.0000  -3.9286   0.0000   0.0000   0.0000   0.2958
   8.100   1.1745   0.02027   0.01399  -0.0629  0.0123  1.0000  -3.9616   0.0000   0.0000   0.0000   0.2946
   8.200   1.1782   0.02100   0.01479  -0.0618  0.0126  1.0000  -3.9899   0.0000   0.0000   0.0000   0.2934
   8.300   1.1816   0.02180   0.01566  -0.0606  0.0128  1.0000  -4.0128   0.0000   0.0000   0.0000   0.2921
   8.400   1.1849   0.02272   0.01665  -0.0595  0.0131  1.0000  -4.0283   0.0000   0.0000   0.0000   0.2909
   8.500   1.1881   0.02388   0.01788  -0.0583  0.0134  1.0000  -4.0289   0.0000   0.0000   0.0000   0.2897
   8.600   1.1931   0.02587   0.01996  -0.0573  0.0145  1.0000  -3.9694   0.0000   0.0000   0.0000   0.2885
   8.700   1.2017   0.02578   0.01987  -0.0569  0.0149  1.0000  -4.0688   0.0000   0.0000   0.0000   0.2877
   8.800   1.2102   0.02576   0.01986  -0.0565  0.0154  1.0000  -4.1632   0.0000   0.0000   0.0000   0.2868
   8.900   1.2188   0.02585   0.01999  -0.0560  0.0163  1.0000  -4.2454   0.0000   0.0000   0.0000   0.2860
  20.500   1.0168   0.30099   0.29921  -0.1393  0.0121  1.0000  -1.8536   0.0000   0.0000   0.0000   0.3634
  20.600   1.0172   0.30323   0.30145  -0.1402  0.0110  1.0000  -1.8395   0.0000   0.0000   0.0000   0.3641
  20.700   1.0167   0.30535   0.30358  -0.1408  0.0102  1.0000  -1.8385   0.0000   0.0000   0.0000   0.3646
  20.800   1.0159   0.30731   0.30554  -0.1413  0.0094  1.0000  -1.8469   0.0000   0.0000   0.0000   0.3651
  20.900   1.0150   0.30910   0.30734  -0.1418  0.0088  1.0000  -1.8638   0.0000   0.0000   0.0000   0.3655
  21.000   1.0138   0.31070   0.30895  -0.1422  0.0082  1.0000  -1.8890   0.0000   0.0000   0.0000   0.3659
  21.100   1.0125   0.31209   0.31035  -0.1426  0.0077  1.0000  -1.9234   0.0000   0.0000   0.0000   0.3663
  21.200   1.0110   0.31325   0.31152  -0.1428  0.0073  1.0000  -1.9673   0.0000   0.0000   0.0000   0.3666
  21.300   1.0092   0.31415   0.31243  -0.1430  0.0069  1.0000  -2.0207   0.0000   0.0000   0.0000   0.3668
  21.400   0.9511   0.30444   0.30280  -0.1374  0.0072  1.0000  -1.7855   0.0000   0.0000   0.0000   0.3703
  21.500   0.9470   0.30407   0.30245  -0.1373  0.0069  1.0000  -1.8266   0.0000   0.0000   0.0000   0.3707
  21.600   0.9441   0.30373   0.30212  -0.1372  0.0066  1.0000  -1.8837   0.0000   0.0000   0.0000   0.3708
  21.700   0.9421   0.30334   0.30174  -0.1371  0.0063  1.0000  -1.9574   0.0000   0.0000   0.0000   0.3708
  21.800   0.9399   0.30296   0.30138  -0.1370  0.0060  1.0000  -2.0308   0.0000   0.0000   0.0000   0.3708
  21.900   0.9353   0.30269   0.30112  -0.1369  0.0056  1.0000  -2.0679   0.0000   0.0000   0.0000   0.3713
  22.000   0.9109   0.30423   0.30264  -0.1363  0.0049  1.0000  -1.6937   0.0000   0.0000   0.0000   0.3751
  22.100   0.9097   0.30486   0.30327  -0.1367  0.0048  1.0000  -1.7040   0.0000   0.0000   0.0000   0.3756
  22.200   0.9095   0.30545   0.30387  -0.1372  0.0046  1.0000  -1.7346   0.0000   0.0000   0.0000   0.3760
  22.300   0.9094   0.30602   0.30445  -0.1376  0.0044  1.0000  -1.7665   0.0000   0.0000   0.0000   0.3763
  22.400   0.9087   0.30664   0.30508  -0.1379  0.0042  1.0000  -1.7825   0.0000   0.0000   0.0000   0.3766
  22.500   0.9073   0.30732   0.30576  -0.1382  0.0041  1.0000  -1.7810   0.0000   0.0000   0.0000   0.3771
  22.600   0.9054   0.30803   0.30648  -0.1385  0.0039  1.0000  -1.7666   0.0000   0.0000   0.0000   0.3776
  22.700   0.9032   0.30880   0.30725  -0.1387  0.0038  1.0000  -1.7408   0.0000   0.0000   0.0000   0.3781
  22.800   0.9009   0.30955   0.30801  -0.1390  0.0037  1.0000  -1.7131   0.0000   0.0000   0.0000   0.3787
  22.900   0.8987   0.31030   0.30876  -0.1392  0.0037  1.0000  -1.6848   0.0000   0.0000   0.0000   0.3792
  23.000   0.8965   0.31103   0.30950  -0.1394  0.0036  1.0000  -1.6568   0.0000   0.0000   0.0000   0.3798
  23.100   0.8944   0.31176   0.31023  -0.1396  0.0036  1.0000  -1.6292   0.0000   0.0000   0.0000   0.3803
  23.200   0.8923   0.31248   0.31096  -0.1399  0.0037  1.0000  -1.6021   0.0000   0.0000   0.0000   0.3808
  23.300   0.8903   0.31320   0.31168  -0.1401  0.0037  1.0000  -1.5755   0.0000   0.0000   0.0000   0.3813
  23.400   0.8883   0.31391   0.31240  -0.1403  0.0038  1.0000  -1.5493   0.0000   0.0000   0.0000   0.3818
  23.500   0.8863   0.31462   0.31311  -0.1405  0.0039  1.0000  -1.5230   0.0000   0.0000   0.0000   0.3823
  23.600   0.8842   0.31530   0.31380  -0.1407  0.0040  1.0000  -1.4959   0.0000   0.0000   0.0000   0.3828
  23.700   0.8819   0.31598   0.31447  -0.1409  0.0041  1.0000  -1.4663   0.0000   0.0000   0.0000   0.3833
  23.800   0.8793   0.31665   0.31516  -0.1410  0.0043  1.0000  -1.4296   0.0000   0.0000   0.0000   0.3838
  23.900   0.8767   0.31739   0.31589  -0.1412  0.0045  1.0000  -1.3899   0.0000   0.0000   0.0000   0.3843
  24.000   0.8748   0.31812   0.31663  -0.1414  0.0046  1.0000  -1.3611   0.0000   0.0000   0.0000   0.3848
  24.100   0.8732   0.31886   0.31738  -0.1416  0.0046  1.0000  -1.3389   0.0000   0.0000   0.0000   0.3852
  24.200   0.8719   0.31961   0.31813  -0.1418  0.0047  1.0000  -1.3202   0.0000   0.0000   0.0000   0.3856
  24.300   0.8707   0.32035   0.31887  -0.1421  0.0047  1.0000  -1.3036   0.0000   0.0000   0.0000   0.3860
  24.400   0.8696   0.32110   0.31963  -0.1423  0.0047  1.0000  -1.2885   0.0000   0.0000   0.0000   0.3863
  24.500   0.8686   0.32185   0.32038  -0.1426  0.0047  1.0000  -1.2745   0.0000   0.0000   0.0000   0.3867
  24.600   0.8677   0.32260   0.32113  -0.1429  0.0047  1.0000  -1.2613   0.0000   0.0000   0.0000   0.3871
  24.700   0.8668   0.32335   0.32189  -0.1432  0.0047  1.0000  -1.2488   0.0000   0.0000   0.0000   0.3874
  24.800   0.8660   0.32411   0.32265  -0.1435  0.0047  1.0000  -1.2369   0.0000   0.0000   0.0000   0.3878
  24.900   0.8652   0.32487   0.32342  -0.1438  0.0047  1.0000  -1.2255   0.0000   0.0000   0.0000   0.3881
  25.000   0.8645   0.32563   0.32418  -0.1441  0.0048  1.0000  -1.2145   0.0000   0.0000   0.0000   0.3885
  25.100   0.8638   0.32639   0.32495  -0.1444  0.0048  1.0000  -1.2040   0.0000   0.0000   0.0000   0.3888
  25.200   0.8631   0.32715   0.32571  -0.1447  0.0048  1.0000  -1.1938   0.0000   0.0000   0.0000   0.3891
  25.300   0.8625   0.32792   0.32648  -0.1450  0.0048  1.0000  -1.1839   0.0000   0.0000   0.0000   0.3895
  25.400   0.8619   0.32869   0.32725  -0.1453  0.0048  1.0000  -1.1743   0.0000   0.0000   0.0000   0.3898
  25.500   0.8613   0.32945   0.32803  -0.1457  0.0048  1.0000  -1.1650   0.0000   0.0000   0.0000   0.3901
  25.600   0.8608   0.33022   0.32880  -0.1460  0.0048  1.0000  -1.1560   0.0000   0.0000   0.0000   0.3904
  25.700   0.8603   0.33100   0.32958  -0.1463  0.0048  1.0000  -1.1472   0.0000   0.0000   0.0000   0.3907
  25.800   0.8598   0.33177   0.33035  -0.1466  0.0048  1.0000  -1.1386   0.0000   0.0000   0.0000   0.3910
  25.900   0.8593   0.33254   0.33113  -0.1469  0.0048  1.0000  -1.1303   0.0000   0.0000   0.0000   0.3914
  26.000   0.8588   0.33332   0.33191  -0.1473  0.0048  1.0000  -1.1221   0.0000   0.0000   0.0000   0.3917
  26.100   0.8584   0.33409   0.33269  -0.1476  0.0048  1.0000  -1.1142   0.0000   0.0000   0.0000   0.3920


