xflr5 v6.61

 Calculated polar for: E387

 1 1 Reynolds number fixed          Mach number fixed         

 xtrf =   1.000 (top)        1.000 (bottom)
 Mach =   0.000     Re =     0.625 e 6     Ncrit =   9.000

  alpha     CL        CD       CDp       Cm    Top Xtr Bot Xtr   Cpmin    Chinge    XCp    
 ------- -------- --------- --------- -------- ------- ------- -------- --------- ---------
 -10.000  -0.3515   0.11549   0.11330  -0.0191  1.0000  0.0069  -1.5981   0.0000   0.0000   0.0000   0.1892
  -9.900  -0.3490   0.11416   0.11197  -0.0197  1.0000  0.0069  -1.6043   0.0000   0.0000   0.0000   0.1872
  -9.800  -0.3465   0.11282   0.11064  -0.0202  1.0000  0.0069  -1.6106   0.0000   0.0000   0.0000   0.1853
  -9.700  -0.3440   0.11149   0.10931  -0.0208  1.0000  0.0069  -1.6170   0.0000   0.0000   0.0000   0.1833
  -9.600  -0.3416   0.11016   0.10798  -0.0213  1.0000  0.0069  -1.6236   0.0000   0.0000   0.0000   0.1812
  -9.500  -0.3392   0.10883   0.10666  -0.0219  1.0000  0.0069  -1.6304   0.0000   0.0000   0.0000   0.1792
  -9.400  -0.3368   0.10750   0.10533  -0.0225  1.0000  0.0069  -1.6374   0.0000   0.0000   0.0000   0.1771
  -9.300  -0.3345   0.10617   0.10401  -0.0230  1.0000  0.0070  -1.6446   0.0000   0.0000   0.0000   0.1750
  -9.200  -0.3322   0.10485   0.10270  -0.0236  1.0000  0.0070  -1.6520   0.0000   0.0000   0.0000   0.1729
  -9.100  -0.3299   0.10353   0.10139  -0.0241  1.0000  0.0070  -1.6597   0.0000   0.0000   0.0000   0.1708
  -9.000  -0.3277   0.10222   0.10009  -0.0247  1.0000  0.0070  -1.6675   0.0000   0.0000   0.0000   0.1687
  -8.900  -0.3255   0.10092   0.09879  -0.0252  1.0000  0.0070  -1.6756   0.0000   0.0000   0.0000   0.1666
  -8.800  -0.3235   0.09963   0.09750  -0.0257  1.0000  0.0070  -1.6839   0.0000   0.0000   0.0000   0.1645
  -8.700  -0.3214   0.09834   0.09622  -0.0263  1.0000  0.0070  -1.6925   0.0000   0.0000   0.0000   0.1624
  -8.600  -0.3194   0.09705   0.09494  -0.0268  1.0000  0.0070  -1.7013   0.0000   0.0000   0.0000   0.1603
  -8.500  -0.3174   0.09574   0.09364  -0.0274  1.0000  0.0070  -1.7104   0.0000   0.0000   0.0000   0.1580
  -8.400  -0.3153   0.09443   0.09234  -0.0279  1.0000  0.0070  -1.7196   0.0000   0.0000   0.0000   0.1557
  -8.300  -0.3133   0.09313   0.09104  -0.0285  1.0000  0.0070  -1.7292   0.0000   0.0000   0.0000   0.1534
  -8.200  -0.3114   0.09183   0.08975  -0.0290  1.0000  0.0070  -1.7390   0.0000   0.0000   0.0000   0.1511
  -8.100  -0.3095   0.09053   0.08847  -0.0296  1.0000  0.0070  -1.7492   0.0000   0.0000   0.0000   0.1488
  -8.000  -0.3077   0.08924   0.08719  -0.0301  1.0000  0.0070  -1.7597   0.0000   0.0000   0.0000   0.1466
  -7.700  -0.3172   0.08231   0.08034  -0.0327  1.0000  0.0073  -2.1145   0.0000   0.0000   0.0000   0.1416
  -7.600  -0.3210   0.08024   0.07828  -0.0334  1.0000  0.0074  -2.2147   0.0000   0.0000   0.0000   0.1407
  -7.500  -0.3238   0.07858   0.07664  -0.0339  1.0000  0.0075  -2.2781   0.0000   0.0000   0.0000   0.1402
  -7.400  -0.3265   0.07717   0.07525  -0.0342  1.0000  0.0076  -2.3231   0.0000   0.0000   0.0000   0.1405
  -7.300  -0.3222   0.07480   0.07289  -0.0371  0.9887  0.0078  -2.3738   0.0000   0.0000   0.0000   0.1300
  -7.200  -0.3128   0.07219   0.07028  -0.0414  0.9760  0.0080  -2.4003   0.0000   0.0000   0.0000   0.1127
  -7.100  -0.3015   0.06970   0.06776  -0.0460  0.9637  0.0082  -2.4036   0.0000   0.0000   0.0000   0.0925
  -7.000  -0.2891   0.06728   0.06532  -0.0506  0.9504  0.0084  -2.3929   0.0000   0.0000   0.0000   0.0698
  -6.900  -0.2792   0.06520   0.06320  -0.0543  0.9326  0.0085  -2.3821   0.0000   0.0000   0.0000   0.0505
  -6.800  -0.2723   0.06340   0.06135  -0.0569  0.9145  0.0087  -2.3762   0.0000   0.0000   0.0000   0.0361
  -6.600  -0.2630   0.06021   0.05803  -0.0604  0.8822  0.0089  -2.3746   0.0000   0.0000   0.0000   0.0152
  -6.500  -0.2585   0.05874   0.05649  -0.0619  0.8685  0.0090  -2.3659   0.0000   0.0000   0.0000   0.0057
  -6.400  -0.2534   0.05729   0.05498  -0.0633  0.8574  0.0091  -2.3525   0.0000   0.0000   0.0000  -0.0046
  -6.300  -0.2477   0.05576   0.05341  -0.0648  0.8482  0.0093  -2.3387   0.0000   0.0000   0.0000  -0.0166
  -6.200  -0.2419   0.05424   0.05183  -0.0663  0.8388  0.0094  -2.3258   0.0000   0.0000   0.0000  -0.0290
  -6.100  -0.2359   0.05271   0.05023  -0.0677  0.8294  0.0096  -2.3141   0.0000   0.0000   0.0000  -0.0419
  -6.000  -0.2294   0.05115   0.04861  -0.0691  0.8207  0.0098  -2.3026   0.0000   0.0000   0.0000  -0.0562
  -5.900  -0.2222   0.04952   0.04693  -0.0707  0.8151  0.0100  -2.2911   0.0000   0.0000   0.0000  -0.0728
  -5.800  -0.2148   0.04789   0.04524  -0.0721  0.8089  0.0102  -2.2809   0.0000   0.0000   0.0000  -0.0905
  -5.700  -0.2072   0.04627   0.04356  -0.0734  0.8024  0.0104  -2.2709   0.0000   0.0000   0.0000  -0.1092
  -5.600  -0.1994   0.04465   0.04186  -0.0746  0.7958  0.0106  -2.2622   0.0000   0.0000   0.0000  -0.1291
  -5.500  -0.1916   0.04306   0.04018  -0.0757  0.7889  0.0109  -2.2545   0.0000   0.0000   0.0000  -0.1504
  -5.300  -0.1745   0.03981   0.03675  -0.0778  0.7776  0.0115  -2.2434   0.0000   0.0000   0.0000  -0.2012
  -5.200  -0.1655   0.03814   0.03501  -0.0787  0.7741  0.0118  -2.2412   0.0000   0.0000   0.0000  -0.2316
  -5.100  -0.1563   0.03649   0.03326  -0.0796  0.7702  0.0121  -2.2427   0.0000   0.0000   0.0000  -0.2652
  -5.000  -0.1470   0.03475   0.03140  -0.0803  0.7660  0.0122  -2.2572   0.0000   0.0000   0.0000  -0.3029
  -4.900  -0.1377   0.03222   0.02857  -0.0811  0.7619  0.0115  -2.3567   0.0000   0.0000   0.0000  -0.3463
  -4.800  -0.1282   0.03098   0.02723  -0.0815  0.7573  0.0120  -2.3293   0.0000   0.0000   0.0000  -0.3932
  -4.700  -0.1186   0.02978   0.02593  -0.0818  0.7526  0.0125  -2.3026   0.0000   0.0000   0.0000  -0.4477
  -4.600  -0.1089   0.02864   0.02466  -0.0820  0.7475  0.0132  -2.2766   0.0000   0.0000   0.0000  -0.5120
  -4.500  -0.0989   0.02755   0.02345  -0.0822  0.7419  0.0139  -2.2505   0.0000   0.0000   0.0000  -0.5904
  -4.300  -0.0778   0.02580   0.02149  -0.0824  0.7341  0.0158  -2.1801   0.0000   0.0000   0.0000  -0.8209
  -4.200  -0.0662   0.02554   0.02119  -0.0823  0.7320  0.0171  -2.1107   0.0000   0.0000   0.0000  -1.0059
  -4.100  -0.0519   0.02753   0.02322  -0.0816  0.7290  0.0185  -1.9217   0.0000   0.0000   0.0000  -1.3373
  -4.000  -0.0463   0.02206   0.01724  -0.0827  0.7270  0.0203  -2.1604   0.0000   0.0000   0.0000  -1.5545
  -3.900  -0.0376   0.02106   0.01621  -0.0831  0.7239  0.0223  -2.0667   0.0000   0.0000   0.0000  -1.9835
  -3.800  -0.0278   0.02110   0.01630  -0.0833  0.7202  0.0241  -1.9227   0.0000   0.0000   0.0000  -2.7779
  -3.700  -0.0176   0.02115   0.01636  -0.0834  0.7163  0.0264  -1.7989   0.0000   0.0000   0.0000  -4.5223
  -3.600  -0.0069   0.02116   0.01634  -0.0834  0.7123  0.0297  -1.7010   0.0000   0.0000   0.0000  -11.9021
  -3.500   0.0065   0.02330   0.01856  -0.0827  0.7075  0.0348  -1.5358   0.0000   0.0000   0.0000  13.1052
  -3.400   0.0190   0.02438   0.01958  -0.0823  0.7028  0.0357  -1.4406   0.0000   0.0000   0.0000   4.6161
  -3.300   0.0252   0.01904   0.01378  -0.0832  0.6996  0.0389  -1.5850   0.0000   0.0000   0.0000   3.5756
  -3.200   0.0348   0.01842   0.01315  -0.0834  0.6948  0.0418  -1.5025   0.0000   0.0000   0.0000   2.6637
  -3.000   0.0560   0.01814   0.01292  -0.0836  0.6882  0.0486  -1.3314   0.0000   0.0000   0.0000   1.7537
  -2.900   0.0674   0.01804   0.01280  -0.0835  0.6870  0.0526  -1.2693   0.0000   0.0000   0.0000   1.4956
  -2.300   0.1395   0.01102   0.00464  -0.0811  0.6770  0.0211  -1.4941   0.0000   0.0000   0.0000   0.8347
  -2.200   0.1516   0.01148   0.00514  -0.0810  0.6745  0.0192  -1.3902   0.0000   0.0000   0.0000   0.7877
  -2.100   0.1622   0.01023   0.00375  -0.0806  0.6723  0.0167  -1.4565   0.0000   0.0000   0.0000   0.7498
  -2.000   0.1732   0.00977   0.00319  -0.0804  0.6698  0.0155  -1.4426   0.0000   0.0000   0.0000   0.7164
  -1.900   0.1844   0.00945   0.00278  -0.0802  0.6673  0.0146  -1.4139   0.0000   0.0000   0.0000   0.6870
  -1.800   0.1957   0.00922   0.00247  -0.0801  0.6646  0.0139  -1.3755   0.0000   0.0000   0.0000   0.6610
  -1.700   0.2069   0.00905   0.00222  -0.0800  0.6618  0.0134  -1.3298   0.0000   0.0000   0.0000   0.6379
  -1.600   0.2182   0.00893   0.00203  -0.0799  0.6587  0.0130  -1.2780   0.0000   0.0000   0.0000   0.6173
  -1.500   0.2294   0.00886   0.00189  -0.0798  0.6553  0.0128  -1.2203   0.0000   0.0000   0.0000   0.5987
  -1.400   0.2407   0.00881   0.00178  -0.0797  0.6516  0.0126  -1.1568   0.0000   0.0000   0.0000   0.5820
  -1.300   0.2519   0.00878   0.00169  -0.0797  0.6475  0.0125  -1.0895   0.0000   0.0000   0.0000   0.5669
  -1.200   0.2633   0.00877   0.00163  -0.0796  0.6433  0.0125  -1.0199   0.0000   0.0000   0.0000   0.5530
  -1.100   0.2746   0.00875   0.00157  -0.0796  0.6409  0.0127  -0.9487   0.0000   0.0000   0.0000   0.5403
  -1.000   0.2860   0.00870   0.00150  -0.0796  0.6401  0.0130  -0.8758   0.0000   0.0000   0.0000   0.5286
  -0.900   0.2974   0.00866   0.00144  -0.0796  0.6391  0.0135  -0.8002   0.0000   0.0000   0.0000   0.5177
  -0.800   0.3088   0.00862   0.00139  -0.0796  0.6378  0.0147  -0.7189   0.0000   0.0000   0.0000   0.5076
  -0.700   0.3202   0.00856   0.00137  -0.0796  0.6364  0.0174  -0.6251   0.0000   0.0000   0.0000   0.4983
  -0.600   0.3300   0.00766   0.00142  -0.0799  0.6349  0.2582  -0.6006   0.0000   0.0000   0.0000   0.4918
  -0.500   0.3409   0.00752   0.00142  -0.0799  0.6332  0.3042  -0.6078   0.0000   0.0000   0.0000   0.4840
  -0.400   0.3512   0.00717   0.00145  -0.0800  0.6315  0.4231  -0.6147   0.0000   0.0000   0.0000   0.4773
  -0.300   0.3601   0.00666   0.00151  -0.0798  0.6298  0.6032  -0.6211   0.0000   0.0000   0.0000   0.4711
  -0.200   0.3660   0.00614   0.00159  -0.0786  0.6281  0.7889  -0.6261   0.0000   0.0000   0.0000   0.4642
  -0.100   0.3823   0.00575   0.00158  -0.0792  0.6261  0.9839  -0.6364   0.0000   0.0000   0.0000   0.4563
   0.000   0.3971   0.00576   0.00155  -0.0800  0.6239  1.0000  -0.6456   0.0000   0.0000   0.0000   0.4506
   0.100   0.4082   0.00578   0.00154  -0.0800  0.6218  1.0000  -0.6529   0.0000   0.0000   0.0000   0.4450
   0.200   0.4192   0.00581   0.00154  -0.0799  0.6195  1.0000  -0.6603   0.0000   0.0000   0.0000   0.4396
   0.300   0.4302   0.00583   0.00154  -0.0799  0.6172  1.0000  -0.6676   0.0000   0.0000   0.0000   0.4346
   0.400   0.4412   0.00586   0.00153  -0.0799  0.6148  1.0000  -0.6749   0.0000   0.0000   0.0000   0.4298
   0.500   0.4522   0.00590   0.00153  -0.0798  0.6122  1.0000  -0.6823   0.0000   0.0000   0.0000   0.4252
   0.600   0.4632   0.00594   0.00154  -0.0798  0.6094  1.0000  -0.6896   0.0000   0.0000   0.0000   0.4209
   0.700   0.4742   0.00598   0.00155  -0.0798  0.6062  1.0000  -0.6968   0.0000   0.0000   0.0000   0.4168
   0.800   0.4851   0.00604   0.00156  -0.0798  0.6028  1.0000  -0.7041   0.0000   0.0000   0.0000   0.4128
   0.900   0.4962   0.00610   0.00159  -0.0798  0.5990  1.0000  -0.7113   0.0000   0.0000   0.0000   0.4091
   1.000   0.5073   0.00617   0.00163  -0.0798  0.5952  1.0000  -0.7185   0.0000   0.0000   0.0000   0.4055
   1.100   0.5184   0.00622   0.00167  -0.0798  0.5925  1.0000  -0.7257   0.0000   0.0000   0.0000   0.4021
   1.200   0.5296   0.00623   0.00167  -0.0798  0.5918  1.0000  -0.7332   0.0000   0.0000   0.0000   0.3988
   1.300   0.5408   0.00624   0.00168  -0.0798  0.5911  1.0000  -0.7411   0.0000   0.0000   0.0000   0.3956
   1.400   0.5520   0.00625   0.00168  -0.0798  0.5901  1.0000  -0.7496   0.0000   0.0000   0.0000   0.3926
   1.500   0.5631   0.00626   0.00169  -0.0798  0.5889  1.0000  -0.7581   0.0000   0.0000   0.0000   0.3896
   1.600   0.5743   0.00627   0.00170  -0.0798  0.5876  1.0000  -0.7665   0.0000   0.0000   0.0000   0.3868
   1.700   0.5855   0.00628   0.00171  -0.0798  0.5860  1.0000  -0.7750   0.0000   0.0000   0.0000   0.3841
   1.800   0.5966   0.00630   0.00172  -0.0798  0.5843  1.0000  -0.7845   0.0000   0.0000   0.0000   0.3815
   1.900   0.6078   0.00632   0.00173  -0.0798  0.5825  1.0000  -0.7940   0.0000   0.0000   0.0000   0.3789
   2.000   0.6189   0.00633   0.00174  -0.0798  0.5804  1.0000  -0.8036   0.0000   0.0000   0.0000   0.3765
   2.100   0.6300   0.00635   0.00176  -0.0798  0.5782  1.0000  -0.8141   0.0000   0.0000   0.0000   0.3741
   2.200   0.6411   0.00638   0.00177  -0.0798  0.5757  1.0000  -0.8256   0.0000   0.0000   0.0000   0.3719
   2.300   0.6522   0.00640   0.00178  -0.0798  0.5730  1.0000  -0.8379   0.0000   0.0000   0.0000   0.3697
   2.400   0.6632   0.00643   0.00180  -0.0798  0.5702  1.0000  -0.8502   0.0000   0.0000   0.0000   0.3675
   2.500   0.6741   0.00647   0.00181  -0.0798  0.5671  1.0000  -0.8630   0.0000   0.0000   0.0000   0.3654
   2.600   0.6850   0.00651   0.00182  -0.0797  0.5635  1.0000  -0.8771   0.0000   0.0000   0.0000   0.3634
   2.700   0.6959   0.00656   0.00184  -0.0797  0.5595  1.0000  -0.8912   0.0000   0.0000   0.0000   0.3614
   2.800   0.7059   0.00658   0.00179  -0.0794  0.5400  1.0000  -0.9054   0.0000   0.0000   0.0000   0.3594
   2.900   0.7142   0.00672   0.00166  -0.0789  0.4953  1.0000  -0.9205   0.0000   0.0000   0.0000   0.3572
   3.000   0.7253   0.00675   0.00167  -0.0789  0.4899  1.0000  -0.9373   0.0000   0.0000   0.0000   0.3554
   3.100   0.7362   0.00679   0.00168  -0.0789  0.4828  1.0000  -0.9555   0.0000   0.0000   0.0000   0.3537
   3.200   0.7469   0.00685   0.00170  -0.0788  0.4746  1.0000  -0.9750   0.0000   0.0000   0.0000   0.3520
   3.300   0.7574   0.00693   0.00173  -0.0787  0.4656  1.0000  -0.9943   0.0000   0.0000   0.0000   0.3503
   3.400   0.7677   0.00703   0.00176  -0.0786  0.4554  1.0000  -1.0135   0.0000   0.0000   0.0000   0.3487
   3.500   0.7783   0.00711   0.00180  -0.0786  0.4467  1.0000  -1.0330   0.0000   0.0000   0.0000   0.3472
   3.600   0.7893   0.00716   0.00184  -0.0786  0.4423  1.0000  -1.0530   0.0000   0.0000   0.0000   0.3457
   3.700   0.8001   0.00722   0.00187  -0.0786  0.4355  1.0000  -1.0763   0.0000   0.0000   0.0000   0.3442
   3.800   0.8106   0.00731   0.00191  -0.0785  0.4249  1.0000  -1.1002   0.0000   0.0000   0.0000   0.3428
   3.900   0.8205   0.00746   0.00197  -0.0784  0.4099  1.0000  -1.1275   0.0000   0.0000   0.0000   0.3413
   4.000   0.8308   0.00757   0.00203  -0.0783  0.3975  1.0000  -1.1565   0.0000   0.0000   0.0000   0.3399
   4.100   0.8412   0.00768   0.00208  -0.0782  0.3853  1.0000  -1.1858   0.0000   0.0000   0.0000   0.3386
   4.200   0.8504   0.00791   0.00218  -0.0780  0.3617  1.0000  -1.2136   0.0000   0.0000   0.0000   0.3372
   4.300   0.8602   0.00809   0.00227  -0.0779  0.3419  1.0000  -1.2422   0.0000   0.0000   0.0000   0.3359
   4.400   0.8688   0.00842   0.00242  -0.0776  0.3099  1.0000  -1.2691   0.0000   0.0000   0.0000   0.3346
   4.500   0.8777   0.00872   0.00256  -0.0774  0.2815  1.0000  -1.2964   0.0000   0.0000   0.0000   0.3334
   4.600   0.8864   0.00905   0.00274  -0.0771  0.2512  1.0000  -1.3412   0.0000   0.0000   0.0000   0.3321
   4.700   0.8945   0.00945   0.00294  -0.0768  0.2169  1.0000  -1.4189   0.0000   0.0000   0.0000   0.3309
   4.800   0.9025   0.00986   0.00316  -0.0765  0.1827  1.0000  -1.4967   0.0000   0.0000   0.0000   0.3297
   4.900   0.9104   0.01028   0.00339  -0.0762  0.1491  1.0000  -1.5744   0.0000   0.0000   0.0000   0.3285
   5.000   0.9182   0.01072   0.00363  -0.0758  0.1163  1.0000  -1.6518   0.0000   0.0000   0.0000   0.3273
   5.100   0.9260   0.01114   0.00387  -0.0755  0.0864  1.0000  -1.7290   0.0000   0.0000   0.0000   0.3262
   5.300   0.9389   0.01233   0.00458  -0.0743  0.0128  1.0000  -1.8637   0.0000   0.0000   0.0000   0.3237
   5.400   0.9491   0.01246   0.00467  -0.0742  0.0113  1.0000  -1.9419   0.0000   0.0000   0.0000   0.3226
   5.500   0.9592   0.01260   0.00480  -0.0741  0.0101  1.0000  -2.0167   0.0000   0.0000   0.0000   0.3215
   5.600   0.9693   0.01273   0.00495  -0.0739  0.0095  1.0000  -2.0944   0.0000   0.0000   0.0000   0.3204
   5.700   0.9794   0.01285   0.00510  -0.0738  0.0091  1.0000  -2.1752   0.0000   0.0000   0.0000   0.3194
   5.800   0.9895   0.01298   0.00525  -0.0736  0.0090  1.0000  -2.2581   0.0000   0.0000   0.0000   0.3183
   5.900   0.9996   0.01310   0.00541  -0.0735  0.0089  1.0000  -2.3424   0.0000   0.0000   0.0000   0.3173
   6.000   1.0096   0.01323   0.00558  -0.0733  0.0088  1.0000  -2.4276   0.0000   0.0000   0.0000   0.3163
   6.100   1.0196   0.01337   0.00576  -0.0732  0.0088  1.0000  -2.5134   0.0000   0.0000   0.0000   0.3154
   6.200   1.0294   0.01352   0.00594  -0.0730  0.0089  1.0000  -2.5995   0.0000   0.0000   0.0000   0.3144
   6.300   1.0392   0.01368   0.00614  -0.0728  0.0089  1.0000  -2.6854   0.0000   0.0000   0.0000   0.3134
   6.400   1.0489   0.01384   0.00635  -0.0726  0.0090  1.0000  -2.7710   0.0000   0.0000   0.0000   0.3124
   6.500   1.0585   0.01402   0.00657  -0.0724  0.0091  1.0000  -2.8556   0.0000   0.0000   0.0000   0.3115
   6.600   1.0680   0.01421   0.00681  -0.0721  0.0092  1.0000  -2.9389   0.0000   0.0000   0.0000   0.3105
   6.700   1.0773   0.01442   0.00706  -0.0718  0.0094  1.0000  -3.0197   0.0000   0.0000   0.0000   0.3095
   6.800   1.0878   0.01446   0.00742  -0.0718  0.0099  1.0000  -3.2067   0.0000   0.0000   0.0000   0.3088
   6.900   1.0971   0.01466   0.00769  -0.0716  0.0101  1.0000  -3.3011   0.0000   0.0000   0.0000   0.3078
   7.000   1.1061   0.01490   0.00799  -0.0712  0.0102  1.0000  -3.3830   0.0000   0.0000   0.0000   0.3069
   7.100   1.1147   0.01517   0.00833  -0.0708  0.0103  1.0000  -3.4576   0.0000   0.0000   0.0000   0.3059
   7.200   1.1231   0.01548   0.00869  -0.0703  0.0104  1.0000  -3.5271   0.0000   0.0000   0.0000   0.3049
   7.300   1.1310   0.01582   0.00910  -0.0698  0.0106  1.0000  -3.5924   0.0000   0.0000   0.0000   0.3039
   7.400   1.1386   0.01619   0.00955  -0.0693  0.0107  1.0000  -3.6535   0.0000   0.0000   0.0000   0.3028
   7.500   1.1457   0.01661   0.01004  -0.0686  0.0109  1.0000  -3.7105   0.0000   0.0000   0.0000   0.3017
   7.600   1.1522   0.01706   0.01057  -0.0679  0.0111  1.0000  -3.7632   0.0000   0.0000   0.0000   0.3006
   7.700   1.1583   0.01756   0.01114  -0.0671  0.0113  1.0000  -3.8117   0.0000   0.0000   0.0000   0.2995
   7.800   1.1638   0.01810   0.01176  -0.0662  0.0115  1.0000  -3.8553   0.0000   0.0000   0.0000   0.2984
   7.900   1.1687   0.01869   0.01243  -0.0653  0.0118  1.0000  -3.8939   0.0000   0.0000   0.0000   0.2972
   8.000   1.1731   0.01933   0.01314  -0.0642  0.0120  1.0000  -3.9275   0.0000   0.0000   0.0000   0.2960
   8.100   1.1771   0.02003   0.01392  -0.0631  0.0123  1.0000  -3.9559   0.0000   0.0000   0.0000   0.2947
   8.200   1.1806   0.02081   0.01477  -0.0620  0.0126  1.0000  -3.9785   0.0000   0.0000   0.0000   0.2935
   8.300   1.1838   0.02169   0.01572  -0.0608  0.0129  1.0000  -3.9931   0.0000   0.0000   0.0000   0.2922
   8.400   1.1867   0.02280   0.01691  -0.0596  0.0132  1.0000  -3.9930   0.0000   0.0000   0.0000   0.2909
   8.500   1.1905   0.02474   0.01892  -0.0583  0.0146  1.0000  -3.9220   0.0000   0.0000   0.0000   0.2896
   8.600   1.1997   0.02457   0.01876  -0.0580  0.0151  1.0000  -4.0261   0.0000   0.0000   0.0000   0.2888
   8.700   1.2088   0.02450   0.01870  -0.0576  0.0158  1.0000  -4.1219   0.0000   0.0000   0.0000   0.2880
  15.100   0.9892   0.17093   0.16915  -0.0903  0.0214  1.0000  -2.5577   0.0000   0.0000   0.0000   0.3246
  15.200   0.9891   0.17341   0.17163  -0.0915  0.0210  1.0000  -2.5372   0.0000   0.0000   0.0000   0.3258
  15.300   0.9893   0.17578   0.17399  -0.0927  0.0205  1.0000  -2.5225   0.0000   0.0000   0.0000   0.3270
  15.400   0.9897   0.17801   0.17623  -0.0939  0.0200  1.0000  -2.5151   0.0000   0.0000   0.0000   0.3279
  15.500   0.9905   0.18007   0.17829  -0.0949  0.0194  1.0000  -2.5171   0.0000   0.0000   0.0000   0.3288
  15.600   0.9917   0.18189   0.18011  -0.0959  0.0189  1.0000  -2.5320   0.0000   0.0000   0.0000   0.3295
  15.700   0.9936   0.18334   0.18156  -0.0966  0.0183  1.0000  -2.5672   0.0000   0.0000   0.0000   0.3299
  15.800   0.9966   0.18410   0.18232  -0.0971  0.0176  1.0000  -2.6406   0.0000   0.0000   0.0000   0.3298
  15.900   1.0035   0.18259   0.18084  -0.0965  0.0167  1.0000  -2.8369   0.0000   0.0000   0.0000   0.3282
  16.000   1.0066   0.18302   0.18127  -0.0968  0.0162  1.0000  -2.9333   0.0000   0.0000   0.0000   0.3280
  16.100   1.0080   0.18427   0.18252  -0.0975  0.0157  1.0000  -2.9863   0.0000   0.0000   0.0000   0.3284
  16.200   1.0077   0.18633   0.18459  -0.0985  0.0154  1.0000  -2.9949   0.0000   0.0000   0.0000   0.3292
  16.300   1.0051   0.18957   0.18782  -0.0999  0.0150  1.0000  -2.9406   0.0000   0.0000   0.0000   0.3308
  16.400   0.9998   0.19428   0.19252  -0.1019  0.0147  1.0000  -2.8099   0.0000   0.0000   0.0000   0.3333
  16.500   0.9913   0.20081   0.19903  -0.1043  0.0143  1.0000  -2.5885   0.0000   0.0000   0.0000   0.3368
  18.400   1.0025   0.25280   0.25099  -0.1237  0.0138  1.0000  -2.0426   0.0000   0.0000   0.0000   0.3528
  18.500   1.0036   0.25522   0.25341  -0.1246  0.0138  1.0000  -2.0315   0.0000   0.0000   0.0000   0.3534
  18.600   1.0047   0.25763   0.25583  -0.1254  0.0138  1.0000  -2.0209   0.0000   0.0000   0.0000   0.3539
  18.700   1.0058   0.26003   0.25823  -0.1262  0.0138  1.0000  -2.0109   0.0000   0.0000   0.0000   0.3545
  18.800   1.0069   0.26241   0.26061  -0.1270  0.0137  1.0000  -2.0015   0.0000   0.0000   0.0000   0.3550
  18.900   1.0080   0.26478   0.26298  -0.1278  0.0137  1.0000  -1.9928   0.0000   0.0000   0.0000   0.3555
  19.000   1.0090   0.26712   0.26533  -0.1286  0.0137  1.0000  -1.9849   0.0000   0.0000   0.0000   0.3560
  19.100   1.0101   0.26943   0.26764  -0.1294  0.0136  1.0000  -1.9783   0.0000   0.0000   0.0000   0.3565
  19.200   1.0113   0.27169   0.26990  -0.1302  0.0136  1.0000  -1.9734   0.0000   0.0000   0.0000   0.3570
  19.300   1.0125   0.27386   0.27208  -0.1310  0.0135  1.0000  -1.9716   0.0000   0.0000   0.0000   0.3575
  19.400   1.0143   0.27581   0.27403  -0.1318  0.0133  1.0000  -1.9774   0.0000   0.0000   0.0000   0.3578
  19.500   1.0180   0.27706   0.27528  -0.1327  0.0126  1.0000  -2.0038   0.0000   0.0000   0.0000   0.3581
  19.600   1.0199   0.27929   0.27751  -0.1338  0.0116  1.0000  -1.9887   0.0000   0.0000   0.0000   0.3588
  21.500   0.9288   0.30207   0.30053  -0.1360  0.0050  1.0000  -1.7719   0.0000   0.0000   0.0000   0.3723
  21.600   0.9246   0.30250   0.30096  -0.1362  0.0050  1.0000  -1.7497   0.0000   0.0000   0.0000   0.3731
  21.700   0.9211   0.30299   0.30146  -0.1364  0.0049  1.0000  -1.7338   0.0000   0.0000   0.0000   0.3738
  21.800   0.9186   0.30354   0.30202  -0.1367  0.0049  1.0000  -1.7300   0.0000   0.0000   0.0000   0.3744
  21.900   0.9175   0.30409   0.30258  -0.1371  0.0048  1.0000  -1.7491   0.0000   0.0000   0.0000   0.3749
  22.000   0.9175   0.30460   0.30310  -0.1375  0.0046  1.0000  -1.7899   0.0000   0.0000   0.0000   0.3752
  22.100   0.9174   0.30510   0.30361  -0.1379  0.0044  1.0000  -1.8290   0.0000   0.0000   0.0000   0.3754
  22.200   0.9167   0.30566   0.30417  -0.1382  0.0042  1.0000  -1.8523   0.0000   0.0000   0.0000   0.3757
  22.300   0.9153   0.30629   0.30480  -0.1385  0.0039  1.0000  -1.8576   0.0000   0.0000   0.0000   0.3762
  22.400   0.9132   0.30700   0.30553  -0.1387  0.0037  1.0000  -1.8433   0.0000   0.0000   0.0000   0.3767
  22.500   0.9106   0.30776   0.30629  -0.1390  0.0035  1.0000  -1.8172   0.0000   0.0000   0.0000   0.3773
  22.600   0.9080   0.30850   0.30703  -0.1392  0.0034  1.0000  -1.7877   0.0000   0.0000   0.0000   0.3779
  22.700   0.9054   0.30923   0.30777  -0.1394  0.0033  1.0000  -1.7576   0.0000   0.0000   0.0000   0.3784
  22.800   0.9030   0.30995   0.30850  -0.1396  0.0032  1.0000  -1.7274   0.0000   0.0000   0.0000   0.3790
  22.900   0.9006   0.31068   0.30923  -0.1398  0.0032  1.0000  -1.6974   0.0000   0.0000   0.0000   0.3795
  23.000   0.8983   0.31141   0.30996  -0.1400  0.0032  1.0000  -1.6679   0.0000   0.0000   0.0000   0.3801
  23.100   0.8962   0.31213   0.31069  -0.1402  0.0032  1.0000  -1.6387   0.0000   0.0000   0.0000   0.3806
  23.200   0.8941   0.31286   0.31142  -0.1404  0.0032  1.0000  -1.6101   0.0000   0.0000   0.0000   0.3811
  23.300   0.8921   0.31359   0.31215  -0.1407  0.0033  1.0000  -1.5821   0.0000   0.0000   0.0000   0.3816
  23.400   0.8901   0.31431   0.31288  -0.1409  0.0034  1.0000  -1.5548   0.0000   0.0000   0.0000   0.3821
  23.500   0.8882   0.31503   0.31360  -0.1411  0.0035  1.0000  -1.5281   0.0000   0.0000   0.0000   0.3826
  23.600   0.8863   0.31574   0.31432  -0.1414  0.0036  1.0000  -1.5018   0.0000   0.0000   0.0000   0.3831
  23.700   0.8843   0.31644   0.31502  -0.1416  0.0038  1.0000  -1.4753   0.0000   0.0000   0.0000   0.3836
  23.800   0.8822   0.31712   0.31570  -0.1418  0.0039  1.0000  -1.4471   0.0000   0.0000   0.0000   0.3841
  23.900   0.8796   0.31777   0.31636  -0.1419  0.0042  1.0000  -1.4132   0.0000   0.0000   0.0000   0.3846
  24.000   0.8768   0.31845   0.31705  -0.1420  0.0044  1.0000  -1.3727   0.0000   0.0000   0.0000   0.3851
  24.100   0.8747   0.31920   0.31780  -0.1422  0.0045  1.0000  -1.3401   0.0000   0.0000   0.0000   0.3856
  24.200   0.8731   0.31995   0.31855  -0.1424  0.0046  1.0000  -1.3166   0.0000   0.0000   0.0000   0.3860
  24.300   0.8718   0.32070   0.31930  -0.1427  0.0046  1.0000  -1.2974   0.0000   0.0000   0.0000   0.3864
  24.400   0.8706   0.32145   0.32005  -0.1429  0.0046  1.0000  -1.2808   0.0000   0.0000   0.0000   0.3868
  24.500   0.8695   0.32220   0.32081  -0.1432  0.0047  1.0000  -1.2657   0.0000   0.0000   0.0000   0.3872
  24.600   0.8686   0.32295   0.32156  -0.1435  0.0047  1.0000  -1.2518   0.0000   0.0000   0.0000   0.3876
  24.700   0.8677   0.32370   0.32232  -0.1438  0.0047  1.0000  -1.2388   0.0000   0.0000   0.0000   0.3879
  24.800   0.8668   0.32446   0.32308  -0.1441  0.0047  1.0000  -1.2265   0.0000   0.0000   0.0000   0.3883
  24.900   0.8660   0.32522   0.32384  -0.1444  0.0047  1.0000  -1.2148   0.0000   0.0000   0.0000   0.3886
  25.000   0.8653   0.32598   0.32461  -0.1447  0.0047  1.0000  -1.2037   0.0000   0.0000   0.0000   0.3890
  25.100   0.8646   0.32674   0.32537  -0.1450  0.0047  1.0000  -1.1930   0.0000   0.0000   0.0000   0.3893
  25.200   0.8639   0.32750   0.32614  -0.1453  0.0047  1.0000  -1.1827   0.0000   0.0000   0.0000   0.3896
  25.300   0.8633   0.32827   0.32691  -0.1456  0.0047  1.0000  -1.1728   0.0000   0.0000   0.0000   0.3899
  25.400   0.8627   0.32903   0.32768  -0.1459  0.0047  1.0000  -1.1631   0.0000   0.0000   0.0000   0.3903
  25.500   0.8621   0.32980   0.32845  -0.1462  0.0047  1.0000  -1.1538   0.0000   0.0000   0.0000   0.3906
  25.600   0.8615   0.33057   0.32922  -0.1465  0.0047  1.0000  -1.1448   0.0000   0.0000   0.0000   0.3909
  25.700   0.8610   0.33134   0.33000  -0.1468  0.0047  1.0000  -1.1360   0.0000   0.0000   0.0000   0.3912


