xflr5 v6.61

 Calculated polar for: E387

 1 1 Reynolds number fixed          Mach number fixed         

 xtrf =   1.000 (top)        1.000 (bottom)
 Mach =   0.000     Re =     0.200 e 6     Ncrit =   9.000

  alpha     CL        CD       CDp       Cm    Top Xtr Bot Xtr   Cpmin    Chinge    XCp    
 ------- -------- --------- --------- -------- ------- ------- -------- --------- ---------
 -10.000  -0.3619   0.12118   0.11746  -0.0205  1.0000  0.0344  -1.3415   0.0000   0.0000   0.0000   0.1875
  -9.900  -0.3598   0.12046   0.11675  -0.0215  1.0000  0.0347  -1.3528   0.0000   0.0000   0.0000   0.1845
  -9.800  -0.3574   0.11965   0.11596  -0.0223  1.0000  0.0349  -1.3604   0.0000   0.0000   0.0000   0.1818
  -9.700  -0.3547   0.11875   0.11507  -0.0231  1.0000  0.0351  -1.3649   0.0000   0.0000   0.0000   0.1792
  -9.600  -0.3522   0.11779   0.11412  -0.0239  1.0000  0.0352  -1.3697   0.0000   0.0000   0.0000   0.1766
  -9.500  -0.3497   0.11678   0.11312  -0.0246  1.0000  0.0353  -1.3748   0.0000   0.0000   0.0000   0.1741
  -9.400  -0.3474   0.11573   0.11208  -0.0253  1.0000  0.0354  -1.3802   0.0000   0.0000   0.0000   0.1716
  -9.300  -0.3451   0.11465   0.11101  -0.0260  1.0000  0.0354  -1.3859   0.0000   0.0000   0.0000   0.1691
  -9.200  -0.3429   0.11355   0.10992  -0.0267  1.0000  0.0355  -1.3918   0.0000   0.0000   0.0000   0.1666
  -9.100  -0.3407   0.11242   0.10881  -0.0274  1.0000  0.0355  -1.3981   0.0000   0.0000   0.0000   0.1641
  -9.000  -0.3386   0.11128   0.10768  -0.0281  1.0000  0.0356  -1.4046   0.0000   0.0000   0.0000   0.1616
  -8.900  -0.3364   0.11011   0.10653  -0.0289  1.0000  0.0356  -1.4113   0.0000   0.0000   0.0000   0.1590
  -8.800  -0.3343   0.10893   0.10536  -0.0296  1.0000  0.0356  -1.4184   0.0000   0.0000   0.0000   0.1563
  -8.700  -0.3323   0.10772   0.10417  -0.0303  1.0000  0.0357  -1.4255   0.0000   0.0000   0.0000   0.1537
  -8.600  -0.3303   0.10648   0.10295  -0.0310  1.0000  0.0357  -1.4325   0.0000   0.0000   0.0000   0.1511
  -8.100  -0.3293   0.09733   0.09393  -0.0348  1.0000  0.0364  -1.5583   0.0000   0.0000   0.0000   0.1397
  -8.000  -0.3329   0.09396   0.09058  -0.0351  1.0000  0.0371  -1.6032   0.0000   0.0000   0.0000   0.1398
  -7.900  -0.3329   0.09195   0.08859  -0.0352  1.0000  0.0375  -1.6062   0.0000   0.0000   0.0000   0.1396
  -7.800  -0.3298   0.09028   0.08693  -0.0347  1.0000  0.0380  -1.5758   0.0000   0.0000   0.0000   0.1401
  -7.700  -0.3269   0.08890   0.08556  -0.0344  1.0000  0.0385  -1.5487   0.0000   0.0000   0.0000   0.1402
  -7.600  -0.3242   0.08764   0.08432  -0.0342  1.0000  0.0389  -1.5235   0.0000   0.0000   0.0000   0.1402
  -7.500  -0.3216   0.08647   0.08316  -0.0339  1.0000  0.0393  -1.4996   0.0000   0.0000   0.0000   0.1401
  -7.400  -0.3196   0.08536   0.08207  -0.0338  1.0000  0.0398  -1.4808   0.0000   0.0000   0.0000   0.1399
  -7.300  -0.3180   0.08430   0.08103  -0.0337  1.0000  0.0402  -1.4651   0.0000   0.0000   0.0000   0.1399
  -7.200  -0.3171   0.08328   0.08004  -0.0335  1.0000  0.0406  -1.4532   0.0000   0.0000   0.0000   0.1401
  -7.100  -0.3169   0.08233   0.07912  -0.0333  1.0000  0.0409  -1.4451   0.0000   0.0000   0.0000   0.1407
  -7.000  -0.3178   0.08144   0.07827  -0.0331  1.0000  0.0413  -1.4406   0.0000   0.0000   0.0000   0.1419
  -6.900  -0.3195   0.08062   0.07748  -0.0327  1.0000  0.0416  -1.4390   0.0000   0.0000   0.0000   0.1437
  -6.800  -0.3214   0.07981   0.07672  -0.0324  1.0000  0.0419  -1.4390   0.0000   0.0000   0.0000   0.1453
  -6.700  -0.3255   0.07919   0.07615  -0.0318  1.0000  0.0421  -1.4434   0.0000   0.0000   0.0000   0.1486
  -6.600  -0.3306   0.07872   0.07573  -0.0312  0.9990  0.0423  -1.4503   0.0000   0.0000   0.0000   0.1521
  -6.500  -0.3182   0.07671   0.07372  -0.0346  0.9945  0.0432  -1.4315   0.0000   0.0000   0.0000   0.1377
  -6.400  -0.3054   0.07465   0.07164  -0.0383  0.9901  0.0442  -1.4170   0.0000   0.0000   0.0000   0.1209
  -6.300  -0.2921   0.07252   0.06949  -0.0423  0.9861  0.0453  -1.4062   0.0000   0.0000   0.0000   0.1014
  -6.200  -0.2792   0.07040   0.06736  -0.0463  0.9806  0.0464  -1.3997   0.0000   0.0000   0.0000   0.0805
  -6.100  -0.2648   0.06816   0.06508  -0.0507  0.9760  0.0477  -1.3959   0.0000   0.0000   0.0000   0.0545
  -6.000  -0.2491   0.06581   0.06269  -0.0557  0.9721  0.0493  -1.3961   0.0000   0.0000   0.0000   0.0225
  -5.900  -0.2339   0.06370   0.06033  -0.0608  0.9635  0.0524  -1.4110   0.0000   0.0000   0.0000  -0.0142
  -5.800  -0.2140   0.06148   0.05803  -0.0670  0.9571  0.0547  -1.4366   0.0000   0.0000   0.0000  -0.0677
  -5.700  -0.1869   0.06059   0.05698  -0.0736  0.9519  0.0571  -1.4521   0.0000   0.0000   0.0000  -0.1490
  -5.600  -0.1736   0.05949   0.05578  -0.0762  0.9430  0.0576  -1.4550   0.0000   0.0000   0.0000  -0.1946
  -5.500  -0.1607   0.05801   0.05419  -0.0787  0.9357  0.0578  -1.4572   0.0000   0.0000   0.0000  -0.2453
  -5.400  -0.1480   0.05639   0.05246  -0.0809  0.9297  0.0580  -1.4577   0.0000   0.0000   0.0000  -0.3027
  -5.300  -0.1369   0.05482   0.05079  -0.0826  0.9234  0.0581  -1.4574   0.0000   0.0000   0.0000  -0.3600
  -5.200  -0.1441   0.04714   0.04307  -0.0859  0.9147  0.0608  -1.5878   0.0000   0.0000   0.0000  -0.3527
  -5.100  -0.1374   0.04541   0.04133  -0.0863  0.9076  0.0620  -1.5552   0.0000   0.0000   0.0000  -0.3845
  -5.000  -0.1294   0.04417   0.04009  -0.0863  0.9014  0.0630  -1.5111   0.0000   0.0000   0.0000  -0.4237
  -4.900  -0.1211   0.04306   0.03895  -0.0865  0.8958  0.0642  -1.4701   0.0000   0.0000   0.0000  -0.4714
  -4.800  -0.1140   0.04208   0.03794  -0.0865  0.8885  0.0653  -1.4369   0.0000   0.0000   0.0000  -0.5156
  -4.700  -0.1064   0.04108   0.03690  -0.0865  0.8814  0.0667  -1.4069   0.0000   0.0000   0.0000  -0.5705
  -4.600  -0.0982   0.04004   0.03581  -0.0867  0.8750  0.0682  -1.3801   0.0000   0.0000   0.0000  -0.6416
  -4.500  -0.0894   0.03900   0.03468  -0.0870  0.8693  0.0700  -1.3561   0.0000   0.0000   0.0000  -0.7324
  -4.400  -0.0801   0.03795   0.03353  -0.0873  0.8641  0.0721  -1.3358   0.0000   0.0000   0.0000  -0.8504
  -4.300  -0.0702   0.03692   0.03239  -0.0878  0.8590  0.0745  -1.3191   0.0000   0.0000   0.0000  -1.0113
  -4.200  -0.0598   0.03600   0.03136  -0.0882  0.8538  0.0774  -1.3055   0.0000   0.0000   0.0000  -1.2379
  -4.100  -0.0481   0.03556   0.03080  -0.0883  0.8484  0.0808  -1.2871   0.0000   0.0000   0.0000  -1.6015
  -4.000  -0.0321   0.03769   0.03276  -0.0875  0.8428  0.0849  -1.2310   0.0000   0.0000   0.0000  -2.4957
  -3.900  -0.0215   0.03730   0.03223  -0.0875  0.8378  0.0853  -1.2093   0.0000   0.0000   0.0000  -3.8520
  -3.800  -0.0206   0.03098   0.02570  -0.0898  0.8339  0.0906  -1.2807   0.0000   0.0000   0.0000  -4.1365
  -3.700  -0.0117   0.02982   0.02450  -0.0898  0.8296  0.0923  -1.2497   0.0000   0.0000   0.0000  -7.4676
  -3.600  -0.0022   0.02888   0.02351  -0.0897  0.8253  0.0938  -1.2175   0.0000   0.0000   0.0000  -40.2740
  -3.500   0.0078   0.02803   0.02259  -0.0897  0.8210  0.0954  -1.1873   0.0000   0.0000   0.0000  11.8839
  -3.400   0.0181   0.02715   0.02166  -0.0897  0.8175  0.0970  -1.1609   0.0000   0.0000   0.0000   5.2542
  -3.300   0.0407   0.02173   0.01496  -0.0886  0.8153  0.0378  -1.6142   0.0000   0.0000   0.0000   2.4441
  -3.200   0.0518   0.02104   0.01424  -0.0883  0.8115  0.0335  -1.5978   0.0000   0.0000   0.0000   1.9683
  -3.100   0.0624   0.01958   0.01256  -0.0882  0.8077  0.0314  -1.6186   0.0000   0.0000   0.0000   1.6741
  -3.000   0.0734   0.01849   0.01128  -0.0879  0.8040  0.0295  -1.6276   0.0000   0.0000   0.0000   1.4575
  -2.900   0.0845   0.01754   0.01015  -0.0876  0.8004  0.0278  -1.6340   0.0000   0.0000   0.0000   1.2949
  -2.800   0.0957   0.01669   0.00912  -0.0872  0.7968  0.0262  -1.6385   0.0000   0.0000   0.0000   1.1690
  -2.700   0.1067   0.01598   0.00825  -0.0868  0.7933  0.0249  -1.6342   0.0000   0.0000   0.0000   1.0703
  -2.600   0.1176   0.01539   0.00753  -0.0864  0.7897  0.0239  -1.6220   0.0000   0.0000   0.0000   0.9907
  -2.500   0.1284   0.01495   0.00697  -0.0860  0.7859  0.0231  -1.5982   0.0000   0.0000   0.0000   0.9252
  -2.400   0.1392   0.01463   0.00656  -0.0857  0.7816  0.0225  -1.5633   0.0000   0.0000   0.0000   0.8704
  -2.300   0.1500   0.01433   0.00622  -0.0856  0.7783  0.0220  -1.5210   0.0000   0.0000   0.0000   0.8241
  -2.200   0.1609   0.01404   0.00589  -0.0854  0.7753  0.0217  -1.4748   0.0000   0.0000   0.0000   0.7842
  -2.100   0.1716   0.01378   0.00559  -0.0852  0.7720  0.0215  -1.4265   0.0000   0.0000   0.0000   0.7494
  -2.000   0.1825   0.01354   0.00531  -0.0850  0.7685  0.0215  -1.3773   0.0000   0.0000   0.0000   0.7187
  -1.900   0.1934   0.01333   0.00505  -0.0849  0.7650  0.0215  -1.3276   0.0000   0.0000   0.0000   0.6913
  -1.800   0.2043   0.01315   0.00480  -0.0847  0.7616  0.0218  -1.2775   0.0000   0.0000   0.0000   0.6667
  -1.700   0.2153   0.01299   0.00457  -0.0846  0.7583  0.0222  -1.2270   0.0000   0.0000   0.0000   0.6446
  -1.600   0.2264   0.01286   0.00436  -0.0844  0.7552  0.0229  -1.1761   0.0000   0.0000   0.0000   0.6245
  -1.500   0.2374   0.01276   0.00418  -0.0842  0.7522  0.0240  -1.1246   0.0000   0.0000   0.0000   0.6062
  -1.400   0.2485   0.01267   0.00403  -0.0841  0.7491  0.0257  -1.0725   0.0000   0.0000   0.0000   0.5895
  -1.300   0.2595   0.01260   0.00392  -0.0839  0.7461  0.0285  -1.0194   0.0000   0.0000   0.0000   0.5743
  -1.200   0.2706   0.01254   0.00385  -0.0838  0.7429  0.0335  -0.9666   0.0000   0.0000   0.0000   0.5605
  -1.100   0.2810   0.01221   0.00382  -0.0838  0.7395  0.1088  -0.9135   0.0000   0.0000   0.0000   0.5489
  -1.000   0.2914   0.01200   0.00388  -0.0839  0.7356  0.1915  -0.8550   0.0000   0.0000   0.0000   0.5385
  -0.900   0.3001   0.01130   0.00394  -0.0840  0.7339  0.3889  -0.7964   0.0000   0.0000   0.0000   0.5302
  -0.800   0.3094   0.01097   0.00398  -0.0837  0.7319  0.4920  -0.7338   0.0000   0.0000   0.0000   0.5209
  -0.600   0.3374   0.00970   0.00411  -0.0836  0.7275  1.0000  -0.5934   0.0000   0.0000   0.0000   0.4979
  -0.500   0.3481   0.00974   0.00410  -0.0836  0.7249  1.0000  -0.6002   0.0000   0.0000   0.0000   0.4900
  -0.400   0.3589   0.00978   0.00410  -0.0835  0.7222  1.0000  -0.6070   0.0000   0.0000   0.0000   0.4825
  -0.300   0.3697   0.00983   0.00410  -0.0835  0.7195  1.0000  -0.6139   0.0000   0.0000   0.0000   0.4754
  -0.200   0.3805   0.00987   0.00410  -0.0834  0.7167  1.0000  -0.6207   0.0000   0.0000   0.0000   0.4688
  -0.100   0.3913   0.00992   0.00409  -0.0833  0.7140  1.0000  -0.6276   0.0000   0.0000   0.0000   0.4624
   0.000   0.4021   0.00996   0.00408  -0.0832  0.7111  1.0000  -0.6346   0.0000   0.0000   0.0000   0.4564
   0.100   0.4128   0.01000   0.00408  -0.0831  0.7082  1.0000  -0.6416   0.0000   0.0000   0.0000   0.4507
   0.200   0.4235   0.01004   0.00407  -0.0830  0.7053  1.0000  -0.6486   0.0000   0.0000   0.0000   0.4452
   0.300   0.4343   0.01010   0.00406  -0.0829  0.7024  1.0000  -0.6556   0.0000   0.0000   0.0000   0.4400
   0.400   0.4450   0.01016   0.00407  -0.0828  0.6993  1.0000  -0.6627   0.0000   0.0000   0.0000   0.4350
   0.500   0.4557   0.01026   0.00411  -0.0827  0.6960  1.0000  -0.6696   0.0000   0.0000   0.0000   0.4303
   0.600   0.4665   0.01041   0.00420  -0.0826  0.6922  1.0000  -0.6764   0.0000   0.0000   0.0000   0.4260
   0.700   0.4772   0.01059   0.00435  -0.0826  0.6888  1.0000  -0.6829   0.0000   0.0000   0.0000   0.4219
   0.800   0.4881   0.01062   0.00437  -0.0826  0.6873  1.0000  -0.6898   0.0000   0.0000   0.0000   0.4179
   0.900   0.4990   0.01066   0.00440  -0.0826  0.6856  1.0000  -0.6975   0.0000   0.0000   0.0000   0.4141
   1.000   0.5098   0.01071   0.00443  -0.0826  0.6836  1.0000  -0.7054   0.0000   0.0000   0.0000   0.4105
   1.100   0.5206   0.01076   0.00447  -0.0826  0.6815  1.0000  -0.7132   0.0000   0.0000   0.0000   0.4070
   1.200   0.5315   0.01081   0.00452  -0.0825  0.6792  1.0000  -0.7211   0.0000   0.0000   0.0000   0.4036
   1.300   0.5423   0.01087   0.00456  -0.0825  0.6768  1.0000  -0.7290   0.0000   0.0000   0.0000   0.4004
   1.400   0.5531   0.01093   0.00461  -0.0825  0.6744  1.0000  -0.7369   0.0000   0.0000   0.0000   0.3973
   1.500   0.5640   0.01099   0.00466  -0.0824  0.6719  1.0000  -0.7454   0.0000   0.0000   0.0000   0.3943
   1.600   0.5748   0.01104   0.00470  -0.0824  0.6694  1.0000  -0.7544   0.0000   0.0000   0.0000   0.3914
   1.700   0.5856   0.01110   0.00475  -0.0824  0.6670  1.0000  -0.7635   0.0000   0.0000   0.0000   0.3886
   1.800   0.5965   0.01116   0.00479  -0.0823  0.6645  1.0000  -0.7727   0.0000   0.0000   0.0000   0.3859
   1.900   0.6073   0.01122   0.00483  -0.0823  0.6621  1.0000  -0.7821   0.0000   0.0000   0.0000   0.3832
   2.000   0.6182   0.01128   0.00487  -0.0822  0.6596  1.0000  -0.7926   0.0000   0.0000   0.0000   0.3807
   2.100   0.6290   0.01133   0.00490  -0.0821  0.6571  1.0000  -0.8031   0.0000   0.0000   0.0000   0.3782
   2.200   0.6397   0.01139   0.00494  -0.0820  0.6544  1.0000  -0.8151   0.0000   0.0000   0.0000   0.3757
   2.300   0.6505   0.01147   0.00499  -0.0819  0.6515  1.0000  -0.8271   0.0000   0.0000   0.0000   0.3734
   2.400   0.6612   0.01159   0.00508  -0.0818  0.6483  1.0000  -0.8391   0.0000   0.0000   0.0000   0.3711
   2.500   0.6719   0.01180   0.00526  -0.0818  0.6445  1.0000  -0.8516   0.0000   0.0000   0.0000   0.3690
   2.600   0.6823   0.01205   0.00551  -0.0818  0.6409  1.0000  -0.8648   0.0000   0.0000   0.0000   0.3671
   2.700   0.6931   0.01208   0.00555  -0.0818  0.6395  1.0000  -0.8787   0.0000   0.0000   0.0000   0.3651
   2.800   0.7039   0.01211   0.00560  -0.0817  0.6378  1.0000  -0.8928   0.0000   0.0000   0.0000   0.3632
   2.900   0.7147   0.01213   0.00569  -0.0817  0.6358  1.0000  -0.9089   0.0000   0.0000   0.0000   0.3612
   3.000   0.7254   0.01216   0.00573  -0.0816  0.6335  1.0000  -0.9251   0.0000   0.0000   0.0000   0.3594
   3.100   0.7361   0.01220   0.00577  -0.0816  0.6308  1.0000  -0.9416   0.0000   0.0000   0.0000   0.3576
   3.200   0.7468   0.01223   0.00581  -0.0815  0.6280  1.0000  -0.9608   0.0000   0.0000   0.0000   0.3558
   3.300   0.7575   0.01227   0.00585  -0.0814  0.6250  1.0000  -0.9802   0.0000   0.0000   0.0000   0.3541
   3.400   0.7682   0.01231   0.00589  -0.0813  0.6220  1.0000  -0.9996   0.0000   0.0000   0.0000   0.3524
   3.500   0.7790   0.01235   0.00593  -0.0812  0.6191  1.0000  -1.0192   0.0000   0.0000   0.0000   0.3507
   3.600   0.7897   0.01237   0.00595  -0.0811  0.6160  1.0000  -1.0390   0.0000   0.0000   0.0000   0.3491
   3.700   0.8005   0.01239   0.00595  -0.0810  0.6128  1.0000  -1.0614   0.0000   0.0000   0.0000   0.3474
   3.800   0.8112   0.01240   0.00595  -0.0809  0.6095  1.0000  -1.0857   0.0000   0.0000   0.0000   0.3458
   3.900   0.8219   0.01239   0.00590  -0.0807  0.6055  1.0000  -1.1124   0.0000   0.0000   0.0000   0.3442
   4.000   0.8325   0.01242   0.00586  -0.0804  0.5998  1.0000  -1.1423   0.0000   0.0000   0.0000   0.3425
   4.100   0.8427   0.01262   0.00601  -0.0802  0.5919  1.0000  -1.1714   0.0000   0.0000   0.0000   0.3410
   4.200   0.8529   0.01238   0.00579  -0.0798  0.5870  1.0000  -1.2015   0.0000   0.0000   0.0000   0.3393
   4.300   0.8631   0.01218   0.00559  -0.0794  0.5795  1.0000  -1.2318   0.0000   0.0000   0.0000   0.3377
   4.400   0.8733   0.01198   0.00536  -0.0790  0.5702  1.0000  -1.2624   0.0000   0.0000   0.0000   0.3360
   4.500   0.8834   0.01181   0.00510  -0.0785  0.5598  1.0000  -1.2932   0.0000   0.0000   0.0000   0.3343
   4.600   0.8932   0.01178   0.00492  -0.0781  0.5478  1.0000  -1.3396   0.0000   0.0000   0.0000   0.3327
   4.700   0.9031   0.01173   0.00487  -0.0778  0.5387  1.0000  -1.3955   0.0000   0.0000   0.0000   0.3313
   4.800   0.9132   0.01167   0.00483  -0.0775  0.5297  1.0000  -1.4705   0.0000   0.0000   0.0000   0.3299
   4.900   0.9235   0.01167   0.00483  -0.0773  0.5218  1.0000  -1.5603   0.0000   0.0000   0.0000   0.3287
   5.000   0.9338   0.01170   0.00484  -0.0772  0.5150  1.0000  -1.6513   0.0000   0.0000   0.0000   0.3274
   5.100   0.9439   0.01174   0.00484  -0.0769  0.5078  1.0000  -1.7431   0.0000   0.0000   0.0000   0.3262
   5.200   0.9539   0.01181   0.00484  -0.0767  0.5002  1.0000  -1.8351   0.0000   0.0000   0.0000   0.3250
   5.300   0.9640   0.01189   0.00490  -0.0765  0.4934  1.0000  -1.9286   0.0000   0.0000   0.0000   0.3238
   5.400   0.9744   0.01191   0.00498  -0.0764  0.4867  1.0000  -2.0241   0.0000   0.0000   0.0000   0.3228
   5.500   0.9846   0.01196   0.00503  -0.0762  0.4774  1.0000  -2.1194   0.0000   0.0000   0.0000   0.3217
   5.600   0.9943   0.01202   0.00505  -0.0760  0.4658  1.0000  -2.2137   0.0000   0.0000   0.0000   0.3205
   5.700   1.0034   0.01213   0.00506  -0.0756  0.4525  1.0000  -2.3052   0.0000   0.0000   0.0000   0.3193
   5.800   1.0131   0.01223   0.00514  -0.0753  0.4398  1.0000  -2.3981   0.0000   0.0000   0.0000   0.3183
   5.900   1.0224   0.01235   0.00521  -0.0750  0.4210  1.0000  -2.4885   0.0000   0.0000   0.0000   0.3172
   6.000   1.0302   0.01257   0.00527  -0.0745  0.3987  1.0000  -2.5709   0.0000   0.0000   0.0000   0.3160
   6.100   1.0382   0.01282   0.00540  -0.0740  0.3674  1.0000  -2.6507   0.0000   0.0000   0.0000   0.3148
   6.200   1.0406   0.01354   0.00566  -0.0729  0.2996  1.0000  -2.7060   0.0000   0.0000   0.0000   0.3134
   6.300   1.0409   0.01460   0.00619  -0.0716  0.2225  1.0000  -2.7491   0.0000   0.0000   0.0000   0.3121
   6.400   1.0446   0.01538   0.00667  -0.0708  0.1727  1.0000  -2.8026   0.0000   0.0000   0.0000   0.3110
   6.500   1.0484   0.01616   0.00718  -0.0701  0.1289  1.0000  -2.8524   0.0000   0.0000   0.0000   0.3099
   6.600   1.0517   0.01699   0.00772  -0.0692  0.0871  1.0000  -2.8951   0.0000   0.0000   0.0000   0.3088
   6.700   1.0519   0.01814   0.00846  -0.0680  0.0340  1.0000  -2.9250   0.0000   0.0000   0.0000   0.3075
   6.800   1.0584   0.01863   0.00889  -0.0673  0.0245  1.0000  -2.9733   0.0000   0.0000   0.0000   0.3064
   6.900   1.0661   0.01898   0.00926  -0.0668  0.0221  1.0000  -3.0288   0.0000   0.0000   0.0000   0.3053
   7.000   1.1123   0.01529   0.00801  -0.0708  0.2259  1.0000  -3.6680   0.0000   0.0000   0.0000   0.3061
   7.100   1.1142   0.01619   0.00858  -0.0698  0.1730  1.0000  -3.7115   0.0000   0.0000   0.0000   0.3049
   7.200   1.1134   0.01739   0.00934  -0.0684  0.1112  1.0000  -3.7184   0.0000   0.0000   0.0000   0.3037
   7.300   1.1091   0.01896   0.01034  -0.0667  0.0438  1.0000  -3.6869   0.0000   0.0000   0.0000   0.3023
   7.400   1.1109   0.01995   0.01121  -0.0653  0.0261  1.0000  -3.6396   0.0000   0.0000   0.0000   0.3008
   7.500   1.1174   0.02041   0.01177  -0.0646  0.0242  1.0000  -3.6727   0.0000   0.0000   0.0000   0.2997
   7.600   1.1236   0.02088   0.01233  -0.0638  0.0230  1.0000  -3.7126   0.0000   0.0000   0.0000   0.2985
   7.700   1.1295   0.02136   0.01290  -0.0630  0.0222  1.0000  -3.7548   0.0000   0.0000   0.0000   0.2974
   7.800   1.1351   0.02185   0.01349  -0.0622  0.0216  1.0000  -3.7979   0.0000   0.0000   0.0000   0.2963
   7.900   1.1401   0.02238   0.01410  -0.0614  0.0212  1.0000  -3.8402   0.0000   0.0000   0.0000   0.2952
   8.000   1.1446   0.02293   0.01473  -0.0605  0.0208  1.0000  -3.8811   0.0000   0.0000   0.0000   0.2941
   8.100   1.1487   0.02350   0.01537  -0.0595  0.0206  1.0000  -3.9210   0.0000   0.0000   0.0000   0.2929
   8.200   1.1523   0.02409   0.01603  -0.0585  0.0204  1.0000  -3.9590   0.0000   0.0000   0.0000   0.2918
   8.300   1.1556   0.02471   0.01672  -0.0575  0.0203  1.0000  -3.9954   0.0000   0.0000   0.0000   0.2906
   8.400   1.1585   0.02533   0.01740  -0.0564  0.0202  1.0000  -4.0301   0.0000   0.0000   0.0000   0.2894
   8.500   1.1607   0.02596   0.01809  -0.0552  0.0202  1.0000  -4.0622   0.0000   0.0000   0.0000   0.2881
   8.600   1.1629   0.02662   0.01881  -0.0540  0.0202  1.0000  -4.0934   0.0000   0.0000   0.0000   0.2869
   8.700   1.1653   0.02731   0.01956  -0.0529  0.0202  1.0000  -4.1244   0.0000   0.0000   0.0000   0.2857
   8.800   1.1682   0.02803   0.02034  -0.0518  0.0202  1.0000  -4.1554   0.0000   0.0000   0.0000   0.2845
   8.900   1.1716   0.02878   0.02115  -0.0508  0.0203  1.0000  -4.1864   0.0000   0.0000   0.0000   0.2834
   9.000   1.1758   0.02957   0.02200  -0.0499  0.0204  1.0000  -4.2179   0.0000   0.0000   0.0000   0.2824
   9.100   1.1807   0.03041   0.02290  -0.0491  0.0205  1.0000  -4.2499   0.0000   0.0000   0.0000   0.2814
   9.200   1.1867   0.03130   0.02386  -0.0484  0.0207  1.0000  -4.2824   0.0000   0.0000   0.0000   0.2804
   9.300   1.1939   0.03227   0.02491  -0.0477  0.0209  1.0000  -4.3152   0.0000   0.0000   0.0000   0.2795
   9.400   1.2022   0.03334   0.02607  -0.0473  0.0212  1.0000  -4.3480   0.0000   0.0000   0.0000   0.2787
   9.500   1.2114   0.03453   0.02738  -0.0469  0.0215  1.0000  -4.3775   0.0000   0.0000   0.0000   0.2780
   9.600   1.2209   0.03585   0.02883  -0.0466  0.0220  1.0000  -4.4033   0.0000   0.0000   0.0000   0.2773
   9.700   1.2301   0.03730   0.03042  -0.0463  0.0224  1.0000  -4.4247   0.0000   0.0000   0.0000   0.2766
   9.800   1.2382   0.03885   0.03211  -0.0459  0.0229  1.0000  -4.4407   0.0000   0.0000   0.0000   0.2760
   9.900   1.2453   0.04048   0.03388  -0.0455  0.0234  1.0000  -4.4521   0.0000   0.0000   0.0000   0.2753
  10.000   1.2508   0.04217   0.03572  -0.0450  0.0239  1.0000  -4.4582   0.0000   0.0000   0.0000   0.2746
  10.100   1.2546   0.04391   0.03760  -0.0443  0.0244  1.0000  -4.4588   0.0000   0.0000   0.0000   0.2738
  10.200   1.2567   0.04571   0.03955  -0.0435  0.0249  1.0000  -4.4533   0.0000   0.0000   0.0000   0.2730
  10.300   1.2572   0.04759   0.04157  -0.0426  0.0254  1.0000  -4.4411   0.0000   0.0000   0.0000   0.2721
  10.400   1.2559   0.04962   0.04375  -0.0416  0.0258  1.0000  -4.4199   0.0000   0.0000   0.0000   0.2713
  10.500   1.2525   0.05203   0.04631  -0.0406  0.0263  1.0000  -4.3814   0.0000   0.0000   0.0000   0.2704
  10.700   1.2777   0.05252   0.04688  -0.0400  0.0298  1.0000  -4.5116   0.0000   0.0000   0.0000   0.2690
  10.800   1.2633   0.05590   0.05084  -0.0369  0.0346  1.0000  -4.2506   0.0000   0.0000   0.0000   0.2669
  10.900   1.2521   0.05832   0.05347  -0.0353  0.0363  1.0000  -4.1591   0.0000   0.0000   0.0000   0.2658
  11.000   1.2427   0.06047   0.05577  -0.0342  0.0376  1.0000  -4.1002   0.0000   0.0000   0.0000   0.2649
  11.100   1.2337   0.06251   0.05793  -0.0333  0.0386  1.0000  -4.0551   0.0000   0.0000   0.0000   0.2643
  11.200   1.2248   0.06447   0.06000  -0.0326  0.0394  1.0000  -4.0175   0.0000   0.0000   0.0000   0.2638
  11.300   1.2158   0.06647   0.06209  -0.0321  0.0400  1.0000  -3.9826   0.0000   0.0000   0.0000   0.2635
  11.400   1.2067   0.06853   0.06424  -0.0318  0.0406  1.0000  -3.9485   0.0000   0.0000   0.0000   0.2633
  11.500   1.1974   0.07065   0.06644  -0.0316  0.0411  1.0000  -3.9149   0.0000   0.0000   0.0000   0.2632
  11.600   1.1878   0.07285   0.06872  -0.0316  0.0416  1.0000  -3.8806   0.0000   0.0000   0.0000   0.2633
  11.700   1.1780   0.07509   0.07105  -0.0318  0.0419  1.0000  -3.8459   0.0000   0.0000   0.0000   0.2636
  11.800   1.1680   0.07737   0.07340  -0.0322  0.0423  1.0000  -3.8104   0.0000   0.0000   0.0000   0.2639
  11.900   1.1578   0.07967   0.07577  -0.0326  0.0425  1.0000  -3.7748   0.0000   0.0000   0.0000   0.2644
  12.000   1.1473   0.08214   0.07831  -0.0332  0.0428  1.0000  -3.7357   0.0000   0.0000   0.0000   0.2651
  12.100   1.1361   0.08490   0.08113  -0.0341  0.0431  1.0000  -3.6895   0.0000   0.0000   0.0000   0.2660
  13.600   1.0061   0.13020   0.12713  -0.0630  0.0419  1.0000  -3.0058   0.0000   0.0000   0.0000   0.2972
  14.500   0.9621   0.17000   0.16684  -0.0860  0.0561  1.0000  -2.0833   0.0000   0.0000   0.0000   0.3242
  14.600   0.9621   0.17222   0.16905  -0.0871  0.0555  1.0000  -2.0673   0.0000   0.0000   0.0000   0.3252
  14.700   0.9624   0.17438   0.17121  -0.0882  0.0549  1.0000  -2.0537   0.0000   0.0000   0.0000   0.3262
  14.800   0.9628   0.17650   0.17333  -0.0892  0.0543  1.0000  -2.0425   0.0000   0.0000   0.0000   0.3271
  14.900   0.9635   0.17858   0.17540  -0.0902  0.0538  1.0000  -2.0334   0.0000   0.0000   0.0000   0.3279
  15.000   0.9643   0.18061   0.17743  -0.0911  0.0532  1.0000  -2.0266   0.0000   0.0000   0.0000   0.3287
  15.100   0.9653   0.18260   0.17942  -0.0919  0.0527  1.0000  -2.0221   0.0000   0.0000   0.0000   0.3294
  15.200   0.9665   0.18455   0.18137  -0.0927  0.0521  1.0000  -2.0198   0.0000   0.0000   0.0000   0.3300
  15.300   0.9679   0.18646   0.18328  -0.0935  0.0516  1.0000  -2.0200   0.0000   0.0000   0.0000   0.3305
  15.400   0.9694   0.18832   0.18514  -0.0942  0.0511  1.0000  -2.0227   0.0000   0.0000   0.0000   0.3309
  15.500   0.9712   0.19014   0.18696  -0.0948  0.0506  1.0000  -2.0284   0.0000   0.0000   0.0000   0.3313
  15.600   0.9732   0.19190   0.18873  -0.0954  0.0501  1.0000  -2.0372   0.0000   0.0000   0.0000   0.3315
  15.700   0.9754   0.19362   0.19045  -0.0959  0.0496  1.0000  -2.0495   0.0000   0.0000   0.0000   0.3316
  15.800   0.9779   0.19529   0.19212  -0.0963  0.0491  1.0000  -2.0653   0.0000   0.0000   0.0000   0.3316
  15.900   0.9803   0.19695   0.19379  -0.0967  0.0486  1.0000  -2.0826   0.0000   0.0000   0.0000   0.3316
  16.000   0.9830   0.19858   0.19543  -0.0970  0.0482  1.0000  -2.1038   0.0000   0.0000   0.0000   0.3315
  16.100   0.9860   0.20018   0.19704  -0.0971  0.0477  1.0000  -2.1293   0.0000   0.0000   0.0000   0.3312
  16.200   0.9892   0.20181   0.19868  -0.0971  0.0472  1.0000  -2.1593   0.0000   0.0000   0.0000   0.3307
  16.300   0.9915   0.20377   0.20065  -0.0972  0.0467  1.0000  -2.1828   0.0000   0.0000   0.0000   0.3304
  16.400   0.9896   0.20743   0.20431  -0.0978  0.0458  1.0000  -2.1660   0.0000   0.0000   0.0000   0.3310
  16.500   0.9784   0.21579   0.21260  -0.1002  0.0447  1.0000  -2.0105   0.0000   0.0000   0.0000   0.3347
  16.600   0.9794   0.21818   0.21499  -0.1012  0.0447  1.0000  -1.9953   0.0000   0.0000   0.0000   0.3355
  16.700   0.9803   0.22055   0.21736  -0.1022  0.0446  1.0000  -1.9804   0.0000   0.0000   0.0000   0.3363
  16.800   0.9813   0.22289   0.21970  -0.1032  0.0446  1.0000  -1.9660   0.0000   0.0000   0.0000   0.3371
  16.900   0.9823   0.22521   0.22201  -0.1042  0.0446  1.0000  -1.9520   0.0000   0.0000   0.0000   0.3379
  17.000   0.9834   0.22750   0.22430  -0.1052  0.0445  1.0000  -1.9383   0.0000   0.0000   0.0000   0.3387
  17.100   0.9844   0.22975   0.22656  -0.1062  0.0445  1.0000  -1.9251   0.0000   0.0000   0.0000   0.3395
  17.200   0.9855   0.23196   0.22877  -0.1072  0.0444  1.0000  -1.9122   0.0000   0.0000   0.0000   0.3403
  17.300   0.9866   0.23412   0.23093  -0.1082  0.0443  1.0000  -1.8997   0.0000   0.0000   0.0000   0.3410
  17.400   0.9877   0.23621   0.23302  -0.1092  0.0442  1.0000  -1.8876   0.0000   0.0000   0.0000   0.3418
  17.500   0.9889   0.23821   0.23501  -0.1103  0.0440  1.0000  -1.8758   0.0000   0.0000   0.0000   0.3426
  17.600   0.9902   0.24006   0.23687  -0.1114  0.0438  1.0000  -1.8642   0.0000   0.0000   0.0000   0.3434
  17.700   0.9917   0.24171   0.23851  -0.1126  0.0434  1.0000  -1.8519   0.0000   0.0000   0.0000   0.3443
  17.800   0.9918   0.24341   0.24021  -0.1142  0.0428  1.0000  -1.8220   0.0000   0.0000   0.0000   0.3459
  17.900   0.9913   0.24533   0.24212  -0.1159  0.0420  1.0000  -1.7868   0.0000   0.0000   0.0000   0.3476
  18.000   0.9912   0.24746   0.24426  -0.1174  0.0411  1.0000  -1.7580   0.0000   0.0000   0.0000   0.3489
  18.100   0.9917   0.24971   0.24650  -0.1186  0.0403  1.0000  -1.7372   0.0000   0.0000   0.0000   0.3499
  18.200   0.9923   0.25197   0.24877  -0.1196  0.0396  1.0000  -1.7217   0.0000   0.0000   0.0000   0.3508
  18.300   0.9931   0.25424   0.25104  -0.1205  0.0389  1.0000  -1.7097   0.0000   0.0000   0.0000   0.3515
  18.400   0.9940   0.25650   0.25330  -0.1214  0.0382  1.0000  -1.7002   0.0000   0.0000   0.0000   0.3521
  18.500   0.9948   0.25875   0.25555  -0.1222  0.0376  1.0000  -1.6924   0.0000   0.0000   0.0000   0.3527
  18.600   0.9957   0.26099   0.25779  -0.1230  0.0370  1.0000  -1.6860   0.0000   0.0000   0.0000   0.3532
  18.700   0.9966   0.26321   0.26002  -0.1238  0.0365  1.0000  -1.6808   0.0000   0.0000   0.0000   0.3537
  18.800   0.9974   0.26542   0.26224  -0.1245  0.0359  1.0000  -1.6766   0.0000   0.0000   0.0000   0.3542
  18.900   0.9983   0.26762   0.26444  -0.1252  0.0354  1.0000  -1.6734   0.0000   0.0000   0.0000   0.3547
  19.000   0.9991   0.26981   0.26663  -0.1259  0.0349  1.0000  -1.6711   0.0000   0.0000   0.0000   0.3551
  19.100   0.9999   0.27197   0.26880  -0.1265  0.0345  1.0000  -1.6697   0.0000   0.0000   0.0000   0.3555
  19.200   1.0007   0.27413   0.27096  -0.1271  0.0340  1.0000  -1.6691   0.0000   0.0000   0.0000   0.3559
  19.300   1.0014   0.27626   0.27310  -0.1277  0.0336  1.0000  -1.6695   0.0000   0.0000   0.0000   0.3562
  19.400   1.0021   0.27837   0.27522  -0.1283  0.0331  1.0000  -1.6709   0.0000   0.0000   0.0000   0.3566
  19.500   1.0029   0.28043   0.27728  -0.1289  0.0327  1.0000  -1.6754   0.0000   0.0000   0.0000   0.3568
  19.600   1.0037   0.28237   0.27924  -0.1293  0.0321  1.0000  -1.6854   0.0000   0.0000   0.0000   0.3570
  19.700   1.0049   0.28415   0.28102  -0.1296  0.0315  1.0000  -1.7053   0.0000   0.0000   0.0000   0.3570
  19.800   1.0068   0.28557   0.28245  -0.1296  0.0306  1.0000  -1.7484   0.0000   0.0000   0.0000   0.3565
  20.900   0.9897   0.31156   0.30862  -0.1320  0.0269  1.0000  -1.6731   0.0000   0.0000   0.0000   0.3598
  21.100   0.9387   0.30375   0.30093  -0.1273  0.0269  1.0000  -1.5332   0.0000   0.0000   0.0000   0.3624
  21.200   0.9316   0.30322   0.30042  -0.1272  0.0268  1.0000  -1.5057   0.0000   0.0000   0.0000   0.3633
  21.300   0.9259   0.30297   0.30019  -0.1273  0.0267  1.0000  -1.4814   0.0000   0.0000   0.0000   0.3642
  21.400   0.9207   0.30285   0.30008  -0.1275  0.0265  1.0000  -1.4558   0.0000   0.0000   0.0000   0.3651
  21.500   0.9153   0.30273   0.29998  -0.1279  0.0263  1.0000  -1.4233   0.0000   0.0000   0.0000   0.3663
  21.600   0.9109   0.30281   0.30007  -0.1286  0.0260  1.0000  -1.3883   0.0000   0.0000   0.0000   0.3677
  21.700   0.9079   0.30329   0.30055  -0.1296  0.0253  1.0000  -1.3493   0.0000   0.0000   0.0000   0.3691
  21.800   0.9057   0.30407   0.30134  -0.1304  0.0242  1.0000  -1.3159   0.0000   0.0000   0.0000   0.3703
  21.900   0.9033   0.30474   0.30202  -0.1308  0.0231  1.0000  -1.2955   0.0000   0.0000   0.0000   0.3711
  22.000   0.9009   0.30530   0.30259  -0.1311  0.0220  1.0000  -1.2832   0.0000   0.0000   0.0000   0.3717
  22.100   0.8985   0.30579   0.30309  -0.1313  0.0210  1.0000  -1.2764   0.0000   0.0000   0.0000   0.3722
  22.200   0.8964   0.30625   0.30356  -0.1315  0.0201  1.0000  -1.2741   0.0000   0.0000   0.0000   0.3726
  22.300   0.8944   0.30667   0.30400  -0.1317  0.0193  1.0000  -1.2761   0.0000   0.0000   0.0000   0.3730
  22.400   0.8926   0.30706   0.30440  -0.1318  0.0185  1.0000  -1.2823   0.0000   0.0000   0.0000   0.3734
  22.500   0.8910   0.30741   0.30476  -0.1319  0.0178  1.0000  -1.2932   0.0000   0.0000   0.0000   0.3736
  22.600   0.8896   0.30770   0.30506  -0.1320  0.0172  1.0000  -1.3093   0.0000   0.0000   0.0000   0.3738
  22.700   0.8883   0.30793   0.30531  -0.1321  0.0166  1.0000  -1.3312   0.0000   0.0000   0.0000   0.3739
  22.800   0.8873   0.30810   0.30549  -0.1321  0.0161  1.0000  -1.3599   0.0000   0.0000   0.0000   0.3739
  22.900   0.8865   0.30818   0.30559  -0.1319  0.0157  1.0000  -1.3973   0.0000   0.0000   0.0000   0.3736
  23.000   0.8861   0.30821   0.30563  -0.1316  0.0152  1.0000  -1.4471   0.0000   0.0000   0.0000   0.3731
  23.100   0.8859   0.30849   0.30594  -0.1307  0.0147  1.0000  -1.5078   0.0000   0.0000   0.0000   0.3720
  23.200   0.8756   0.31102   0.30843  -0.1302  0.0140  1.0000  -1.3788   0.0000   0.0000   0.0000   0.3733
  23.300   0.8741   0.31172   0.30914  -0.1305  0.0140  1.0000  -1.3646   0.0000   0.0000   0.0000   0.3738
  23.400   0.8726   0.31242   0.30985  -0.1308  0.0140  1.0000  -1.3509   0.0000   0.0000   0.0000   0.3743
  23.500   0.8713   0.31312   0.31056  -0.1311  0.0140  1.0000  -1.3376   0.0000   0.0000   0.0000   0.3747
  23.600   0.8700   0.31382   0.31126  -0.1315  0.0140  1.0000  -1.3247   0.0000   0.0000   0.0000   0.3752
  23.700   0.8687   0.31453   0.31197  -0.1318  0.0140  1.0000  -1.3122   0.0000   0.0000   0.0000   0.3757
  23.800   0.8676   0.31523   0.31268  -0.1321  0.0140  1.0000  -1.3001   0.0000   0.0000   0.0000   0.3762
  23.900   0.8664   0.31593   0.31340  -0.1325  0.0139  1.0000  -1.2884   0.0000   0.0000   0.0000   0.3766
  24.000   0.8654   0.31664   0.31411  -0.1328  0.0139  1.0000  -1.2770   0.0000   0.0000   0.0000   0.3771
  24.100   0.8644   0.31735   0.31482  -0.1332  0.0139  1.0000  -1.2660   0.0000   0.0000   0.0000   0.3776
  24.200   0.8635   0.31806   0.31554  -0.1335  0.0139  1.0000  -1.2552   0.0000   0.0000   0.0000   0.3780
  24.300   0.8625   0.31875   0.31624  -0.1339  0.0139  1.0000  -1.2443   0.0000   0.0000   0.0000   0.3785
  24.400   0.8616   0.31945   0.31695  -0.1343  0.0138  1.0000  -1.2337   0.0000   0.0000   0.0000   0.3789
  24.500   0.8608   0.32015   0.31765  -0.1347  0.0138  1.0000  -1.2234   0.0000   0.0000   0.0000   0.3794
  24.600   0.8600   0.32084   0.31836  -0.1350  0.0138  1.0000  -1.2132   0.0000   0.0000   0.0000   0.3798
  24.700   0.8592   0.32154   0.31906  -0.1354  0.0138  1.0000  -1.2033   0.0000   0.0000   0.0000   0.3803
  24.800   0.8585   0.32223   0.31976  -0.1358  0.0138  1.0000  -1.1936   0.0000   0.0000   0.0000   0.3807
  24.900   0.8578   0.32292   0.32045  -0.1362  0.0137  1.0000  -1.1832   0.0000   0.0000   0.0000   0.3812
  25.000   0.8571   0.32360   0.32114  -0.1367  0.0137  1.0000  -1.1730   0.0000   0.0000   0.0000   0.3816
  25.100   0.8564   0.32429   0.32183  -0.1371  0.0136  1.0000  -1.1629   0.0000   0.0000   0.0000   0.3821
  25.200   0.8557   0.32497   0.32252  -0.1376  0.0136  1.0000  -1.1498   0.0000   0.0000   0.0000   0.3827
  25.300   0.8550   0.32566   0.32322  -0.1381  0.0135  1.0000  -1.1365   0.0000   0.0000   0.0000   0.3833
  25.400   0.8543   0.32637   0.32393  -0.1386  0.0135  1.0000  -1.1231   0.0000   0.0000   0.0000   0.3838
  25.500   0.8538   0.32711   0.32468  -0.1392  0.0134  1.0000  -1.1092   0.0000   0.0000   0.0000   0.3844
  25.600   0.8535   0.32789   0.32546  -0.1398  0.0133  1.0000  -1.0946   0.0000   0.0000   0.0000   0.3850
  25.700   0.8533   0.32873   0.32630  -0.1404  0.0131  1.0000  -1.0791   0.0000   0.0000   0.0000   0.3856
  25.800   0.8532   0.32964   0.32722  -0.1410  0.0129  1.0000  -1.0627   0.0000   0.0000   0.0000   0.3862
  25.900   0.8533   0.33060   0.32819  -0.1416  0.0126  1.0000  -1.0463   0.0000   0.0000   0.0000   0.3867
  26.000   0.8534   0.33156   0.32915  -0.1421  0.0123  1.0000  -1.0317   0.0000   0.0000   0.0000   0.3872
  26.100   0.8534   0.33248   0.33008  -0.1426  0.0120  1.0000  -1.0195   0.0000   0.0000   0.0000   0.3876
  26.200   0.8533   0.33335   0.33096  -0.1430  0.0117  1.0000  -1.0097   0.0000   0.0000   0.0000   0.3879
  26.300   0.8531   0.33419   0.33180  -0.1434  0.0114  1.0000  -1.0014   0.0000   0.0000   0.0000   0.3883
  26.400   0.8529   0.33501   0.33263  -0.1438  0.0112  1.0000  -0.9944   0.0000   0.0000   0.0000   0.3886
  26.500   0.8527   0.33581   0.33344  -0.1442  0.0109  1.0000  -0.9881   0.0000   0.0000   0.0000   0.3889
  26.600   0.8524   0.33661   0.33424  -0.1446  0.0107  1.0000  -0.9826   0.0000   0.0000   0.0000   0.3892
  26.700   0.8522   0.33739   0.33503  -0.1450  0.0105  1.0000  -0.9775   0.0000   0.0000   0.0000   0.3895
  26.800   0.8520   0.33817   0.33582  -0.1453  0.0103  1.0000  -0.9729   0.0000   0.0000   0.0000   0.3898
  26.900   0.8517   0.33894   0.33660  -0.1457  0.0101  1.0000  -0.9686   0.0000   0.0000   0.0000   0.3901
  27.000   0.8515   0.33972   0.33738  -0.1461  0.0099  1.0000  -0.9647   0.0000   0.0000   0.0000   0.3904
  27.100   0.8513   0.34048   0.33815  -0.1465  0.0097  1.0000  -0.9610   0.0000   0.0000   0.0000   0.3907
  27.200   0.8511   0.34125   0.33893  -0.1468  0.0095  1.0000  -0.9576   0.0000   0.0000   0.0000   0.3910
  27.300   0.8508   0.34201   0.33970  -0.1472  0.0094  1.0000  -0.9544   0.0000   0.0000   0.0000   0.3913
  27.400   0.8506   0.34277   0.34046  -0.1476  0.0092  1.0000  -0.9514   0.0000   0.0000   0.0000   0.3916
  27.500   0.8504   0.34353   0.34123  -0.1479  0.0091  1.0000  -0.9487   0.0000   0.0000   0.0000   0.3919
  27.600   0.8502   0.34429   0.34200  -0.1483  0.0089  1.0000  -0.9461   0.0000   0.0000   0.0000   0.3921
  27.700   0.8501   0.34505   0.34276  -0.1487  0.0088  1.0000  -0.9437   0.0000   0.0000   0.0000   0.3924
  27.800   0.8499   0.34580   0.34352  -0.1490  0.0087  1.0000  -0.9415   0.0000   0.0000   0.0000   0.3927
  27.900   0.8497   0.34656   0.34428  -0.1494  0.0085  1.0000  -0.9395   0.0000   0.0000   0.0000   0.3930
  28.000   0.8495   0.34731   0.34504  -0.1498  0.0084  1.0000  -0.9377   0.0000   0.0000   0.0000   0.3932
  28.100   0.8494   0.34805   0.34579  -0.1502  0.0083  1.0000  -0.9360   0.0000   0.0000   0.0000   0.3935
  28.200   0.8492   0.34880   0.34655  -0.1505  0.0082  1.0000  -0.9345   0.0000   0.0000   0.0000   0.3938
  28.300   0.8490   0.34955   0.34730  -0.1509  0.0080  1.0000  -0.9332   0.0000   0.0000   0.0000   0.3940
  28.400   0.8489   0.35029   0.34805  -0.1513  0.0079  1.0000  -0.9321   0.0000   0.0000   0.0000   0.3943
  28.500   0.8487   0.35103   0.34880  -0.1517  0.0078  1.0000  -0.9312   0.0000   0.0000   0.0000   0.3945
  28.600   0.8486   0.35177   0.34955  -0.1520  0.0077  1.0000  -0.9304   0.0000   0.0000   0.0000   0.3948
  28.700   0.8484   0.35251   0.35029  -0.1524  0.0076  1.0000  -0.9298   0.0000   0.0000   0.0000   0.3950
  28.800   0.8483   0.35325   0.35110  -0.1528  0.0075  1.0000  -0.9293   0.0000   0.0000   0.0000   0.3953
  28.900   0.8482   0.35399   0.35184  -0.1532  0.0074  1.0000  -0.9289   0.0000   0.0000   0.0000   0.3955
  29.000   0.8480   0.35472   0.35258  -0.1535  0.0073  1.0000  -0.9287   0.0000   0.0000   0.0000   0.3958
  29.100   0.8479   0.35546   0.35332  -0.1539  0.0072  1.0000  -0.9287   0.0000   0.0000   0.0000   0.3960
  29.200   0.8477   0.35619   0.35406  -0.1543  0.0072  1.0000  -0.9289   0.0000   0.0000   0.0000   0.3963
  29.300   0.8476   0.35691   0.35479  -0.1546  0.0071  1.0000  -0.9293   0.0000   0.0000   0.0000   0.3965
  29.400   0.8475   0.35764   0.35553  -0.1550  0.0070  1.0000  -0.9299   0.0000   0.0000   0.0000   0.3968
  29.500   0.8473   0.35836   0.35625  -0.1554  0.0069  1.0000  -0.9308   0.0000   0.0000   0.0000   0.3970
  29.600   0.8472   0.35908   0.35698  -0.1558  0.0068  1.0000  -0.9318   0.0000   0.0000   0.0000   0.3972
  29.700   0.8471   0.35979   0.35770  -0.1561  0.0068  1.0000  -0.9331   0.0000   0.0000   0.0000   0.3975
  29.800   0.8469   0.36050   0.35842  -0.1565  0.0067  1.0000  -0.9346   0.0000   0.0000   0.0000   0.3977
  29.900   0.8468   0.36121   0.35913  -0.1569  0.0066  1.0000  -0.9364   0.0000   0.0000   0.0000   0.3979
  30.000   0.8466   0.36191   0.35984  -0.1573  0.0065  1.0000  -0.9385   0.0000   0.0000   0.0000   0.3982


