xflr5 v6.61

 Calculated polar for: E387

 1 1 Reynolds number fixed          Mach number fixed         

 xtrf =   1.000 (top)        1.000 (bottom)
 Mach =   0.000     Re =     0.130 e 6     Ncrit =   9.000

  alpha     CL        CD       CDp       Cm    Top Xtr Bot Xtr   Cpmin    Chinge    XCp    
 ------- -------- --------- --------- -------- ------- ------- -------- --------- ---------
 -10.000  -0.3588   0.11981   0.11523  -0.0175  1.0000  0.0480  -1.1822   0.0000   0.0000   0.0000   0.1954
  -9.900  -0.3565   0.11861   0.11405  -0.0180  1.0000  0.0486  -1.1833   0.0000   0.0000   0.0000   0.1935
  -9.800  -0.3542   0.11742   0.11287  -0.0186  1.0000  0.0492  -1.1850   0.0000   0.0000   0.0000   0.1916
  -9.700  -0.3519   0.11625   0.11171  -0.0192  1.0000  0.0499  -1.1875   0.0000   0.0000   0.0000   0.1896
  -9.600  -0.3497   0.11508   0.11056  -0.0198  1.0000  0.0505  -1.1908   0.0000   0.0000   0.0000   0.1876
  -9.500  -0.3476   0.11394   0.10943  -0.0205  1.0000  0.0511  -1.1950   0.0000   0.0000   0.0000   0.1854
  -9.400  -0.3455   0.11283   0.10833  -0.0212  1.0000  0.0518  -1.2003   0.0000   0.0000   0.0000   0.1832
  -9.300  -0.3436   0.11177   0.10728  -0.0219  1.0000  0.0525  -1.2071   0.0000   0.0000   0.0000   0.1808
  -9.200  -0.3419   0.11076   0.10629  -0.0227  1.0000  0.0531  -1.2158   0.0000   0.0000   0.0000   0.1782
  -9.100  -0.3403   0.10985   0.10539  -0.0235  1.0000  0.0538  -1.2267   0.0000   0.0000   0.0000   0.1754
  -9.000  -0.3391   0.10905   0.10461  -0.0245  1.0000  0.0545  -1.2404   0.0000   0.0000   0.0000   0.1724
  -8.900  -0.3382   0.10838   0.10397  -0.0256  1.0000  0.0551  -1.2567   0.0000   0.0000   0.0000   0.1691
  -8.800  -0.3375   0.10785   0.10346  -0.0268  1.0000  0.0557  -1.2748   0.0000   0.0000   0.0000   0.1655
  -8.700  -0.3367   0.10738   0.10301  -0.0280  1.0000  0.0562  -1.2928   0.0000   0.0000   0.0000   0.1618
  -8.600  -0.3358   0.10689   0.10255  -0.0292  1.0000  0.0566  -1.3092   0.0000   0.0000   0.0000   0.1582
  -8.500  -0.3351   0.10634   0.10202  -0.0303  1.0000  0.0569  -1.3246   0.0000   0.0000   0.0000   0.1547
  -8.400  -0.3337   0.10567   0.10138  -0.0313  1.0000  0.0571  -1.3349   0.0000   0.0000   0.0000   0.1516
  -8.300  -0.3323   0.10491   0.10065  -0.0321  1.0000  0.0573  -1.3432   0.0000   0.0000   0.0000   0.1487
  -8.200  -0.3309   0.10408   0.09984  -0.0329  1.0000  0.0575  -1.3515   0.0000   0.0000   0.0000   0.1460
  -8.100  -0.3299   0.10319   0.09898  -0.0337  1.0000  0.0576  -1.3600   0.0000   0.0000   0.0000   0.1435
  -8.000  -0.3291   0.10227   0.09809  -0.0344  1.0000  0.0577  -1.3688   0.0000   0.0000   0.0000   0.1411
  -7.900  -0.3286   0.10133   0.09718  -0.0351  1.0000  0.0577  -1.3781   0.0000   0.0000   0.0000   0.1390
  -7.800  -0.3282   0.10038   0.09625  -0.0358  1.0000  0.0578  -1.3877   0.0000   0.0000   0.0000   0.1369
  -7.700  -0.3277   0.09936   0.09526  -0.0366  1.0000  0.0579  -1.3977   0.0000   0.0000   0.0000   0.1343
  -7.600  -0.3262   0.09822   0.09416  -0.0377  1.0000  0.0579  -1.4079   0.0000   0.0000   0.0000   0.1305
  -7.500  -0.3247   0.09705   0.09301  -0.0389  1.0000  0.0580  -1.4184   0.0000   0.0000   0.0000   0.1264
  -7.400  -0.3232   0.09587   0.09185  -0.0400  1.0000  0.0580  -1.4292   0.0000   0.0000   0.0000   0.1225
  -7.300  -0.3219   0.09468   0.09069  -0.0410  1.0000  0.0580  -1.4404   0.0000   0.0000   0.0000   0.1189
  -7.200  -0.3210   0.09353   0.08956  -0.0419  1.0000  0.0581  -1.4517   0.0000   0.0000   0.0000   0.1158
  -7.100  -0.3299   0.08890   0.08503  -0.0424  1.0000  0.0590  -1.5255   0.0000   0.0000   0.0000   0.1180
  -7.000  -0.3349   0.08593   0.08210  -0.0418  1.0000  0.0598  -1.5452   0.0000   0.0000   0.0000   0.1218
  -6.900  -0.3348   0.08406   0.08027  -0.0399  1.0000  0.0606  -1.5174   0.0000   0.0000   0.0000   0.1273
  -6.800  -0.3347   0.08279   0.07903  -0.0384  1.0000  0.0612  -1.4907   0.0000   0.0000   0.0000   0.1320
  -6.700  -0.3365   0.08188   0.07816  -0.0370  1.0000  0.0617  -1.4749   0.0000   0.0000   0.0000   0.1367
  -6.600  -0.3421   0.08139   0.07773  -0.0356  1.0000  0.0619  -1.4739   0.0000   0.0000   0.0000   0.1429
  -6.500  -0.3550   0.08163   0.07804  -0.0337  1.0000  0.0617  -1.4977   0.0000   0.0000   0.0000   0.1522
  -6.400  -0.3611   0.08128   0.07773  -0.0325  0.9992  0.0619  -1.4997   0.0000   0.0000   0.0000   0.1570
  -6.300  -0.3506   0.07953   0.07597  -0.0330  0.9969  0.0631  -1.4481   0.0000   0.0000   0.0000   0.1531
  -6.200  -0.3392   0.07778   0.07421  -0.0343  0.9940  0.0644  -1.4068   0.0000   0.0000   0.0000   0.1459
  -6.100  -0.3268   0.07598   0.07240  -0.0364  0.9908  0.0658  -1.3730   0.0000   0.0000   0.0000   0.1354
  -6.000  -0.3132   0.07408   0.07047  -0.0393  0.9878  0.0675  -1.3457   0.0000   0.0000   0.0000   0.1213
  -5.900  -0.3004   0.07220   0.06857  -0.0424  0.9834  0.0692  -1.3270   0.0000   0.0000   0.0000   0.1057
  -5.800  -0.2866   0.07023   0.06655  -0.0461  0.9790  0.0713  -1.3133   0.0000   0.0000   0.0000   0.0860
  -5.700  -0.2703   0.06809   0.06414  -0.0507  0.9753  0.0746  -1.3062   0.0000   0.0000   0.0000   0.0592
  -5.600  -0.2510   0.06572   0.06171  -0.0567  0.9723  0.0778  -1.3114   0.0000   0.0000   0.0000   0.0204
  -5.500  -0.2242   0.06469   0.06048  -0.0658  0.9643  0.0834  -1.3539   0.0000   0.0000   0.0000  -0.0473
  -5.400  -0.1993   0.06469   0.06027  -0.0713  0.9595  0.0851  -1.3553   0.0000   0.0000   0.0000  -0.1120
  -5.300  -0.1821   0.06317   0.05862  -0.0748  0.9562  0.0854  -1.3521   0.0000   0.0000   0.0000  -0.1655
  -5.200  -0.1827   0.05521   0.05068  -0.0793  0.9535  0.0886  -1.4291   0.0000   0.0000   0.0000  -0.1887
  -5.100  -0.1713   0.05299   0.04853  -0.0801  0.9517  0.0904  -1.3788   0.0000   0.0000   0.0000  -0.2228
  -5.000  -0.1634   0.05165   0.04722  -0.0802  0.9458  0.0918  -1.3410   0.0000   0.0000   0.0000  -0.2455
  -4.900  -0.1532   0.05031   0.04588  -0.0808  0.9407  0.0936  -1.3036   0.0000   0.0000   0.0000  -0.2827
  -4.800  -0.1408   0.04891   0.04447  -0.0820  0.9364  0.0957  -1.2686   0.0000   0.0000   0.0000  -0.3383
  -4.700  -0.1269   0.04746   0.04298  -0.0837  0.9326  0.0984  -1.2377   0.0000   0.0000   0.0000  -0.4156
  -4.600  -0.1118   0.04596   0.04141  -0.0857  0.9292  0.1017  -1.2130   0.0000   0.0000   0.0000  -0.5234
  -4.500  -0.0954   0.04448   0.03982  -0.0880  0.9261  0.1059  -1.1950   0.0000   0.0000   0.0000  -0.6809
  -4.400  -0.0844   0.04370   0.03892  -0.0891  0.9188  0.1106  -1.1892   0.0000   0.0000   0.0000  -0.8149
  -4.300  -0.0610   0.04712   0.04198  -0.0899  0.9119  0.1177  -1.1495   0.0000   0.0000   0.0000  -1.2364
  -4.200  -0.0625   0.04022   0.03507  -0.0928  0.9071  0.1232  -1.1983   0.0000   0.0000   0.0000  -1.2455
  -4.100  -0.0521   0.03868   0.03356  -0.0931  0.9032  0.1252  -1.1655   0.0000   0.0000   0.0000  -1.5518
  -4.000  -0.0408   0.03740   0.03226  -0.0935  0.8996  0.1272  -1.1358   0.0000   0.0000   0.0000  -2.0594
  -3.900  -0.0286   0.03618   0.03099  -0.0942  0.8963  0.1292  -1.1107   0.0000   0.0000   0.0000  -3.0649
  -3.800  -0.0191   0.03515   0.02990  -0.0943  0.8913  0.1308  -1.0934   0.0000   0.0000   0.0000  -4.7174
  -3.700   0.0057   0.02867   0.02222  -0.0957  0.8873  0.0517  -1.5021   0.0000   0.0000   0.0000  17.1482
  -3.600   0.0159   0.02679   0.02009  -0.0958  0.8824  0.0468  -1.5448   0.0000   0.0000   0.0000   6.3371
  -3.500   0.0287   0.02464   0.01740  -0.0955  0.8782  0.0402  -1.6616   0.0000   0.0000   0.0000   3.6052
  -3.400   0.0418   0.02442   0.01696  -0.0951  0.8740  0.0374  -1.6514   0.0000   0.0000   0.0000   2.5441
  -3.300   0.0543   0.02467   0.01719  -0.0948  0.8701  0.0362  -1.5845   0.0000   0.0000   0.0000   2.0103
  -3.200   0.0652   0.02325   0.01558  -0.0947  0.8667  0.0348  -1.5884   0.0000   0.0000   0.0000   1.7146
  -3.100   0.0766   0.02201   0.01414  -0.0946  0.8635  0.0338  -1.5890   0.0000   0.0000   0.0000   1.4963
  -3.000   0.0882   0.02108   0.01303  -0.0945  0.8602  0.0330  -1.5783   0.0000   0.0000   0.0000   1.3301
  -2.900   0.0981   0.02034   0.01218  -0.0942  0.8561  0.0324  -1.5637   0.0000   0.0000   0.0000   1.2180
  -2.800   0.1084   0.01968   0.01141  -0.0939  0.8518  0.0319  -1.5453   0.0000   0.0000   0.0000   1.1235
  -2.700   0.1188   0.01907   0.01071  -0.0936  0.8477  0.0314  -1.5234   0.0000   0.0000   0.0000   1.0437
  -2.600   0.1295   0.01851   0.01007  -0.0933  0.8436  0.0310  -1.4982   0.0000   0.0000   0.0000   0.9760
  -2.500   0.1402   0.01800   0.00949  -0.0930  0.8398  0.0308  -1.4696   0.0000   0.0000   0.0000   0.9181
  -2.400   0.1509   0.01755   0.00896  -0.0926  0.8362  0.0306  -1.4381   0.0000   0.0000   0.0000   0.8683
  -2.300   0.1616   0.01714   0.00849  -0.0923  0.8328  0.0306  -1.4037   0.0000   0.0000   0.0000   0.8251
  -2.200   0.1722   0.01678   0.00806  -0.0919  0.8294  0.0307  -1.3667   0.0000   0.0000   0.0000   0.7873
  -2.100   0.1829   0.01649   0.00770  -0.0916  0.8261  0.0310  -1.3275   0.0000   0.0000   0.0000   0.7539
  -2.000   0.1937   0.01629   0.00741  -0.0913  0.8225  0.0315  -1.2864   0.0000   0.0000   0.0000   0.7240
  -1.900   0.2040   0.01610   0.00716  -0.0910  0.8189  0.0322  -1.2455   0.0000   0.0000   0.0000   0.6989
  -1.800   0.2143   0.01593   0.00692  -0.0908  0.8150  0.0331  -1.2038   0.0000   0.0000   0.0000   0.6761
  -1.700   0.2247   0.01578   0.00670  -0.0906  0.8109  0.0343  -1.1610   0.0000   0.0000   0.0000   0.6552
  -1.600   0.2353   0.01565   0.00652  -0.0903  0.8069  0.0360  -1.1183   0.0000   0.0000   0.0000   0.6357
  -1.500   0.2460   0.01540   0.00622  -0.0900  0.8031  0.0432  -1.0948   0.0000   0.0000   0.0000   0.6176
  -1.400   0.2565   0.01509   0.00607  -0.0898  0.7996  0.0749  -1.0627   0.0000   0.0000   0.0000   0.6016
  -1.300   0.2655   0.01441   0.00603  -0.0898  0.7963  0.2305  -1.0232   0.0000   0.0000   0.0000   0.5894
  -1.200   0.2749   0.01403   0.00602  -0.0896  0.7933  0.3392  -0.9733   0.0000   0.0000   0.0000   0.5769
  -1.100   0.2804   0.01323   0.00614  -0.0885  0.7905  0.5745  -0.9277   0.0000   0.0000   0.0000   0.5666
  -1.000   0.2852   0.01278   0.00622  -0.0866  0.7877  0.7359  -0.8817   0.0000   0.0000   0.0000   0.5543
  -0.900   0.3107   0.01232   0.00608  -0.0883  0.7855  0.9710  -0.7736   0.0000   0.0000   0.0000   0.5349
  -0.800   0.3249   0.01241   0.00608  -0.0889  0.7825  1.0000  -0.6969   0.0000   0.0000   0.0000   0.5241
  -0.700   0.3355   0.01259   0.00619  -0.0888  0.7794  1.0000  -0.6177   0.0000   0.0000   0.0000   0.5150
  -0.600   0.3459   0.01266   0.00625  -0.0887  0.7768  1.0000  -0.5873   0.0000   0.0000   0.0000   0.5066
  -0.500   0.3562   0.01274   0.00629  -0.0887  0.7738  1.0000  -0.5935   0.0000   0.0000   0.0000   0.4990
  -0.400   0.3666   0.01283   0.00632  -0.0886  0.7707  1.0000  -0.5997   0.0000   0.0000   0.0000   0.4917
  -0.300   0.3770   0.01291   0.00636  -0.0885  0.7675  1.0000  -0.6059   0.0000   0.0000   0.0000   0.4848
  -0.200   0.3874   0.01300   0.00639  -0.0885  0.7643  1.0000  -0.6122   0.0000   0.0000   0.0000   0.4781
  -0.100   0.3979   0.01308   0.00642  -0.0884  0.7612  1.0000  -0.6186   0.0000   0.0000   0.0000   0.4718
   0.000   0.4084   0.01316   0.00645  -0.0883  0.7581  1.0000  -0.6251   0.0000   0.0000   0.0000   0.4657
   0.100   0.4189   0.01323   0.00647  -0.0882  0.7552  1.0000  -0.6316   0.0000   0.0000   0.0000   0.4599
   0.200   0.4295   0.01330   0.00649  -0.0880  0.7522  1.0000  -0.6383   0.0000   0.0000   0.0000   0.4543
   0.300   0.4401   0.01336   0.00649  -0.0878  0.7493  1.0000  -0.6451   0.0000   0.0000   0.0000   0.4489
   0.400   0.4507   0.01342   0.00650  -0.0877  0.7464  1.0000  -0.6519   0.0000   0.0000   0.0000   0.4437
   0.500   0.4613   0.01350   0.00652  -0.0874  0.7435  1.0000  -0.6588   0.0000   0.0000   0.0000   0.4387
   0.600   0.4718   0.01363   0.00658  -0.0872  0.7404  1.0000  -0.6661   0.0000   0.0000   0.0000   0.4339
   0.700   0.4821   0.01385   0.00675  -0.0871  0.7370  1.0000  -0.6736   0.0000   0.0000   0.0000   0.4295
   0.800   0.4924   0.01401   0.00688  -0.0870  0.7341  1.0000  -0.6808   0.0000   0.0000   0.0000   0.4255
   0.900   0.5027   0.01408   0.00695  -0.0870  0.7316  1.0000  -0.6880   0.0000   0.0000   0.0000   0.4217
   1.000   0.5131   0.01418   0.00703  -0.0869  0.7289  1.0000  -0.6953   0.0000   0.0000   0.0000   0.4181
   1.100   0.5234   0.01428   0.00713  -0.0869  0.7262  1.0000  -0.7025   0.0000   0.0000   0.0000   0.4146
   1.200   0.5338   0.01439   0.00723  -0.0869  0.7233  1.0000  -0.7097   0.0000   0.0000   0.0000   0.4113
   1.300   0.5442   0.01450   0.00732  -0.0868  0.7204  1.0000  -0.7174   0.0000   0.0000   0.0000   0.4080
   1.400   0.5547   0.01461   0.00742  -0.0868  0.7175  1.0000  -0.7259   0.0000   0.0000   0.0000   0.4048
   1.500   0.5651   0.01471   0.00750  -0.0867  0.7147  1.0000  -0.7345   0.0000   0.0000   0.0000   0.4017
   1.600   0.5757   0.01480   0.00758  -0.0866  0.7119  1.0000  -0.7432   0.0000   0.0000   0.0000   0.3987
   1.700   0.5863   0.01490   0.00766  -0.0865  0.7092  1.0000  -0.7520   0.0000   0.0000   0.0000   0.3957
   1.800   0.5969   0.01498   0.00773  -0.0864  0.7066  1.0000  -0.7613   0.0000   0.0000   0.0000   0.3928
   1.900   0.6076   0.01507   0.00779  -0.0863  0.7041  1.0000  -0.7715   0.0000   0.0000   0.0000   0.3900
   2.000   0.6183   0.01516   0.00786  -0.0862  0.7017  1.0000  -0.7818   0.0000   0.0000   0.0000   0.3873
   2.100   0.6290   0.01526   0.00794  -0.0861  0.6992  1.0000  -0.7929   0.0000   0.0000   0.0000   0.3846
   2.200   0.6397   0.01537   0.00803  -0.0859  0.6967  1.0000  -0.8047   0.0000   0.0000   0.0000   0.3820
   2.300   0.6502   0.01555   0.00817  -0.0858  0.6938  1.0000  -0.8164   0.0000   0.0000   0.0000   0.3795
   2.400   0.6600   0.01590   0.00850  -0.0856  0.6902  1.0000  -0.8274   0.0000   0.0000   0.0000   0.3772
   2.500   0.6700   0.01608   0.00869  -0.0855  0.6876  1.0000  -0.8395   0.0000   0.0000   0.0000   0.3751
   2.600   0.6803   0.01614   0.00878  -0.0855  0.6851  1.0000  -0.8526   0.0000   0.0000   0.0000   0.3730
   2.700   0.6905   0.01624   0.00889  -0.0854  0.6824  1.0000  -0.8657   0.0000   0.0000   0.0000   0.3710
   2.800   0.7007   0.01635   0.00903  -0.0854  0.6795  1.0000  -0.8787   0.0000   0.0000   0.0000   0.3690
   2.900   0.7108   0.01649   0.00917  -0.0853  0.6767  1.0000  -0.8940   0.0000   0.0000   0.0000   0.3671
   3.000   0.7211   0.01658   0.00936  -0.0852  0.6738  1.0000  -0.9095   0.0000   0.0000   0.0000   0.3652
   3.100   0.7314   0.01668   0.00946  -0.0851  0.6707  1.0000  -0.9251   0.0000   0.0000   0.0000   0.3633
   3.200   0.7417   0.01677   0.00955  -0.0850  0.6675  1.0000  -0.9426   0.0000   0.0000   0.0000   0.3614
   3.300   0.7522   0.01683   0.00961  -0.0848  0.6643  1.0000  -0.9616   0.0000   0.0000   0.0000   0.3595
   3.400   0.7628   0.01688   0.00965  -0.0847  0.6612  1.0000  -0.9808   0.0000   0.0000   0.0000   0.3576
   3.500   0.7735   0.01692   0.00969  -0.0845  0.6582  1.0000  -1.0004   0.0000   0.0000   0.0000   0.3558
   3.600   0.7843   0.01696   0.00971  -0.0843  0.6553  1.0000  -1.0202   0.0000   0.0000   0.0000   0.3539
   3.700   0.7951   0.01700   0.00974  -0.0841  0.6524  1.0000  -1.0410   0.0000   0.0000   0.0000   0.3521
   3.800   0.8060   0.01708   0.00980  -0.0839  0.6496  1.0000  -1.0653   0.0000   0.0000   0.0000   0.3504
   3.900   0.8165   0.01723   0.00993  -0.0837  0.6465  1.0000  -1.0894   0.0000   0.0000   0.0000   0.3487
   4.000   0.8262   0.01764   0.01032  -0.0835  0.6423  1.0000  -1.1152   0.0000   0.0000   0.0000   0.3471
   4.100   0.8359   0.01779   0.01051  -0.0834  0.6394  1.0000  -1.1428   0.0000   0.0000   0.0000   0.3457
   4.200   0.8460   0.01781   0.01057  -0.0832  0.6364  1.0000  -1.1711   0.0000   0.0000   0.0000   0.3443
   4.300   0.8559   0.01787   0.01067  -0.0831  0.6330  1.0000  -1.1993   0.0000   0.0000   0.0000   0.3429
   4.400   0.8658   0.01794   0.01078  -0.0829  0.6293  1.0000  -1.2276   0.0000   0.0000   0.0000   0.3415
   4.500   0.8758   0.01799   0.01087  -0.0827  0.6253  1.0000  -1.2564   0.0000   0.0000   0.0000   0.3401
   4.600   0.8861   0.01802   0.01092  -0.0825  0.6212  1.0000  -1.2958   0.0000   0.0000   0.0000   0.3386
   4.700   0.8965   0.01802   0.01093  -0.0823  0.6172  1.0000  -1.3512   0.0000   0.0000   0.0000   0.3372
   4.800   0.9072   0.01801   0.01093  -0.0820  0.6135  1.0000  -1.4082   0.0000   0.0000   0.0000   0.3357
   4.900   0.9182   0.01793   0.01085  -0.0818  0.6095  1.0000  -1.4677   0.0000   0.0000   0.0000   0.3342
   5.000   0.9299   0.01762   0.01049  -0.0812  0.6038  1.0000  -1.5482   0.0000   0.0000   0.0000   0.3324
   5.100   0.9414   0.01740   0.01015  -0.0806  0.5955  1.0000  -1.6496   0.0000   0.0000   0.0000   0.3305
   5.200   0.9508   0.01715   0.00991  -0.0799  0.5869  1.0000  -1.7406   0.0000   0.0000   0.0000   0.3288
   5.300   0.9604   0.01666   0.00943  -0.0791  0.5756  1.0000  -1.8357   0.0000   0.0000   0.0000   0.3271
   5.400   0.9710   0.01606   0.00875  -0.0782  0.5623  1.0000  -1.9386   0.0000   0.0000   0.0000   0.3251
   5.500   0.9819   0.01561   0.00809  -0.0774  0.5484  1.0000  -2.0448   0.0000   0.0000   0.0000   0.3232
   5.600   0.9911   0.01546   0.00793  -0.0768  0.5370  1.0000  -2.1395   0.0000   0.0000   0.0000   0.3218
   5.700   1.0005   0.01536   0.00788  -0.0764  0.5268  1.0000  -2.2340   0.0000   0.0000   0.0000   0.3205
   5.800   1.0104   0.01533   0.00788  -0.0761  0.5191  1.0000  -2.3311   0.0000   0.0000   0.0000   0.3193
   5.900   1.0204   0.01529   0.00782  -0.0757  0.5108  1.0000  -2.4299   0.0000   0.0000   0.0000   0.3181
   6.000   1.0304   0.01527   0.00773  -0.0753  0.5021  1.0000  -2.5290   0.0000   0.0000   0.0000   0.3169
   6.100   1.0402   0.01531   0.00772  -0.0750  0.4934  1.0000  -2.6264   0.0000   0.0000   0.0000   0.3157
   6.200   1.0497   0.01534   0.00786  -0.0747  0.4842  1.0000  -2.7206   0.0000   0.0000   0.0000   0.3147
   6.300   1.0591   0.01536   0.00791  -0.0743  0.4723  1.0000  -2.8140   0.0000   0.0000   0.0000   0.3136
   6.400   1.0682   0.01539   0.00790  -0.0738  0.4589  1.0000  -2.9054   0.0000   0.0000   0.0000   0.3124
   6.500   1.0768   0.01547   0.00789  -0.0733  0.4432  1.0000  -2.9919   0.0000   0.0000   0.0000   0.3112
   6.600   1.0828   0.01561   0.00784  -0.0723  0.4037  1.0000  -3.0656   0.0000   0.0000   0.0000   0.3098
   6.700   1.0870   0.01601   0.00791  -0.0712  0.3523  1.0000  -3.1279   0.0000   0.0000   0.0000   0.3083
   6.800   1.1096   0.01601   0.00958  -0.0734  0.4539  1.0000  -3.5073   0.0000   0.0000   0.0000   0.3090
   6.900   1.1189   0.01612   0.00973  -0.0730  0.4449  1.0000  -3.6281   0.0000   0.0000   0.0000   0.3079
   7.000   1.1280   0.01622   0.00995  -0.0727  0.4328  1.0000  -3.7413   0.0000   0.0000   0.0000   0.3070
   7.100   1.1362   0.01632   0.01004  -0.0721  0.4148  1.0000  -3.8477   0.0000   0.0000   0.0000   0.3059
   7.200   1.1436   0.01648   0.01011  -0.0714  0.3932  1.0000  -3.9457   0.0000   0.0000   0.0000   0.3047
   7.300   1.1483   0.01680   0.01019  -0.0704  0.3547  1.0000  -4.0255   0.0000   0.0000   0.0000   0.3034
   7.400   1.1502   0.01741   0.01044  -0.0691  0.2987  1.0000  -4.0839   0.0000   0.0000   0.0000   0.3021
   7.500   1.1511   0.01822   0.01089  -0.0679  0.2478  1.0000  -4.1236   0.0000   0.0000   0.0000   0.3008
   7.600   1.1494   0.01933   0.01157  -0.0664  0.1924  1.0000  -4.1337   0.0000   0.0000   0.0000   0.2995
   7.700   1.1436   0.02089   0.01255  -0.0646  0.1194  1.0000  -4.0942   0.0000   0.0000   0.0000   0.2981
   7.800   1.1333   0.02295   0.01392  -0.0621  0.0511  1.0000  -3.9829   0.0000   0.0000   0.0000   0.2963
   7.900   1.1328   0.02407   0.01501  -0.0604  0.0388  1.0000  -3.9154   0.0000   0.0000   0.0000   0.2947
   8.000   1.1356   0.02480   0.01579  -0.0592  0.0352  1.0000  -3.9196   0.0000   0.0000   0.0000   0.2934
   8.100   1.1381   0.02553   0.01657  -0.0581  0.0330  1.0000  -3.9323   0.0000   0.0000   0.0000   0.2922
   8.200   1.1397   0.02630   0.01740  -0.0569  0.0314  1.0000  -3.9438   0.0000   0.0000   0.0000   0.2909
   8.300   1.1406   0.02711   0.01828  -0.0556  0.0303  1.0000  -3.9529   0.0000   0.0000   0.0000   0.2896
   8.400   1.1403   0.02792   0.01917  -0.0542  0.0295  1.0000  -3.9603   0.0000   0.0000   0.0000   0.2882
   8.500   1.1397   0.02875   0.02007  -0.0527  0.0289  1.0000  -3.9670   0.0000   0.0000   0.0000   0.2868
   8.600   1.1393   0.02964   0.02103  -0.0513  0.0284  1.0000  -3.9737   0.0000   0.0000   0.0000   0.2855
   8.700   1.1397   0.03059   0.02204  -0.0500  0.0280  1.0000  -3.9818   0.0000   0.0000   0.0000   0.2842
   8.800   1.1413   0.03161   0.02311  -0.0488  0.0277  1.0000  -3.9917   0.0000   0.0000   0.0000   0.2830
   8.900   1.1450   0.03270   0.02426  -0.0479  0.0274  1.0000  -4.0053   0.0000   0.0000   0.0000   0.2819
   9.000   1.1513   0.03380   0.02537  -0.0472  0.0273  1.0000  -4.0293   0.0000   0.0000   0.0000   0.2809
   9.100   1.1593   0.03479   0.02642  -0.0467  0.0272  1.0000  -4.0661   0.0000   0.0000   0.0000   0.2801
   9.200   1.1690   0.03592   0.02762  -0.0464  0.0272  1.0000  -4.1046   0.0000   0.0000   0.0000   0.2794
   9.300   1.1803   0.03724   0.02902  -0.0463  0.0271  1.0000  -4.1429   0.0000   0.0000   0.0000   0.2788
   9.400   1.1928   0.03882   0.03070  -0.0464  0.0272  1.0000  -4.1782   0.0000   0.0000   0.0000   0.2783
   9.600   1.2129   0.04175   0.03389  -0.0462  0.0274  1.0000  -4.2468   0.0000   0.0000   0.0000   0.2772
   9.700   1.2203   0.04276   0.03499  -0.0457  0.0276  1.0000  -4.2899   0.0000   0.0000   0.0000   0.2765
   9.800   1.2272   0.04371   0.03603  -0.0452  0.0278  1.0000  -4.3335   0.0000   0.0000   0.0000   0.2758
   9.900   1.2337   0.04461   0.03703  -0.0447  0.0280  1.0000  -4.3772   0.0000   0.0000   0.0000   0.2750
  10.000   1.2398   0.04549   0.03800  -0.0441  0.0283  1.0000  -4.4202   0.0000   0.0000   0.0000   0.2742
  10.100   1.2453   0.04634   0.03895  -0.0435  0.0286  1.0000  -4.4612   0.0000   0.0000   0.0000   0.2734
  10.200   1.2502   0.04719   0.03990  -0.0428  0.0289  1.0000  -4.4986   0.0000   0.0000   0.0000   0.2726
  10.300   1.2544   0.04807   0.04088  -0.0420  0.0292  1.0000  -4.5307   0.0000   0.0000   0.0000   0.2717
  10.400   1.2578   0.04900   0.04194  -0.0412  0.0296  1.0000  -4.5550   0.0000   0.0000   0.0000   0.2708
  10.500   1.2601   0.05004   0.04313  -0.0402  0.0301  1.0000  -4.5680   0.0000   0.0000   0.0000   0.2699
  10.600   1.2611   0.05125   0.04451  -0.0391  0.0307  1.0000  -4.5659   0.0000   0.0000   0.0000   0.2689
  10.700   1.2606   0.05269   0.04616  -0.0380  0.0313  1.0000  -4.5467   0.0000   0.0000   0.0000   0.2679
  10.800   1.2586   0.05436   0.04803  -0.0369  0.0321  1.0000  -4.5142   0.0000   0.0000   0.0000   0.2669
  10.900   1.2554   0.05616   0.05001  -0.0358  0.0328  1.0000  -4.4766   0.0000   0.0000   0.0000   0.2660
  11.000   1.2505   0.05797   0.05201  -0.0347  0.0335  1.0000  -4.4363   0.0000   0.0000   0.0000   0.2651
  11.100   1.2441   0.05975   0.05395  -0.0337  0.0341  1.0000  -4.3966   0.0000   0.0000   0.0000   0.2643
  11.200   1.2373   0.06151   0.05585  -0.0329  0.0346  1.0000  -4.3603   0.0000   0.0000   0.0000   0.2637
  11.300   1.2300   0.06326   0.05775  -0.0321  0.0351  1.0000  -4.3266   0.0000   0.0000   0.0000   0.2631
  11.400   1.2225   0.06506   0.05967  -0.0316  0.0355  1.0000  -4.2943   0.0000   0.0000   0.0000   0.2627
  11.500   1.2148   0.06690   0.06163  -0.0312  0.0359  1.0000  -4.2628   0.0000   0.0000   0.0000   0.2624
  11.600   1.2069   0.06878   0.06362  -0.0310  0.0362  1.0000  -4.2321   0.0000   0.0000   0.0000   0.2623
  11.700   1.1988   0.07072   0.06567  -0.0309  0.0365  1.0000  -4.2015   0.0000   0.0000   0.0000   0.2622
  11.800   1.1905   0.07270   0.06775  -0.0310  0.0368  1.0000  -4.1711   0.0000   0.0000   0.0000   0.2623
  11.900   1.1820   0.07471   0.06985  -0.0312  0.0371  1.0000  -4.1406   0.0000   0.0000   0.0000   0.2626
  12.000   1.1732   0.07676   0.07198  -0.0315  0.0373  1.0000  -4.1100   0.0000   0.0000   0.0000   0.2629
  12.100   1.1644   0.07889   0.07420  -0.0320  0.0375  1.0000  -4.0785   0.0000   0.0000   0.0000   0.2634
  12.200   1.1555   0.08112   0.07652  -0.0327  0.0377  1.0000  -4.0458   0.0000   0.0000   0.0000   0.2640
  12.300   1.1464   0.08344   0.07892  -0.0335  0.0378  1.0000  -4.0123   0.0000   0.0000   0.0000   0.2648
  12.400   1.1374   0.08586   0.08141  -0.0344  0.0380  1.0000  -3.9771   0.0000   0.0000   0.0000   0.2657
  12.500   1.1281   0.08836   0.08399  -0.0355  0.0381  1.0000  -3.9407   0.0000   0.0000   0.0000   0.2668
  12.600   1.1189   0.09097   0.08666  -0.0368  0.0382  1.0000  -3.9024   0.0000   0.0000   0.0000   0.2681
  12.700   1.1096   0.09367   0.08943  -0.0382  0.0383  1.0000  -3.8620   0.0000   0.0000   0.0000   0.2695
  12.800   1.1001   0.09647   0.09230  -0.0398  0.0383  1.0000  -3.8194   0.0000   0.0000   0.0000   0.2711
  12.900   1.0907   0.09939   0.09528  -0.0415  0.0384  1.0000  -3.7739   0.0000   0.0000   0.0000   0.2729
  13.000   1.0810   0.10244   0.09838  -0.0435  0.0384  1.0000  -3.7253   0.0000   0.0000   0.0000   0.2749
  13.100   1.0714   0.10562   0.10162  -0.0455  0.0385  1.0000  -3.6728   0.0000   0.0000   0.0000   0.2771
  13.200   1.0615   0.10898   0.10503  -0.0478  0.0385  1.0000  -3.6155   0.0000   0.0000   0.0000   0.2795
  13.300   1.0517   0.11253   0.10862  -0.0503  0.0385  1.0000  -3.5525   0.0000   0.0000   0.0000   0.2822
  13.400   1.0416   0.11635   0.11248  -0.0530  0.0386  1.0000  -3.4819   0.0000   0.0000   0.0000   0.2852
  13.500   1.0317   0.12044   0.11661  -0.0558  0.0386  1.0000  -3.4025   0.0000   0.0000   0.0000   0.2884
  13.600   1.0217   0.12486   0.12105  -0.0589  0.0387  1.0000  -3.3121   0.0000   0.0000   0.0000   0.2920
  13.700   1.0120   0.12946   0.12566  -0.0621  0.0390  1.0000  -3.2113   0.0000   0.0000   0.0000   0.2956
  13.800   1.0032   0.13422   0.13042  -0.0652  0.0394  1.0000  -3.1026   0.0000   0.0000   0.0000   0.2993
  13.900   0.9957   0.13895   0.13514  -0.0680  0.0400  1.0000  -2.9935   0.0000   0.0000   0.0000   0.3026
  14.000   0.9900   0.14311   0.13928  -0.0702  0.0407  1.0000  -2.9029   0.0000   0.0000   0.0000   0.3053
  14.100   0.9855   0.14673   0.14289  -0.0721  0.0415  1.0000  -2.8307   0.0000   0.0000   0.0000   0.3074
  14.200   0.9816   0.15004   0.14618  -0.0735  0.0424  1.0000  -2.7705   0.0000   0.0000   0.0000   0.3092
  14.300   0.9639   0.16359   0.15968  -0.0811  0.0578  1.0000  -2.2635   0.0000   0.0000   0.0000   0.3191
  14.500   0.9533   0.17453   0.17059  -0.0871  0.0771  1.0000  -1.9644   0.0000   0.0000   0.0000   0.3264
  14.600   0.9532   0.17686   0.17291  -0.0882  0.0771  1.0000  -1.9434   0.0000   0.0000   0.0000   0.3275
  14.700   0.9534   0.17910   0.17515  -0.0892  0.0770  1.0000  -1.9255   0.0000   0.0000   0.0000   0.3285
  14.800   0.9538   0.18128   0.17732  -0.0902  0.0768  1.0000  -1.9104   0.0000   0.0000   0.0000   0.3294
  14.900   0.9544   0.18341   0.17945  -0.0912  0.0765  1.0000  -1.8976   0.0000   0.0000   0.0000   0.3302
  15.000   0.9552   0.18550   0.18154  -0.0921  0.0761  1.0000  -1.8870   0.0000   0.0000   0.0000   0.3310
  15.100   0.9562   0.18755   0.18359  -0.0929  0.0756  1.0000  -1.8786   0.0000   0.0000   0.0000   0.3316
  15.200   0.9574   0.18956   0.18559  -0.0937  0.0751  1.0000  -1.8724   0.0000   0.0000   0.0000   0.3322
  15.300   0.9588   0.19153   0.18756  -0.0945  0.0746  1.0000  -1.8686   0.0000   0.0000   0.0000   0.3327
  15.400   0.9605   0.19346   0.18950  -0.0951  0.0740  1.0000  -1.8674   0.0000   0.0000   0.0000   0.3331
  15.500   0.9624   0.19535   0.19139  -0.0957  0.0734  1.0000  -1.8691   0.0000   0.0000   0.0000   0.3334
  15.600   0.9646   0.19720   0.19325  -0.0963  0.0728  1.0000  -1.8740   0.0000   0.0000   0.0000   0.3336
  15.700   0.9671   0.19903   0.19508  -0.0967  0.0722  1.0000  -1.8825   0.0000   0.0000   0.0000   0.3336
  15.800   0.9700   0.20082   0.19688  -0.0970  0.0716  1.0000  -1.8950   0.0000   0.0000   0.0000   0.3335
  15.900   0.9732   0.20259   0.19866  -0.0972  0.0709  1.0000  -1.9114   0.0000   0.0000   0.0000   0.3332
  16.000   0.9768   0.20436   0.20044  -0.0972  0.0703  1.0000  -1.9328   0.0000   0.0000   0.0000   0.3327
  16.100   0.9808   0.20619   0.20228  -0.0971  0.0696  1.0000  -1.9580   0.0000   0.0000   0.0000   0.3321
  16.200   0.9849   0.20814   0.20425  -0.0969  0.0690  1.0000  -1.9865   0.0000   0.0000   0.0000   0.3313
  16.300   0.9897   0.21047   0.20659  -0.0964  0.0683  1.0000  -2.0214   0.0000   0.0000   0.0000   0.3301
  16.400   0.9815   0.21992   0.21598  -0.0972  0.0662  1.0000  -1.9434   0.0000   0.0000   0.0000   0.3318
  16.500   0.9823   0.22219   0.21825  -0.0982  0.0662  1.0000  -1.9288   0.0000   0.0000   0.0000   0.3326
  16.600   0.9831   0.22443   0.22049  -0.0993  0.0661  1.0000  -1.9146   0.0000   0.0000   0.0000   0.3335
  16.700   0.9838   0.22662   0.22268  -0.1003  0.0661  1.0000  -1.9005   0.0000   0.0000   0.0000   0.3343
  16.800   0.9846   0.22878   0.22484  -0.1013  0.0660  1.0000  -1.8866   0.0000   0.0000   0.0000   0.3352
  16.900   0.9854   0.23088   0.22694  -0.1024  0.0659  1.0000  -1.8729   0.0000   0.0000   0.0000   0.3360
  17.000   0.9862   0.23291   0.22897  -0.1034  0.0658  1.0000  -1.8592   0.0000   0.0000   0.0000   0.3369
  17.100   0.9870   0.23486   0.23092  -0.1045  0.0657  1.0000  -1.8454   0.0000   0.0000   0.0000   0.3378
  17.200   0.9877   0.23669   0.23275  -0.1056  0.0655  1.0000  -1.8313   0.0000   0.0000   0.0000   0.3387
  17.300   0.9884   0.23835   0.23441  -0.1068  0.0653  1.0000  -1.8164   0.0000   0.0000   0.0000   0.3397
  17.400   0.9880   0.23977   0.23581  -0.1083  0.0648  1.0000  -1.7925   0.0000   0.0000   0.0000   0.3411
  17.500   0.9864   0.24094   0.23697  -0.1102  0.0641  1.0000  -1.7568   0.0000   0.0000   0.0000   0.3432
  17.600   0.9838   0.24220   0.23822  -0.1123  0.0631  1.0000  -1.7143   0.0000   0.0000   0.0000   0.3454
  17.700   0.9826   0.24392   0.23993  -0.1140  0.0619  1.0000  -1.6823   0.0000   0.0000   0.0000   0.3472
  17.800   0.9825   0.24591   0.24192  -0.1153  0.0608  1.0000  -1.6614   0.0000   0.0000   0.0000   0.3484
  17.900   0.9829   0.24801   0.24402  -0.1163  0.0597  1.0000  -1.6468   0.0000   0.0000   0.0000   0.3493
  18.000   0.9836   0.25014   0.24615  -0.1173  0.0587  1.0000  -1.6362   0.0000   0.0000   0.0000   0.3500
  18.100   0.9844   0.25228   0.24830  -0.1181  0.0578  1.0000  -1.6282   0.0000   0.0000   0.0000   0.3506
  18.200   0.9854   0.25441   0.25043  -0.1189  0.0569  1.0000  -1.6221   0.0000   0.0000   0.0000   0.3512
  18.300   0.9864   0.25654   0.25257  -0.1196  0.0561  1.0000  -1.6176   0.0000   0.0000   0.0000   0.3517
  18.400   0.9874   0.25865   0.25469  -0.1203  0.0553  1.0000  -1.6146   0.0000   0.0000   0.0000   0.3521
  18.500   0.9884   0.26076   0.25679  -0.1210  0.0545  1.0000  -1.6129   0.0000   0.0000   0.0000   0.3525
  18.600   0.9895   0.26284   0.25889  -0.1216  0.0537  1.0000  -1.6125   0.0000   0.0000   0.0000   0.3528
  18.700   0.9906   0.26491   0.26096  -0.1222  0.0530  1.0000  -1.6135   0.0000   0.0000   0.0000   0.3531
  18.800   0.9918   0.26696   0.26302  -0.1228  0.0523  1.0000  -1.6159   0.0000   0.0000   0.0000   0.3534
  18.900   0.9930   0.26900   0.26506  -0.1233  0.0517  1.0000  -1.6198   0.0000   0.0000   0.0000   0.3536
  19.000   0.9942   0.27101   0.26709  -0.1237  0.0510  1.0000  -1.6255   0.0000   0.0000   0.0000   0.3537
  19.100   0.9955   0.27301   0.26910  -0.1241  0.0504  1.0000  -1.6331   0.0000   0.0000   0.0000   0.3538
  19.200   0.9969   0.27499   0.27109  -0.1245  0.0498  1.0000  -1.6428   0.0000   0.0000   0.0000   0.3538
  19.300   0.9984   0.27697   0.27308  -0.1248  0.0492  1.0000  -1.6552   0.0000   0.0000   0.0000   0.3538
  19.400   1.0000   0.27895   0.27507  -0.1250  0.0487  1.0000  -1.6706   0.0000   0.0000   0.0000   0.3536
  19.500   1.0020   0.28095   0.27708  -0.1251  0.0481  1.0000  -1.6899   0.0000   0.0000   0.0000   0.3533
  19.600   1.0044   0.28301   0.27916  -0.1250  0.0476  1.0000  -1.7147   0.0000   0.0000   0.0000   0.3527
  19.700   1.0075   0.28524   0.28141  -0.1247  0.0471  1.0000  -1.7474   0.0000   0.0000   0.0000   0.3519
  19.800   1.0125   0.28796   0.28415  -0.1240  0.0465  1.0000  -1.7945   0.0000   0.0000   0.0000   0.3504
  19.900   1.0167   0.29166   0.28799  -0.1233  0.0458  1.0000  -1.8282   0.0000   0.0000   0.0000   0.3490
  20.000   1.0099   0.30058   0.29686  -0.1237  0.0447  1.0000  -1.7481   0.0000   0.0000   0.0000   0.3502
  20.100   1.0093   0.30271   0.29899  -0.1243  0.0447  1.0000  -1.7349   0.0000   0.0000   0.0000   0.3508
  20.200   1.0086   0.30479   0.30108  -0.1250  0.0447  1.0000  -1.7216   0.0000   0.0000   0.0000   0.3514
  20.300   1.0077   0.30682   0.30313  -0.1256  0.0446  1.0000  -1.7082   0.0000   0.0000   0.0000   0.3520
  20.400   1.0066   0.30881   0.30512  -0.1262  0.0446  1.0000  -1.6944   0.0000   0.0000   0.0000   0.3526
  20.500   1.0052   0.31071   0.30703  -0.1267  0.0446  1.0000  -1.6802   0.0000   0.0000   0.0000   0.3532
  20.600   1.0035   0.31254   0.30887  -0.1273  0.0445  1.0000  -1.6654   0.0000   0.0000   0.0000   0.3538
  20.700   1.0014   0.31426   0.31060  -0.1277  0.0445  1.0000  -1.6499   0.0000   0.0000   0.0000   0.3544
  20.800   0.9989   0.31585   0.31221  -0.1282  0.0444  1.0000  -1.6334   0.0000   0.0000   0.0000   0.3551
  20.900   0.9957   0.31726   0.31363  -0.1285  0.0444  1.0000  -1.6155   0.0000   0.0000   0.0000   0.3558
  21.000   0.9915   0.31836   0.31474  -0.1288  0.0443  1.0000  -1.5951   0.0000   0.0000   0.0000   0.3565
  21.100   0.9591   0.31310   0.30957  -0.1255  0.0443  1.0000  -1.5141   0.0000   0.0000   0.0000   0.3578
  21.200   0.9448   0.31090   0.30742  -0.1245  0.0443  1.0000  -1.4722   0.0000   0.0000   0.0000   0.3587
  21.300   0.9348   0.30954   0.30608  -0.1242  0.0442  1.0000  -1.4370   0.0000   0.0000   0.0000   0.3598
  21.400   0.9260   0.30834   0.30491  -0.1241  0.0441  1.0000  -1.4025   0.0000   0.0000   0.0000   0.3609
  21.500   0.9175   0.30709   0.30367  -0.1242  0.0439  1.0000  -1.3659   0.0000   0.0000   0.0000   0.3623
  21.600   0.9097   0.30591   0.30250  -0.1246  0.0437  1.0000  -1.3286   0.0000   0.0000   0.0000   0.3638
  21.700   0.9030   0.30490   0.30151  -0.1252  0.0434  1.0000  -1.2900   0.0000   0.0000   0.0000   0.3654
  21.800   0.8977   0.30427   0.30089  -0.1262  0.0427  1.0000  -1.2493   0.0000   0.0000   0.0000   0.3672
  21.900   0.8944   0.30438   0.30100  -0.1273  0.0414  1.0000  -1.2116   0.0000   0.0000   0.0000   0.3689
  22.000   0.8923   0.30494   0.30157  -0.1280  0.0394  1.0000  -1.1890   0.0000   0.0000   0.0000   0.3700
  22.100   0.8904   0.30542   0.30207  -0.1284  0.0370  1.0000  -1.1818   0.0000   0.0000   0.0000   0.3706
  22.200   0.8888   0.30572   0.30238  -0.1286  0.0346  1.0000  -1.1895   0.0000   0.0000   0.0000   0.3709
  22.300   0.8879   0.30579   0.30247  -0.1285  0.0324  1.0000  -1.2158   0.0000   0.0000   0.0000   0.3708
  22.400   0.8877   0.30568   0.30238  -0.1282  0.0307  1.0000  -1.2600   0.0000   0.0000   0.0000   0.3703
  22.500   0.8871   0.30582   0.30255  -0.1279  0.0298  1.0000  -1.2910   0.0000   0.0000   0.0000   0.3698
  22.600   0.8873   0.30613   0.30287  -0.1272  0.0291  1.0000  -1.3355   0.0000   0.0000   0.0000   0.3689
  22.700   0.8884   0.31222   0.30895  -0.1248  0.0273  1.0000  -1.3761   0.0000   0.0000   0.0000   0.3660
  22.800   0.8861   0.31265   0.30940  -0.1252  0.0273  1.0000  -1.3598   0.0000   0.0000   0.0000   0.3666
  22.900   0.8838   0.31308   0.30983  -0.1255  0.0272  1.0000  -1.3437   0.0000   0.0000   0.0000   0.3672
  23.000   0.8816   0.31349   0.31025  -0.1258  0.0272  1.0000  -1.3279   0.0000   0.0000   0.0000   0.3678
  23.100   0.8795   0.31391   0.31068  -0.1262  0.0272  1.0000  -1.3123   0.0000   0.0000   0.0000   0.3685
  23.200   0.8775   0.31433   0.31111  -0.1265  0.0271  1.0000  -1.2972   0.0000   0.0000   0.0000   0.3691
  23.300   0.8756   0.31472   0.31150  -0.1269  0.0271  1.0000  -1.2820   0.0000   0.0000   0.0000   0.3697
  23.400   0.8737   0.31510   0.31189  -0.1273  0.0270  1.0000  -1.2671   0.0000   0.0000   0.0000   0.3703
  23.500   0.8718   0.31545   0.31226  -0.1277  0.0270  1.0000  -1.2522   0.0000   0.0000   0.0000   0.3710
  23.600   0.8699   0.31576   0.31257  -0.1281  0.0269  1.0000  -1.2364   0.0000   0.0000   0.0000   0.3717
  23.700   0.8675   0.31591   0.31273  -0.1286  0.0268  1.0000  -1.2158   0.0000   0.0000   0.0000   0.3726
  23.800   0.8651   0.31608   0.31291  -0.1292  0.0267  1.0000  -1.1949   0.0000   0.0000   0.0000   0.3735
  23.900   0.8630   0.31628   0.31312  -0.1297  0.0266  1.0000  -1.1738   0.0000   0.0000   0.0000   0.3744
  24.000   0.8610   0.31653   0.31337  -0.1304  0.0265  1.0000  -1.1522   0.0000   0.0000   0.0000   0.3754
  24.100   0.8593   0.31686   0.31370  -0.1311  0.0263  1.0000  -1.1298   0.0000   0.0000   0.0000   0.3764
  24.200   0.8580   0.31732   0.31417  -0.1319  0.0260  1.0000  -1.1060   0.0000   0.0000   0.0000   0.3774
  24.300   0.8572   0.31799   0.31485  -0.1327  0.0255  1.0000  -1.0818   0.0000   0.0000   0.0000   0.3784
  24.400   0.8567   0.31884   0.31570  -0.1335  0.0249  1.0000  -1.0604   0.0000   0.0000   0.0000   0.3792
  24.500   0.8563   0.31971   0.31658  -0.1341  0.0242  1.0000  -1.0445   0.0000   0.0000   0.0000   0.3798
  24.600   0.8559   0.32055   0.31742  -0.1345  0.0236  1.0000  -1.0329   0.0000   0.0000   0.0000   0.3803
  24.700   0.8553   0.32134   0.31823  -0.1350  0.0230  1.0000  -1.0240   0.0000   0.0000   0.0000   0.3808
  24.800   0.8548   0.32211   0.31900  -0.1353  0.0224  1.0000  -1.0169   0.0000   0.0000   0.0000   0.3812
  24.900   0.8543   0.32286   0.31976  -0.1357  0.0219  1.0000  -1.0110   0.0000   0.0000   0.0000   0.3816
  25.000   0.8537   0.32359   0.32051  -0.1361  0.0214  1.0000  -1.0060   0.0000   0.0000   0.0000   0.3819
  25.100   0.8532   0.32432   0.32124  -0.1364  0.0209  1.0000  -1.0017   0.0000   0.0000   0.0000   0.3823
  25.200   0.8528   0.32503   0.32197  -0.1367  0.0205  1.0000  -0.9981   0.0000   0.0000   0.0000   0.3826
  25.300   0.8523   0.32575   0.32269  -0.1371  0.0201  1.0000  -0.9950   0.0000   0.0000   0.0000   0.3829
  25.400   0.8518   0.32645   0.32340  -0.1374  0.0197  1.0000  -0.9924   0.0000   0.0000   0.0000   0.3832
  25.500   0.8514   0.32715   0.32411  -0.1378  0.0194  1.0000  -0.9904   0.0000   0.0000   0.0000   0.3835
  25.600   0.8510   0.32784   0.32481  -0.1381  0.0190  1.0000  -0.9888   0.0000   0.0000   0.0000   0.3838
  25.700   0.8506   0.32853   0.32551  -0.1384  0.0187  1.0000  -0.9878   0.0000   0.0000   0.0000   0.3841
  25.800   0.8503   0.32922   0.32621  -0.1388  0.0184  1.0000  -0.9872   0.0000   0.0000   0.0000   0.3844
  25.900   0.8499   0.32989   0.32689  -0.1391  0.0181  1.0000  -0.9872   0.0000   0.0000   0.0000   0.3847
  26.000   0.8496   0.33056   0.32757  -0.1394  0.0178  1.0000  -0.9877   0.0000   0.0000   0.0000   0.3849
  26.100   0.8493   0.33123   0.32825  -0.1397  0.0175  1.0000  -0.9887   0.0000   0.0000   0.0000   0.3852
  26.200   0.8490   0.33188   0.32891  -0.1400  0.0173  1.0000  -0.9904   0.0000   0.0000   0.0000   0.3854
  26.300   0.8487   0.33253   0.32957  -0.1404  0.0170  1.0000  -0.9927   0.0000   0.0000   0.0000   0.3857
  26.400   0.8485   0.33317   0.33022  -0.1407  0.0168  1.0000  -0.9957   0.0000   0.0000   0.0000   0.3859
  26.500   0.8482   0.33380   0.33086  -0.1410  0.0166  1.0000  -0.9995   0.0000   0.0000   0.0000   0.3861
  26.600   0.8480   0.33442   0.33149  -0.1412  0.0163  1.0000  -1.0041   0.0000   0.0000   0.0000   0.3863
  26.700   0.8477   0.33503   0.33211  -0.1415  0.0161  1.0000  -1.0097   0.0000   0.0000   0.0000   0.3865
  26.800   0.8475   0.33563   0.33272  -0.1418  0.0159  1.0000  -1.0163   0.0000   0.0000   0.0000   0.3866
  26.900   0.8473   0.33622   0.33332  -0.1420  0.0157  1.0000  -1.0242   0.0000   0.0000   0.0000   0.3867
  27.000   0.8471   0.33680   0.33391  -0.1422  0.0155  1.0000  -1.0334   0.0000   0.0000   0.0000   0.3868
  27.100   0.8470   0.33739   0.33451  -0.1424  0.0153  1.0000  -1.0442   0.0000   0.0000   0.0000   0.3869
  27.200   0.8469   0.33799   0.33512  -0.1425  0.0151  1.0000  -1.0568   0.0000   0.0000   0.0000   0.3868
  27.300   0.8468   0.33865   0.33580  -0.1426  0.0149  1.0000  -1.0716   0.0000   0.0000   0.0000   0.3867
  27.400   0.8469   0.33947   0.33662  -0.1426  0.0147  1.0000  -1.0894   0.0000   0.0000   0.0000   0.3865
  27.500   0.8474   0.34077   0.33794  -0.1423  0.0145  1.0000  -1.1108   0.0000   0.0000   0.0000   0.3859
  27.600   0.8479   0.34552   0.34265  -0.1417  0.0140  1.0000  -1.0894   0.0000   0.0000   0.0000   0.3850
  27.700   0.8475   0.34622   0.34336  -0.1421  0.0140  1.0000  -1.0822   0.0000   0.0000   0.0000   0.3854
  27.800   0.8471   0.34691   0.34405  -0.1425  0.0140  1.0000  -1.0750   0.0000   0.0000   0.0000   0.3857
  27.900   0.8467   0.34760   0.34475  -0.1429  0.0140  1.0000  -1.0679   0.0000   0.0000   0.0000   0.3861
  28.000   0.8463   0.34828   0.34544  -0.1433  0.0140  1.0000  -1.0610   0.0000   0.0000   0.0000   0.3865
  28.100   0.8460   0.34896   0.34613  -0.1437  0.0140  1.0000  -1.0540   0.0000   0.0000   0.0000   0.3868
  28.200   0.8456   0.34964   0.34682  -0.1441  0.0140  1.0000  -1.0472   0.0000   0.0000   0.0000   0.3872
  28.300   0.8453   0.35032   0.34750  -0.1446  0.0140  1.0000  -1.0404   0.0000   0.0000   0.0000   0.3876
  28.400   0.8449   0.35097   0.34817  -0.1450  0.0140  1.0000  -1.0335   0.0000   0.0000   0.0000   0.3879
  28.500   0.8445   0.35161   0.34882  -0.1454  0.0140  1.0000  -1.0263   0.0000   0.0000   0.0000   0.3883
  28.600   0.8441   0.35223   0.34952  -0.1458  0.0139  1.0000  -1.0194   0.0000   0.0000   0.0000   0.3887
  28.700   0.8437   0.35287   0.35016  -0.1463  0.0139  1.0000  -1.0125   0.0000   0.0000   0.0000   0.3891
  28.800   0.8433   0.35351   0.35081  -0.1467  0.0139  1.0000  -1.0057   0.0000   0.0000   0.0000   0.3895
  28.900   0.8430   0.35414   0.35145  -0.1472  0.0139  1.0000  -0.9989   0.0000   0.0000   0.0000   0.3899
  29.000   0.8425   0.35475   0.35206  -0.1476  0.0139  1.0000  -0.9912   0.0000   0.0000   0.0000   0.3903
  29.100   0.8421   0.35533   0.35265  -0.1481  0.0139  1.0000  -0.9828   0.0000   0.0000   0.0000   0.3907
  29.200   0.8416   0.35592   0.35325  -0.1485  0.0138  1.0000  -0.9744   0.0000   0.0000   0.0000   0.3911
  29.300   0.8412   0.35651   0.35384  -0.1490  0.0138  1.0000  -0.9661   0.0000   0.0000   0.0000   0.3916
  29.400   0.8407   0.35710   0.35444  -0.1495  0.0138  1.0000  -0.9578   0.0000   0.0000   0.0000   0.3920
  29.500   0.8403   0.35769   0.35505  -0.1500  0.0138  1.0000  -0.9496   0.0000   0.0000   0.0000   0.3924
  29.600   0.8400   0.35829   0.35565  -0.1504  0.0138  1.0000  -0.9414   0.0000   0.0000   0.0000   0.3929
  29.700   0.8396   0.35890   0.35627  -0.1509  0.0137  1.0000  -0.9331   0.0000   0.0000   0.0000   0.3933
  29.800   0.8393   0.35951   0.35689  -0.1514  0.0137  1.0000  -0.9249   0.0000   0.0000   0.0000   0.3938
  29.900   0.8390   0.36014   0.35752  -0.1519  0.0137  1.0000  -0.9166   0.0000   0.0000   0.0000   0.3942
  30.000   0.8387   0.36077   0.35816  -0.1524  0.0136  1.0000  -0.9083   0.0000   0.0000   0.0000   0.3946


