xflr5 v6.61

 Calculated polar for: E387

 1 1 Reynolds number fixed          Mach number fixed         

 xtrf =   1.000 (top)        1.000 (bottom)
 Mach =   0.000     Re =     0.450 e 6     Ncrit =   9.000

  alpha     CL        CD       CDp       Cm    Top Xtr Bot Xtr   Cpmin    Chinge    XCp    
 ------- -------- --------- --------- -------- ------- ------- -------- --------- ---------
 -10.000  -0.3624   0.11363   0.11109  -0.0180  1.0000  0.0105  -1.5786   0.0000   0.0000   0.0000   0.1942
  -9.900  -0.3600   0.11238   0.10985  -0.0185  1.0000  0.0106  -1.5756   0.0000   0.0000   0.0000   0.1924
  -9.800  -0.3576   0.11113   0.10861  -0.0190  1.0000  0.0107  -1.5730   0.0000   0.0000   0.0000   0.1906
  -9.700  -0.3552   0.10988   0.10736  -0.0196  1.0000  0.0109  -1.5708   0.0000   0.0000   0.0000   0.1888
  -9.600  -0.3528   0.10863   0.10612  -0.0201  1.0000  0.0110  -1.5691   0.0000   0.0000   0.0000   0.1869
  -9.500  -0.3505   0.10738   0.10488  -0.0207  1.0000  0.0112  -1.5679   0.0000   0.0000   0.0000   0.1850
  -9.400  -0.3481   0.10614   0.10364  -0.0212  1.0000  0.0113  -1.5671   0.0000   0.0000   0.0000   0.1831
  -9.300  -0.3459   0.10489   0.10240  -0.0217  1.0000  0.0115  -1.5667   0.0000   0.0000   0.0000   0.1812
  -9.200  -0.3436   0.10364   0.10116  -0.0223  1.0000  0.0116  -1.5668   0.0000   0.0000   0.0000   0.1793
  -9.100  -0.3414   0.10240   0.09992  -0.0228  1.0000  0.0118  -1.5674   0.0000   0.0000   0.0000   0.1773
  -9.000  -0.3393   0.10115   0.09869  -0.0234  1.0000  0.0119  -1.5685   0.0000   0.0000   0.0000   0.1753
  -8.900  -0.3372   0.09992   0.09746  -0.0239  1.0000  0.0121  -1.5700   0.0000   0.0000   0.0000   0.1733
  -8.800  -0.3352   0.09869   0.09624  -0.0245  1.0000  0.0123  -1.5721   0.0000   0.0000   0.0000   0.1714
  -8.700  -0.3332   0.09746   0.09502  -0.0250  1.0000  0.0124  -1.5747   0.0000   0.0000   0.0000   0.1694
  -8.600  -0.3313   0.09624   0.09381  -0.0255  1.0000  0.0126  -1.5778   0.0000   0.0000   0.0000   0.1674
  -8.500  -0.3294   0.09501   0.09259  -0.0261  1.0000  0.0128  -1.5813   0.0000   0.0000   0.0000   0.1653
  -8.400  -0.3274   0.09376   0.09135  -0.0267  1.0000  0.0130  -1.5852   0.0000   0.0000   0.0000   0.1632
  -8.300  -0.3255   0.09252   0.09012  -0.0272  1.0000  0.0131  -1.5896   0.0000   0.0000   0.0000   0.1610
  -8.200  -0.3237   0.09128   0.08889  -0.0278  1.0000  0.0133  -1.5947   0.0000   0.0000   0.0000   0.1588
  -8.100  -0.3219   0.09004   0.08766  -0.0284  1.0000  0.0135  -1.6004   0.0000   0.0000   0.0000   0.1566
  -8.000  -0.3202   0.08881   0.08644  -0.0290  1.0000  0.0137  -1.6067   0.0000   0.0000   0.0000   0.1544
  -7.900  -0.3187   0.08758   0.08523  -0.0295  1.0000  0.0139  -1.6138   0.0000   0.0000   0.0000   0.1523
  -7.800  -0.3173   0.08637   0.08403  -0.0301  1.0000  0.0141  -1.6216   0.0000   0.0000   0.0000   0.1502
  -7.700  -0.3160   0.08516   0.08284  -0.0306  1.0000  0.0143  -1.6302   0.0000   0.0000   0.0000   0.1482
  -7.600  -0.3149   0.08396   0.08165  -0.0311  1.0000  0.0145  -1.6396   0.0000   0.0000   0.0000   0.1463
  -7.500  -0.3140   0.08277   0.08048  -0.0316  1.0000  0.0147  -1.6498   0.0000   0.0000   0.0000   0.1445
  -7.400  -0.3134   0.08161   0.07934  -0.0321  1.0000  0.0149  -1.6610   0.0000   0.0000   0.0000   0.1430
  -7.300  -0.3134   0.08049   0.07824  -0.0324  1.0000  0.0151  -1.6732   0.0000   0.0000   0.0000   0.1419
  -7.200  -0.3140   0.07943   0.07721  -0.0327  1.0000  0.0153  -1.6864   0.0000   0.0000   0.0000   0.1415
  -7.100  -0.3157   0.07847   0.07627  -0.0327  1.0000  0.0154  -1.7006   0.0000   0.0000   0.0000   0.1422
  -7.000  -0.3109   0.07687   0.07469  -0.0347  0.9935  0.0157  -1.7151   0.0000   0.0000   0.0000   0.1340
  -6.900  -0.2990   0.07464   0.07245  -0.0391  0.9836  0.0162  -1.7320   0.0000   0.0000   0.0000   0.1149
  -6.800  -0.2850   0.07239   0.07019  -0.0439  0.9739  0.0168  -1.7484   0.0000   0.0000   0.0000   0.0915
  -6.700  -0.2695   0.07054   0.06832  -0.0483  0.9627  0.0175  -1.7453   0.0000   0.0000   0.0000   0.0660
  -6.500  -0.2378   0.06715   0.06486  -0.0570  0.9373  0.0183  -1.7183   0.0000   0.0000   0.0000   0.0052
  -6.400  -0.2265   0.06521   0.06286  -0.0605  0.9230  0.0185  -1.7259   0.0000   0.0000   0.0000  -0.0221
  -6.300  -0.2191   0.06347   0.06107  -0.0628  0.9071  0.0185  -1.7386   0.0000   0.0000   0.0000  -0.0419
  -6.200  -0.2123   0.06176   0.05928  -0.0648  0.8932  0.0186  -1.7536   0.0000   0.0000   0.0000  -0.0603
  -6.100  -0.2061   0.06006   0.05752  -0.0665  0.8808  0.0186  -1.7702   0.0000   0.0000   0.0000  -0.0778
  -6.000  -0.1999   0.05835   0.05573  -0.0680  0.8691  0.0186  -1.7879   0.0000   0.0000   0.0000  -0.0957
  -5.900  -0.1935   0.05663   0.05392  -0.0695  0.8591  0.0187  -1.8066   0.0000   0.0000   0.0000  -0.1146
  -5.800  -0.1867   0.05485   0.05208  -0.0710  0.8511  0.0187  -1.8260   0.0000   0.0000   0.0000  -0.1361
  -5.700  -0.1798   0.05309   0.05023  -0.0724  0.8428  0.0187  -1.8456   0.0000   0.0000   0.0000  -0.1582
  -5.600  -0.1729   0.05136   0.04841  -0.0735  0.8347  0.0187  -1.8648   0.0000   0.0000   0.0000  -0.1811
  -5.500  -0.1800   0.04300   0.03986  -0.0784  0.8276  0.0200  -2.2258   0.0000   0.0000   0.0000  -0.1914
  -5.400  -0.1751   0.04118   0.03796  -0.0793  0.8206  0.0207  -2.2094   0.0000   0.0000   0.0000  -0.2085
  -5.300  -0.1683   0.04002   0.03674  -0.0798  0.8157  0.0214  -2.1569   0.0000   0.0000   0.0000  -0.2306
  -5.200  -0.1608   0.03929   0.03598  -0.0801  0.8101  0.0219  -2.0825   0.0000   0.0000   0.0000  -0.2541
  -5.000  -0.1437   0.03621   0.03253  -0.0813  0.7990  0.0222  -2.0826   0.0000   0.0000   0.0000  -0.3226
  -4.900  -0.1359   0.03596   0.03226  -0.0813  0.7931  0.0233  -1.9745   0.0000   0.0000   0.0000  -0.3554
  -4.800  -0.1275   0.03546   0.03170  -0.0815  0.7870  0.0245  -1.8936   0.0000   0.0000   0.0000  -0.3961
  -4.600  -0.1086   0.03382   0.02992  -0.0822  0.7775  0.0279  -1.7900   0.0000   0.0000   0.0000  -0.5147
  -4.500  -0.0978   0.03293   0.02894  -0.0825  0.7742  0.0303  -1.7583   0.0000   0.0000   0.0000  -0.6019
  -4.400  -0.0833   0.03375   0.02971  -0.0820  0.7703  0.0341  -1.6812   0.0000   0.0000   0.0000  -0.7437
  -4.300  -0.0689   0.03513   0.03100  -0.0815  0.7660  0.0355  -1.5935   0.0000   0.0000   0.0000  -0.9440
  -4.200  -0.0585   0.03439   0.03014  -0.0817  0.7619  0.0357  -1.5715   0.0000   0.0000   0.0000  -1.1583
  -4.100  -0.0485   0.03348   0.02909  -0.0819  0.7578  0.0358  -1.5535   0.0000   0.0000   0.0000  -1.4522
  -4.000  -0.0476   0.02618   0.02145  -0.0842  0.7550  0.0394  -1.7324   0.0000   0.0000   0.0000  -1.5337
  -3.900  -0.0388   0.02560   0.02087  -0.0843  0.7507  0.0413  -1.6475   0.0000   0.0000   0.0000  -1.9439
  -3.800  -0.0294   0.02527   0.02055  -0.0843  0.7461  0.0434  -1.5620   0.0000   0.0000   0.0000  -2.6388
  -3.700  -0.0196   0.02492   0.02015  -0.0843  0.7409  0.0460  -1.4921   0.0000   0.0000   0.0000  -4.0936
  -3.600  -0.0089   0.02455   0.01970  -0.0844  0.7355  0.0493  -1.4361   0.0000   0.0000   0.0000  -9.2647
  -3.500   0.0025   0.02409   0.01918  -0.0843  0.7336  0.0522  -1.3954   0.0000   0.0000   0.0000  34.5361
  -3.400   0.0144   0.02396   0.01898  -0.0841  0.7313  0.0548  -1.3508   0.0000   0.0000   0.0000   6.1278
  -3.300   0.0269   0.02442   0.01941  -0.0837  0.7285  0.0568  -1.2905   0.0000   0.0000   0.0000   3.3808
  -3.200   0.0392   0.02482   0.01975  -0.0834  0.7254  0.0577  -1.2343   0.0000   0.0000   0.0000   2.3917
  -3.100   0.0467   0.02047   0.01501  -0.0844  0.7230  0.0614  -1.3110   0.0000   0.0000   0.0000   2.0696
  -3.000   0.0567   0.01924   0.01371  -0.0845  0.7199  0.0636  -1.2784   0.0000   0.0000   0.0000   1.7505
  -2.900   0.0674   0.01850   0.01291  -0.0845  0.7166  0.0651  -1.2384   0.0000   0.0000   0.0000   1.5118
  -2.800   0.0783   0.01785   0.01221  -0.0844  0.7135  0.0665  -1.1993   0.0000   0.0000   0.0000   1.3347
  -2.700   0.0894   0.01721   0.01150  -0.0843  0.7104  0.0677  -1.1644   0.0000   0.0000   0.0000   1.1985
  -2.600   0.1059   0.01413   0.00775  -0.0826  0.7082  0.0304  -1.4544   0.0000   0.0000   0.0000   1.0355
  -2.500   0.1182   0.01243   0.00569  -0.0818  0.7055  0.0214  -1.6032   0.0000   0.0000   0.0000   0.9469
  -2.400   0.1297   0.01262   0.00585  -0.0816  0.7018  0.0197  -1.5242   0.0000   0.0000   0.0000   0.8831
  -2.300   0.1410   0.01237   0.00555  -0.0814  0.6980  0.0182  -1.4824   0.0000   0.0000   0.0000   0.8311
  -2.200   0.1517   0.01154   0.00459  -0.0811  0.6939  0.0173  -1.4937   0.0000   0.0000   0.0000   0.7880
  -2.000   0.1739   0.01071   0.00361  -0.0808  0.6882  0.0160  -1.4397   0.0000   0.0000   0.0000   0.7172
  -1.900   0.1851   0.01041   0.00325  -0.0807  0.6869  0.0155  -1.3997   0.0000   0.0000   0.0000   0.6880
  -1.800   0.1964   0.01017   0.00296  -0.0806  0.6854  0.0152  -1.3535   0.0000   0.0000   0.0000   0.6622
  -1.700   0.2077   0.00998   0.00272  -0.0805  0.6837  0.0149  -1.3027   0.0000   0.0000   0.0000   0.6391
  -1.600   0.2191   0.00983   0.00252  -0.0804  0.6818  0.0147  -1.2481   0.0000   0.0000   0.0000   0.6185
  -1.500   0.2304   0.00972   0.00236  -0.0804  0.6798  0.0146  -1.1905   0.0000   0.0000   0.0000   0.5999
  -1.400   0.2418   0.00963   0.00223  -0.0803  0.6777  0.0146  -1.1304   0.0000   0.0000   0.0000   0.5831
  -1.300   0.2531   0.00956   0.00212  -0.0802  0.6755  0.0147  -1.0682   0.0000   0.0000   0.0000   0.5678
  -1.200   0.2645   0.00950   0.00203  -0.0802  0.6731  0.0149  -1.0037   0.0000   0.0000   0.0000   0.5538
  -1.100   0.2757   0.00946   0.00196  -0.0801  0.6707  0.0153  -0.9366   0.0000   0.0000   0.0000   0.5411
  -1.000   0.2870   0.00943   0.00189  -0.0801  0.6682  0.0158  -0.8666   0.0000   0.0000   0.0000   0.5294
  -0.900   0.2983   0.00940   0.00183  -0.0800  0.6657  0.0168  -0.7928   0.0000   0.0000   0.0000   0.5185
  -0.800   0.3095   0.00938   0.00179  -0.0800  0.6631  0.0184  -0.7133   0.0000   0.0000   0.0000   0.5085
  -0.700   0.3201   0.00902   0.00174  -0.0800  0.6603  0.1023  -0.6337   0.0000   0.0000   0.0000   0.5000
  -0.600   0.3272   0.00770   0.00191  -0.0802  0.6575  0.5171  -0.5974   0.0000   0.0000   0.0000   0.4949
  -0.500   0.3337   0.00714   0.00201  -0.0793  0.6543  0.7172  -0.6026   0.0000   0.0000   0.0000   0.4873
  -0.400   0.3527   0.00656   0.00201  -0.0802  0.6504  1.0000  -0.6143   0.0000   0.0000   0.0000   0.4770
  -0.300   0.3637   0.00663   0.00202  -0.0802  0.6461  1.0000  -0.6214   0.0000   0.0000   0.0000   0.4700
  -0.200   0.3747   0.00672   0.00206  -0.0802  0.6416  1.0000  -0.6284   0.0000   0.0000   0.0000   0.4634
  -0.100   0.3858   0.00673   0.00205  -0.0802  0.6405  1.0000  -0.6357   0.0000   0.0000   0.0000   0.4571
   0.000   0.3968   0.00674   0.00204  -0.0802  0.6395  1.0000  -0.6430   0.0000   0.0000   0.0000   0.4512
   0.100   0.4079   0.00675   0.00203  -0.0801  0.6384  1.0000  -0.6503   0.0000   0.0000   0.0000   0.4455
   0.200   0.4190   0.00676   0.00202  -0.0801  0.6371  1.0000  -0.6576   0.0000   0.0000   0.0000   0.4402
   0.300   0.4301   0.00678   0.00202  -0.0801  0.6357  1.0000  -0.6649   0.0000   0.0000   0.0000   0.4352
   0.400   0.4412   0.00680   0.00202  -0.0801  0.6341  1.0000  -0.6723   0.0000   0.0000   0.0000   0.4304
   0.500   0.4523   0.00682   0.00202  -0.0801  0.6323  1.0000  -0.6796   0.0000   0.0000   0.0000   0.4258
   0.600   0.4634   0.00684   0.00203  -0.0801  0.6305  1.0000  -0.6869   0.0000   0.0000   0.0000   0.4215
   0.700   0.4745   0.00687   0.00203  -0.0801  0.6286  1.0000  -0.6942   0.0000   0.0000   0.0000   0.4173
   0.800   0.4856   0.00689   0.00204  -0.0801  0.6266  1.0000  -0.7016   0.0000   0.0000   0.0000   0.4134
   0.900   0.4966   0.00692   0.00204  -0.0800  0.6245  1.0000  -0.7089   0.0000   0.0000   0.0000   0.4096
   1.000   0.5077   0.00694   0.00205  -0.0800  0.6224  1.0000  -0.7163   0.0000   0.0000   0.0000   0.4060
   1.100   0.5187   0.00697   0.00206  -0.0800  0.6203  1.0000  -0.7236   0.0000   0.0000   0.0000   0.4025
   1.200   0.5298   0.00701   0.00207  -0.0800  0.6180  1.0000  -0.7312   0.0000   0.0000   0.0000   0.3992
   1.300   0.5408   0.00704   0.00208  -0.0800  0.6158  1.0000  -0.7395   0.0000   0.0000   0.0000   0.3960
   1.400   0.5518   0.00708   0.00209  -0.0799  0.6134  1.0000  -0.7478   0.0000   0.0000   0.0000   0.3929
   1.500   0.5627   0.00712   0.00211  -0.0799  0.6108  1.0000  -0.7561   0.0000   0.0000   0.0000   0.3899
   1.600   0.5737   0.00717   0.00213  -0.0799  0.6079  1.0000  -0.7643   0.0000   0.0000   0.0000   0.3871
   1.700   0.5846   0.00723   0.00216  -0.0798  0.6045  1.0000  -0.7729   0.0000   0.0000   0.0000   0.3843
   1.800   0.5955   0.00731   0.00220  -0.0798  0.6006  1.0000  -0.7822   0.0000   0.0000   0.0000   0.3817
   1.900   0.6065   0.00741   0.00228  -0.0798  0.5962  1.0000  -0.7914   0.0000   0.0000   0.0000   0.3792
   2.000   0.6176   0.00751   0.00236  -0.0799  0.5925  1.0000  -0.8007   0.0000   0.0000   0.0000   0.3769
   2.100   0.6287   0.00752   0.00237  -0.0799  0.5917  1.0000  -0.8115   0.0000   0.0000   0.0000   0.3745
   2.200   0.6398   0.00753   0.00239  -0.0799  0.5907  1.0000  -0.8231   0.0000   0.0000   0.0000   0.3722
   2.300   0.6509   0.00754   0.00240  -0.0798  0.5894  1.0000  -0.8354   0.0000   0.0000   0.0000   0.3700
   2.400   0.6619   0.00755   0.00242  -0.0798  0.5879  1.0000  -0.8477   0.0000   0.0000   0.0000   0.3678
   2.500   0.6730   0.00756   0.00243  -0.0798  0.5861  1.0000  -0.8605   0.0000   0.0000   0.0000   0.3658
   2.600   0.6841   0.00758   0.00245  -0.0798  0.5841  1.0000  -0.8748   0.0000   0.0000   0.0000   0.3637
   2.700   0.6951   0.00759   0.00247  -0.0798  0.5819  1.0000  -0.8890   0.0000   0.0000   0.0000   0.3618
   2.800   0.7061   0.00761   0.00252  -0.0798  0.5796  1.0000  -0.9035   0.0000   0.0000   0.0000   0.3599
   2.900   0.7155   0.00749   0.00223  -0.0792  0.5593  1.0000  -0.9200   0.0000   0.0000   0.0000   0.3575
   3.000   0.7252   0.00753   0.00215  -0.0789  0.5400  1.0000  -0.9361   0.0000   0.0000   0.0000   0.3555
   3.100   0.7358   0.00751   0.00209  -0.0788  0.5274  1.0000  -0.9541   0.0000   0.0000   0.0000   0.3536
   3.200   0.7460   0.00757   0.00207  -0.0786  0.5154  1.0000  -0.9733   0.0000   0.0000   0.0000   0.3518
   3.300   0.7564   0.00764   0.00208  -0.0785  0.5072  1.0000  -0.9925   0.0000   0.0000   0.0000   0.3501
   3.400   0.7669   0.00772   0.00211  -0.0784  0.5000  1.0000  -1.0118   0.0000   0.0000   0.0000   0.3485
   3.500   0.7776   0.00778   0.00215  -0.0783  0.4947  1.0000  -1.0315   0.0000   0.0000   0.0000   0.3470
   3.600   0.7886   0.00781   0.00218  -0.0784  0.4920  1.0000  -1.0516   0.0000   0.0000   0.0000   0.3455
   3.700   0.7996   0.00784   0.00221  -0.0783  0.4882  1.0000  -1.0747   0.0000   0.0000   0.0000   0.3440
   3.800   0.8105   0.00789   0.00225  -0.0783  0.4830  1.0000  -1.0991   0.0000   0.0000   0.0000   0.3426
   3.900   0.8212   0.00794   0.00228  -0.0783  0.4766  1.0000  -1.1275   0.0000   0.0000   0.0000   0.3412
   4.000   0.8318   0.00801   0.00231  -0.0782  0.4691  1.0000  -1.1570   0.0000   0.0000   0.0000   0.3398
   4.100   0.8421   0.00810   0.00235  -0.0781  0.4601  1.0000  -1.1861   0.0000   0.0000   0.0000   0.3384
   4.200   0.8521   0.00821   0.00240  -0.0780  0.4494  1.0000  -1.2151   0.0000   0.0000   0.0000   0.3370
   4.300   0.8628   0.00827   0.00245  -0.0779  0.4432  1.0000  -1.2451   0.0000   0.0000   0.0000   0.3357
   4.400   0.8734   0.00834   0.00249  -0.0779  0.4349  1.0000  -1.2752   0.0000   0.0000   0.0000   0.3345
   4.500   0.8836   0.00846   0.00254  -0.0777  0.4217  1.0000  -1.3047   0.0000   0.0000   0.0000   0.3332
   4.600   0.8930   0.00864   0.00261  -0.0775  0.4047  1.0000  -1.3556   0.0000   0.0000   0.0000   0.3320
   4.700   0.9032   0.00875   0.00268  -0.0774  0.3920  1.0000  -1.4429   0.0000   0.0000   0.0000   0.3308
   4.800   0.9125   0.00895   0.00277  -0.0772  0.3702  1.0000  -1.5282   0.0000   0.0000   0.0000   0.3296
   4.900   0.9213   0.00922   0.00289  -0.0769  0.3435  1.0000  -1.6115   0.0000   0.0000   0.0000   0.3283
   5.000   0.9288   0.00964   0.00307  -0.0765  0.3036  1.0000  -1.6903   0.0000   0.0000   0.0000   0.3271
   5.100   0.9360   0.01013   0.00331  -0.0761  0.2605  1.0000  -1.7671   0.0000   0.0000   0.0000   0.3260
   5.200   0.9429   0.01065   0.00359  -0.0757  0.2174  1.0000  -1.8426   0.0000   0.0000   0.0000   0.3248
   5.300   0.9497   0.01119   0.00389  -0.0752  0.1755  1.0000  -1.9167   0.0000   0.0000   0.0000   0.3237
   5.400   0.9556   0.01183   0.00424  -0.0747  0.1291  1.0000  -1.9849   0.0000   0.0000   0.0000   0.3225
   5.500   0.9616   0.01246   0.00460  -0.0741  0.0857  1.0000  -2.0501   0.0000   0.0000   0.0000   0.3213
   5.600   0.9671   0.01315   0.00502  -0.0735  0.0442  1.0000  -2.1087   0.0000   0.0000   0.0000   0.3201
   5.700   0.9732   0.01376   0.00544  -0.0729  0.0134  1.0000  -2.1699   0.0000   0.0000   0.0000   0.3189
   5.800   0.9830   0.01392   0.00560  -0.0727  0.0126  1.0000  -2.2483   0.0000   0.0000   0.0000   0.3179
   5.900   0.9928   0.01407   0.00577  -0.0725  0.0120  1.0000  -2.3281   0.0000   0.0000   0.0000   0.3168
   6.000   1.0027   0.01421   0.00595  -0.0723  0.0116  1.0000  -2.4091   0.0000   0.0000   0.0000   0.3158
   6.100   1.0126   0.01436   0.00613  -0.0721  0.0113  1.0000  -2.4909   0.0000   0.0000   0.0000   0.3148
   6.200   1.0224   0.01451   0.00632  -0.0720  0.0111  1.0000  -2.5727   0.0000   0.0000   0.0000   0.3138
   6.300   1.0321   0.01466   0.00652  -0.0717  0.0110  1.0000  -2.6539   0.0000   0.0000   0.0000   0.3129
   6.400   1.0417   0.01483   0.00674  -0.0715  0.0109  1.0000  -2.7342   0.0000   0.0000   0.0000   0.3119
   6.500   1.0512   0.01502   0.00697  -0.0713  0.0109  1.0000  -2.8133   0.0000   0.0000   0.0000   0.3109
   6.600   1.0606   0.01522   0.00722  -0.0710  0.0109  1.0000  -2.8904   0.0000   0.0000   0.0000   0.3099
   6.700   1.0697   0.01544   0.00748  -0.0707  0.0109  1.0000  -2.9658   0.0000   0.0000   0.0000   0.3089
   6.800   1.0800   0.01550   0.00790  -0.0706  0.0117  1.0000  -3.1441   0.0000   0.0000   0.0000   0.3081
   6.900   1.0893   0.01569   0.00817  -0.0703  0.0119  1.0000  -3.2486   0.0000   0.0000   0.0000   0.3072
   7.000   1.0982   0.01594   0.00849  -0.0700  0.0120  1.0000  -3.3324   0.0000   0.0000   0.0000   0.3062
   7.100   1.1066   0.01623   0.00885  -0.0695  0.0120  1.0000  -3.4077   0.0000   0.0000   0.0000   0.3052
   7.200   1.1146   0.01655   0.00925  -0.0691  0.0121  1.0000  -3.4778   0.0000   0.0000   0.0000   0.3042
   7.300   1.1224   0.01691   0.00968  -0.0685  0.0121  1.0000  -3.5439   0.0000   0.0000   0.0000   0.3032
   7.400   1.1297   0.01729   0.01014  -0.0679  0.0122  1.0000  -3.6063   0.0000   0.0000   0.0000   0.3021
   7.500   1.1364   0.01772   0.01064  -0.0673  0.0122  1.0000  -3.6647   0.0000   0.0000   0.0000   0.3011
   7.600   1.1427   0.01819   0.01118  -0.0665  0.0123  1.0000  -3.7193   0.0000   0.0000   0.0000   0.3000
   7.700   1.1485   0.01869   0.01176  -0.0658  0.0124  1.0000  -3.7702   0.0000   0.0000   0.0000   0.2989
   7.800   1.1538   0.01923   0.01237  -0.0649  0.0125  1.0000  -3.8172   0.0000   0.0000   0.0000   0.2977
   7.900   1.1586   0.01980   0.01302  -0.0640  0.0126  1.0000  -3.8606   0.0000   0.0000   0.0000   0.2966
   8.000   1.1629   0.02041   0.01370  -0.0630  0.0127  1.0000  -3.9004   0.0000   0.0000   0.0000   0.2954
   8.100   1.1668   0.02106   0.01442  -0.0619  0.0129  1.0000  -3.9366   0.0000   0.0000   0.0000   0.2942
   8.200   1.1704   0.02176   0.01519  -0.0608  0.0130  1.0000  -3.9691   0.0000   0.0000   0.0000   0.2930
   8.300   1.1737   0.02252   0.01601  -0.0597  0.0131  1.0000  -3.9978   0.0000   0.0000   0.0000   0.2917
   8.400   1.1769   0.02335   0.01691  -0.0586  0.0133  1.0000  -4.0218   0.0000   0.0000   0.0000   0.2905
   8.500   1.1802   0.02430   0.01793  -0.0575  0.0134  1.0000  -4.0392   0.0000   0.0000   0.0000   0.2893
   8.600   1.1837   0.02552   0.01923  -0.0564  0.0137  1.0000  -4.0414   0.0000   0.0000   0.0000   0.2881
   8.800   1.1974   0.02753   0.02134  -0.0552  0.0146  1.0000  -4.0973   0.0000   0.0000   0.0000   0.2863
   8.900   1.2052   0.02767   0.02150  -0.0547  0.0149  1.0000  -4.1837   0.0000   0.0000   0.0000   0.2855
   9.000   1.2125   0.02785   0.02170  -0.0541  0.0152  1.0000  -4.2661   0.0000   0.0000   0.0000   0.2846
   9.100   1.2197   0.02807   0.02196  -0.0535  0.0157  1.0000  -4.3432   0.0000   0.0000   0.0000   0.2837
   9.200   1.2274   0.02841   0.02235  -0.0529  0.0164  1.0000  -4.4095   0.0000   0.0000   0.0000   0.2828
  15.400   0.9680   0.18377   0.18164  -0.0934  0.0272  1.0000  -2.2764   0.0000   0.0000   0.0000   0.3297
  15.500   0.9685   0.18637   0.18424  -0.0946  0.0272  1.0000  -2.2514   0.0000   0.0000   0.0000   0.3308
  15.600   0.9691   0.18893   0.18679  -0.0957  0.0272  1.0000  -2.2280   0.0000   0.0000   0.0000   0.3318
  15.700   0.9698   0.19145   0.18931  -0.0969  0.0271  1.0000  -2.2061   0.0000   0.0000   0.0000   0.3328
  15.800   0.9706   0.19394   0.19180  -0.0980  0.0271  1.0000  -2.1855   0.0000   0.0000   0.0000   0.3338
  15.900   0.9715   0.19639   0.19425  -0.0991  0.0271  1.0000  -2.1663   0.0000   0.0000   0.0000   0.3347
  16.000   0.9725   0.19881   0.19667  -0.1002  0.0271  1.0000  -2.1484   0.0000   0.0000   0.0000   0.3356
  16.100   0.9736   0.20119   0.19905  -0.1012  0.0270  1.0000  -2.1319   0.0000   0.0000   0.0000   0.3365
  16.200   0.9748   0.20353   0.20139  -0.1023  0.0270  1.0000  -2.1170   0.0000   0.0000   0.0000   0.3374
  16.300   0.9762   0.20580   0.20366  -0.1033  0.0269  1.0000  -2.1041   0.0000   0.0000   0.0000   0.3382
  16.400   0.9778   0.20798   0.20584  -0.1044  0.0268  1.0000  -2.0940   0.0000   0.0000   0.0000   0.3389
  16.500   0.9798   0.20998   0.20784  -0.1054  0.0266  1.0000  -2.0891   0.0000   0.0000   0.0000   0.3396
  16.600   0.9828   0.21162   0.20948  -0.1064  0.0263  1.0000  -2.0945   0.0000   0.0000   0.0000   0.3402
  16.700   0.9868   0.21302   0.21088  -0.1074  0.0255  1.0000  -2.1057   0.0000   0.0000   0.0000   0.3406
  16.800   0.9891   0.21510   0.21297  -0.1086  0.0247  1.0000  -2.0926   0.0000   0.0000   0.0000   0.3415
  16.900   0.9905   0.21747   0.21534  -0.1098  0.0239  1.0000  -2.0719   0.0000   0.0000   0.0000   0.3424
  17.000   0.9916   0.21989   0.21775  -0.1110  0.0232  1.0000  -2.0522   0.0000   0.0000   0.0000   0.3434
  17.100   0.9926   0.22227   0.22013  -0.1121  0.0225  1.0000  -2.0360   0.0000   0.0000   0.0000   0.3443
  17.200   0.9937   0.22458   0.22244  -0.1131  0.0218  1.0000  -2.0255   0.0000   0.0000   0.0000   0.3451
  17.300   0.9949   0.22678   0.22464  -0.1141  0.0211  1.0000  -2.0216   0.0000   0.0000   0.0000   0.3458
  17.400   0.9962   0.22887   0.22673  -0.1150  0.0203  1.0000  -2.0254   0.0000   0.0000   0.0000   0.3464
  17.500   0.9978   0.23078   0.22864  -0.1158  0.0195  1.0000  -2.0393   0.0000   0.0000   0.0000   0.3468
  17.600   0.9998   0.23243   0.23030  -0.1164  0.0187  1.0000  -2.0683   0.0000   0.0000   0.0000   0.3471
  17.700   1.0023   0.23368   0.23155  -0.1169  0.0179  1.0000  -2.1207   0.0000   0.0000   0.0000   0.3471
  17.800   1.0062   0.23412   0.23200  -0.1170  0.0170  1.0000  -2.2196   0.0000   0.0000   0.0000   0.3465
  17.900   1.0108   0.23386   0.23176  -0.1168  0.0162  1.0000  -2.3599   0.0000   0.0000   0.0000   0.3454
  18.000   1.0138   0.23437   0.23229  -0.1168  0.0156  1.0000  -2.4622   0.0000   0.0000   0.0000   0.3448
  18.100   1.0142   0.23634   0.23426  -0.1175  0.0151  1.0000  -2.4897   0.0000   0.0000   0.0000   0.3452
  18.200   1.0101   0.24071   0.23863  -0.1186  0.0146  1.0000  -2.4059   0.0000   0.0000   0.0000   0.3467
  20.600   1.0051   0.30468   0.30269  -0.1373  0.0138  1.0000  -1.8090   0.0000   0.0000   0.0000   0.3629
  20.700   1.0035   0.30672   0.30474  -0.1378  0.0138  1.0000  -1.7952   0.0000   0.0000   0.0000   0.3635
  20.800   1.0016   0.30866   0.30669  -0.1382  0.0137  1.0000  -1.7810   0.0000   0.0000   0.0000   0.3641
  20.900   0.9991   0.31045   0.30849  -0.1386  0.0137  1.0000  -1.7663   0.0000   0.0000   0.0000   0.3647
  21.000   0.9960   0.31203   0.31008  -0.1389  0.0136  1.0000  -1.7507   0.0000   0.0000   0.0000   0.3653
  21.100   0.9425   0.30239   0.30052  -0.1335  0.0137  1.0000  -1.6028   0.0000   0.0000   0.0000   0.3682
  21.200   0.9361   0.30222   0.30037  -0.1334  0.0136  1.0000  -1.5796   0.0000   0.0000   0.0000   0.3689
  21.300   0.9314   0.30233   0.30049  -0.1334  0.0135  1.0000  -1.5622   0.0000   0.0000   0.0000   0.3696
  21.400   0.9286   0.30263   0.30081  -0.1337  0.0133  1.0000  -1.5523   0.0000   0.0000   0.0000   0.3703
  21.500   0.9298   0.30391   0.30208  -0.1350  0.0122  1.0000  -1.5292   0.0000   0.0000   0.0000   0.3714
  21.600   0.9282   0.30481   0.30299  -0.1356  0.0104  1.0000  -1.5136   0.0000   0.0000   0.0000   0.3721
  21.700   0.9252   0.30513   0.30332  -0.1357  0.0093  1.0000  -1.5213   0.0000   0.0000   0.0000   0.3727
  21.800   0.9225   0.30536   0.30356  -0.1359  0.0085  1.0000  -1.5416   0.0000   0.0000   0.0000   0.3731
  21.900   0.9204   0.30552   0.30374  -0.1360  0.0078  1.0000  -1.5733   0.0000   0.0000   0.0000   0.3735
  22.000   0.9186   0.30562   0.30385  -0.1362  0.0073  1.0000  -1.6161   0.0000   0.0000   0.0000   0.3737
  22.100   0.9173   0.30563   0.30387  -0.1363  0.0068  1.0000  -1.6709   0.0000   0.0000   0.0000   0.3739
  22.200   0.9164   0.30554   0.30379  -0.1364  0.0065  1.0000  -1.7383   0.0000   0.0000   0.0000   0.3739
  22.300   0.9159   0.30531   0.30357  -0.1364  0.0062  1.0000  -1.8204   0.0000   0.0000   0.0000   0.3738
  22.400   0.9148   0.30508   0.30335  -0.1364  0.0058  1.0000  -1.8985   0.0000   0.0000   0.0000   0.3737
  22.600   0.8929   0.30719   0.30544  -0.1360  0.0049  1.0000  -1.5854   0.0000   0.0000   0.0000   0.3772
  22.700   0.8910   0.30791   0.30617  -0.1363  0.0049  1.0000  -1.5700   0.0000   0.0000   0.0000   0.3778
  22.800   0.8892   0.30862   0.30689  -0.1366  0.0049  1.0000  -1.5554   0.0000   0.0000   0.0000   0.3783
  22.900   0.8875   0.30934   0.30761  -0.1369  0.0048  1.0000  -1.5407   0.0000   0.0000   0.0000   0.3788
  23.000   0.8859   0.31005   0.30833  -0.1372  0.0048  1.0000  -1.5253   0.0000   0.0000   0.0000   0.3793
  23.100   0.8843   0.31077   0.30905  -0.1375  0.0048  1.0000  -1.5092   0.0000   0.0000   0.0000   0.3798
  23.200   0.8826   0.31148   0.30977  -0.1378  0.0048  1.0000  -1.4923   0.0000   0.0000   0.0000   0.3803
  23.300   0.8810   0.31220   0.31049  -0.1380  0.0048  1.0000  -1.4748   0.0000   0.0000   0.0000   0.3807
  23.400   0.8795   0.31292   0.31122  -0.1383  0.0048  1.0000  -1.4571   0.0000   0.0000   0.0000   0.3812
  23.500   0.8780   0.31365   0.31195  -0.1385  0.0048  1.0000  -1.4396   0.0000   0.0000   0.0000   0.3816
  23.600   0.8766   0.31437   0.31268  -0.1388  0.0048  1.0000  -1.4225   0.0000   0.0000   0.0000   0.3821
  23.700   0.8752   0.31510   0.31341  -0.1390  0.0048  1.0000  -1.4060   0.0000   0.0000   0.0000   0.3825
  23.800   0.8739   0.31584   0.31415  -0.1393  0.0048  1.0000  -1.3901   0.0000   0.0000   0.0000   0.3829
  23.900   0.8727   0.31657   0.31489  -0.1396  0.0048  1.0000  -1.3749   0.0000   0.0000   0.0000   0.3833
  24.000   0.8715   0.31731   0.31563  -0.1398  0.0048  1.0000  -1.3602   0.0000   0.0000   0.0000   0.3837
  24.100   0.8704   0.31805   0.31638  -0.1401  0.0048  1.0000  -1.3462   0.0000   0.0000   0.0000   0.3841
  24.200   0.8694   0.31879   0.31713  -0.1404  0.0048  1.0000  -1.3327   0.0000   0.0000   0.0000   0.3844
  24.300   0.8684   0.31954   0.31788  -0.1407  0.0048  1.0000  -1.3197   0.0000   0.0000   0.0000   0.3848
  24.400   0.8674   0.32029   0.31863  -0.1410  0.0048  1.0000  -1.3071   0.0000   0.0000   0.0000   0.3852
  24.500   0.8666   0.32104   0.31939  -0.1412  0.0048  1.0000  -1.2950   0.0000   0.0000   0.0000   0.3855
  24.600   0.8657   0.32179   0.32015  -0.1415  0.0048  1.0000  -1.2833   0.0000   0.0000   0.0000   0.3859
  24.700   0.8649   0.32255   0.32091  -0.1418  0.0048  1.0000  -1.2719   0.0000   0.0000   0.0000   0.3862
  24.800   0.8641   0.32330   0.32167  -0.1421  0.0048  1.0000  -1.2609   0.0000   0.0000   0.0000   0.3866
  24.900   0.8634   0.32406   0.32243  -0.1424  0.0048  1.0000  -1.2503   0.0000   0.0000   0.0000   0.3869
  25.000   0.8627   0.32483   0.32320  -0.1428  0.0048  1.0000  -1.2399   0.0000   0.0000   0.0000   0.3873
  25.100   0.8620   0.32559   0.32397  -0.1431  0.0048  1.0000  -1.2298   0.0000   0.0000   0.0000   0.3876
  25.200   0.8614   0.32635   0.32474  -0.1434  0.0048  1.0000  -1.2200   0.0000   0.0000   0.0000   0.3879
  25.300   0.8608   0.32712   0.32551  -0.1437  0.0048  1.0000  -1.2105   0.0000   0.0000   0.0000   0.3883
  25.400   0.8602   0.32789   0.32628  -0.1440  0.0048  1.0000  -1.2012   0.0000   0.0000   0.0000   0.3886
  25.500   0.8597   0.32866   0.32706  -0.1443  0.0048  1.0000  -1.1921   0.0000   0.0000   0.0000   0.3889
  25.600   0.8591   0.32943   0.32783  -0.1447  0.0048  1.0000  -1.1832   0.0000   0.0000   0.0000   0.3892
  25.700   0.8586   0.33020   0.32861  -0.1450  0.0048  1.0000  -1.1746   0.0000   0.0000   0.0000   0.3896
  25.800   0.8582   0.33098   0.32939  -0.1453  0.0048  1.0000  -1.1661   0.0000   0.0000   0.0000   0.3899
  25.900   0.8577   0.33175   0.33017  -0.1456  0.0048  1.0000  -1.1578   0.0000   0.0000   0.0000   0.3902
  26.000   0.8573   0.33253   0.33095  -0.1460  0.0048  1.0000  -1.1497   0.0000   0.0000   0.0000   0.3905
  26.100   0.8568   0.33331   0.33173  -0.1463  0.0048  1.0000  -1.1416   0.0000   0.0000   0.0000   0.3908
  26.200   0.8564   0.33409   0.33252  -0.1467  0.0048  1.0000  -1.1337   0.0000   0.0000   0.0000   0.3911
  26.300   0.8560   0.33487   0.33330  -0.1470  0.0048  1.0000  -1.1259   0.0000   0.0000   0.0000   0.3914
  26.400   0.8556   0.33565   0.33409  -0.1473  0.0048  1.0000  -1.1183   0.0000   0.0000   0.0000   0.3917
  26.500   0.8553   0.33644   0.33488  -0.1477  0.0048  1.0000  -1.1109   0.0000   0.0000   0.0000   0.3920
  26.600   0.8549   0.33722   0.33566  -0.1480  0.0048  1.0000  -1.1036   0.0000   0.0000   0.0000   0.3923
  26.700   0.8546   0.33801   0.33645  -0.1484  0.0048  1.0000  -1.0964   0.0000   0.0000   0.0000   0.3926
  26.800   0.8543   0.33879   0.33724  -0.1487  0.0048  1.0000  -1.0894   0.0000   0.0000   0.0000   0.3929
  26.900   0.8539   0.33958   0.33803  -0.1491  0.0048  1.0000  -1.0825   0.0000   0.0000   0.0000   0.3932
  27.000   0.8536   0.34036   0.33882  -0.1494  0.0048  1.0000  -1.0757   0.0000   0.0000   0.0000   0.3935


