xflr5 v6.61

 Calculated polar for: E387

 1 1 Reynolds number fixed          Mach number fixed         

 xtrf =   1.000 (top)        1.000 (bottom)
 Mach =   0.000     Re =     0.688 e 6     Ncrit =   9.000

  alpha     CL        CD       CDp       Cm    Top Xtr Bot Xtr   Cpmin    Chinge    XCp    
 ------- -------- --------- --------- -------- ------- ------- -------- --------- ---------
 -10.000  -0.3508   0.11534   0.11324  -0.0189  1.0000  0.0069  -1.5731   0.0000   0.0000   0.0000   0.1897
  -9.900  -0.3484   0.11401   0.11192  -0.0194  1.0000  0.0069  -1.5790   0.0000   0.0000   0.0000   0.1878
  -9.800  -0.3459   0.11269   0.11060  -0.0200  1.0000  0.0069  -1.5851   0.0000   0.0000   0.0000   0.1859
  -9.700  -0.3434   0.11136   0.10928  -0.0205  1.0000  0.0069  -1.5913   0.0000   0.0000   0.0000   0.1839
  -9.600  -0.3410   0.11003   0.10795  -0.0211  1.0000  0.0069  -1.5976   0.0000   0.0000   0.0000   0.1819
  -9.500  -0.3386   0.10870   0.10663  -0.0216  1.0000  0.0069  -1.6041   0.0000   0.0000   0.0000   0.1798
  -9.400  -0.3362   0.10738   0.10531  -0.0222  1.0000  0.0069  -1.6108   0.0000   0.0000   0.0000   0.1778
  -9.300  -0.3339   0.10606   0.10400  -0.0227  1.0000  0.0069  -1.6176   0.0000   0.0000   0.0000   0.1757
  -9.200  -0.3316   0.10474   0.10269  -0.0233  1.0000  0.0069  -1.6247   0.0000   0.0000   0.0000   0.1736
  -9.100  -0.3293   0.10343   0.10138  -0.0238  1.0000  0.0069  -1.6320   0.0000   0.0000   0.0000   0.1715
  -9.000  -0.3271   0.10212   0.10008  -0.0244  1.0000  0.0069  -1.6395   0.0000   0.0000   0.0000   0.1695
  -8.900  -0.3249   0.10083   0.09879  -0.0249  1.0000  0.0069  -1.6472   0.0000   0.0000   0.0000   0.1674
  -8.800  -0.3229   0.09954   0.09751  -0.0254  1.0000  0.0069  -1.6552   0.0000   0.0000   0.0000   0.1653
  -8.700  -0.3208   0.09825   0.09623  -0.0260  1.0000  0.0069  -1.6634   0.0000   0.0000   0.0000   0.1632
  -8.600  -0.3188   0.09697   0.09496  -0.0265  1.0000  0.0069  -1.6718   0.0000   0.0000   0.0000   0.1611
  -8.500  -0.3168   0.09568   0.09367  -0.0270  1.0000  0.0069  -1.6804   0.0000   0.0000   0.0000   0.1589
  -8.400  -0.3147   0.09438   0.09238  -0.0276  1.0000  0.0069  -1.6892   0.0000   0.0000   0.0000   0.1566
  -8.300  -0.3127   0.09308   0.09109  -0.0281  1.0000  0.0069  -1.6983   0.0000   0.0000   0.0000   0.1543
  -8.200  -0.3108   0.09178   0.08980  -0.0287  1.0000  0.0069  -1.7077   0.0000   0.0000   0.0000   0.1520
  -8.100  -0.3089   0.09049   0.08852  -0.0292  1.0000  0.0069  -1.7174   0.0000   0.0000   0.0000   0.1498
  -8.000  -0.3071   0.08921   0.08725  -0.0298  1.0000  0.0069  -1.7274   0.0000   0.0000   0.0000   0.1475
  -7.900  -0.3055   0.08794   0.08599  -0.0303  1.0000  0.0070  -1.7378   0.0000   0.0000   0.0000   0.1454
  -7.800  -0.3040   0.08668   0.08474  -0.0308  1.0000  0.0070  -1.7485   0.0000   0.0000   0.0000   0.1433
  -7.700  -0.3026   0.08542   0.08350  -0.0313  1.0000  0.0070  -1.7596   0.0000   0.0000   0.0000   0.1413
  -7.600  -0.3014   0.08418   0.08226  -0.0318  1.0000  0.0070  -1.7710   0.0000   0.0000   0.0000   0.1393
  -7.500  -0.3003   0.08294   0.08104  -0.0322  1.0000  0.0070  -1.7830   0.0000   0.0000   0.0000   0.1375
  -7.400  -0.2997   0.08174   0.07986  -0.0326  1.0000  0.0070  -1.7953   0.0000   0.0000   0.0000   0.1361
  -7.300  -0.2936   0.07997   0.07809  -0.0347  0.9886  0.0070  -1.8074   0.0000   0.0000   0.0000   0.1267
  -7.200  -0.2821   0.07768   0.07579  -0.0386  0.9738  0.0070  -1.8200   0.0000   0.0000   0.0000   0.1081
  -7.100  -0.2699   0.07530   0.07339  -0.0428  0.9575  0.0070  -1.8339   0.0000   0.0000   0.0000   0.0863
  -7.000  -0.2589   0.07303   0.07109  -0.0467  0.9389  0.0070  -1.8494   0.0000   0.0000   0.0000   0.0644
  -6.900  -0.2516   0.07114   0.06913  -0.0495  0.9183  0.0070  -1.8661   0.0000   0.0000   0.0000   0.0479
  -6.800  -0.2474   0.06955   0.06747  -0.0512  0.8976  0.0070  -1.8836   0.0000   0.0000   0.0000   0.0376
  -6.700  -0.2517   0.06556   0.06345  -0.0548  0.8801  0.0072  -2.1273   0.0000   0.0000   0.0000   0.0268
  -6.500  -0.2531   0.05863   0.05639  -0.0616  0.8534  0.0075  -2.4760   0.0000   0.0000   0.0000   0.0013
  -6.400  -0.2501   0.05579   0.05349  -0.0645  0.8433  0.0077  -2.5767   0.0000   0.0000   0.0000  -0.0129
  -6.300  -0.2462   0.05322   0.05085  -0.0669  0.8334  0.0078  -2.6517   0.0000   0.0000   0.0000  -0.0269
  -6.100  -0.2355   0.04863   0.04611  -0.0709  0.8174  0.0081  -2.7399   0.0000   0.0000   0.0000  -0.0563
  -6.000  -0.2290   0.04660   0.04402  -0.0726  0.8113  0.0083  -2.7562   0.0000   0.0000   0.0000  -0.0722
  -5.900  -0.2222   0.04475   0.04210  -0.0740  0.8049  0.0085  -2.7577   0.0000   0.0000   0.0000  -0.0884
  -5.800  -0.2150   0.04307   0.04034  -0.0752  0.7982  0.0086  -2.7477   0.0000   0.0000   0.0000  -0.1050
  -5.700  -0.2076   0.04151   0.03869  -0.0762  0.7913  0.0088  -2.7293   0.0000   0.0000   0.0000  -0.1223
  -5.500  -0.1917   0.03859   0.03559  -0.0779  0.7785  0.0093  -2.6774   0.0000   0.0000   0.0000  -0.1620
  -5.400  -0.1832   0.03735   0.03429  -0.0786  0.7750  0.0095  -2.6313   0.0000   0.0000   0.0000  -0.1849
  -5.300  -0.1745   0.03618   0.03306  -0.0792  0.7710  0.0098  -2.5825   0.0000   0.0000   0.0000  -0.2099
  -5.200  -0.1657   0.03498   0.03179  -0.0798  0.7666  0.0100  -2.5389   0.0000   0.0000   0.0000  -0.2378
  -5.100  -0.1567   0.03377   0.03048  -0.0803  0.7620  0.0103  -2.5008   0.0000   0.0000   0.0000  -0.2688
  -5.000  -0.1476   0.03252   0.02913  -0.0807  0.7572  0.0106  -2.4699   0.0000   0.0000   0.0000  -0.3038
  -4.900  -0.1384   0.03120   0.02769  -0.0812  0.7523  0.0108  -2.4508   0.0000   0.0000   0.0000  -0.3436
  -4.800  -0.1290   0.02950   0.02582  -0.0815  0.7471  0.0108  -2.4791   0.0000   0.0000   0.0000  -0.3897
  -4.700  -0.1194   0.02733   0.02334  -0.0819  0.7417  0.0105  -2.5620   0.0000   0.0000   0.0000  -0.4441
  -4.600  -0.1097   0.02654   0.02246  -0.0821  0.7356  0.0110  -2.4959   0.0000   0.0000   0.0000  -0.5070
  -4.500  -0.0996   0.02570   0.02154  -0.0823  0.7339  0.0115  -2.4341   0.0000   0.0000   0.0000  -0.5855
  -4.400  -0.0894   0.02485   0.02061  -0.0824  0.7318  0.0121  -2.3769   0.0000   0.0000   0.0000  -0.6828
  -4.300  -0.0790   0.02402   0.01969  -0.0825  0.7293  0.0128  -2.3237   0.0000   0.0000   0.0000  -0.8062
  -4.200  -0.0685   0.02322   0.01881  -0.0826  0.7264  0.0136  -2.2724   0.0000   0.0000   0.0000  -0.9686
  -4.100  -0.0579   0.02251   0.01802  -0.0826  0.7231  0.0146  -2.2196   0.0000   0.0000   0.0000  -1.1931
  -4.000  -0.0470   0.02200   0.01742  -0.0826  0.7196  0.0157  -2.1585   0.0000   0.0000   0.0000  -1.5261
  -3.900  -0.0356   0.02198   0.01735  -0.0824  0.7157  0.0171  -2.0701   0.0000   0.0000   0.0000  -2.0883
  -3.800  -0.0220   0.02417   0.01960  -0.0818  0.7109  0.0186  -1.8607   0.0000   0.0000   0.0000  -3.5037
  -3.700  -0.0164   0.01885   0.01377  -0.0827  0.7082  0.0215  -2.0627   0.0000   0.0000   0.0000  -4.8443
  -3.600  -0.0067   0.01877   0.01371  -0.0829  0.7033  0.0235  -1.9229   0.0000   0.0000   0.0000  -12.2382
  -3.500   0.0034   0.01894   0.01392  -0.0830  0.6979  0.0259  -1.7837   0.0000   0.0000   0.0000  25.1373
  -3.400   0.0140   0.01909   0.01404  -0.0830  0.6924  0.0293  -1.6710   0.0000   0.0000   0.0000   6.2225
  -3.300   0.0265   0.02048   0.01552  -0.0827  0.6887  0.0342  -1.5255   0.0000   0.0000   0.0000   3.3911
  -3.200   0.0399   0.02229   0.01738  -0.0822  0.6874  0.0357  -1.3928   0.0000   0.0000   0.0000   2.3243
  -3.100   0.0467   0.01720   0.01187  -0.0831  0.6865  0.0399  -1.5160   0.0000   0.0000   0.0000   2.0413
  -3.000   0.0570   0.01687   0.01159  -0.0833  0.6850  0.0430  -1.4225   0.0000   0.0000   0.0000   1.7217
  -2.900   0.0676   0.01676   0.01153  -0.0834  0.6833  0.0465  -1.3327   0.0000   0.0000   0.0000   1.4908
  -2.800   0.0788   0.01673   0.01150  -0.0834  0.6813  0.0511  -1.2574   0.0000   0.0000   0.0000   1.3142
  -2.700   0.0904   0.01657   0.01130  -0.0832  0.6792  0.0539  -1.2045   0.0000   0.0000   0.0000   1.1756
  -2.600   0.1021   0.01635   0.01103  -0.0830  0.6769  0.0555  -1.1586   0.0000   0.0000   0.0000   1.0677
  -2.500   0.1138   0.01606   0.01069  -0.0829  0.6745  0.0564  -1.1163   0.0000   0.0000   0.0000   0.9823
  -2.400   0.1254   0.01572   0.01029  -0.0827  0.6721  0.0570  -1.0767   0.0000   0.0000   0.0000   0.9131
  -2.300   0.1365   0.01448   0.00890  -0.0826  0.6697  0.0563  -1.0702   0.0000   0.0000   0.0000   0.8583
  -2.200   0.1508   0.01078   0.00451  -0.0809  0.6681  0.0201  -1.4224   0.0000   0.0000   0.0000   0.7894
  -2.100   0.1619   0.01015   0.00380  -0.0806  0.6655  0.0171  -1.4357   0.0000   0.0000   0.0000   0.7502
  -2.000   0.1729   0.00960   0.00314  -0.0803  0.6627  0.0156  -1.4355   0.0000   0.0000   0.0000   0.7168
  -1.900   0.1840   0.00926   0.00270  -0.0801  0.6597  0.0146  -1.4135   0.0000   0.0000   0.0000   0.6873
  -1.800   0.1952   0.00903   0.00237  -0.0799  0.6564  0.0137  -1.3793   0.0000   0.0000   0.0000   0.6612
  -1.700   0.2065   0.00887   0.00212  -0.0798  0.6527  0.0131  -1.3364   0.0000   0.0000   0.0000   0.6380
  -1.600   0.2178   0.00876   0.00194  -0.0797  0.6487  0.0127  -1.2854   0.0000   0.0000   0.0000   0.6173
  -1.500   0.2292   0.00870   0.00181  -0.0797  0.6445  0.0123  -1.2258   0.0000   0.0000   0.0000   0.5987
  -1.400   0.2405   0.00866   0.00172  -0.0796  0.6412  0.0121  -1.1599   0.0000   0.0000   0.0000   0.5820
  -1.300   0.2520   0.00858   0.00162  -0.0796  0.6405  0.0120  -1.0904   0.0000   0.0000   0.0000   0.5667
  -1.200   0.2634   0.00853   0.00153  -0.0796  0.6396  0.0119  -1.0194   0.0000   0.0000   0.0000   0.5528
  -1.100   0.2748   0.00848   0.00145  -0.0796  0.6385  0.0120  -0.9474   0.0000   0.0000   0.0000   0.5400
  -1.000   0.2862   0.00843   0.00139  -0.0796  0.6372  0.0122  -0.8742   0.0000   0.0000   0.0000   0.5283
  -0.900   0.2976   0.00839   0.00133  -0.0796  0.6358  0.0127  -0.7990   0.0000   0.0000   0.0000   0.5174
  -0.800   0.3090   0.00836   0.00128  -0.0796  0.6341  0.0136  -0.7181   0.0000   0.0000   0.0000   0.5074
  -0.700   0.3204   0.00831   0.00126  -0.0795  0.6323  0.0164  -0.6234   0.0000   0.0000   0.0000   0.4980
  -0.600   0.3304   0.00750   0.00130  -0.0798  0.6305  0.2289  -0.6013   0.0000   0.0000   0.0000   0.4912
  -0.500   0.3414   0.00738   0.00130  -0.0798  0.6286  0.2677  -0.6086   0.0000   0.0000   0.0000   0.4835
  -0.400   0.3522   0.00720   0.00131  -0.0799  0.6266  0.3313  -0.6158   0.0000   0.0000   0.0000   0.4764
  -0.300   0.3622   0.00680   0.00134  -0.0800  0.6246  0.4710  -0.6226   0.0000   0.0000   0.0000   0.4702
  -0.200   0.3707   0.00631   0.00141  -0.0796  0.6225  0.6546  -0.6288   0.0000   0.0000   0.0000   0.4641
  -0.100   0.3763   0.00585   0.00148  -0.0783  0.6204  0.8217  -0.6336   0.0000   0.0000   0.0000   0.4573
   0.000   0.3897   0.00557   0.00147  -0.0783  0.6182  0.9696  -0.6425   0.0000   0.0000   0.0000   0.4501
   0.100   0.4081   0.00557   0.00144  -0.0799  0.6156  1.0000  -0.6535   0.0000   0.0000   0.0000   0.4449
   0.200   0.4191   0.00560   0.00143  -0.0799  0.6130  1.0000  -0.6608   0.0000   0.0000   0.0000   0.4396
   0.300   0.4301   0.00564   0.00143  -0.0798  0.6102  1.0000  -0.6681   0.0000   0.0000   0.0000   0.4345
   0.400   0.4410   0.00568   0.00143  -0.0798  0.6071  1.0000  -0.6753   0.0000   0.0000   0.0000   0.4297
   0.500   0.4520   0.00573   0.00144  -0.0798  0.6037  1.0000  -0.6826   0.0000   0.0000   0.0000   0.4252
   0.600   0.4630   0.00578   0.00146  -0.0798  0.6000  1.0000  -0.6898   0.0000   0.0000   0.0000   0.4209
   0.700   0.4741   0.00584   0.00149  -0.0798  0.5962  1.0000  -0.6970   0.0000   0.0000   0.0000   0.4168
   0.800   0.4852   0.00590   0.00153  -0.0798  0.5926  1.0000  -0.7042   0.0000   0.0000   0.0000   0.4129
   0.900   0.4964   0.00591   0.00153  -0.0798  0.5921  1.0000  -0.7117   0.0000   0.0000   0.0000   0.4091
   1.000   0.5076   0.00592   0.00153  -0.0798  0.5915  1.0000  -0.7192   0.0000   0.0000   0.0000   0.4055
   1.100   0.5188   0.00593   0.00153  -0.0798  0.5907  1.0000  -0.7267   0.0000   0.0000   0.0000   0.4020
   1.200   0.5300   0.00594   0.00154  -0.0798  0.5897  1.0000  -0.7343   0.0000   0.0000   0.0000   0.3987
   1.300   0.5412   0.00595   0.00154  -0.0798  0.5886  1.0000  -0.7419   0.0000   0.0000   0.0000   0.3956
   1.400   0.5524   0.00597   0.00155  -0.0798  0.5872  1.0000  -0.7504   0.0000   0.0000   0.0000   0.3925
   1.500   0.5636   0.00598   0.00156  -0.0798  0.5857  1.0000  -0.7589   0.0000   0.0000   0.0000   0.3896
   1.600   0.5747   0.00599   0.00157  -0.0799  0.5839  1.0000  -0.7673   0.0000   0.0000   0.0000   0.3868
   1.700   0.5859   0.00601   0.00158  -0.0799  0.5820  1.0000  -0.7759   0.0000   0.0000   0.0000   0.3840
   1.800   0.5971   0.00603   0.00159  -0.0799  0.5800  1.0000  -0.7852   0.0000   0.0000   0.0000   0.3814
   1.900   0.6082   0.00605   0.00160  -0.0799  0.5778  1.0000  -0.7947   0.0000   0.0000   0.0000   0.3789
   2.000   0.6193   0.00607   0.00161  -0.0799  0.5753  1.0000  -0.8043   0.0000   0.0000   0.0000   0.3765
   2.100   0.6304   0.00610   0.00162  -0.0799  0.5726  1.0000  -0.8147   0.0000   0.0000   0.0000   0.3741
   2.200   0.6414   0.00613   0.00164  -0.0798  0.5697  1.0000  -0.8261   0.0000   0.0000   0.0000   0.3718
   2.300   0.6524   0.00617   0.00165  -0.0798  0.5667  1.0000  -0.8383   0.0000   0.0000   0.0000   0.3696
   2.400   0.6633   0.00621   0.00166  -0.0798  0.5632  1.0000  -0.8506   0.0000   0.0000   0.0000   0.3675
   2.500   0.6741   0.00626   0.00168  -0.0797  0.5591  1.0000  -0.8633   0.0000   0.0000   0.0000   0.3654
   2.600   0.6849   0.00632   0.00171  -0.0797  0.5542  1.0000  -0.8773   0.0000   0.0000   0.0000   0.3634
   2.700   0.6958   0.00639   0.00175  -0.0797  0.5491  1.0000  -0.8913   0.0000   0.0000   0.0000   0.3614
   2.800   0.7060   0.00632   0.00161  -0.0794  0.5237  1.0000  -0.9061   0.0000   0.0000   0.0000   0.3593
   2.900   0.7150   0.00649   0.00157  -0.0791  0.4895  1.0000  -0.9213   0.0000   0.0000   0.0000   0.3573
   3.000   0.7258   0.00655   0.00158  -0.0790  0.4791  1.0000  -0.9378   0.0000   0.0000   0.0000   0.3555
   3.100   0.7362   0.00664   0.00160  -0.0789  0.4678  1.0000  -0.9557   0.0000   0.0000   0.0000   0.3537
   3.200   0.7465   0.00675   0.00163  -0.0788  0.4558  1.0000  -0.9747   0.0000   0.0000   0.0000   0.3520
   3.300   0.7571   0.00683   0.00167  -0.0788  0.4465  1.0000  -0.9941   0.0000   0.0000   0.0000   0.3504
   3.400   0.7680   0.00688   0.00170  -0.0788  0.4415  1.0000  -1.0139   0.0000   0.0000   0.0000   0.3488
   3.500   0.7788   0.00694   0.00173  -0.0787  0.4343  1.0000  -1.0337   0.0000   0.0000   0.0000   0.3473
   3.600   0.7893   0.00703   0.00177  -0.0787  0.4232  1.0000  -1.0532   0.0000   0.0000   0.0000   0.3457
   3.700   0.7993   0.00718   0.00183  -0.0785  0.4085  1.0000  -1.0756   0.0000   0.0000   0.0000   0.3442
   3.800   0.8097   0.00729   0.00188  -0.0785  0.3970  1.0000  -1.0994   0.0000   0.0000   0.0000   0.3428
   3.900   0.8202   0.00739   0.00193  -0.0784  0.3852  1.0000  -1.1272   0.0000   0.0000   0.0000   0.3414
   4.000   0.8296   0.00761   0.00202  -0.0782  0.3631  1.0000  -1.1550   0.0000   0.0000   0.0000   0.3400
   4.100   0.8395   0.00778   0.00211  -0.0781  0.3438  1.0000  -1.1834   0.0000   0.0000   0.0000   0.3386
   4.200   0.8482   0.00810   0.00225  -0.0778  0.3120  1.0000  -1.2103   0.0000   0.0000   0.0000   0.3373
   4.300   0.8574   0.00836   0.00238  -0.0776  0.2854  1.0000  -1.2379   0.0000   0.0000   0.0000   0.3360
   4.400   0.8664   0.00866   0.00253  -0.0774  0.2576  1.0000  -1.2651   0.0000   0.0000   0.0000   0.3347
   4.500   0.8748   0.00903   0.00272  -0.0771  0.2254  1.0000  -1.2915   0.0000   0.0000   0.0000   0.3334
   4.600   0.8832   0.00939   0.00291  -0.0769  0.1957  1.0000  -1.3302   0.0000   0.0000   0.0000   0.3322
   4.700   0.8918   0.00974   0.00310  -0.0766  0.1667  1.0000  -1.4095   0.0000   0.0000   0.0000   0.3310
   4.800   0.9002   0.01010   0.00330  -0.0763  0.1371  1.0000  -1.4887   0.0000   0.0000   0.0000   0.3298
   4.900   0.9084   0.01049   0.00351  -0.0760  0.1075  1.0000  -1.5673   0.0000   0.0000   0.0000   0.3286
   5.000   0.9163   0.01090   0.00375  -0.0757  0.0782  1.0000  -1.6446   0.0000   0.0000   0.0000   0.3274
   5.100   0.9203   0.01183   0.00430  -0.0748  0.0145  1.0000  -1.7008   0.0000   0.0000   0.0000   0.3260
   5.200   0.9304   0.01197   0.00439  -0.0747  0.0127  1.0000  -1.7862   0.0000   0.0000   0.0000   0.3249
   5.300   0.9407   0.01208   0.00445  -0.0746  0.0110  1.0000  -1.8662   0.0000   0.0000   0.0000   0.3238
   5.400   0.9508   0.01221   0.00458  -0.0745  0.0095  1.0000  -1.9392   0.0000   0.0000   0.0000   0.3227
   5.500   0.9610   0.01233   0.00472  -0.0743  0.0089  1.0000  -2.0155   0.0000   0.0000   0.0000   0.3216
   5.600   0.9712   0.01245   0.00487  -0.0742  0.0086  1.0000  -2.0952   0.0000   0.0000   0.0000   0.3205
   5.700   0.9813   0.01258   0.00501  -0.0741  0.0084  1.0000  -2.1776   0.0000   0.0000   0.0000   0.3195
   5.800   0.9915   0.01270   0.00517  -0.0739  0.0083  1.0000  -2.2616   0.0000   0.0000   0.0000   0.3185
   5.900   1.0016   0.01282   0.00532  -0.0738  0.0083  1.0000  -2.3467   0.0000   0.0000   0.0000   0.3175
   6.000   1.0116   0.01296   0.00549  -0.0736  0.0083  1.0000  -2.4326   0.0000   0.0000   0.0000   0.3165
   6.100   1.0216   0.01309   0.00566  -0.0735  0.0084  1.0000  -2.5191   0.0000   0.0000   0.0000   0.3155
   6.200   1.0315   0.01324   0.00584  -0.0733  0.0084  1.0000  -2.6057   0.0000   0.0000   0.0000   0.3145
   6.300   1.0413   0.01340   0.00604  -0.0731  0.0085  1.0000  -2.6923   0.0000   0.0000   0.0000   0.3136
   6.400   1.0510   0.01356   0.00624  -0.0729  0.0086  1.0000  -2.7786   0.0000   0.0000   0.0000   0.3126
   6.500   1.0605   0.01375   0.00647  -0.0727  0.0087  1.0000  -2.8640   0.0000   0.0000   0.0000   0.3116
   6.600   1.0700   0.01394   0.00671  -0.0724  0.0089  1.0000  -2.9480   0.0000   0.0000   0.0000   0.3107
   6.700   1.0793   0.01415   0.00696  -0.0721  0.0090  1.0000  -3.0300   0.0000   0.0000   0.0000   0.3097
   6.800   1.0897   0.01420   0.00731  -0.0721  0.0094  1.0000  -3.2169   0.0000   0.0000   0.0000   0.3089
   6.900   1.0990   0.01440   0.00757  -0.0719  0.0096  1.0000  -3.3114   0.0000   0.0000   0.0000   0.3080
   7.000   1.1081   0.01463   0.00786  -0.0715  0.0098  1.0000  -3.3947   0.0000   0.0000   0.0000   0.3070
   7.100   1.1169   0.01489   0.00819  -0.0711  0.0099  1.0000  -3.4699   0.0000   0.0000   0.0000   0.3061
   7.200   1.1253   0.01520   0.00856  -0.0707  0.0101  1.0000  -3.5388   0.0000   0.0000   0.0000   0.3051
   7.300   1.1333   0.01553   0.00896  -0.0702  0.0102  1.0000  -3.6030   0.0000   0.0000   0.0000   0.3040
   7.400   1.1409   0.01591   0.00941  -0.0696  0.0104  1.0000  -3.6626   0.0000   0.0000   0.0000   0.3030
   7.500   1.1480   0.01633   0.00991  -0.0689  0.0107  1.0000  -3.7175   0.0000   0.0000   0.0000   0.3019
   7.600   1.1546   0.01679   0.01045  -0.0682  0.0109  1.0000  -3.7678   0.0000   0.0000   0.0000   0.3008
   7.700   1.1605   0.01730   0.01104  -0.0674  0.0112  1.0000  -3.8132   0.0000   0.0000   0.0000   0.2997
   7.800   1.1659   0.01786   0.01168  -0.0665  0.0114  1.0000  -3.8531   0.0000   0.0000   0.0000   0.2985
   7.900   1.1707   0.01848   0.01237  -0.0655  0.0117  1.0000  -3.8872   0.0000   0.0000   0.0000   0.2973
   8.000   1.1749   0.01916   0.01313  -0.0644  0.0120  1.0000  -3.9154   0.0000   0.0000   0.0000   0.2960
   8.100   1.1786   0.01991   0.01396  -0.0632  0.0124  1.0000  -3.9370   0.0000   0.0000   0.0000   0.2947
   8.200   1.1817   0.02078   0.01490  -0.0620  0.0127  1.0000  -3.9497   0.0000   0.0000   0.0000   0.2934
   8.300   1.1844   0.02187   0.01607  -0.0607  0.0131  1.0000  -3.9463   0.0000   0.0000   0.0000   0.2921
   8.400   1.1877   0.02357   0.01784  -0.0594  0.0148  1.0000  -3.8790   0.0000   0.0000   0.0000   0.2907
   8.500   1.1975   0.02336   0.01763  -0.0591  0.0154  1.0000  -3.9865   0.0000   0.0000   0.0000   0.2899
   8.600   1.2074   0.02331   0.01761  -0.0588  0.0166  1.0000  -4.0752   0.0000   0.0000   0.0000   0.2891
  11.300   1.2994   0.05118   0.04762  -0.0374  0.0176  1.0000  -4.9574   0.0000   0.0000   0.0000   0.2656
  11.400   1.2960   0.05210   0.04858  -0.0366  0.0174  1.0000  -4.9906   0.0000   0.0000   0.0000   0.2649
  11.500   1.2921   0.05306   0.04959  -0.0358  0.0172  1.0000  -5.0193   0.0000   0.0000   0.0000   0.2642
  11.600   1.2880   0.05410   0.05067  -0.0352  0.0170  1.0000  -5.0466   0.0000   0.0000   0.0000   0.2637
  11.700   1.2837   0.05522   0.05184  -0.0346  0.0168  1.0000  -5.0704   0.0000   0.0000   0.0000   0.2632
  11.800   1.2791   0.05643   0.05310  -0.0342  0.0167  1.0000  -5.0912   0.0000   0.0000   0.0000   0.2628
  11.900   1.2744   0.05772   0.05445  -0.0338  0.0165  1.0000  -5.1092   0.0000   0.0000   0.0000   0.2624
  12.000   1.2692   0.05912   0.05589  -0.0335  0.0164  1.0000  -5.1215   0.0000   0.0000   0.0000   0.2622
  12.100   1.2641   0.06058   0.05741  -0.0334  0.0163  1.0000  -5.1324   0.0000   0.0000   0.0000   0.2620
  12.200   1.2584   0.06214   0.05903  -0.0333  0.0161  1.0000  -5.1377   0.0000   0.0000   0.0000   0.2619
  12.300   1.2524   0.06378   0.06071  -0.0333  0.0160  1.0000  -5.1387   0.0000   0.0000   0.0000   0.2618
  12.400   1.2461   0.06545   0.06244  -0.0333  0.0159  1.0000  -5.1361   0.0000   0.0000   0.0000   0.2618
  12.500   1.2390   0.06723   0.06428  -0.0334  0.0158  1.0000  -5.1268   0.0000   0.0000   0.0000   0.2619
  12.600   1.2319   0.06914   0.06624  -0.0337  0.0157  1.0000  -5.1148   0.0000   0.0000   0.0000   0.2621
  12.700   1.2248   0.07116   0.06833  -0.0341  0.0156  1.0000  -5.0999   0.0000   0.0000   0.0000   0.2624
  12.800   1.2169   0.07327   0.07050  -0.0346  0.0156  1.0000  -5.0798   0.0000   0.0000   0.0000   0.2629
  12.900   1.2092   0.07548   0.07276  -0.0353  0.0155  1.0000  -5.0575   0.0000   0.0000   0.0000   0.2634
  13.000   1.2014   0.07778   0.07512  -0.0360  0.0154  1.0000  -5.0324   0.0000   0.0000   0.0000   0.2640
  13.100   1.1933   0.08010   0.07751  -0.0369  0.0154  1.0000  -5.0062   0.0000   0.0000   0.0000   0.2648
  13.200   1.1853   0.08249   0.07995  -0.0378  0.0154  1.0000  -4.9785   0.0000   0.0000   0.0000   0.2657
  13.300   1.1775   0.08494   0.08247  -0.0389  0.0153  1.0000  -4.9486   0.0000   0.0000   0.0000   0.2666
  13.400   1.1696   0.08739   0.08497  -0.0401  0.0153  1.0000  -4.9200   0.0000   0.0000   0.0000   0.2677
  13.500   1.1618   0.08989   0.08752  -0.0414  0.0153  1.0000  -4.8905   0.0000   0.0000   0.0000   0.2689
  13.600   1.1543   0.09244   0.09013  -0.0427  0.0153  1.0000  -4.8587   0.0000   0.0000   0.0000   0.2701
  13.700   1.1468   0.09501   0.09275  -0.0441  0.0153  1.0000  -4.8279   0.0000   0.0000   0.0000   0.2715
  13.800   1.1395   0.09763   0.09543  -0.0457  0.0153  1.0000  -4.7965   0.0000   0.0000   0.0000   0.2730
  13.900   1.1323   0.10033   0.09818  -0.0474  0.0153  1.0000  -4.7622   0.0000   0.0000   0.0000   0.2745
  14.000   1.1253   0.10308   0.10098  -0.0491  0.0153  1.0000  -4.7277   0.0000   0.0000   0.0000   0.2762
  14.100   1.1184   0.10592   0.10387  -0.0511  0.0154  1.0000  -4.6914   0.0000   0.0000   0.0000   0.2780
  14.200   1.1117   0.10884   0.10684  -0.0530  0.0154  1.0000  -4.6518   0.0000   0.0000   0.0000   0.2799
  14.300   1.1048   0.11189   0.10994  -0.0551  0.0155  1.0000  -4.6085   0.0000   0.0000   0.0000   0.2820
  14.400   1.0980   0.11499   0.11308  -0.0574  0.0156  1.0000  -4.5599   0.0000   0.0000   0.0000   0.2843
  14.500   1.0913   0.11804   0.11619  -0.0596  0.0156  1.0000  -4.5069   0.0000   0.0000   0.0000   0.2865
  14.600   1.0834   0.12162   0.11982  -0.0623  0.0158  1.0000  -4.4341   0.0000   0.0000   0.0000   0.2894
  14.700   1.0756   0.12539   0.12364  -0.0651  0.0159  1.0000  -4.3530   0.0000   0.0000   0.0000   0.2923
  14.800   1.0663   0.12990   0.12820  -0.0684  0.0159  1.0000  -4.2480   0.0000   0.0000   0.0000   0.2959
  14.900   1.0596   0.13360   0.13192  -0.0710  0.0158  1.0000  -4.1874   0.0000   0.0000   0.0000   0.2986
  20.100   1.0246   0.29031   0.28869  -0.1379  0.0085  1.0000  -2.0174   0.0000   0.0000   0.0000   0.3614
  20.200   1.0251   0.29234   0.29072  -0.1385  0.0082  1.0000  -2.0345   0.0000   0.0000   0.0000   0.3618
  20.300   1.0255   0.29427   0.29266  -0.1391  0.0078  1.0000  -2.0576   0.0000   0.0000   0.0000   0.3622
  20.400   1.0259   0.29609   0.29448  -0.1397  0.0075  1.0000  -2.0876   0.0000   0.0000   0.0000   0.3625
  20.500   1.0264   0.29778   0.29618  -0.1403  0.0072  1.0000  -2.1257   0.0000   0.0000   0.0000   0.3628
  20.600   1.0270   0.29932   0.29773  -0.1408  0.0070  1.0000  -2.1731   0.0000   0.0000   0.0000   0.3630
  20.700   1.0276   0.30070   0.29911  -0.1412  0.0067  1.0000  -2.2312   0.0000   0.0000   0.0000   0.3631
  20.800   1.0284   0.30188   0.30030  -0.1416  0.0065  1.0000  -2.3020   0.0000   0.0000   0.0000   0.3631
  20.900   1.0293   0.30290   0.30134  -0.1419  0.0062  1.0000  -2.3836   0.0000   0.0000   0.0000   0.3630
  21.000   1.0288   0.30438   0.30282  -0.1423  0.0060  1.0000  -2.4362   0.0000   0.0000   0.0000   0.3633
  21.100   1.0273   0.30603   0.30448  -0.1427  0.0057  1.0000  -2.4754   0.0000   0.0000   0.0000   0.3637
  21.200   0.9822   0.30602   0.30452  -0.1398  0.0052  1.0000  -2.1427   0.0000   0.0000   0.0000   0.3677
  21.400   0.9346   0.30224   0.30076  -0.1367  0.0050  1.0000  -1.7864   0.0000   0.0000   0.0000   0.3722
  21.500   0.9301   0.30256   0.30109  -0.1368  0.0049  1.0000  -1.7680   0.0000   0.0000   0.0000   0.3729
  21.600   0.9268   0.30298   0.30151  -0.1370  0.0049  1.0000  -1.7603   0.0000   0.0000   0.0000   0.3736
  21.700   0.9249   0.30344   0.30199  -0.1373  0.0048  1.0000  -1.7734   0.0000   0.0000   0.0000   0.3741
  21.800   0.9245   0.30389   0.30245  -0.1377  0.0046  1.0000  -1.8135   0.0000   0.0000   0.0000   0.3744
  21.900   0.9244   0.30433   0.30289  -0.1381  0.0044  1.0000  -1.8593   0.0000   0.0000   0.0000   0.3747
  22.000   0.9238   0.30478   0.30335  -0.1384  0.0042  1.0000  -1.8937   0.0000   0.0000   0.0000   0.3749
  22.100   0.9226   0.30531   0.30389  -0.1386  0.0040  1.0000  -1.9110   0.0000   0.0000   0.0000   0.3753
  22.200   0.9207   0.30592   0.30450  -0.1389  0.0037  1.0000  -1.9117   0.0000   0.0000   0.0000   0.3757
  22.300   0.9182   0.30663   0.30522  -0.1391  0.0035  1.0000  -1.8933   0.0000   0.0000   0.0000   0.3763
  22.400   0.9154   0.30734   0.30594  -0.1393  0.0032  1.0000  -1.8679   0.0000   0.0000   0.0000   0.3769
  22.500   0.9125   0.30805   0.30665  -0.1395  0.0031  1.0000  -1.8391   0.0000   0.0000   0.0000   0.3775
  22.600   0.9097   0.30875   0.30736  -0.1397  0.0029  1.0000  -1.8092   0.0000   0.0000   0.0000   0.3781
  22.700   0.9070   0.30946   0.30807  -0.1398  0.0029  1.0000  -1.7786   0.0000   0.0000   0.0000   0.3787
  22.800   0.9045   0.31017   0.30879  -0.1400  0.0028  1.0000  -1.7477   0.0000   0.0000   0.0000   0.3792
  22.900   0.9020   0.31089   0.30951  -0.1402  0.0028  1.0000  -1.7165   0.0000   0.0000   0.0000   0.3798
  23.000   0.8997   0.31162   0.31024  -0.1405  0.0028  1.0000  -1.6852   0.0000   0.0000   0.0000   0.3803
  23.100   0.8975   0.31235   0.31098  -0.1407  0.0028  1.0000  -1.6539   0.0000   0.0000   0.0000   0.3809
  23.200   0.8954   0.31308   0.31172  -0.1409  0.0029  1.0000  -1.6229   0.0000   0.0000   0.0000   0.3814
  23.300   0.8934   0.31382   0.31246  -0.1411  0.0030  1.0000  -1.5924   0.0000   0.0000   0.0000   0.3819
  23.400   0.8914   0.31456   0.31320  -0.1414  0.0031  1.0000  -1.5626   0.0000   0.0000   0.0000   0.3824
  23.500   0.8895   0.31530   0.31394  -0.1416  0.0032  1.0000  -1.5335   0.0000   0.0000   0.0000   0.3829
  23.600   0.8877   0.31603   0.31468  -0.1418  0.0033  1.0000  -1.5053   0.0000   0.0000   0.0000   0.3834
  23.700   0.8858   0.31675   0.31540  -0.1421  0.0035  1.0000  -1.4777   0.0000   0.0000   0.0000   0.3839
  23.800   0.8838   0.31746   0.31611  -0.1423  0.0037  1.0000  -1.4499   0.0000   0.0000   0.0000   0.3844
  23.900   0.8815   0.31813   0.31679  -0.1425  0.0039  1.0000  -1.4194   0.0000   0.0000   0.0000   0.3849
  24.000   0.8785   0.31878   0.31744  -0.1426  0.0042  1.0000  -1.3799   0.0000   0.0000   0.0000   0.3854
  24.100   0.8759   0.31948   0.31814  -0.1427  0.0044  1.0000  -1.3408   0.0000   0.0000   0.0000   0.3860
  24.200   0.8740   0.32023   0.31890  -0.1429  0.0045  1.0000  -1.3125   0.0000   0.0000   0.0000   0.3864
  24.300   0.8726   0.32099   0.31966  -0.1432  0.0046  1.0000  -1.2912   0.0000   0.0000   0.0000   0.3868
  24.400   0.8714   0.32174   0.32041  -0.1434  0.0046  1.0000  -1.2734   0.0000   0.0000   0.0000   0.3872
  24.500   0.8703   0.32249   0.32117  -0.1437  0.0046  1.0000  -1.2576   0.0000   0.0000   0.0000   0.3876
  24.600   0.8693   0.32324   0.32193  -0.1440  0.0046  1.0000  -1.2432   0.0000   0.0000   0.0000   0.3880
  24.700   0.8684   0.32400   0.32268  -0.1442  0.0047  1.0000  -1.2299   0.0000   0.0000   0.0000   0.3883
  24.800   0.8675   0.32476   0.32345  -0.1445  0.0047  1.0000  -1.2174   0.0000   0.0000   0.0000   0.3887
  24.900   0.8667   0.32552   0.32421  -0.1448  0.0047  1.0000  -1.2055   0.0000   0.0000   0.0000   0.3890
  25.000   0.8660   0.32628   0.32497  -0.1451  0.0047  1.0000  -1.1943   0.0000   0.0000   0.0000   0.3894
  25.100   0.8652   0.32704   0.32574  -0.1454  0.0047  1.0000  -1.1835   0.0000   0.0000   0.0000   0.3897
  25.200   0.8646   0.32780   0.32650  -0.1457  0.0047  1.0000  -1.1732   0.0000   0.0000   0.0000   0.3900
  25.300   0.8639   0.32857   0.32727  -0.1460  0.0047  1.0000  -1.1632   0.0000   0.0000   0.0000   0.3904


