xflr5 v6.61

 Calculated polar for: E423

 1 1 Reynolds number fixed          Mach number fixed         

 xtrf =   1.000 (top)        1.000 (bottom)
 Mach =   0.000     Re =     0.160 e 6     Ncrit =   9.000

  alpha     CL        CD       CDp       Cm    Top Xtr Bot Xtr   Cpmin    Chinge    XCp    
 ------- -------- --------- --------- -------- ------- ------- -------- --------- ---------
 -10.000   0.1874   0.11019   0.10607  -0.1264  0.8921  0.0457  -1.0397   0.0000   0.0000   0.0000   0.9776
  -9.900   0.1982   0.10942   0.10527  -0.1295  0.8897  0.0467  -1.0480   0.0000   0.0000   0.0000   0.9531
  -9.800   0.2095   0.10892   0.10475  -0.1329  0.8874  0.0475  -1.0592   0.0000   0.0000   0.0000   0.9314
  -9.700   0.2215   0.10836   0.10416  -0.1366  0.8853  0.0479  -1.0715   0.0000   0.0000   0.0000   0.9113
  -9.600   0.2337   0.10758   0.10335  -0.1403  0.8832  0.0483  -1.0813   0.0000   0.0000   0.0000   0.8925
  -9.500   0.2462   0.10661   0.10235  -0.1439  0.8810  0.0485  -1.0894   0.0000   0.0000   0.0000   0.8747
  -9.400   0.2592   0.10548   0.10118  -0.1477  0.8788  0.0487  -1.0961   0.0000   0.0000   0.0000   0.8577
  -9.300   0.2727   0.10414   0.09980  -0.1511  0.8762  0.0488  -1.0975   0.0000   0.0000   0.0000   0.8403
  -9.200   0.2759   0.10350   0.09916  -0.1514  0.8695  0.0489  -1.1007   0.0000   0.0000   0.0000   0.8342
  -9.100   0.2835   0.10248   0.09812  -0.1529  0.8644  0.0489  -1.1022   0.0000   0.0000   0.0000   0.8237
  -9.000   0.2930   0.10128   0.09688  -0.1549  0.8600  0.0490  -1.1026   0.0000   0.0000   0.0000   0.8119
  -8.900   0.3032   0.09999   0.09556  -0.1571  0.8560  0.0491  -1.1026   0.0000   0.0000   0.0000   0.8001
  -8.800   0.3141   0.09865   0.09417  -0.1595  0.8522  0.0491  -1.1023   0.0000   0.0000   0.0000   0.7885
  -8.700   0.3254   0.09727   0.09275  -0.1620  0.8486  0.0492  -1.1018   0.0000   0.0000   0.0000   0.7773
  -8.600   0.3367   0.09592   0.09133  -0.1644  0.8449  0.0492  -1.1012   0.0000   0.0000   0.0000   0.7668
  -8.500   0.3450   0.09480   0.09018  -0.1661  0.8407  0.0493  -1.1018   0.0000   0.0000   0.0000   0.7590
  -8.400   0.3455   0.09426   0.08965  -0.1655  0.8356  0.0493  -1.1057   0.0000   0.0000   0.0000   0.7563
  -8.300   0.3478   0.09358   0.08897  -0.1655  0.8307  0.0493  -1.1088   0.0000   0.0000   0.0000   0.7525
  -8.200   0.3512   0.09281   0.08819  -0.1657  0.8261  0.0494  -1.1114   0.0000   0.0000   0.0000   0.7481
  -8.100   0.3559   0.09192   0.08728  -0.1663  0.8219  0.0494  -1.1135   0.0000   0.0000   0.0000   0.7429
  -8.000   0.3613   0.09098   0.08631  -0.1671  0.8179  0.0494  -1.1153   0.0000   0.0000   0.0000   0.7375
  -7.900   0.3673   0.08998   0.08527  -0.1681  0.8143  0.0494  -1.1168   0.0000   0.0000   0.0000   0.7318
  -7.800   0.3741   0.08894   0.08419  -0.1692  0.8107  0.0495  -1.1180   0.0000   0.0000   0.0000   0.7260
  -7.700   0.3813   0.08788   0.08309  -0.1705  0.8071  0.0495  -1.1190   0.0000   0.0000   0.0000   0.7202
  -7.500   0.3797   0.08199   0.07724  -0.1713  0.8017  0.0508  -1.2120   0.0000   0.0000   0.0000   0.7238
  -7.400   0.3816   0.08030   0.07555  -0.1706  0.7990  0.0513  -1.2073   0.0000   0.0000   0.0000   0.7194
  -7.300   0.3872   0.07879   0.07405  -0.1700  0.7964  0.0519  -1.1830   0.0000   0.0000   0.0000   0.7108
  -7.200   0.3932   0.07751   0.07277  -0.1695  0.7937  0.0524  -1.1575   0.0000   0.0000   0.0000   0.7023
  -7.100   0.3985   0.07646   0.07171  -0.1691  0.7908  0.0528  -1.1356   0.0000   0.0000   0.0000   0.6950
  -7.000   0.4035   0.07552   0.07077  -0.1687  0.7879  0.0533  -1.1164   0.0000   0.0000   0.0000   0.6884
  -6.900   0.4082   0.07467   0.06991  -0.1685  0.7849  0.0538  -1.0997   0.0000   0.0000   0.0000   0.6824
  -6.800   0.4127   0.07387   0.06905  -0.1683  0.7819  0.0544  -1.0865   0.0000   0.0000   0.0000   0.6770
  -6.700   0.4175   0.07309   0.06825  -0.1682  0.7790  0.0549  -1.0726   0.0000   0.0000   0.0000   0.6716
  -6.600   0.4229   0.07231   0.06745  -0.1683  0.7762  0.0556  -1.0587   0.0000   0.0000   0.0000   0.6662
  -6.500   0.4286   0.07155   0.06666  -0.1685  0.7733  0.0564  -1.0454   0.0000   0.0000   0.0000   0.6610
  -6.400   0.4345   0.07082   0.06589  -0.1689  0.7704  0.0573  -1.0333   0.0000   0.0000   0.0000   0.6560
  -6.100   0.4459   0.06913   0.06417  -0.1690  0.7617  0.0601  -1.0135   0.0000   0.0000   0.0000   0.6450
  -6.000   0.4452   0.06879   0.06387  -0.1680  0.7595  0.0608  -1.0128   0.0000   0.0000   0.0000   0.6432
  -5.900   0.4446   0.06846   0.06356  -0.1671  0.7573  0.0616  -1.0131   0.0000   0.0000   0.0000   0.6414
  -5.800   0.4447   0.06808   0.06320  -0.1665  0.7550  0.0625  -1.0139   0.0000   0.0000   0.0000   0.6395
  -5.700   0.4459   0.06764   0.06278  -0.1661  0.7526  0.0635  -1.0148   0.0000   0.0000   0.0000   0.6374
  -5.600   0.4475   0.06718   0.06234  -0.1659  0.7503  0.0646  -1.0167   0.0000   0.0000   0.0000   0.6352
  -5.500   0.4494   0.06672   0.06189  -0.1659  0.7479  0.0658  -1.0199   0.0000   0.0000   0.0000   0.6332
  -5.400   0.4519   0.06627   0.06144  -0.1661  0.7456  0.0671  -1.0248   0.0000   0.0000   0.0000   0.6312
  -5.300   0.4550   0.06588   0.06106  -0.1666  0.7432  0.0687  -1.0331   0.0000   0.0000   0.0000   0.6294
  -5.200   0.4592   0.06575   0.06093  -0.1679  0.7409  0.0706  -1.0495   0.0000   0.0000   0.0000   0.6286
  -5.100   0.4686   0.06667   0.06183  -0.1720  0.7382  0.0732  -1.0851   0.0000   0.0000   0.0000   0.6294
  -5.000   0.4788   0.06673   0.06188  -0.1745  0.7360  0.0741  -1.0956   0.0000   0.0000   0.0000   0.6263
  -4.900   0.4877   0.06625   0.06137  -0.1761  0.7340  0.0744  -1.0999   0.0000   0.0000   0.0000   0.6225
  -4.800   0.4964   0.06557   0.06067  -0.1777  0.7321  0.0747  -1.1043   0.0000   0.0000   0.0000   0.6188
  -4.700   0.5055   0.06477   0.05985  -0.1792  0.7302  0.0748  -1.1086   0.0000   0.0000   0.0000   0.6151
  -4.600   0.5150   0.06389   0.05893  -0.1809  0.7283  0.0749  -1.1130   0.0000   0.0000   0.0000   0.6113
  -4.500   0.5248   0.06297   0.05798  -0.1825  0.7264  0.0750  -1.1176   0.0000   0.0000   0.0000   0.6076
  -4.400   0.5346   0.06204   0.05702  -0.1842  0.7242  0.0751  -1.1222   0.0000   0.0000   0.0000   0.6040
  -4.300   0.5443   0.06118   0.05613  -0.1859  0.7218  0.0752  -1.1271   0.0000   0.0000   0.0000   0.6006
  -4.200   0.5509   0.06039   0.05534  -0.1868  0.7201  0.0752  -1.1329   0.0000   0.0000   0.0000   0.5977
  -4.100   0.5562   0.05953   0.05449  -0.1872  0.7190  0.0753  -1.1392   0.0000   0.0000   0.0000   0.5950
  -4.000   0.5614   0.05867   0.05363  -0.1876  0.7178  0.0753  -1.1456   0.0000   0.0000   0.0000   0.5923
  -3.900   0.5668   0.05778   0.05276  -0.1881  0.7165  0.0753  -1.1522   0.0000   0.0000   0.0000   0.5896
  -3.800   0.5650   0.05406   0.04909  -0.1898  0.7152  0.0766  -1.2320   0.0000   0.0000   0.0000   0.5936
  -3.700   0.5639   0.05211   0.04716  -0.1895  0.7137  0.0779  -1.2473   0.0000   0.0000   0.0000   0.5934
  -3.600   0.5646   0.05127   0.04635  -0.1882  0.7122  0.0789  -1.2298   0.0000   0.0000   0.0000   0.5905
  -3.500   0.5651   0.05082   0.04593  -0.1863  0.7106  0.0798  -1.1995   0.0000   0.0000   0.0000   0.5866
  -3.400   0.5663   0.05049   0.04562  -0.1845  0.7090  0.0810  -1.1668   0.0000   0.0000   0.0000   0.5825
  -3.300   0.5683   0.05019   0.04535  -0.1828  0.7073  0.0823  -1.1346   0.0000   0.0000   0.0000   0.5782
  -3.200   0.5717   0.04985   0.04502  -0.1817  0.7055  0.0838  -1.1063   0.0000   0.0000   0.0000   0.5740
  -3.100   0.5769   0.04940   0.04457  -0.1812  0.7037  0.0855  -1.0833   0.0000   0.0000   0.0000   0.5700
  -3.000   0.5844   0.04880   0.04397  -0.1814  0.7018  0.0874  -1.0735   0.0000   0.0000   0.0000   0.5661
  -2.900   0.6464   0.04362   0.03847  -0.2000  0.7001  0.0765  -1.3215   0.0000   0.0000   0.0000   0.5644
  -2.800   0.6415   0.04267   0.03755  -0.1966  0.6983  0.0710  -1.2935   0.0000   0.0000   0.0000   0.5614
  -2.700   0.6601   0.04073   0.03554  -0.2002  0.6966  0.0707  -1.3255   0.0000   0.0000   0.0000   0.5579
  -2.600   0.6837   0.03868   0.03336  -0.2048  0.6950  0.0719  -1.3640   0.0000   0.0000   0.0000   0.5538
  -2.500   0.7101   0.03591   0.03041  -0.2104  0.6935  0.0722  -1.4235   0.0000   0.0000   0.0000   0.5502
  -2.400   0.7427   0.03226   0.02646  -0.2176  0.6921  0.0731  -1.5153   0.0000   0.0000   0.0000   0.5465
  -2.200   0.7923   0.02728   0.02087  -0.2268  0.6893  0.0810  -1.5601   0.0000   0.0000   0.0000   0.5393
  -2.100   0.8032   0.02738   0.02097  -0.2268  0.6879  0.0836  -1.4881   0.0000   0.0000   0.0000   0.5351
  -2.000   0.8118   0.02794   0.02159  -0.2261  0.6864  0.0869  -1.4017   0.0000   0.0000   0.0000   0.5310
  -1.900   0.8208   0.02844   0.02212  -0.2254  0.6849  0.0907  -1.3211   0.0000   0.0000   0.0000   0.5270
  -1.800   0.8375   0.02771   0.02122  -0.2270  0.6834  0.0944  -1.2901   0.0000   0.0000   0.0000   0.5232
  -1.700   0.8571   0.02650   0.01974  -0.2294  0.6819  0.0977  -1.2812   0.0000   0.0000   0.0000   0.5195
  -1.600   0.8723   0.02607   0.01911  -0.2304  0.6801  0.1018  -1.2501   0.0000   0.0000   0.0000   0.5158
  -1.500   0.8837   0.02629   0.01922  -0.2307  0.6779  0.1049  -1.2250   0.0000   0.0000   0.0000   0.5125
  -1.400   0.8914   0.02681   0.01971  -0.2301  0.6759  0.1065  -1.2305   0.0000   0.0000   0.0000   0.5094
  -1.300   0.9074   0.02515   0.01780  -0.2321  0.6752  0.1132  -1.2403   0.0000   0.0000   0.0000   0.5068
  -1.200   0.9157   0.02515   0.01782  -0.2316  0.6743  0.1162  -1.2469   0.0000   0.0000   0.0000   0.5038
  -1.100   0.9237   0.02522   0.01791  -0.2311  0.6733  0.1191  -1.2533   0.0000   0.0000   0.0000   0.5009
  -1.000   0.9318   0.02528   0.01798  -0.2306  0.6722  0.1221  -1.2597   0.0000   0.0000   0.0000   0.4980
  -0.900   0.9400   0.02533   0.01798  -0.2302  0.6710  0.1255  -1.2661   0.0000   0.0000   0.0000   0.4951
  -0.800   0.9477   0.02548   0.01814  -0.2296  0.6697  0.1298  -1.2722   0.0000   0.0000   0.0000   0.4923
  -0.700   0.9552   0.02569   0.01835  -0.2289  0.6684  0.1346  -1.2781   0.0000   0.0000   0.0000   0.4895
  -0.600   0.9624   0.02593   0.01858  -0.2282  0.6669  0.1389  -1.2839   0.0000   0.0000   0.0000   0.4868
  -0.500   0.9693   0.02624   0.01889  -0.2273  0.6654  0.1420  -1.2894   0.0000   0.0000   0.0000   0.4840
  -0.400   0.9808   0.02571   0.01822  -0.2279  0.6640  0.1479  -1.2973   0.0000   0.0000   0.0000   0.4816
  -0.300   0.9901   0.02552   0.01801  -0.2278  0.6625  0.1530  -1.3040   0.0000   0.0000   0.0000   0.4792
  -0.200   0.9980   0.02561   0.01812  -0.2273  0.6610  0.1565  -1.3102   0.0000   0.0000   0.0000   0.4767
  -0.100   1.0060   0.02572   0.01824  -0.2268  0.6594  0.1600  -1.3164   0.0000   0.0000   0.0000   0.4742
   0.000   1.0146   0.02581   0.01833  -0.2264  0.6578  0.1637  -1.3231   0.0000   0.0000   0.0000   0.4717
   0.100   1.0239   0.02586   0.01835  -0.2261  0.6562  0.1676  -1.3303   0.0000   0.0000   0.0000   0.4692
   0.200   1.0338   0.02588   0.01834  -0.2259  0.6545  0.1717  -1.3380   0.0000   0.0000   0.0000   0.4667
   0.300   1.0443   0.02587   0.01829  -0.2258  0.6529  0.1760  -1.3462   0.0000   0.0000   0.0000   0.4642
   0.400   1.0553   0.02586   0.01824  -0.2257  0.6513  0.1803  -1.3549   0.0000   0.0000   0.0000   0.4617
   0.500   1.0662   0.02594   0.01828  -0.2256  0.6497  0.1842  -1.3636   0.0000   0.0000   0.0000   0.4592
   0.700   1.0922   0.02545   0.01768  -0.2265  0.6467  0.1986  -1.3837   0.0000   0.0000   0.0000   0.4546
   0.800   1.1041   0.02541   0.01765  -0.2267  0.6453  0.2042  -1.3933   0.0000   0.0000   0.0000   0.4523
   0.900   1.1162   0.02540   0.01762  -0.2268  0.6440  0.2090  -1.4029   0.0000   0.0000   0.0000   0.4501
   1.000   1.1284   0.02539   0.01759  -0.2270  0.6427  0.2136  -1.4124   0.0000   0.0000   0.0000   0.4479
   1.100   1.1406   0.02541   0.01757  -0.2273  0.6415  0.2182  -1.4218   0.0000   0.0000   0.0000   0.4457
   1.200   1.1529   0.02544   0.01756  -0.2275  0.6402  0.2228  -1.4317   0.0000   0.0000   0.0000   0.4436
   1.300   1.1651   0.02550   0.01759  -0.2277  0.6389  0.2272  -1.4423   0.0000   0.0000   0.0000   0.4416
   1.400   1.1770   0.02563   0.01767  -0.2279  0.6375  0.2311  -1.4527   0.0000   0.0000   0.0000   0.4396
   1.500   1.1882   0.02586   0.01786  -0.2280  0.6360  0.2343  -1.4624   0.0000   0.0000   0.0000   0.4376
   1.600   1.1978   0.02628   0.01825  -0.2278  0.6341  0.2365  -1.4707   0.0000   0.0000   0.0000   0.4358
   1.700   1.2034   0.02701   0.01896  -0.2273  0.6311  0.2429  -1.4744   0.0000   0.0000   0.0000   0.4344
   1.800   1.2092   0.02719   0.01918  -0.2266  0.6300  0.2497  -1.4798   0.0000   0.0000   0.0000   0.4327
   1.900   1.2155   0.02730   0.01933  -0.2259  0.6291  0.2553  -1.4858   0.0000   0.0000   0.0000   0.4309
   2.000   1.2212   0.02747   0.01954  -0.2250  0.6282  0.2605  -1.4914   0.0000   0.0000   0.0000   0.4292
   2.100   1.2265   0.02767   0.01977  -0.2241  0.6270  0.2654  -1.4966   0.0000   0.0000   0.0000   0.4274
   2.200   1.2313   0.02790   0.02003  -0.2231  0.6258  0.2701  -1.5013   0.0000   0.0000   0.0000   0.4257
   2.300   1.2356   0.02816   0.02032  -0.2220  0.6244  0.2745  -1.5056   0.0000   0.0000   0.0000   0.4241
   2.400   1.2396   0.02846   0.02064  -0.2209  0.6229  0.2784  -1.5096   0.0000   0.0000   0.0000   0.4224
   2.500   1.2432   0.02878   0.02098  -0.2198  0.6212  0.2818  -1.5131   0.0000   0.0000   0.0000   0.4208
   2.600   1.2465   0.02913   0.02134  -0.2186  0.6195  0.2849  -1.5165   0.0000   0.0000   0.0000   0.4192
   2.700   1.2498   0.02948   0.02170  -0.2174  0.6177  0.2876  -1.5197   0.0000   0.0000   0.0000   0.4176
   2.800   1.2535   0.02981   0.02204  -0.2162  0.6158  0.2900  -1.5234   0.0000   0.0000   0.0000   0.4160
   2.900   1.2556   0.03016   0.02240  -0.2148  0.6137  0.2918  -1.5259   0.0000   0.0000   0.0000   0.4144
   3.000   1.2600   0.03029   0.02255  -0.2138  0.6117  0.3001  -1.5303   0.0000   0.0000   0.0000   0.4128
   3.100   1.2651   0.03043   0.02272  -0.2128  0.6098  0.3079  -1.5354   0.0000   0.0000   0.0000   0.4112
   3.200   1.2719   0.03054   0.02286  -0.2122  0.6079  0.3153  -1.5419   0.0000   0.0000   0.0000   0.4096
   3.300   1.2800   0.03062   0.02296  -0.2117  0.6062  0.3228  -1.5496   0.0000   0.0000   0.0000   0.4080
   3.400   1.2894   0.03067   0.02301  -0.2114  0.6045  0.3309  -1.5583   0.0000   0.0000   0.0000   0.4064
   3.500   1.3000   0.03069   0.02303  -0.2113  0.6031  0.3395  -1.5681   0.0000   0.0000   0.0000   0.4048
   3.600   1.3111   0.03071   0.02303  -0.2113  0.6017  0.3479  -1.5795   0.0000   0.0000   0.0000   0.4032
   3.700   1.3227   0.03070   0.02302  -0.2113  0.6005  0.3622  -1.5911   0.0000   0.0000   0.0000   0.4017
   3.800   1.3350   0.03064   0.02303  -0.2116  0.5993  0.3834  -1.6034   0.0000   0.0000   0.0000   0.4002
   3.900   1.3478   0.03060   0.02301  -0.2119  0.5982  0.4049  -1.6161   0.0000   0.0000   0.0000   0.3987
   4.000   1.3620   0.03048   0.02299  -0.2125  0.5971  0.4510  -1.6300   0.0000   0.0000   0.0000   0.3973
   4.100   1.3703   0.02980   0.02299  -0.2117  0.5961  1.0000  -1.6396   0.0000   0.0000   0.0000   0.3957
   4.200   1.3841   0.02984   0.02294  -0.2122  0.5950  1.0000  -1.6532   0.0000   0.0000   0.0000   0.3942
   4.300   1.3981   0.02989   0.02292  -0.2126  0.5939  1.0000  -1.6669   0.0000   0.0000   0.0000   0.3929
   4.400   1.4121   0.02996   0.02293  -0.2132  0.5927  1.0000  -1.6807   0.0000   0.0000   0.0000   0.3915
   4.500   1.4260   0.03007   0.02301  -0.2137  0.5915  1.0000  -1.6943   0.0000   0.0000   0.0000   0.3902
   4.600   1.4392   0.03029   0.02318  -0.2141  0.5901  1.0000  -1.7071   0.0000   0.0000   0.0000   0.3890
   4.700   1.4502   0.03071   0.02357  -0.2143  0.5884  1.0000  -1.7185   0.0000   0.0000   0.0000   0.3878
   4.800   1.4446   0.03267   0.02556  -0.2122  0.5844  1.0000  -1.7148   0.0000   0.0000   0.0000   0.3868
   4.900   1.4401   0.03312   0.02605  -0.2097  0.5833  1.0000  -1.7142   0.0000   0.0000   0.0000   0.3853
   5.000   1.4304   0.03381   0.02678  -0.2065  0.5818  1.0000  -1.7088   0.0000   0.0000   0.0000   0.3839
   5.100   1.4087   0.03509   0.02815  -0.2017  0.5791  1.0000  -1.6924   0.0000   0.0000   0.0000   0.3825
   5.200   1.2556   0.04577   0.03926  -0.1840  0.5588  1.0000  -1.5458   0.0000   0.0000   0.0000   0.3856
   5.300   1.2655   0.04577   0.03922  -0.1837  0.5573  1.0000  -1.5576   0.0000   0.0000   0.0000   0.3841
   5.400   1.2769   0.04562   0.03904  -0.1836  0.5562  1.0000  -1.5711   0.0000   0.0000   0.0000   0.3825
   5.500   1.2890   0.04543   0.03882  -0.1835  0.5552  1.0000  -1.5853   0.0000   0.0000   0.0000   0.3808
   5.600   1.3014   0.04524   0.03859  -0.1834  0.5543  1.0000  -1.5998   0.0000   0.0000   0.0000   0.3792
   5.700   1.3135   0.04510   0.03843  -0.1833  0.5534  1.0000  -1.6139   0.0000   0.0000   0.0000   0.3777
   5.800   1.3255   0.04498   0.03828  -0.1833  0.5525  1.0000  -1.6279   0.0000   0.0000   0.0000   0.3762
   5.900   1.3379   0.04481   0.03810  -0.1833  0.5517  1.0000  -1.6439   0.0000   0.0000   0.0000   0.3747
   6.000   1.3508   0.04462   0.03788  -0.1833  0.5510  1.0000  -1.6604   0.0000   0.0000   0.0000   0.3732
   6.100   1.3639   0.04441   0.03765  -0.1833  0.5503  1.0000  -1.6772   0.0000   0.0000   0.0000   0.3718
   6.200   1.3771   0.04418   0.03741  -0.1834  0.5496  1.0000  -1.6942   0.0000   0.0000   0.0000   0.3703
   6.300   1.3907   0.04394   0.03715  -0.1835  0.5489  1.0000  -1.7116   0.0000   0.0000   0.0000   0.3689
   6.400   1.4053   0.04362   0.03681  -0.1837  0.5483  1.0000  -1.7301   0.0000   0.0000   0.0000   0.3675
   6.500   1.4215   0.04317   0.03634  -0.1841  0.5477  1.0000  -1.7503   0.0000   0.0000   0.0000   0.3661
   6.600   1.4396   0.04260   0.03575  -0.1846  0.5473  1.0000  -1.7725   0.0000   0.0000   0.0000   0.3647
   6.700   1.4588   0.04196   0.03509  -0.1854  0.5468  1.0000  -1.7958   0.0000   0.0000   0.0000   0.3633
   6.800   1.4791   0.04128   0.03438  -0.1862  0.5463  1.0000  -1.8204   0.0000   0.0000   0.0000   0.3619
   6.900   1.5001   0.04058   0.03366  -0.1872  0.5458  1.0000  -1.8475   0.0000   0.0000   0.0000   0.3606
   7.000   1.5211   0.03994   0.03299  -0.1883  0.5451  1.0000  -1.8749   0.0000   0.0000   0.0000   0.3594
   7.100   1.5419   0.03938   0.03242  -0.1893  0.5444  1.0000  -1.9019   0.0000   0.0000   0.0000   0.3582
   7.200   1.5615   0.03900   0.03201  -0.1904  0.5434  1.0000  -1.9276   0.0000   0.0000   0.0000   0.3571
   7.300   1.5778   0.03898   0.03198  -0.1911  0.5420  1.0000  -1.9497   0.0000   0.0000   0.0000   0.3562
   7.500   1.3197   0.06369   0.05713  -0.1698  0.5032  1.0000  -1.6614   0.0000   0.0000   0.0000   0.3633
   7.600   1.3321   0.06336   0.05680  -0.1696  0.5026  1.0000  -1.6800   0.0000   0.0000   0.0000   0.3617
   7.700   1.3452   0.06293   0.05637  -0.1694  0.5021  1.0000  -1.6996   0.0000   0.0000   0.0000   0.3602
   7.800   1.3590   0.06241   0.05583  -0.1693  0.5016  1.0000  -1.7201   0.0000   0.0000   0.0000   0.3585
   7.900   1.3733   0.06180   0.05522  -0.1691  0.5012  1.0000  -1.7415   0.0000   0.0000   0.0000   0.3569
   8.000   1.3881   0.06111   0.05453  -0.1690  0.5008  1.0000  -1.7635   0.0000   0.0000   0.0000   0.3553
   8.100   1.4032   0.06037   0.05378  -0.1689  0.5005  1.0000  -1.7860   0.0000   0.0000   0.0000   0.3537
   8.200   1.4186   0.05958   0.05299  -0.1688  0.5002  1.0000  -1.8099   0.0000   0.0000   0.0000   0.3521
   8.300   1.4343   0.05878   0.05219  -0.1687  0.5000  1.0000  -1.8355   0.0000   0.0000   0.0000   0.3505
   8.400   1.4499   0.05802   0.05142  -0.1687  0.4996  1.0000  -1.8609   0.0000   0.0000   0.0000   0.3490
   8.500   1.4653   0.05731   0.05071  -0.1686  0.4993  1.0000  -1.8861   0.0000   0.0000   0.0000   0.3475
   8.600   1.4806   0.05665   0.05005  -0.1686  0.4989  1.0000  -1.9111   0.0000   0.0000   0.0000   0.3461
   8.700   1.4960   0.05604   0.04945  -0.1687  0.4985  1.0000  -1.9361   0.0000   0.0000   0.0000   0.3448
   8.800   1.5116   0.05543   0.04885  -0.1688  0.4981  1.0000  -1.9614   0.0000   0.0000   0.0000   0.3435
   8.900   1.5279   0.05477   0.04818  -0.1689  0.4977  1.0000  -1.9876   0.0000   0.0000   0.0000   0.3421
   9.000   1.5455   0.05397   0.04739  -0.1691  0.4973  1.0000  -2.0155   0.0000   0.0000   0.0000   0.3408
   9.100   1.5642   0.05308   0.04650  -0.1694  0.4969  1.0000  -2.0461   0.0000   0.0000   0.0000   0.3395
   9.200   1.5838   0.05213   0.04556  -0.1698  0.4964  1.0000  -2.0798   0.0000   0.0000   0.0000   0.3382
   9.300   1.6042   0.05115   0.04458  -0.1703  0.4957  1.0000  -2.1149   0.0000   0.0000   0.0000   0.3369
   9.400   1.6221   0.05064   0.04406  -0.1707  0.4943  1.0000  -2.1463   0.0000   0.0000   0.0000   0.3358
   9.700   1.4328   0.07417   0.06783  -0.1603  0.4564  1.0000  -1.9027   0.0000   0.0000   0.0000   0.3418
   9.800   1.4469   0.07341   0.06708  -0.1600  0.4560  1.0000  -1.9301   0.0000   0.0000   0.0000   0.3403
   9.900   1.4608   0.07269   0.06636  -0.1598  0.4555  1.0000  -1.9572   0.0000   0.0000   0.0000   0.3388
  10.000   1.4742   0.07203   0.06572  -0.1595  0.4551  1.0000  -1.9836   0.0000   0.0000   0.0000   0.3374
  10.100   1.4873   0.07143   0.06514  -0.1593  0.4547  1.0000  -2.0095   0.0000   0.0000   0.0000   0.3361
  10.200   1.5005   0.07080   0.06452  -0.1590  0.4543  1.0000  -2.0357   0.0000   0.0000   0.0000   0.3347
  10.300   1.5144   0.07010   0.06383  -0.1588  0.4539  1.0000  -2.0629   0.0000   0.0000   0.0000   0.3334
  10.400   1.5296   0.06923   0.06297  -0.1586  0.4535  1.0000  -2.0923   0.0000   0.0000   0.0000   0.3320
  10.500   1.5460   0.06821   0.06197  -0.1585  0.4533  1.0000  -2.1234   0.0000   0.0000   0.0000   0.3306
  10.600   1.5632   0.06710   0.06086  -0.1584  0.4530  1.0000  -2.1586   0.0000   0.0000   0.0000   0.3292
  10.700   1.5813   0.06589   0.05966  -0.1584  0.4527  1.0000  -2.1963   0.0000   0.0000   0.0000   0.3277
  10.800   1.6003   0.06458   0.05837  -0.1584  0.4524  1.0000  -2.2355   0.0000   0.0000   0.0000   0.3263
  10.900   1.6199   0.06323   0.05704  -0.1585  0.4521  1.0000  -2.2759   0.0000   0.0000   0.0000   0.3249
  11.000   1.6389   0.06201   0.05583  -0.1585  0.4515  1.0000  -2.3152   0.0000   0.0000   0.0000   0.3236
  11.100   1.6565   0.06105   0.05488  -0.1586  0.4506  1.0000  -2.3522   0.0000   0.0000   0.0000   0.3224
  12.100   1.6030   0.07724   0.07138  -0.1515  0.4113  1.0000  -2.3631   0.0000   0.0000   0.0000   0.3188
  12.200   1.6215   0.07579   0.06994  -0.1513  0.4110  1.0000  -2.4087   0.0000   0.0000   0.0000   0.3173
  12.300   1.6401   0.07434   0.06856  -0.1512  0.4106  1.0000  -2.4547   0.0000   0.0000   0.0000   0.3159
  12.400   1.6590   0.07290   0.06713  -0.1510  0.4101  1.0000  -2.5011   0.0000   0.0000   0.0000   0.3145
  12.500   1.6784   0.07144   0.06568  -0.1510  0.4095  1.0000  -2.5486   0.0000   0.0000   0.0000   0.3132
  12.600   1.6990   0.06988   0.06413  -0.1509  0.4091  1.0000  -2.5982   0.0000   0.0000   0.0000   0.3118
  12.700   1.7204   0.06829   0.06254  -0.1510  0.4085  1.0000  -2.6492   0.0000   0.0000   0.0000   0.3105
  12.800   1.7437   0.06648   0.06074  -0.1511  0.4077  1.0000  -2.7041   0.0000   0.0000   0.0000   0.3092
  12.900   1.7707   0.06430   0.05855  -0.1514  0.4068  1.0000  -2.7713   0.0000   0.0000   0.0000   0.3078
  13.000   1.8022   0.06168   0.05592  -0.1520  0.4057  1.0000  -2.8506   0.0000   0.0000   0.0000   0.3064
  13.200   1.5992   0.08955   0.08403  -0.1474  0.3730  1.0000  -2.4802   0.0000   0.0000   0.0000   0.3138
  13.300   1.6167   0.08812   0.08262  -0.1471  0.3727  1.0000  -2.5255   0.0000   0.0000   0.0000   0.3123
  13.400   1.6351   0.08657   0.08108  -0.1468  0.3723  1.0000  -2.5731   0.0000   0.0000   0.0000   0.3108
  13.500   1.6544   0.08491   0.07944  -0.1465  0.3718  1.0000  -2.6256   0.0000   0.0000   0.0000   0.3093
  13.600   1.6746   0.08315   0.07769  -0.1462  0.3713  1.0000  -2.6839   0.0000   0.0000   0.0000   0.3078
  13.700   1.6966   0.08116   0.07570  -0.1460  0.3707  1.0000  -2.7465   0.0000   0.0000   0.0000   0.3063
  13.800   1.7222   0.07875   0.07329  -0.1459  0.3703  1.0000  -2.8166   0.0000   0.0000   0.0000   0.3047
  13.900   1.7465   0.07661   0.07114  -0.1458  0.3695  1.0000  -2.8840   0.0000   0.0000   0.0000   0.3032
  14.000   1.7700   0.07464   0.06916  -0.1458  0.3683  1.0000  -2.9496   0.0000   0.0000   0.0000   0.3018
  14.100   1.7956   0.07244   0.06695  -0.1458  0.3669  1.0000  -3.0199   0.0000   0.0000   0.0000   0.3004
  14.200   1.8271   0.06958   0.06405  -0.1460  0.3650  1.0000  -3.1087   0.0000   0.0000   0.0000   0.2988
  14.300   1.8599   0.06674   0.06115  -0.1463  0.3616  1.0000  -3.2079   0.0000   0.0000   0.0000   0.2973
  14.400   1.6634   0.09372   0.08847  -0.1440  0.3410  1.0000  -2.7777   0.0000   0.0000   0.0000   0.3051
  14.500   1.6787   0.09262   0.08739  -0.1437  0.3395  1.0000  -2.8268   0.0000   0.0000   0.0000   0.3038
  14.600   1.6973   0.09105   0.08583  -0.1434  0.3384  1.0000  -2.8836   0.0000   0.0000   0.0000   0.3024
  14.700   1.7152   0.08960   0.08439  -0.1431  0.3368  1.0000  -2.9390   0.0000   0.0000   0.0000   0.3010
  14.800   1.7330   0.08818   0.08296  -0.1428  0.3349  1.0000  -3.0003   0.0000   0.0000   0.0000   0.2997
  14.900   1.7556   0.08609   0.08086  -0.1425  0.3331  1.0000  -3.0773   0.0000   0.0000   0.0000   0.2982
  15.000   1.7808   0.08366   0.07839  -0.1423  0.3310  1.0000  -3.1614   0.0000   0.0000   0.0000   0.2967
  15.100   1.8085   0.08093   0.07561  -0.1421  0.3286  1.0000  -3.2519   0.0000   0.0000   0.0000   0.2950
  15.200   1.8343   0.07852   0.07313  -0.1419  0.3254  1.0000  -3.3377   0.0000   0.0000   0.0000   0.2936
  15.300   1.8589   0.07639   0.07091  -0.1417  0.3212  1.0000  -3.4203   0.0000   0.0000   0.0000   0.2922
  15.400   1.8533   0.07818   0.07276  -0.1413  0.3174  1.0000  -3.4268   0.0000   0.0000   0.0000   0.2919
  15.500   1.8211   0.08355   0.07827  -0.1408  0.3135  1.0000  -3.3658   0.0000   0.0000   0.0000   0.2927
  15.600   1.7996   0.08761   0.08242  -0.1406  0.3089  1.0000  -3.3309   0.0000   0.0000   0.0000   0.2933
  15.700   1.7907   0.08998   0.08484  -0.1404  0.3045  1.0000  -3.3282   0.0000   0.0000   0.0000   0.2933
  15.800   1.7889   0.09136   0.08625  -0.1402  0.3005  1.0000  -3.3436   0.0000   0.0000   0.0000   0.2930
  15.900   1.7944   0.09167   0.08656  -0.1400  0.2968  1.0000  -3.3788   0.0000   0.0000   0.0000   0.2924
  16.000   1.8070   0.09098   0.08583  -0.1397  0.2932  1.0000  -3.4326   0.0000   0.0000   0.0000   0.2914
  16.100   1.8231   0.08976   0.08453  -0.1393  0.2893  1.0000  -3.4963   0.0000   0.0000   0.0000   0.2902
  16.200   1.8416   0.08818   0.08284  -0.1389  0.2845  1.0000  -3.5666   0.0000   0.0000   0.0000   0.2889
  16.300   1.8619   0.08638   0.08093  -0.1384  0.2782  1.0000  -3.6413   0.0000   0.0000   0.0000   0.2876
  16.400   1.8470   0.08959   0.08425  -0.1384  0.2758  1.0000  -3.6223   0.0000   0.0000   0.0000   0.2878
  16.500   1.8345   0.09247   0.08723  -0.1383  0.2727  1.0000  -3.6094   0.0000   0.0000   0.0000   0.2881
  16.600   1.8239   0.09509   0.08992  -0.1383  0.2690  1.0000  -3.6020   0.0000   0.0000   0.0000   0.2882
  16.700   1.8126   0.09785   0.09275  -0.1384  0.2652  1.0000  -3.5930   0.0000   0.0000   0.0000   0.2884
  16.800   1.8079   0.09967   0.09460  -0.1384  0.2612  1.0000  -3.6045   0.0000   0.0000   0.0000   0.2884
  16.900   1.8104   0.10040   0.09549  -0.1382  0.2572  1.0000  -3.6393   0.0000   0.0000   0.0000   0.2879
  17.000   1.8170   0.10050   0.09555  -0.1379  0.2531  1.0000  -3.6870   0.0000   0.0000   0.0000   0.2872
  17.100   1.8268   0.10010   0.09508  -0.1376  0.2490  1.0000  -3.7451   0.0000   0.0000   0.0000   0.2863
  17.200   1.8429   0.09873   0.09360  -0.1370  0.2437  1.0000  -3.8233   0.0000   0.0000   0.0000   0.2850
  17.300   1.8528   0.09834   0.09316  -0.1366  0.2388  1.0000  -3.8808   0.0000   0.0000   0.0000   0.2841
  17.400   1.8398   0.10138   0.09632  -0.1368  0.2368  1.0000  -3.8652   0.0000   0.0000   0.0000   0.2845
  17.500   1.8308   0.10384   0.09887  -0.1370  0.2342  1.0000  -3.8620   0.0000   0.0000   0.0000   0.2847
  17.600   1.8242   0.10595   0.10105  -0.1372  0.2313  1.0000  -3.8663   0.0000   0.0000   0.0000   0.2848
  17.700   1.8191   0.10781   0.10297  -0.1373  0.2280  1.0000  -3.8756   0.0000   0.0000   0.0000   0.2848
  17.800   1.8157   0.10944   0.10464  -0.1374  0.2246  1.0000  -3.8903   0.0000   0.0000   0.0000   0.2847
  17.900   1.8148   0.11068   0.10589  -0.1375  0.2210  1.0000  -3.9138   0.0000   0.0000   0.0000   0.2845
  18.000   1.8170   0.11142   0.10661  -0.1374  0.2173  1.0000  -3.9480   0.0000   0.0000   0.0000   0.2840
  18.100   1.8216   0.11175   0.10686  -0.1372  0.2132  1.0000  -3.9908   0.0000   0.0000   0.0000   0.2834
  18.200   1.8304   0.11137   0.10638  -0.1368  0.2083  1.0000  -4.0476   0.0000   0.0000   0.0000   0.2826
  18.300   1.8414   0.11060   0.10551  -0.1362  0.2022  1.0000  -4.1107   0.0000   0.0000   0.0000   0.2815
  18.400   1.8341   0.11287   0.10789  -0.1366  0.2005  1.0000  -4.1116   0.0000   0.0000   0.0000   0.2817
  18.500   1.8262   0.11522   0.11032  -0.1371  0.1985  1.0000  -4.1104   0.0000   0.0000   0.0000   0.2820
  18.600   1.8173   0.11773   0.11292  -0.1376  0.1962  1.0000  -4.1050   0.0000   0.0000   0.0000   0.2824
  18.700   1.8115   0.11975   0.11501  -0.1380  0.1935  1.0000  -4.1109   0.0000   0.0000   0.0000   0.2825
  18.800   1.8079   0.12142   0.11672  -0.1383  0.1906  1.0000  -4.1295   0.0000   0.0000   0.0000   0.2826
  18.900   1.8057   0.12282   0.11816  -0.1386  0.1876  1.0000  -4.1541   0.0000   0.0000   0.0000   0.2825
  19.000   1.8053   0.12393   0.11928  -0.1388  0.1844  1.0000  -4.1865   0.0000   0.0000   0.0000   0.2823
  19.100   1.8067   0.12472   0.12004  -0.1389  0.1813  1.0000  -4.2270   0.0000   0.0000   0.0000   0.2820
  19.200   1.8096   0.12524   0.12051  -0.1388  0.1779  1.0000  -4.2736   0.0000   0.0000   0.0000   0.2816
  19.300   1.8150   0.12527   0.12046  -0.1386  0.1740  1.0000  -4.3309   0.0000   0.0000   0.0000   0.2809
  19.400   1.8281   0.12392   0.11899  -0.1377  0.1678  1.0000  -4.4187   0.0000   0.0000   0.0000   0.2796
  19.500   1.8226   0.12585   0.12102  -0.1383  0.1667  1.0000  -4.4286   0.0000   0.0000   0.0000   0.2798
  19.600   1.8176   0.12776   0.12302  -0.1389  0.1652  1.0000  -4.4398   0.0000   0.0000   0.0000   0.2801
  19.700   1.8127   0.12964   0.12499  -0.1394  0.1634  1.0000  -4.4515   0.0000   0.0000   0.0000   0.2803
  19.800   1.8081   0.13149   0.12691  -0.1400  0.1614  1.0000  -4.4640   0.0000   0.0000   0.0000   0.2805
  19.900   1.8026   0.13350   0.12899  -0.1406  0.1592  1.0000  -4.4720   0.0000   0.0000   0.0000   0.2808
  20.000   1.7976   0.13543   0.13097  -0.1412  0.1570  1.0000  -4.4827   0.0000   0.0000   0.0000   0.2811
  20.100   1.7948   0.13703   0.13261  -0.1417  0.1546  1.0000  -4.5028   0.0000   0.0000   0.0000   0.2812
  20.200   1.7930   0.13844   0.13405  -0.1422  0.1521  1.0000  -4.5282   0.0000   0.0000   0.0000   0.2812
  20.300   1.7928   0.13957   0.13519  -0.1425  0.1496  1.0000  -4.5645   0.0000   0.0000   0.0000   0.2811
  20.400   1.7943   0.14041   0.13599  -0.1427  0.1468  1.0000  -4.6154   0.0000   0.0000   0.0000   0.2808
  20.500   1.7973   0.14093   0.13644  -0.1428  0.1437  1.0000  -4.6745   0.0000   0.0000   0.0000   0.2804
  20.600   1.8052   0.14044   0.13586  -0.1423  0.1392  1.0000  -4.7650   0.0000   0.0000   0.0000   0.2794
  20.700   1.8092   0.14068   0.13609  -0.1421  0.1354  1.0000  -4.8426   0.0000   0.0000   0.0000   0.2788
  20.800   1.8035   0.14287   0.13837  -0.1429  0.1343  1.0000  -4.8596   0.0000   0.0000   0.0000   0.2792
  20.900   1.7984   0.14502   0.14060  -0.1438  0.1330  1.0000  -4.8797   0.0000   0.0000   0.0000   0.2796
  21.000   1.7936   0.14713   0.14279  -0.1446  0.1315  1.0000  -4.9010   0.0000   0.0000   0.0000   0.2800
  21.100   1.7890   0.14920   0.14493  -0.1454  0.1297  1.0000  -4.9239   0.0000   0.0000   0.0000   0.2803
  21.200   1.7847   0.15122   0.14702  -0.1462  0.1278  1.0000  -4.9485   0.0000   0.0000   0.0000   0.2807
  21.300   1.7791   0.15350   0.14936  -0.1471  0.1259  1.0000  -4.9640   0.0000   0.0000   0.0000   0.2811
  21.400   1.7750   0.15553   0.15143  -0.1479  0.1238  1.0000  -4.9895   0.0000   0.0000   0.0000   0.2815
  21.500   1.7726   0.15723   0.15315  -0.1486  0.1217  1.0000  -5.0280   0.0000   0.0000   0.0000   0.2817
  21.600   1.7712   0.15873   0.15467  -0.1492  0.1196  1.0000  -5.0740   0.0000   0.0000   0.0000   0.2818
  21.700   1.7716   0.15987   0.15579  -0.1496  0.1174  1.0000  -5.1333   0.0000   0.0000   0.0000   0.2817
  21.800   1.7734   0.16071   0.15659  -0.1499  0.1150  1.0000  -5.2030   0.0000   0.0000   0.0000   0.2814
  21.900   1.7769   0.16110   0.15692  -0.1499  0.1121  1.0000  -5.2851   0.0000   0.0000   0.0000   0.2809
  22.000   1.7865   0.16007   0.15581  -0.1490  0.1073  1.0000  -5.4040   0.0000   0.0000   0.0000   0.2796
  22.100   1.7816   0.16229   0.15810  -0.1499  0.1062  1.0000  -5.4216   0.0000   0.0000   0.0000   0.2800
  22.200   1.7759   0.16475   0.16065  -0.1510  0.1054  1.0000  -5.4340   0.0000   0.0000   0.0000   0.2806
  22.300   1.7704   0.16724   0.16323  -0.1521  0.1045  1.0000  -5.4465   0.0000   0.0000   0.0000   0.2812
  22.400   1.7646   0.16980   0.16587  -0.1532  0.1035  1.0000  -5.4562   0.0000   0.0000   0.0000   0.2818
  22.500   1.7584   0.17244   0.16860  -0.1544  0.1023  1.0000  -5.4626   0.0000   0.0000   0.0000   0.2824
  22.600   1.7503   0.17554   0.17179  -0.1557  0.1011  1.0000  -5.4527   0.0000   0.0000   0.0000   0.2834
  22.700   1.7420   0.17871   0.17503  -0.1572  0.0999  1.0000  -5.4410   0.0000   0.0000   0.0000   0.2843
  22.800   1.7361   0.18141   0.17779  -0.1584  0.0985  1.0000  -5.4465   0.0000   0.0000   0.0000   0.2850
  22.900   1.7311   0.18390   0.18035  -0.1595  0.0970  1.0000  -5.4597   0.0000   0.0000   0.0000   0.2856
  23.000   1.7274   0.18615   0.18264  -0.1605  0.0955  1.0000  -5.4828   0.0000   0.0000   0.0000   0.2861
  23.100   1.7249   0.18813   0.18466  -0.1613  0.0939  1.0000  -5.5163   0.0000   0.0000   0.0000   0.2864
  23.200   1.7235   0.18989   0.18644  -0.1621  0.0924  1.0000  -5.5587   0.0000   0.0000   0.0000   0.2866
  23.300   1.7227   0.19148   0.18805  -0.1628  0.0908  1.0000  -5.6071   0.0000   0.0000   0.0000   0.2867
  23.400   1.7232   0.19276   0.18932  -0.1634  0.0893  1.0000  -5.6667   0.0000   0.0000   0.0000   0.2867
  23.500   1.7265   0.19334   0.18987  -0.1636  0.0875  1.0000  -5.7499   0.0000   0.0000   0.0000   0.2862
  23.600   1.7315   0.19342   0.19000  -0.1635  0.0852  1.0000  -5.8457   0.0000   0.0000   0.0000   0.2855
  23.700   1.7329   0.19415   0.19072  -0.1634  0.0822  1.0000  -5.9049   0.0000   0.0000   0.0000   0.2851
  23.800   1.7172   0.19920   0.19588  -0.1655  0.0808  1.0000  -5.8158   0.0000   0.0000   0.0000   0.2869
  23.900   1.7024   0.20442   0.20111  -0.1679  0.0805  1.0000  -5.7403   0.0000   0.0000   0.0000   0.2889
  24.000   1.6873   0.20987   0.20666  -0.1704  0.0801  1.0000  -5.6576   0.0000   0.0000   0.0000   0.2911
  24.100   1.6699   0.21605   0.21295  -0.1732  0.0797  1.0000  -5.5510   0.0000   0.0000   0.0000   0.2937


