xflr5 v6.61

 Calculated polar for: E423

 1 1 Reynolds number fixed          Mach number fixed         

 xtrf =   1.000 (top)        1.000 (bottom)
 Mach =   0.000     Re =     0.450 e 6     Ncrit =   9.000

  alpha     CL        CD       CDp       Cm    Top Xtr Bot Xtr   Cpmin    Chinge    XCp    
 ------- -------- --------- --------- -------- ------- ------- -------- --------- ---------
 -10.000   0.3303   0.09560   0.09202  -0.1664  0.7986  0.0281  -1.0411   0.0000   0.0000   0.0000   0.7884
  -9.900   0.3337   0.09488   0.09129  -0.1666  0.7926  0.0281  -1.0402   0.0000   0.0000   0.0000   0.7833
  -9.800   0.3371   0.09415   0.09053  -0.1668  0.7864  0.0282  -1.0406   0.0000   0.0000   0.0000   0.7782
  -9.700   0.3404   0.09343   0.08976  -0.1670  0.7803  0.0282  -1.0431   0.0000   0.0000   0.0000   0.7733
  -9.600   0.3435   0.09272   0.08900  -0.1671  0.7740  0.0283  -1.0453   0.0000   0.0000   0.0000   0.7686
  -9.400   0.3503   0.09123   0.08744  -0.1675  0.7623  0.0283  -1.0498   0.0000   0.0000   0.0000   0.7591
  -9.300   0.3535   0.09045   0.08666  -0.1677  0.7594  0.0284  -1.0522   0.0000   0.0000   0.0000   0.7545
  -9.200   0.3568   0.08967   0.08588  -0.1679  0.7561  0.0284  -1.0546   0.0000   0.0000   0.0000   0.7501
  -9.100   0.3600   0.08889   0.08509  -0.1680  0.7525  0.0284  -1.0571   0.0000   0.0000   0.0000   0.7457
  -9.000   0.3633   0.08812   0.08430  -0.1682  0.7488  0.0284  -1.0596   0.0000   0.0000   0.0000   0.7414
  -8.900   0.3665   0.08735   0.08351  -0.1683  0.7450  0.0284  -1.0622   0.0000   0.0000   0.0000   0.7371
  -8.800   0.3697   0.08658   0.08272  -0.1685  0.7411  0.0285  -1.0648   0.0000   0.0000   0.0000   0.7330
  -8.700   0.3727   0.08582   0.08193  -0.1686  0.7372  0.0285  -1.0673   0.0000   0.0000   0.0000   0.7290
  -8.600   0.3757   0.08507   0.08115  -0.1686  0.7330  0.0285  -1.0699   0.0000   0.0000   0.0000   0.7250
  -8.500   0.3789   0.08430   0.08035  -0.1687  0.7285  0.0285  -1.0725   0.0000   0.0000   0.0000   0.7210
  -8.400   0.3827   0.08350   0.07951  -0.1690  0.7237  0.0285  -1.0747   0.0000   0.0000   0.0000   0.7169
  -8.300   0.3867   0.08266   0.07866  -0.1694  0.7202  0.0286  -1.0770   0.0000   0.0000   0.0000   0.7127
  -8.200   0.3898   0.08185   0.07786  -0.1695  0.7188  0.0286  -1.0798   0.0000   0.0000   0.0000   0.7090
  -8.100   0.3929   0.08103   0.07706  -0.1696  0.7171  0.0286  -1.0825   0.0000   0.0000   0.0000   0.7053
  -8.000   0.3960   0.08022   0.07626  -0.1697  0.7152  0.0286  -1.0853   0.0000   0.0000   0.0000   0.7017
  -7.900   0.3991   0.07941   0.07545  -0.1698  0.7131  0.0286  -1.0881   0.0000   0.0000   0.0000   0.6981
  -7.800   0.4022   0.07861   0.07465  -0.1699  0.7107  0.0286  -1.0909   0.0000   0.0000   0.0000   0.6946
  -7.700   0.4052   0.07781   0.07385  -0.1700  0.7082  0.0286  -1.0937   0.0000   0.0000   0.0000   0.6912
  -7.600   0.4083   0.07701   0.07305  -0.1700  0.7057  0.0286  -1.0965   0.0000   0.0000   0.0000   0.6878
  -7.500   0.4112   0.07622   0.07225  -0.1701  0.7031  0.0287  -1.0994   0.0000   0.0000   0.0000   0.6845
  -7.400   0.4140   0.07544   0.07146  -0.1701  0.7005  0.0287  -1.1023   0.0000   0.0000   0.0000   0.6813
  -7.300   0.4168   0.07467   0.07067  -0.1701  0.6978  0.0287  -1.1053   0.0000   0.0000   0.0000   0.6781
  -7.200   0.4194   0.07390   0.06989  -0.1701  0.6952  0.0287  -1.1084   0.0000   0.0000   0.0000   0.6751
  -7.100   0.4219   0.07315   0.06912  -0.1700  0.6925  0.0287  -1.1117   0.0000   0.0000   0.0000   0.6721
  -7.000   0.4243   0.07239   0.06836  -0.1699  0.6897  0.0287  -1.1150   0.0000   0.0000   0.0000   0.6692
  -6.900   0.4268   0.07163   0.06755  -0.1699  0.6867  0.0287  -1.1202   0.0000   0.0000   0.0000   0.6663
  -6.800   0.4297   0.07086   0.06675  -0.1700  0.6835  0.0287  -1.1277   0.0000   0.0000   0.0000   0.6634
  -6.700   0.4330   0.07005   0.06593  -0.1702  0.6802  0.0287  -1.1352   0.0000   0.0000   0.0000   0.6604
  -6.600   0.4367   0.06923   0.06510  -0.1705  0.6768  0.0288  -1.1430   0.0000   0.0000   0.0000   0.6574
  -6.500   0.4387   0.06848   0.06437  -0.1703  0.6757  0.0288  -1.1513   0.0000   0.0000   0.0000   0.6549
  -6.400   0.4402   0.06777   0.06367  -0.1701  0.6750  0.0288  -1.1599   0.0000   0.0000   0.0000   0.6526
  -6.300   0.4423   0.06703   0.06295  -0.1700  0.6741  0.0288  -1.1687   0.0000   0.0000   0.0000   0.6503
  -6.200   0.4455   0.06619   0.06212  -0.1702  0.6732  0.0288  -1.1774   0.0000   0.0000   0.0000   0.6476
  -6.100   0.4488   0.06534   0.06128  -0.1705  0.6722  0.0288  -1.1863   0.0000   0.0000   0.0000   0.6449
  -6.000   0.4523   0.06448   0.06043  -0.1707  0.6711  0.0288  -1.1953   0.0000   0.0000   0.0000   0.6422
  -5.900   0.4559   0.06360   0.05957  -0.1711  0.6699  0.0288  -1.2046   0.0000   0.0000   0.0000   0.6395
  -5.800   0.4598   0.06271   0.05869  -0.1714  0.6687  0.0288  -1.2142   0.0000   0.0000   0.0000   0.6368
  -5.700   0.4637   0.06181   0.05779  -0.1719  0.6674  0.0288  -1.2240   0.0000   0.0000   0.0000   0.6341
  -5.600   0.4679   0.06089   0.05688  -0.1723  0.6660  0.0288  -1.2342   0.0000   0.0000   0.0000   0.6315
  -5.500   0.4723   0.05996   0.05595  -0.1728  0.6646  0.0288  -1.2447   0.0000   0.0000   0.0000   0.6288
  -5.400   0.4767   0.05901   0.05501  -0.1734  0.6632  0.0288  -1.2555   0.0000   0.0000   0.0000   0.6261
  -5.300   0.4815   0.05805   0.05405  -0.1740  0.6618  0.0288  -1.2669   0.0000   0.0000   0.0000   0.6234
  -5.200   0.4864   0.05706   0.05306  -0.1747  0.6602  0.0288  -1.2787   0.0000   0.0000   0.0000   0.6207
  -5.100   0.4915   0.05605   0.05205  -0.1754  0.6587  0.0288  -1.2912   0.0000   0.0000   0.0000   0.6181
  -5.000   0.4968   0.05502   0.05101  -0.1761  0.6572  0.0288  -1.3046   0.0000   0.0000   0.0000   0.6154
  -4.800   0.4959   0.05021   0.04620  -0.1778  0.6544  0.0268  -1.4949   0.0000   0.0000   0.0000   0.6191
  -4.700   0.5015   0.04878   0.04476  -0.1792  0.6528  0.0263  -1.5377   0.0000   0.0000   0.0000   0.6176
  -4.200   0.6237   0.01904   0.01398  -0.2313  0.6454  0.0250  -2.9898   0.0000   0.0000   0.0000   0.6287
  -4.100   0.6398   0.01775   0.01245  -0.2334  0.6434  0.0257  -2.9773   0.0000   0.0000   0.0000   0.6223
  -4.000   0.6542   0.01694   0.01145  -0.2347  0.6414  0.0263  -2.9412   0.0000   0.0000   0.0000   0.6159
  -3.900   0.6682   0.01637   0.01073  -0.2357  0.6392  0.0269  -2.8915   0.0000   0.0000   0.0000   0.6096
  -3.800   0.6818   0.01601   0.01025  -0.2365  0.6368  0.0275  -2.8281   0.0000   0.0000   0.0000   0.6033
  -3.700   0.6952   0.01581   0.00997  -0.2371  0.6343  0.0280  -2.7540   0.0000   0.0000   0.0000   0.5973
  -3.600   0.7085   0.01574   0.00984  -0.2377  0.6316  0.0284  -2.6723   0.0000   0.0000   0.0000   0.5913
  -3.500   0.7202   0.01568   0.00975  -0.2379  0.6304  0.0288  -2.5908   0.0000   0.0000   0.0000   0.5858
  -3.400   0.7354   0.01420   0.00791  -0.2394  0.6300  0.0309  -2.6050   0.0000   0.0000   0.0000   0.5808
  -3.300   0.7483   0.01349   0.00704  -0.2400  0.6294  0.0349  -2.5819   0.0000   0.0000   0.0000   0.5757
  -3.200   0.7592   0.01339   0.00694  -0.2399  0.6289  0.0373  -2.5080   0.0000   0.0000   0.0000   0.5708
  -3.100   0.7699   0.01336   0.00692  -0.2398  0.6282  0.0394  -2.4296   0.0000   0.0000   0.0000   0.5660
  -3.000   0.7808   0.01331   0.00687  -0.2398  0.6275  0.0416  -2.3540   0.0000   0.0000   0.0000   0.5613
  -2.900   0.7917   0.01325   0.00679  -0.2397  0.6267  0.0436  -2.2802   0.0000   0.0000   0.0000   0.5567
  -2.800   0.8026   0.01321   0.00673  -0.2396  0.6260  0.0454  -2.2048   0.0000   0.0000   0.0000   0.5523
  -2.700   0.8135   0.01321   0.00671  -0.2396  0.6252  0.0469  -2.1268   0.0000   0.0000   0.0000   0.5479
  -2.600   0.8242   0.01323   0.00673  -0.2395  0.6244  0.0480  -2.0475   0.0000   0.0000   0.0000   0.5437
  -2.500   0.8350   0.01327   0.00677  -0.2394  0.6235  0.0488  -1.9681   0.0000   0.0000   0.0000   0.5396
  -2.400   0.8457   0.01332   0.00681  -0.2392  0.6226  0.0493  -1.8897   0.0000   0.0000   0.0000   0.5356
  -2.300   0.8588   0.01265   0.00596  -0.2398  0.6216  0.0546  -1.8518   0.0000   0.0000   0.0000   0.5317
  -2.200   0.8703   0.01251   0.00583  -0.2399  0.6207  0.0606  -1.7851   0.0000   0.0000   0.0000   0.5279
  -2.100   0.8811   0.01254   0.00588  -0.2398  0.6197  0.0648  -1.7083   0.0000   0.0000   0.0000   0.5242
  -2.000   0.8919   0.01260   0.00595  -0.2397  0.6186  0.0686  -1.6319   0.0000   0.0000   0.0000   0.5206
  -1.900   0.9026   0.01265   0.00601  -0.2396  0.6175  0.0715  -1.5571   0.0000   0.0000   0.0000   0.5171
  -1.800   0.9133   0.01270   0.00605  -0.2395  0.6165  0.0734  -1.4836   0.0000   0.0000   0.0000   0.5136
  -1.700   0.9241   0.01275   0.00608  -0.2394  0.6154  0.0745  -1.4112   0.0000   0.0000   0.0000   0.5102
  -1.600   0.9348   0.01280   0.00613  -0.2393  0.6142  0.0752  -1.3396   0.0000   0.0000   0.0000   0.5069
  -1.500   0.9471   0.01240   0.00563  -0.2396  0.6132  0.0825  -1.2938   0.0000   0.0000   0.0000   0.5037
  -1.400   0.9582   0.01233   0.00559  -0.2396  0.6120  0.0886  -1.3019   0.0000   0.0000   0.0000   0.5006
  -1.300   0.9690   0.01235   0.00562  -0.2395  0.6109  0.0930  -1.3099   0.0000   0.0000   0.0000   0.4975
  -1.200   0.9798   0.01238   0.00563  -0.2394  0.6097  0.0968  -1.3179   0.0000   0.0000   0.0000   0.4945
  -1.100   0.9906   0.01241   0.00565  -0.2393  0.6085  0.1003  -1.3259   0.0000   0.0000   0.0000   0.4915
  -1.000   1.0013   0.01245   0.00568  -0.2392  0.6073  0.1029  -1.3339   0.0000   0.0000   0.0000   0.4886
  -0.900   1.0119   0.01250   0.00571  -0.2391  0.6060  0.1047  -1.3427   0.0000   0.0000   0.0000   0.4858
  -0.800   1.0226   0.01256   0.00575  -0.2390  0.6048  0.1058  -1.3517   0.0000   0.0000   0.0000   0.4830
  -0.700   1.0332   0.01263   0.00580  -0.2389  0.6034  0.1066  -1.3606   0.0000   0.0000   0.0000   0.4803
  -0.600   1.0448   0.01242   0.00554  -0.2390  0.6020  0.1145  -1.3699   0.0000   0.0000   0.0000   0.4777
  -0.500   1.0557   0.01241   0.00554  -0.2390  0.6004  0.1207  -1.3790   0.0000   0.0000   0.0000   0.4751
  -0.400   1.0665   0.01246   0.00561  -0.2389  0.5987  0.1254  -1.3881   0.0000   0.0000   0.0000   0.4726
  -0.300   1.0775   0.01255   0.00569  -0.2389  0.5967  0.1296  -1.3972   0.0000   0.0000   0.0000   0.4701
  -0.200   1.0887   0.01265   0.00578  -0.2389  0.5945  0.1337  -1.4064   0.0000   0.0000   0.0000   0.4677
  -0.100   1.1004   0.01277   0.00588  -0.2391  0.5920  0.1373  -1.4159   0.0000   0.0000   0.0000   0.4653
   0.000   1.1124   0.01292   0.00602  -0.2393  0.5894  0.1400  -1.4254   0.0000   0.0000   0.0000   0.4629
   0.100   1.1247   0.01310   0.00619  -0.2396  0.5868  0.1418  -1.4350   0.0000   0.0000   0.0000   0.4607
   0.200   1.1366   0.01328   0.00637  -0.2398  0.5846  0.1429  -1.4444   0.0000   0.0000   0.0000   0.4585
   0.300   1.1469   0.01331   0.00640  -0.2397  0.5842  0.1437  -1.4532   0.0000   0.0000   0.0000   0.4562
   0.400   1.1580   0.01315   0.00621  -0.2397  0.5839  0.1496  -1.4623   0.0000   0.0000   0.0000   0.4541
   0.500   1.1687   0.01307   0.00615  -0.2396  0.5836  0.1562  -1.4713   0.0000   0.0000   0.0000   0.4520
   0.600   1.1792   0.01306   0.00617  -0.2395  0.5831  0.1613  -1.4802   0.0000   0.0000   0.0000   0.4499
   0.700   1.1895   0.01308   0.00621  -0.2394  0.5827  0.1657  -1.4891   0.0000   0.0000   0.0000   0.4478
   0.800   1.1998   0.01310   0.00625  -0.2392  0.5822  0.1696  -1.4979   0.0000   0.0000   0.0000   0.4458
   0.900   1.2101   0.01313   0.00628  -0.2391  0.5817  0.1734  -1.5066   0.0000   0.0000   0.0000   0.4437
   1.000   1.2204   0.01315   0.00631  -0.2389  0.5811  0.1768  -1.5154   0.0000   0.0000   0.0000   0.4418
   1.100   1.2306   0.01317   0.00634  -0.2387  0.5805  0.1798  -1.5242   0.0000   0.0000   0.0000   0.4398
   1.200   1.2408   0.01320   0.00637  -0.2385  0.5798  0.1822  -1.5329   0.0000   0.0000   0.0000   0.4379
   1.300   1.2510   0.01323   0.00640  -0.2384  0.5791  0.1841  -1.5416   0.0000   0.0000   0.0000   0.4360
   1.400   1.2611   0.01327   0.00644  -0.2382  0.5783  0.1855  -1.5503   0.0000   0.0000   0.0000   0.4342
   1.500   1.2713   0.01332   0.00649  -0.2380  0.5775  0.1865  -1.5590   0.0000   0.0000   0.0000   0.4323
   1.600   1.2814   0.01336   0.00654  -0.2378  0.5767  0.1872  -1.5676   0.0000   0.0000   0.0000   0.4305
   1.700   1.2921   0.01329   0.00646  -0.2377  0.5758  0.1932  -1.5765   0.0000   0.0000   0.0000   0.4288
   1.800   1.3026   0.01327   0.00644  -0.2377  0.5749  0.1997  -1.5854   0.0000   0.0000   0.0000   0.4270
   1.900   1.3130   0.01327   0.00646  -0.2375  0.5739  0.2053  -1.5947   0.0000   0.0000   0.0000   0.4253
   2.000   1.3233   0.01329   0.00650  -0.2374  0.5729  0.2101  -1.6046   0.0000   0.0000   0.0000   0.4237
   2.100   1.3335   0.01331   0.00654  -0.2373  0.5719  0.2146  -1.6145   0.0000   0.0000   0.0000   0.4220
   2.200   1.3436   0.01333   0.00658  -0.2371  0.5708  0.2191  -1.6244   0.0000   0.0000   0.0000   0.4203
   2.300   1.3537   0.01336   0.00661  -0.2369  0.5696  0.2235  -1.6342   0.0000   0.0000   0.0000   0.4187
   2.400   1.3637   0.01339   0.00665  -0.2367  0.5684  0.2277  -1.6440   0.0000   0.0000   0.0000   0.4171
   2.500   1.3737   0.01342   0.00667  -0.2365  0.5671  0.2312  -1.6538   0.0000   0.0000   0.0000   0.4155
   2.600   1.3835   0.01345   0.00670  -0.2363  0.5658  0.2338  -1.6636   0.0000   0.0000   0.0000   0.4139
   2.700   1.3933   0.01349   0.00673  -0.2360  0.5645  0.2357  -1.6734   0.0000   0.0000   0.0000   0.4124
   2.800   1.4030   0.01352   0.00676  -0.2357  0.5632  0.2369  -1.6831   0.0000   0.0000   0.0000   0.4108
   2.900   1.4132   0.01350   0.00674  -0.2356  0.5619  0.2473  -1.6930   0.0000   0.0000   0.0000   0.4093
   3.000   1.4232   0.01350   0.00677  -0.2354  0.5606  0.2569  -1.7028   0.0000   0.0000   0.0000   0.4078
   3.100   1.4333   0.01353   0.00682  -0.2352  0.5594  0.2649  -1.7126   0.0000   0.0000   0.0000   0.4064
   3.200   1.4433   0.01356   0.00687  -0.2351  0.5581  0.2720  -1.7224   0.0000   0.0000   0.0000   0.4050
   3.300   1.4533   0.01361   0.00692  -0.2349  0.5568  0.2788  -1.7322   0.0000   0.0000   0.0000   0.4035
   3.400   1.4632   0.01366   0.00697  -0.2347  0.5554  0.2850  -1.7419   0.0000   0.0000   0.0000   0.4021
   3.500   1.4731   0.01372   0.00703  -0.2345  0.5540  0.2898  -1.7516   0.0000   0.0000   0.0000   0.4007
   3.600   1.4833   0.01378   0.00710  -0.2344  0.5524  0.3012  -1.7615   0.0000   0.0000   0.0000   0.3994
   3.700   1.4938   0.01383   0.00719  -0.2343  0.5507  0.3228  -1.7715   0.0000   0.0000   0.0000   0.3981
   3.800   1.5046   0.01391   0.00731  -0.2344  0.5488  0.3410  -1.7817   0.0000   0.0000   0.0000   0.3968
   3.900   1.5159   0.01401   0.00744  -0.2345  0.5467  0.3682  -1.7921   0.0000   0.0000   0.0000   0.3956
   4.000   1.5280   0.01411   0.00762  -0.2349  0.5443  0.4138  -1.8030   0.0000   0.0000   0.0000   0.3944
   4.100   1.5364   0.01361   0.00793  -0.2346  0.5419  1.0000  -1.8114   0.0000   0.0000   0.0000   0.3932
   4.200   1.5488   0.01391   0.00822  -0.2350  0.5390  1.0000  -1.8231   0.0000   0.0000   0.0000   0.3920
   4.300   1.5584   0.01398   0.00829  -0.2347  0.5383  1.0000  -1.8339   0.0000   0.0000   0.0000   0.3908
   4.400   1.5676   0.01400   0.00831  -0.2344  0.5379  1.0000  -1.8445   0.0000   0.0000   0.0000   0.3895
   4.500   1.5765   0.01403   0.00833  -0.2340  0.5375  1.0000  -1.8550   0.0000   0.0000   0.0000   0.3882
   4.600   1.5854   0.01405   0.00836  -0.2335  0.5370  1.0000  -1.8654   0.0000   0.0000   0.0000   0.3869
   4.700   1.5941   0.01408   0.00839  -0.2331  0.5364  1.0000  -1.8756   0.0000   0.0000   0.0000   0.3856
   4.800   1.6027   0.01410   0.00842  -0.2326  0.5357  1.0000  -1.8859   0.0000   0.0000   0.0000   0.3844
   4.900   1.6112   0.01414   0.00846  -0.2322  0.5350  1.0000  -1.8960   0.0000   0.0000   0.0000   0.3831
   5.000   1.6197   0.01418   0.00851  -0.2317  0.5342  1.0000  -1.9073   0.0000   0.0000   0.0000   0.3819
   5.100   1.6281   0.01423   0.00856  -0.2312  0.5333  1.0000  -1.9186   0.0000   0.0000   0.0000   0.3806
   5.200   1.6363   0.01427   0.00862  -0.2306  0.5324  1.0000  -1.9298   0.0000   0.0000   0.0000   0.3794
   5.300   1.6443   0.01432   0.00867  -0.2301  0.5314  1.0000  -1.9410   0.0000   0.0000   0.0000   0.3782
   5.400   1.6523   0.01437   0.00873  -0.2295  0.5303  1.0000  -1.9520   0.0000   0.0000   0.0000   0.3770
   5.500   1.6602   0.01441   0.00878  -0.2289  0.5291  1.0000  -1.9631   0.0000   0.0000   0.0000   0.3758
   5.600   1.6681   0.01446   0.00883  -0.2283  0.5277  1.0000  -1.9756   0.0000   0.0000   0.0000   0.3746
   5.700   1.6761   0.01451   0.00888  -0.2277  0.5264  1.0000  -1.9882   0.0000   0.0000   0.0000   0.3734
   5.800   1.6841   0.01456   0.00894  -0.2272  0.5250  1.0000  -2.0010   0.0000   0.0000   0.0000   0.3722
   5.900   1.6922   0.01461   0.00899  -0.2266  0.5235  1.0000  -2.0137   0.0000   0.0000   0.0000   0.3711
   6.000   1.7003   0.01466   0.00905  -0.2261  0.5220  1.0000  -2.0265   0.0000   0.0000   0.0000   0.3699
   6.100   1.7082   0.01472   0.00910  -0.2255  0.5206  1.0000  -2.0392   0.0000   0.0000   0.0000   0.3688
   6.200   1.7160   0.01477   0.00916  -0.2249  0.5190  1.0000  -2.0518   0.0000   0.0000   0.0000   0.3676
   6.300   1.7237   0.01483   0.00921  -0.2243  0.5174  1.0000  -2.0643   0.0000   0.0000   0.0000   0.3665
   6.400   1.7314   0.01488   0.00926  -0.2237  0.5158  1.0000  -2.0785   0.0000   0.0000   0.0000   0.3654
   6.500   1.7392   0.01495   0.00933  -0.2231  0.5140  1.0000  -2.0928   0.0000   0.0000   0.0000   0.3643
   6.600   1.7470   0.01502   0.00939  -0.2225  0.5123  1.0000  -2.1072   0.0000   0.0000   0.0000   0.3632
   6.700   1.7548   0.01510   0.00946  -0.2219  0.5105  1.0000  -2.1216   0.0000   0.0000   0.0000   0.3621
   6.800   1.7625   0.01519   0.00954  -0.2213  0.5087  1.0000  -2.1359   0.0000   0.0000   0.0000   0.3610
   6.900   1.7702   0.01529   0.00964  -0.2208  0.5067  1.0000  -2.1502   0.0000   0.0000   0.0000   0.3599
   7.000   1.7781   0.01541   0.00974  -0.2203  0.5043  1.0000  -2.1646   0.0000   0.0000   0.0000   0.3589
   7.100   1.7869   0.01556   0.00986  -0.2199  0.5015  1.0000  -2.1810   0.0000   0.0000   0.0000   0.3579
   7.200   1.7972   0.01573   0.01002  -0.2199  0.4981  1.0000  -2.1999   0.0000   0.0000   0.0000   0.3570
   7.300   1.8097   0.01596   0.01024  -0.2204  0.4942  1.0000  -2.2207   0.0000   0.0000   0.0000   0.3562
   7.400   1.8180   0.01607   0.01037  -0.2200  0.4928  1.0000  -2.2378   0.0000   0.0000   0.0000   0.3552
   7.500   1.8244   0.01613   0.01045  -0.2191  0.4922  1.0000  -2.2531   0.0000   0.0000   0.0000   0.3541
   7.600   1.8308   0.01621   0.01055  -0.2183  0.4916  1.0000  -2.2683   0.0000   0.0000   0.0000   0.3531
   7.700   1.8370   0.01629   0.01066  -0.2175  0.4909  1.0000  -2.2833   0.0000   0.0000   0.0000   0.3520
   7.800   1.8430   0.01638   0.01077  -0.2166  0.4900  1.0000  -2.2982   0.0000   0.0000   0.0000   0.3510
   7.900   1.8491   0.01646   0.01089  -0.2157  0.4889  1.0000  -2.3140   0.0000   0.0000   0.0000   0.3499
   8.000   1.8552   0.01655   0.01100  -0.2149  0.4877  1.0000  -2.3313   0.0000   0.0000   0.0000   0.3489
   8.100   1.8614   0.01665   0.01112  -0.2141  0.4863  1.0000  -2.3488   0.0000   0.0000   0.0000   0.3478
   8.200   1.8677   0.01674   0.01124  -0.2133  0.4848  1.0000  -2.3665   0.0000   0.0000   0.0000   0.3468
   8.300   1.8742   0.01685   0.01136  -0.2125  0.4831  1.0000  -2.3844   0.0000   0.0000   0.0000   0.3458
   8.400   1.8808   0.01695   0.01150  -0.2118  0.4813  1.0000  -2.4024   0.0000   0.0000   0.0000   0.3448
   8.500   1.8876   0.01706   0.01162  -0.2111  0.4796  1.0000  -2.4206   0.0000   0.0000   0.0000   0.3438
   8.600   1.8943   0.01718   0.01176  -0.2104  0.4779  1.0000  -2.4387   0.0000   0.0000   0.0000   0.3429
   8.700   1.9006   0.01730   0.01190  -0.2097  0.4759  1.0000  -2.4565   0.0000   0.0000   0.0000   0.3419
   8.800   1.9066   0.01744   0.01204  -0.2088  0.4738  1.0000  -2.4740   0.0000   0.0000   0.0000   0.3409
   8.900   1.9123   0.01758   0.01218  -0.2080  0.4716  1.0000  -2.4939   0.0000   0.0000   0.0000   0.3399
   9.000   1.9178   0.01772   0.01232  -0.2071  0.4692  1.0000  -2.5136   0.0000   0.0000   0.0000   0.3389
   9.100   1.9229   0.01789   0.01248  -0.2061  0.4666  1.0000  -2.5330   0.0000   0.0000   0.0000   0.3380
   9.200   1.9276   0.01807   0.01265  -0.2051  0.4638  1.0000  -2.5518   0.0000   0.0000   0.0000   0.3370
   9.300   1.9320   0.01829   0.01285  -0.2041  0.4608  1.0000  -2.5701   0.0000   0.0000   0.0000   0.3360
   9.400   1.9368   0.01853   0.01307  -0.2031  0.4574  1.0000  -2.5888   0.0000   0.0000   0.0000   0.3350
   9.500   1.9431   0.01875   0.01332  -0.2025  0.4537  1.0000  -2.6097   0.0000   0.0000   0.0000   0.3341
   9.600   1.9519   0.01896   0.01350  -0.2022  0.4500  1.0000  -2.6335   0.0000   0.0000   0.0000   0.3333
   9.700   1.9591   0.01914   0.01370  -0.2017  0.4480  1.0000  -2.6557   0.0000   0.0000   0.0000   0.3324
   9.800   1.9637   0.01934   0.01394  -0.2008  0.4471  1.0000  -2.6744   0.0000   0.0000   0.0000   0.3315
   9.900   1.9679   0.01955   0.01420  -0.1997  0.4461  1.0000  -2.6926   0.0000   0.0000   0.0000   0.3305
  10.000   1.9722   0.01977   0.01446  -0.1988  0.4448  1.0000  -2.7131   0.0000   0.0000   0.0000   0.3296
  10.100   1.9768   0.01999   0.01472  -0.1978  0.4431  1.0000  -2.7352   0.0000   0.0000   0.0000   0.3287
  10.200   1.9816   0.02022   0.01497  -0.1969  0.4411  1.0000  -2.7577   0.0000   0.0000   0.0000   0.3278
  10.300   1.9865   0.02044   0.01523  -0.1961  0.4389  1.0000  -2.7804   0.0000   0.0000   0.0000   0.3269
  10.400   1.9913   0.02068   0.01549  -0.1952  0.4363  1.0000  -2.8031   0.0000   0.0000   0.0000   0.3260
  10.500   1.9958   0.02094   0.01576  -0.1943  0.4336  1.0000  -2.8252   0.0000   0.0000   0.0000   0.3251
  10.600   1.9993   0.02124   0.01607  -0.1933  0.4309  1.0000  -2.8459   0.0000   0.0000   0.0000   0.3242
  10.700   2.0026   0.02156   0.01640  -0.1922  0.4281  1.0000  -2.8663   0.0000   0.0000   0.0000   0.3233
  10.800   2.0057   0.02189   0.01673  -0.1912  0.4252  1.0000  -2.8865   0.0000   0.0000   0.0000   0.3224
  10.900   2.0084   0.02226   0.01710  -0.1901  0.4222  1.0000  -2.9061   0.0000   0.0000   0.0000   0.3215
  11.000   2.0102   0.02268   0.01751  -0.1889  0.4189  1.0000  -2.9244   0.0000   0.0000   0.0000   0.3205
  11.100   2.0110   0.02317   0.01798  -0.1875  0.4151  1.0000  -2.9410   0.0000   0.0000   0.0000   0.3196
  11.200   2.0107   0.02374   0.01853  -0.1861  0.4108  1.0000  -2.9558   0.0000   0.0000   0.0000   0.3187
  11.300   2.0131   0.02421   0.01898  -0.1850  0.4058  1.0000  -2.9770   0.0000   0.0000   0.0000   0.3178
  11.400   2.0171   0.02459   0.01939  -0.1842  0.4035  1.0000  -3.0026   0.0000   0.0000   0.0000   0.3170
  11.500   2.0208   0.02497   0.01982  -0.1834  0.4020  1.0000  -3.0278   0.0000   0.0000   0.0000   0.3162
  11.600   2.0247   0.02536   0.02025  -0.1826  0.3999  1.0000  -3.0535   0.0000   0.0000   0.0000   0.3154
  11.700   2.0282   0.02577   0.02070  -0.1817  0.3974  1.0000  -3.0786   0.0000   0.0000   0.0000   0.3146
  11.800   2.0312   0.02623   0.02118  -0.1809  0.3943  1.0000  -3.1028   0.0000   0.0000   0.0000   0.3138
  11.900   2.0325   0.02679   0.02176  -0.1798  0.3910  1.0000  -3.1240   0.0000   0.0000   0.0000   0.3130
  12.000   2.0337   0.02738   0.02236  -0.1787  0.3874  1.0000  -3.1449   0.0000   0.0000   0.0000   0.3122
  12.100   2.0347   0.02799   0.02297  -0.1777  0.3836  1.0000  -3.1655   0.0000   0.0000   0.0000   0.3113
  12.200   2.0350   0.02865   0.02363  -0.1765  0.3797  1.0000  -3.1850   0.0000   0.0000   0.0000   0.3105
  12.300   2.0340   0.02942   0.02438  -0.1753  0.3755  1.0000  -3.2020   0.0000   0.0000   0.0000   0.3097
  12.400   2.0300   0.03042   0.02537  -0.1738  0.3710  1.0000  -3.2133   0.0000   0.0000   0.0000   0.3089
  12.500   2.0260   0.03147   0.02640  -0.1723  0.3659  1.0000  -3.2243   0.0000   0.0000   0.0000   0.3081
  12.600   2.0262   0.03221   0.02714  -0.1713  0.3610  1.0000  -3.2433   0.0000   0.0000   0.0000   0.3073
  12.700   2.0296   0.03275   0.02773  -0.1707  0.3593  1.0000  -3.2695   0.0000   0.0000   0.0000   0.3066
  12.800   2.0324   0.03334   0.02835  -0.1700  0.3569  1.0000  -3.2985   0.0000   0.0000   0.0000   0.3059
  12.900   2.0345   0.03399   0.02903  -0.1693  0.3537  1.0000  -3.3260   0.0000   0.0000   0.0000   0.3052
  13.000   2.0347   0.03478   0.02984  -0.1684  0.3498  1.0000  -3.3496   0.0000   0.0000   0.0000   0.3045
  13.100   2.0321   0.03582   0.03089  -0.1673  0.3454  1.0000  -3.3669   0.0000   0.0000   0.0000   0.3039
  13.200   2.0293   0.03687   0.03193  -0.1662  0.3405  1.0000  -3.3839   0.0000   0.0000   0.0000   0.3032
  13.300   2.0254   0.03803   0.03308  -0.1650  0.3353  1.0000  -3.3982   0.0000   0.0000   0.0000   0.3025
  13.400   2.0194   0.03941   0.03443  -0.1637  0.3298  1.0000  -3.4080   0.0000   0.0000   0.0000   0.3018
  13.500   2.0104   0.04115   0.03615  -0.1622  0.3238  1.0000  -3.4105   0.0000   0.0000   0.0000   0.3012
  13.600   2.0061   0.04248   0.03748  -0.1612  0.3186  1.0000  -3.4235   0.0000   0.0000   0.0000   0.3006
  13.700   2.0077   0.04330   0.03834  -0.1606  0.3160  1.0000  -3.4498   0.0000   0.0000   0.0000   0.3000
  13.800   2.0087   0.04416   0.03923  -0.1600  0.3127  1.0000  -3.4750   0.0000   0.0000   0.0000   0.2994
  13.900   2.0088   0.04511   0.04020  -0.1593  0.3087  1.0000  -3.4982   0.0000   0.0000   0.0000   0.2988
  14.000   2.0077   0.04619   0.04127  -0.1586  0.3043  1.0000  -3.5186   0.0000   0.0000   0.0000   0.2982
  14.100   2.0047   0.04745   0.04253  -0.1577  0.2995  1.0000  -3.5347   0.0000   0.0000   0.0000   0.2976
  14.200   1.9961   0.04938   0.04446  -0.1567  0.2949  1.0000  -3.5376   0.0000   0.0000   0.0000   0.2971
  14.300   1.9882   0.05124   0.04629  -0.1557  0.2897  1.0000  -3.5419   0.0000   0.0000   0.0000   0.2967
  14.400   1.9809   0.05302   0.04806  -0.1547  0.2839  1.0000  -3.5476   0.0000   0.0000   0.0000   0.2962
  14.500   1.9774   0.05443   0.04946  -0.1540  0.2783  1.0000  -3.5618   0.0000   0.0000   0.0000   0.2957
  14.600   1.9790   0.05532   0.05039  -0.1536  0.2760  1.0000  -3.5881   0.0000   0.0000   0.0000   0.2952
  14.700   1.9792   0.05635   0.05144  -0.1531  0.2730  1.0000  -3.6114   0.0000   0.0000   0.0000   0.2946
  14.800   1.9766   0.05772   0.05284  -0.1525  0.2695  1.0000  -3.6277   0.0000   0.0000   0.0000   0.2942
  14.900   1.9705   0.05951   0.05464  -0.1518  0.2656  1.0000  -3.6358   0.0000   0.0000   0.0000   0.2938
  15.000   1.9665   0.06105   0.05618  -0.1512  0.2611  1.0000  -3.6488   0.0000   0.0000   0.0000   0.2934
  15.100   1.9618   0.06266   0.05777  -0.1506  0.2563  1.0000  -3.6599   0.0000   0.0000   0.0000   0.2930
  15.200   1.9553   0.06447   0.05955  -0.1499  0.2512  1.0000  -3.6668   0.0000   0.0000   0.0000   0.2926
  15.300   1.9477   0.06642   0.06149  -0.1493  0.2456  1.0000  -3.6707   0.0000   0.0000   0.0000   0.2923
  15.400   1.9424   0.06812   0.06317  -0.1487  0.2395  1.0000  -3.6799   0.0000   0.0000   0.0000   0.2919
  15.500   1.9420   0.06932   0.06441  -0.1484  0.2376  1.0000  -3.7013   0.0000   0.0000   0.0000   0.2915
  15.600   1.9374   0.07106   0.06620  -0.1480  0.2352  1.0000  -3.7121   0.0000   0.0000   0.0000   0.2912
  15.700   1.9351   0.07245   0.06772  -0.1476  0.2320  1.0000  -3.7286   0.0000   0.0000   0.0000   0.2908
  15.800   1.9330   0.07378   0.06906  -0.1472  0.2283  1.0000  -3.7475   0.0000   0.0000   0.0000   0.2905
  15.900   1.9304   0.07516   0.07043  -0.1469  0.2243  1.0000  -3.7683   0.0000   0.0000   0.0000   0.2901
  16.000   1.9270   0.07665   0.07191  -0.1465  0.2201  1.0000  -3.7868   0.0000   0.0000   0.0000   0.2897
  16.100   1.9226   0.07832   0.07356  -0.1461  0.2159  1.0000  -3.8019   0.0000   0.0000   0.0000   0.2894
  16.200   1.9168   0.08019   0.07542  -0.1457  0.2113  1.0000  -3.8129   0.0000   0.0000   0.0000   0.2892
  16.300   1.9110   0.08208   0.07730  -0.1454  0.2064  1.0000  -3.8238   0.0000   0.0000   0.0000   0.2890
  16.400   1.9082   0.08359   0.07882  -0.1451  0.2023  1.0000  -3.8431   0.0000   0.0000   0.0000   0.2887
  16.500   1.9038   0.08542   0.08072  -0.1450  0.2010  1.0000  -3.8577   0.0000   0.0000   0.0000   0.2885
  16.600   1.9021   0.08686   0.08220  -0.1448  0.1993  1.0000  -3.8805   0.0000   0.0000   0.0000   0.2882
  16.700   1.9018   0.08809   0.08346  -0.1446  0.1970  1.0000  -3.9076   0.0000   0.0000   0.0000   0.2878
  16.800   1.9019   0.08928   0.08467  -0.1445  0.1942  1.0000  -3.9357   0.0000   0.0000   0.0000   0.2875
  16.900   1.9015   0.09051   0.08590  -0.1443  0.1911  1.0000  -3.9627   0.0000   0.0000   0.0000   0.2871
  17.000   1.9004   0.09183   0.08721  -0.1442  0.1878  1.0000  -3.9876   0.0000   0.0000   0.0000   0.2868
  17.100   1.8985   0.09326   0.08862  -0.1440  0.1843  1.0000  -4.0098   0.0000   0.0000   0.0000   0.2865
  17.200   1.8954   0.09485   0.09019  -0.1439  0.1806  1.0000  -4.0283   0.0000   0.0000   0.0000   0.2863
  17.300   1.8911   0.09661   0.09194  -0.1438  0.1766  1.0000  -4.0428   0.0000   0.0000   0.0000   0.2861
  17.400   1.8869   0.09836   0.09370  -0.1437  0.1721  1.0000  -4.0571   0.0000   0.0000   0.0000   0.2860
  17.500   1.8844   0.09985   0.09519  -0.1436  0.1678  1.0000  -4.0769   0.0000   0.0000   0.0000   0.2857
  17.600   1.8855   0.10092   0.09630  -0.1436  0.1667  1.0000  -4.1083   0.0000   0.0000   0.0000   0.2854
  17.700   1.8842   0.10232   0.09775  -0.1436  0.1652  1.0000  -4.1320   0.0000   0.0000   0.0000   0.2852
  17.800   1.8794   0.10430   0.09978  -0.1437  0.1635  1.0000  -4.1439   0.0000   0.0000   0.0000   0.2851
  17.900   1.8780   0.10573   0.10123  -0.1438  0.1612  1.0000  -4.1672   0.0000   0.0000   0.0000   0.2849
  18.000   1.8771   0.10705   0.10257  -0.1438  0.1585  1.0000  -4.1921   0.0000   0.0000   0.0000   0.2847
  18.100   1.8760   0.10839   0.10390  -0.1438  0.1554  1.0000  -4.2164   0.0000   0.0000   0.0000   0.2845
  18.200   1.8742   0.10980   0.10529  -0.1439  0.1522  1.0000  -4.2415   0.0000   0.0000   0.0000   0.2843
  18.300   1.8718   0.11131   0.10677  -0.1439  0.1488  1.0000  -4.2679   0.0000   0.0000   0.0000   0.2841
  18.400   1.8684   0.11294   0.10838  -0.1440  0.1451  1.0000  -4.2908   0.0000   0.0000   0.0000   0.2840
  18.500   1.8650   0.11458   0.11001  -0.1442  0.1409  1.0000  -4.3129   0.0000   0.0000   0.0000   0.2839
  18.600   1.8627   0.11603   0.11147  -0.1442  0.1367  1.0000  -4.3391   0.0000   0.0000   0.0000   0.2838
  18.700   1.8641   0.11701   0.11248  -0.1443  0.1352  1.0000  -4.3805   0.0000   0.0000   0.0000   0.2834
  18.800   1.8655   0.11799   0.11350  -0.1444  0.1340  1.0000  -4.4225   0.0000   0.0000   0.0000   0.2831
  18.900   1.8662   0.11907   0.11462  -0.1445  0.1327  1.0000  -4.4613   0.0000   0.0000   0.0000   0.2829
  19.000   1.8661   0.12026   0.11584  -0.1447  0.1310  1.0000  -4.4972   0.0000   0.0000   0.0000   0.2827
  19.100   1.8625   0.12202   0.11765  -0.1450  0.1293  1.0000  -4.5180   0.0000   0.0000   0.0000   0.2827
  19.200   1.8582   0.12389   0.11955  -0.1453  0.1274  1.0000  -4.5356   0.0000   0.0000   0.0000   0.2828
  19.300   1.8564   0.12533   0.12099  -0.1456  0.1253  1.0000  -4.5640   0.0000   0.0000   0.0000   0.2827
  19.400   1.8549   0.12670   0.12235  -0.1458  0.1229  1.0000  -4.5939   0.0000   0.0000   0.0000   0.2826
  19.500   1.8533   0.12807   0.12371  -0.1461  0.1204  1.0000  -4.6231   0.0000   0.0000   0.0000   0.2825
  19.600   1.8514   0.12949   0.12512  -0.1463  0.1177  1.0000  -4.6548   0.0000   0.0000   0.0000   0.2824
  19.700   1.8490   0.13096   0.12657  -0.1466  0.1148  1.0000  -4.6874   0.0000   0.0000   0.0000   0.2823
  19.800   1.8468   0.13241   0.12801  -0.1469  0.1114  1.0000  -4.7237   0.0000   0.0000   0.0000   0.2823
  19.900   1.8453   0.13367   0.12928  -0.1472  0.1079  1.0000  -4.7709   0.0000   0.0000   0.0000   0.2822
  20.000   1.8465   0.13455   0.13019  -0.1474  0.1064  1.0000  -4.8361   0.0000   0.0000   0.0000   0.2819
  20.100   1.8485   0.13534   0.13103  -0.1476  0.1057  1.0000  -4.9069   0.0000   0.0000   0.0000   0.2816
  20.200   1.8500   0.13618   0.13191  -0.1478  0.1047  1.0000  -4.9751   0.0000   0.0000   0.0000   0.2814
  20.300   1.8509   0.13711   0.13288  -0.1481  0.1035  1.0000  -5.0387   0.0000   0.0000   0.0000   0.2812
  20.400   1.8510   0.13814   0.13395  -0.1484  0.1022  1.0000  -5.0984   0.0000   0.0000   0.0000   0.2810
  20.500   1.8505   0.13929   0.13511  -0.1487  0.1006  1.0000  -5.1537   0.0000   0.0000   0.0000   0.2809
  20.600   1.8453   0.14121   0.13707  -0.1494  0.0993  1.0000  -5.1765   0.0000   0.0000   0.0000   0.2812
  20.700   1.8420   0.14280   0.13869  -0.1500  0.0977  1.0000  -5.2134   0.0000   0.0000   0.0000   0.2814
  20.800   1.8403   0.14416   0.14005  -0.1504  0.0958  1.0000  -5.2603   0.0000   0.0000   0.0000   0.2814
  20.900   1.8387   0.14549   0.14137  -0.1509  0.0939  1.0000  -5.3085   0.0000   0.0000   0.0000   0.2814
  21.000   1.8369   0.14686   0.14272  -0.1514  0.0918  1.0000  -5.3552   0.0000   0.0000   0.0000   0.2814
  21.100   1.8349   0.14829   0.14414  -0.1519  0.0894  1.0000  -5.3996   0.0000   0.0000   0.0000   0.2815
  21.200   1.8327   0.14973   0.14557  -0.1524  0.0868  1.0000  -5.4430   0.0000   0.0000   0.0000   0.2815
  21.300   1.8307   0.15114   0.14697  -0.1528  0.0839  1.0000  -5.4869   0.0000   0.0000   0.0000   0.2816
  21.400   1.8298   0.15235   0.14818  -0.1532  0.0809  1.0000  -5.5379   0.0000   0.0000   0.0000   0.2815
  21.500   1.8314   0.15327   0.14915  -0.1536  0.0804  1.0000  -5.6100   0.0000   0.0000   0.0000   0.2813
  21.600   1.8328   0.15423   0.15017  -0.1539  0.0798  1.0000  -5.6802   0.0000   0.0000   0.0000   0.2811
  21.700   1.8338   0.15527   0.15125  -0.1543  0.0790  1.0000  -5.7477   0.0000   0.0000   0.0000   0.2809
  21.800   1.8341   0.15640   0.15242  -0.1548  0.0780  1.0000  -5.8113   0.0000   0.0000   0.0000   0.2808
  21.900   1.8339   0.15766   0.15371  -0.1553  0.0768  1.0000  -5.8704   0.0000   0.0000   0.0000   0.2808
  22.000   1.8316   0.15928   0.15537  -0.1559  0.0756  1.0000  -5.9143   0.0000   0.0000   0.0000   0.2809
  22.100   1.8259   0.16156   0.15770  -0.1569  0.0745  1.0000  -5.9319   0.0000   0.0000   0.0000   0.2814
  22.200   1.8237   0.16320   0.15935  -0.1576  0.0731  1.0000  -5.9755   0.0000   0.0000   0.0000   0.2816
  22.300   1.8220   0.16472   0.16087  -0.1582  0.0715  1.0000  -6.0238   0.0000   0.0000   0.0000   0.2817
  22.400   1.8203   0.16625   0.16239  -0.1589  0.0698  1.0000  -6.0718   0.0000   0.0000   0.0000   0.2818
  22.500   1.8182   0.16785   0.16403  -0.1595  0.0681  1.0000  -6.1168   0.0000   0.0000   0.0000   0.2819
  22.600   1.8158   0.16952   0.16569  -0.1602  0.0663  1.0000  -6.1589   0.0000   0.0000   0.0000   0.2821
  22.700   1.8132   0.17123   0.16740  -0.1610  0.0642  1.0000  -6.1987   0.0000   0.0000   0.0000   0.2823
  22.800   1.8107   0.17294   0.16910  -0.1617  0.0619  1.0000  -6.2379   0.0000   0.0000   0.0000   0.2824
  22.900   1.8087   0.17450   0.17066  -0.1623  0.0593  1.0000  -6.2810   0.0000   0.0000   0.0000   0.2825
  23.000   1.8088   0.17574   0.17193  -0.1628  0.0582  1.0000  -6.3420   0.0000   0.0000   0.0000   0.2825
  23.100   1.8093   0.17696   0.17321  -0.1634  0.0578  1.0000  -6.4080   0.0000   0.0000   0.0000   0.2824
  23.200   1.8094   0.17827   0.17456  -0.1639  0.0574  1.0000  -6.4712   0.0000   0.0000   0.0000   0.2824
  23.300   1.8092   0.17965   0.17599  -0.1646  0.0568  1.0000  -6.5318   0.0000   0.0000   0.0000   0.2824
  23.400   1.8056   0.18175   0.17814  -0.1655  0.0563  1.0000  -6.5636   0.0000   0.0000   0.0000   0.2828
  23.500   1.8022   0.18381   0.18026  -0.1665  0.0556  1.0000  -6.5971   0.0000   0.0000   0.0000   0.2832
  23.600   1.8011   0.18540   0.18189  -0.1672  0.0548  1.0000  -6.6496   0.0000   0.0000   0.0000   0.2833
  23.700   1.8003   0.18691   0.18342  -0.1679  0.0538  1.0000  -6.7053   0.0000   0.0000   0.0000   0.2834
  23.800   1.7995   0.18841   0.18494  -0.1686  0.0527  1.0000  -6.7613   0.0000   0.0000   0.0000   0.2835
  23.900   1.7985   0.18996   0.18650  -0.1693  0.0516  1.0000  -6.8157   0.0000   0.0000   0.0000   0.2835
  24.000   1.7973   0.19156   0.18811  -0.1701  0.0504  1.0000  -6.8675   0.0000   0.0000   0.0000   0.2837
  24.100   1.7956   0.19327   0.18981  -0.1708  0.0492  1.0000  -6.9154   0.0000   0.0000   0.0000   0.2839
  24.200   1.7933   0.19511   0.19164  -0.1717  0.0480  1.0000  -6.9580   0.0000   0.0000   0.0000   0.2841
  24.300   1.7903   0.19711   0.19364  -0.1726  0.0468  1.0000  -6.9941   0.0000   0.0000   0.0000   0.2844
  24.400   1.7866   0.19929   0.19583  -0.1736  0.0455  1.0000  -7.0231   0.0000   0.0000   0.0000   0.2849
  24.500   1.7825   0.20159   0.19814  -0.1747  0.0442  1.0000  -7.0473   0.0000   0.0000   0.0000   0.2854
  24.600   1.7773   0.20419   0.20077  -0.1759  0.0428  1.0000  -7.0601   0.0000   0.0000   0.0000   0.2860
  24.700   1.7710   0.20709   0.20369  -0.1772  0.0415  1.0000  -7.0613   0.0000   0.0000   0.0000   0.2868
  24.800   1.7687   0.20896   0.20560  -0.1780  0.0398  1.0000  -7.0980   0.0000   0.0000   0.0000   0.2870
  24.900   1.7678   0.21062   0.20729  -0.1788  0.0393  1.0000  -7.1505   0.0000   0.0000   0.0000   0.2871
  25.000   1.7674   0.21217   0.20888  -0.1795  0.0391  1.0000  -7.2101   0.0000   0.0000   0.0000   0.2872
  25.100   1.7673   0.21366   0.21042  -0.1802  0.0389  1.0000  -7.2722   0.0000   0.0000   0.0000   0.2872
  25.200   1.7673   0.21513   0.21193  -0.1809  0.0386  1.0000  -7.3350   0.0000   0.0000   0.0000   0.2872
  25.300   1.7672   0.21662   0.21346  -0.1816  0.0383  1.0000  -7.3976   0.0000   0.0000   0.0000   0.2873
  25.400   1.7670   0.21813   0.21501  -0.1824  0.0379  1.0000  -7.4591   0.0000   0.0000   0.0000   0.2873
  25.500   1.7667   0.21969   0.21661  -0.1831  0.0375  1.0000  -7.5190   0.0000   0.0000   0.0000   0.2874
  25.600   1.7660   0.22131   0.21827  -0.1839  0.0370  1.0000  -7.5763   0.0000   0.0000   0.0000   0.2875
  25.700   1.7651   0.22303   0.22003  -0.1847  0.0365  1.0000  -7.6304   0.0000   0.0000   0.0000   0.2876
  25.800   1.7636   0.22486   0.22190  -0.1856  0.0359  1.0000  -7.6801   0.0000   0.0000   0.0000   0.2879
  25.900   1.7616   0.22686   0.22393  -0.1865  0.0353  1.0000  -7.7236   0.0000   0.0000   0.0000   0.2881
  26.000   1.7591   0.22901   0.22612  -0.1875  0.0347  1.0000  -7.7618   0.0000   0.0000   0.0000   0.2885
  26.100   1.7523   0.23232   0.22948  -0.1890  0.0342  1.0000  -7.7564   0.0000   0.0000   0.0000   0.2895
  26.200   1.7471   0.23524   0.23244  -0.1904  0.0337  1.0000  -7.7662   0.0000   0.0000   0.0000   0.2902
  26.300   1.7440   0.23758   0.23480  -0.1914  0.0330  1.0000  -7.7984   0.0000   0.0000   0.0000   0.2907
  26.400   1.7414   0.23980   0.23703  -0.1925  0.0323  1.0000  -7.8352   0.0000   0.0000   0.0000   0.2910
  26.500   1.7388   0.24203   0.23927  -0.1935  0.0316  1.0000  -7.8715   0.0000   0.0000   0.0000   0.2914
  26.600   1.7358   0.24435   0.24160  -0.1946  0.0308  1.0000  -7.9046   0.0000   0.0000   0.0000   0.2919
  26.700   1.7324   0.24682   0.24406  -0.1957  0.0301  1.0000  -7.9334   0.0000   0.0000   0.0000   0.2924
  26.800   1.7284   0.24947   0.24672  -0.1969  0.0292  1.0000  -7.9551   0.0000   0.0000   0.0000   0.2929
  26.900   1.7239   0.25228   0.24955  -0.1981  0.0283  1.0000  -7.9697   0.0000   0.0000   0.0000   0.2936
  27.000   1.7194   0.25512   0.25241  -0.1993  0.0273  1.0000  -7.9824   0.0000   0.0000   0.0000   0.2943
  27.100   1.7156   0.25774   0.25505  -0.2004  0.0260  1.0000  -8.0008   0.0000   0.0000   0.0000   0.2948
  27.200   1.7124   0.26012   0.25747  -0.2013  0.0245  1.0000  -8.0220   0.0000   0.0000   0.0000   0.2952
  27.300   1.7086   0.26280   0.26020  -0.2025  0.0241  1.0000  -8.0418   0.0000   0.0000   0.0000   0.2957
  27.400   1.7008   0.26682   0.26429  -0.2042  0.0240  1.0000  -8.0181   0.0000   0.0000   0.0000   0.2969
  27.500   1.6975   0.26943   0.26694  -0.2053  0.0239  1.0000  -8.0473   0.0000   0.0000   0.0000   0.2975
  27.600   1.6953   0.27173   0.26928  -0.2063  0.0238  1.0000  -8.0881   0.0000   0.0000   0.0000   0.2978
  27.700   1.6933   0.27393   0.27152  -0.2072  0.0236  1.0000  -8.1325   0.0000   0.0000   0.0000   0.2981
  27.800   1.6914   0.27613   0.27376  -0.2081  0.0235  1.0000  -8.1774   0.0000   0.0000   0.0000   0.2984
  27.900   1.6893   0.27836   0.27603  -0.2091  0.0233  1.0000  -8.2208   0.0000   0.0000   0.0000   0.2988
  28.000   1.6870   0.28068   0.27839  -0.2101  0.0230  1.0000  -8.2608   0.0000   0.0000   0.0000   0.2991
  28.100   1.6842   0.28314   0.28089  -0.2111  0.0228  1.0000  -8.2958   0.0000   0.0000   0.0000   0.2995
  28.200   1.6808   0.28579   0.28359  -0.2122  0.0225  1.0000  -8.3236   0.0000   0.0000   0.0000   0.3000
  28.300   1.6768   0.28867   0.28652  -0.2133  0.0222  1.0000  -8.3432   0.0000   0.0000   0.0000   0.3007
  28.400   1.6717   0.29191   0.28980  -0.2145  0.0219  1.0000  -8.3502   0.0000   0.0000   0.0000   0.3014
  28.500   1.6587   0.29777   0.29575  -0.2167  0.0217  1.0000  -8.2611   0.0000   0.0000   0.0000   0.3035
  28.600   1.6524   0.30141   0.29944  -0.2180  0.0214  1.0000  -8.2539   0.0000   0.0000   0.0000   0.3044
  28.700   1.6479   0.30445   0.30252  -0.2191  0.0210  1.0000  -8.2683   0.0000   0.0000   0.0000   0.3051
  28.800   1.6437   0.30735   0.30545  -0.2201  0.0206  1.0000  -8.2880   0.0000   0.0000   0.0000   0.3057
  28.900   1.6396   0.31024   0.30837  -0.2212  0.0201  1.0000  -8.3080   0.0000   0.0000   0.0000   0.3063
  29.000   1.6350   0.31322   0.31139  -0.2222  0.0196  1.0000  -8.3244   0.0000   0.0000   0.0000   0.3069
  29.100   1.6298   0.31640   0.31459  -0.2233  0.0191  1.0000  -8.3334   0.0000   0.0000   0.0000   0.3076
  29.200   1.6236   0.31985   0.31807  -0.2244  0.0187  1.0000  -8.3322   0.0000   0.0000   0.0000   0.3085
  29.300   1.6157   0.32383   0.32207  -0.2256  0.0182  1.0000  -8.3111   0.0000   0.0000   0.0000   0.3096
  29.400   1.5905   0.33301   0.33137  -0.2279  0.0179  1.0000  -8.0938   0.0000   0.0000   0.0000   0.3131
  29.500   1.5779   0.33782   0.33620  -0.2290  0.0175  1.0000  -8.0338   0.0000   0.0000   0.0000   0.3147
  29.600   1.5649   0.34217   0.34057  -0.2297  0.0169  1.0000  -7.9821   0.0000   0.0000   0.0000   0.3161


