xflr5 v6.61

 Calculated polar for: E423

 1 1 Reynolds number fixed          Mach number fixed         

 xtrf =   1.000 (top)        1.000 (bottom)
 Mach =   0.000     Re =     1.000 e 6     Ncrit =   9.000

  alpha     CL        CD       CDp       Cm    Top Xtr Bot Xtr   Cpmin    Chinge    XCp    
 ------- -------- --------- --------- -------- ------- ------- -------- --------- ---------
 -10.000   0.3358   0.09177   0.08852  -0.1675  0.7152  0.0136  -1.1712   0.0000   0.0000   0.0000   0.7833
  -9.900   0.3393   0.09100   0.08774  -0.1677  0.7127  0.0136  -1.1678   0.0000   0.0000   0.0000   0.7781
  -9.800   0.3429   0.09022   0.08696  -0.1680  0.7099  0.0136  -1.1648   0.0000   0.0000   0.0000   0.7731
  -9.700   0.3463   0.08944   0.08616  -0.1682  0.7068  0.0136  -1.1641   0.0000   0.0000   0.0000   0.7682
  -9.600   0.3496   0.08866   0.08537  -0.1684  0.7035  0.0136  -1.1655   0.0000   0.0000   0.0000   0.7635
  -9.500   0.3528   0.08789   0.08458  -0.1685  0.7000  0.0136  -1.1672   0.0000   0.0000   0.0000   0.7589
  -9.400   0.3558   0.08713   0.08380  -0.1686  0.6962  0.0136  -1.1694   0.0000   0.0000   0.0000   0.7546
  -9.300   0.3586   0.08638   0.08302  -0.1687  0.6919  0.0136  -1.1719   0.0000   0.0000   0.0000   0.7504
  -8.900   0.3710   0.08323   0.07981  -0.1692  0.6756  0.0137  -1.1837   0.0000   0.0000   0.0000   0.7338
  -8.800   0.3548   0.07801   0.07462  -0.1699  0.6753  0.0144  -1.5717   0.0000   0.0000   0.0000   0.7579
  -8.700   0.3563   0.07674   0.07336  -0.1702  0.6744  0.0147  -1.6013   0.0000   0.0000   0.0000   0.7562
  -8.600   0.3592   0.07578   0.07241  -0.1703  0.6733  0.0149  -1.6040   0.0000   0.0000   0.0000   0.7523
  -8.500   0.3625   0.07493   0.07157  -0.1705  0.6720  0.0150  -1.5985   0.0000   0.0000   0.0000   0.7478
  -8.400   0.3660   0.07414   0.07078  -0.1707  0.6705  0.0151  -1.5889   0.0000   0.0000   0.0000   0.7432
  -8.300   0.3695   0.07339   0.07003  -0.1708  0.6690  0.0153  -1.5770   0.0000   0.0000   0.0000   0.7384
  -8.200   0.3731   0.07267   0.06931  -0.1709  0.6673  0.0154  -1.5637   0.0000   0.0000   0.0000   0.7337
  -8.100   0.3767   0.07197   0.06861  -0.1710  0.6654  0.0155  -1.5497   0.0000   0.0000   0.0000   0.7290
  -8.000   0.3802   0.07128   0.06792  -0.1710  0.6635  0.0157  -1.5353   0.0000   0.0000   0.0000   0.7244
  -7.900   0.3838   0.07062   0.06725  -0.1711  0.6615  0.0158  -1.5200   0.0000   0.0000   0.0000   0.7198
  -7.800   0.3874   0.06998   0.06661  -0.1711  0.6593  0.0159  -1.5015   0.0000   0.0000   0.0000   0.7150
  -7.700   0.3911   0.06937   0.06599  -0.1710  0.6571  0.0161  -1.4813   0.0000   0.0000   0.0000   0.7102
  -7.600   0.3946   0.06877   0.06538  -0.1710  0.6548  0.0162  -1.4619   0.0000   0.0000   0.0000   0.7056
  -7.500   0.3980   0.06818   0.06478  -0.1709  0.6523  0.0163  -1.4434   0.0000   0.0000   0.0000   0.7011
  -7.400   0.4011   0.06760   0.06418  -0.1707  0.6496  0.0165  -1.4259   0.0000   0.0000   0.0000   0.6969
  -7.300   0.4042   0.06702   0.06359  -0.1706  0.6466  0.0166  -1.4091   0.0000   0.0000   0.0000   0.6928
  -7.200   0.4071   0.06645   0.06301  -0.1704  0.6434  0.0168  -1.3930   0.0000   0.0000   0.0000   0.6889
  -7.100   0.4101   0.06588   0.06242  -0.1703  0.6401  0.0170  -1.3776   0.0000   0.0000   0.0000   0.6850
  -7.000   0.4131   0.06529   0.06183  -0.1701  0.6370  0.0172  -1.3627   0.0000   0.0000   0.0000   0.6812
  -5.400   0.4966   0.01648   0.01229  -0.2316  0.6232  0.0125  -4.3059   0.0000   0.0000   0.0000   0.7293
  -5.300   0.5102   0.01563   0.01132  -0.2330  0.6221  0.0127  -4.2473   0.0000   0.0000   0.0000   0.7189
  -5.200   0.5229   0.01503   0.01063  -0.2338  0.6210  0.0128  -4.1776   0.0000   0.0000   0.0000   0.7089
  -5.100   0.5352   0.01456   0.01008  -0.2345  0.6198  0.0129  -4.1023   0.0000   0.0000   0.0000   0.6993
  -5.000   0.5473   0.01418   0.00963  -0.2349  0.6185  0.0131  -4.0229   0.0000   0.0000   0.0000   0.6901
  -4.900   0.5590   0.01388   0.00926  -0.2353  0.6172  0.0132  -3.9401   0.0000   0.0000   0.0000   0.6812
  -4.800   0.5706   0.01363   0.00895  -0.2355  0.6159  0.0133  -3.8544   0.0000   0.0000   0.0000   0.6727
  -4.700   0.5819   0.01344   0.00872  -0.2357  0.6144  0.0134  -3.7658   0.0000   0.0000   0.0000   0.6646
  -4.600   0.5929   0.01331   0.00855  -0.2358  0.6128  0.0135  -3.6747   0.0000   0.0000   0.0000   0.6567
  -4.500   0.6037   0.01323   0.00844  -0.2357  0.6111  0.0136  -3.5810   0.0000   0.0000   0.0000   0.6491
  -4.400   0.6154   0.01288   0.00797  -0.2360  0.6093  0.0138  -3.5106   0.0000   0.0000   0.0000   0.6419
  -4.300   0.6319   0.01110   0.00572  -0.2381  0.6075  0.0146  -3.5698   0.0000   0.0000   0.0000   0.6348
  -4.200   0.6446   0.01050   0.00490  -0.2386  0.6054  0.0157  -3.5425   0.0000   0.0000   0.0000   0.6278
  -4.100   0.6563   0.01019   0.00446  -0.2388  0.6031  0.0170  -3.4897   0.0000   0.0000   0.0000   0.6211
  -4.000   0.6677   0.01002   0.00421  -0.2388  0.6006  0.0185  -3.4206   0.0000   0.0000   0.0000   0.6147
  -3.900   0.6788   0.00992   0.00409  -0.2388  0.5981  0.0201  -3.3378   0.0000   0.0000   0.0000   0.6085
  -3.800   0.6901   0.00987   0.00402  -0.2389  0.5956  0.0216  -3.2481   0.0000   0.0000   0.0000   0.6024
  -3.700   0.7016   0.00983   0.00397  -0.2389  0.5934  0.0231  -3.1558   0.0000   0.0000   0.0000   0.5966
  -3.600   0.7132   0.00981   0.00393  -0.2390  0.5912  0.0246  -3.0618   0.0000   0.0000   0.0000   0.5908
  -3.500   0.7249   0.00980   0.00390  -0.2391  0.5891  0.0259  -2.9660   0.0000   0.0000   0.0000   0.5853
  -3.400   0.7367   0.00981   0.00390  -0.2392  0.5871  0.0270  -2.8683   0.0000   0.0000   0.0000   0.5799
  -3.300   0.7486   0.00984   0.00392  -0.2394  0.5852  0.0277  -2.7691   0.0000   0.0000   0.0000   0.5747
  -3.200   0.7599   0.00985   0.00394  -0.2394  0.5845  0.0282  -2.6715   0.0000   0.0000   0.0000   0.5696
  -3.100   0.7709   0.00986   0.00396  -0.2394  0.5843  0.0285  -2.5755   0.0000   0.0000   0.0000   0.5648
  -3.000   0.7819   0.00987   0.00398  -0.2393  0.5841  0.0287  -2.4818   0.0000   0.0000   0.0000   0.5601
  -2.900   0.7929   0.00988   0.00400  -0.2393  0.5839  0.0289  -2.3920   0.0000   0.0000   0.0000   0.5555
  -2.800   0.8045   0.00977   0.00385  -0.2393  0.5837  0.0300  -2.3140   0.0000   0.0000   0.0000   0.5510
  -2.700   0.8164   0.00959   0.00359  -0.2395  0.5835  0.0326  -2.2450   0.0000   0.0000   0.0000   0.5466
  -2.600   0.8280   0.00950   0.00346  -0.2395  0.5832  0.0352  -2.1702   0.0000   0.0000   0.0000   0.5424
  -2.500   0.8395   0.00942   0.00338  -0.2396  0.5829  0.0384  -2.0931   0.0000   0.0000   0.0000   0.5382
  -2.400   0.8508   0.00936   0.00334  -0.2396  0.5826  0.0418  -2.0139   0.0000   0.0000   0.0000   0.5342
  -2.300   0.8620   0.00931   0.00332  -0.2396  0.5822  0.0452  -1.9341   0.0000   0.0000   0.0000   0.5303
  -2.200   0.8731   0.00930   0.00331  -0.2396  0.5818  0.0476  -1.8536   0.0000   0.0000   0.0000   0.5265
  -2.100   0.8841   0.00931   0.00332  -0.2396  0.5814  0.0487  -1.7727   0.0000   0.0000   0.0000   0.5229
  -1.900   0.9061   0.00930   0.00332  -0.2395  0.5804  0.0512  -1.6160   0.0000   0.0000   0.0000   0.5157
  -1.800   0.9177   0.00921   0.00320  -0.2396  0.5799  0.0585  -1.5461   0.0000   0.0000   0.0000   0.5123
  -1.700   0.9290   0.00917   0.00320  -0.2396  0.5793  0.0642  -1.4721   0.0000   0.0000   0.0000   0.5089
  -1.600   0.9400   0.00914   0.00321  -0.2396  0.5787  0.0686  -1.3982   0.0000   0.0000   0.0000   0.5056
  -1.500   0.9510   0.00913   0.00321  -0.2395  0.5780  0.0719  -1.3252   0.0000   0.0000   0.0000   0.5024
  -1.400   0.9618   0.00914   0.00322  -0.2394  0.5772  0.0738  -1.3132   0.0000   0.0000   0.0000   0.4993
  -1.300   0.9725   0.00916   0.00323  -0.2393  0.5764  0.0747  -1.3214   0.0000   0.0000   0.0000   0.4963
  -1.200   0.9831   0.00917   0.00323  -0.2392  0.5755  0.0752  -1.3295   0.0000   0.0000   0.0000   0.4933
  -1.100   0.9941   0.00914   0.00318  -0.2391  0.5746  0.0789  -1.3378   0.0000   0.0000   0.0000   0.4903
  -1.000   1.0051   0.00909   0.00313  -0.2391  0.5735  0.0855  -1.3460   0.0000   0.0000   0.0000   0.4874
  -0.900   1.0159   0.00908   0.00313  -0.2390  0.5724  0.0909  -1.3542   0.0000   0.0000   0.0000   0.4846
  -0.800   1.0266   0.00907   0.00314  -0.2389  0.5713  0.0950  -1.3623   0.0000   0.0000   0.0000   0.4819
  -0.700   1.0372   0.00907   0.00316  -0.2388  0.5702  0.0987  -1.3706   0.0000   0.0000   0.0000   0.4792
  -0.600   1.0477   0.00908   0.00317  -0.2387  0.5691  0.1017  -1.3796   0.0000   0.0000   0.0000   0.4766
  -0.500   1.0582   0.00910   0.00318  -0.2385  0.5680  0.1038  -1.3886   0.0000   0.0000   0.0000   0.4740
  -0.400   1.0686   0.00912   0.00319  -0.2384  0.5668  0.1052  -1.3976   0.0000   0.0000   0.0000   0.4715
  -0.300   1.0789   0.00915   0.00321  -0.2382  0.5656  0.1060  -1.4064   0.0000   0.0000   0.0000   0.4690
  -0.200   1.0891   0.00918   0.00323  -0.2380  0.5644  0.1065  -1.4153   0.0000   0.0000   0.0000   0.4665
  -0.100   1.0993   0.00920   0.00323  -0.2378  0.5631  0.1084  -1.4241   0.0000   0.0000   0.0000   0.4641
   0.000   1.1096   0.00918   0.00320  -0.2376  0.5618  0.1146  -1.4329   0.0000   0.0000   0.0000   0.4618
   0.100   1.1197   0.00919   0.00321  -0.2374  0.5603  0.1204  -1.4416   0.0000   0.0000   0.0000   0.4595
   0.200   1.1297   0.00921   0.00323  -0.2371  0.5588  0.1252  -1.4502   0.0000   0.0000   0.0000   0.4572
   0.300   1.1396   0.00924   0.00327  -0.2369  0.5571  0.1293  -1.4588   0.0000   0.0000   0.0000   0.4550
   0.400   1.1495   0.00927   0.00331  -0.2366  0.5553  0.1332  -1.4674   0.0000   0.0000   0.0000   0.4528
   0.500   1.1596   0.00932   0.00335  -0.2364  0.5534  0.1367  -1.4761   0.0000   0.0000   0.0000   0.4506
   0.600   1.1699   0.00937   0.00340  -0.2363  0.5514  0.1394  -1.4848   0.0000   0.0000   0.0000   0.4485
   0.700   1.1804   0.00943   0.00344  -0.2362  0.5493  0.1411  -1.4938   0.0000   0.0000   0.0000   0.4465
   0.800   1.1913   0.00949   0.00350  -0.2361  0.5473  0.1423  -1.5029   0.0000   0.0000   0.0000   0.4444
   0.900   1.2025   0.00955   0.00355  -0.2362  0.5452  0.1430  -1.5122   0.0000   0.0000   0.0000   0.4424
   1.000   1.2140   0.00963   0.00362  -0.2363  0.5432  0.1435  -1.5217   0.0000   0.0000   0.0000   0.4405
   1.100   1.2259   0.00969   0.00368  -0.2365  0.5412  0.1458  -1.5314   0.0000   0.0000   0.0000   0.4386
   1.200   1.2384   0.00972   0.00371  -0.2368  0.5392  0.1540  -1.5415   0.0000   0.0000   0.0000   0.4367
   1.300   1.2494   0.00973   0.00372  -0.2368  0.5385  0.1598  -1.5508   0.0000   0.0000   0.0000   0.4349
   1.400   1.2596   0.00973   0.00373  -0.2366  0.5383  0.1641  -1.5597   0.0000   0.0000   0.0000   0.4330
   1.500   1.2697   0.00972   0.00375  -0.2364  0.5381  0.1676  -1.5686   0.0000   0.0000   0.0000   0.4312
   1.600   1.2798   0.00972   0.00376  -0.2362  0.5379  0.1708  -1.5774   0.0000   0.0000   0.0000   0.4294
   1.700   1.2899   0.00972   0.00378  -0.2360  0.5376  0.1737  -1.5863   0.0000   0.0000   0.0000   0.4276
   1.800   1.3000   0.00973   0.00379  -0.2358  0.5373  0.1765  -1.5952   0.0000   0.0000   0.0000   0.4258
   1.900   1.3101   0.00973   0.00381  -0.2356  0.5370  0.1791  -1.6041   0.0000   0.0000   0.0000   0.4241
   2.000   1.3202   0.00974   0.00383  -0.2354  0.5366  0.1813  -1.6130   0.0000   0.0000   0.0000   0.4224
   2.100   1.3305   0.00976   0.00385  -0.2353  0.5363  0.1832  -1.6220   0.0000   0.0000   0.0000   0.4207
   2.200   1.3408   0.00978   0.00388  -0.2351  0.5359  0.1846  -1.6321   0.0000   0.0000   0.0000   0.4191
   2.300   1.3510   0.00980   0.00391  -0.2349  0.5354  0.1857  -1.6421   0.0000   0.0000   0.0000   0.4175
   2.400   1.3613   0.00983   0.00394  -0.2348  0.5350  0.1864  -1.6522   0.0000   0.0000   0.0000   0.4159
   2.500   1.3715   0.00985   0.00397  -0.2346  0.5345  0.1869  -1.6623   0.0000   0.0000   0.0000   0.4143
   2.600   1.3819   0.00987   0.00400  -0.2345  0.5339  0.1889  -1.6724   0.0000   0.0000   0.0000   0.4127
   2.700   1.3924   0.00988   0.00401  -0.2344  0.5333  0.1964  -1.6826   0.0000   0.0000   0.0000   0.4112
   2.800   1.4028   0.00989   0.00403  -0.2343  0.5327  0.2036  -1.6927   0.0000   0.0000   0.0000   0.4097
   2.900   1.4131   0.00990   0.00407  -0.2342  0.5320  0.2107  -1.7028   0.0000   0.0000   0.0000   0.4082
   3.000   1.4234   0.00992   0.00412  -0.2340  0.5312  0.2168  -1.7129   0.0000   0.0000   0.0000   0.4067
   3.100   1.4336   0.00994   0.00416  -0.2339  0.5304  0.2221  -1.7230   0.0000   0.0000   0.0000   0.4053
   3.200   1.4437   0.00997   0.00421  -0.2337  0.5296  0.2267  -1.7330   0.0000   0.0000   0.0000   0.4038
   3.300   1.4538   0.00999   0.00425  -0.2335  0.5287  0.2305  -1.7430   0.0000   0.0000   0.0000   0.4024
   3.400   1.4638   0.01002   0.00428  -0.2334  0.5278  0.2332  -1.7529   0.0000   0.0000   0.0000   0.4010
   3.500   1.4737   0.01005   0.00432  -0.2331  0.5267  0.2352  -1.7628   0.0000   0.0000   0.0000   0.3996
   3.600   1.4835   0.01009   0.00436  -0.2329  0.5255  0.2365  -1.7726   0.0000   0.0000   0.0000   0.3982
   3.700   1.4933   0.01012   0.00439  -0.2327  0.5241  0.2452  -1.7824   0.0000   0.0000   0.0000   0.3969
   3.800   1.5030   0.01014   0.00444  -0.2324  0.5227  0.2598  -1.7921   0.0000   0.0000   0.0000   0.3955
   3.900   1.5125   0.01017   0.00449  -0.2322  0.5212  0.2708  -1.8018   0.0000   0.0000   0.0000   0.3942
   4.000   1.5219   0.01021   0.00455  -0.2319  0.5196  0.2800  -1.8113   0.0000   0.0000   0.0000   0.3929
   4.100   1.5312   0.01025   0.00460  -0.2316  0.5179  0.2876  -1.8207   0.0000   0.0000   0.0000   0.3916
   4.300   1.5492   0.01035   0.00472  -0.2308  0.5144  0.3179  -1.8392   0.0000   0.0000   0.0000   0.3890
   4.400   1.5580   0.01040   0.00479  -0.2304  0.5124  0.3368  -1.8483   0.0000   0.0000   0.0000   0.3877
   4.600   1.5752   0.01050   0.00496  -0.2296  0.5074  0.3930  -1.8685   0.0000   0.0000   0.0000   0.3852
   4.700   1.5843   0.01053   0.00508  -0.2293  0.5045  0.4540  -1.8789   0.0000   0.0000   0.0000   0.3840
   4.900   1.6012   0.01011   0.00540  -0.2286  0.4986  1.0000  -1.8989   0.0000   0.0000   0.0000   0.3816
   5.000   1.6112   0.01022   0.00549  -0.2284  0.4955  1.0000  -1.9099   0.0000   0.0000   0.0000   0.3805
   5.100   1.6215   0.01032   0.00558  -0.2283  0.4931  1.0000  -1.9216   0.0000   0.0000   0.0000   0.3793
   5.200   1.6311   0.01035   0.00562  -0.2281  0.4929  1.0000  -1.9340   0.0000   0.0000   0.0000   0.3782
   5.300   1.6407   0.01038   0.00566  -0.2278  0.4925  1.0000  -1.9464   0.0000   0.0000   0.0000   0.3770
   5.400   1.6503   0.01042   0.00570  -0.2276  0.4922  1.0000  -1.9588   0.0000   0.0000   0.0000   0.3759
   5.500   1.6599   0.01045   0.00574  -0.2273  0.4918  1.0000  -1.9713   0.0000   0.0000   0.0000   0.3747
   5.600   1.6695   0.01049   0.00579  -0.2271  0.4913  1.0000  -1.9842   0.0000   0.0000   0.0000   0.3736
   5.700   1.6792   0.01053   0.00585  -0.2269  0.4908  1.0000  -1.9983   0.0000   0.0000   0.0000   0.3725
   5.800   1.6887   0.01058   0.00590  -0.2267  0.4902  1.0000  -2.0123   0.0000   0.0000   0.0000   0.3714
   5.900   1.6982   0.01062   0.00595  -0.2264  0.4894  1.0000  -2.0262   0.0000   0.0000   0.0000   0.3703
   6.000   1.7075   0.01067   0.00601  -0.2261  0.4886  1.0000  -2.0401   0.0000   0.0000   0.0000   0.3693
   6.100   1.7167   0.01072   0.00607  -0.2258  0.4876  1.0000  -2.0539   0.0000   0.0000   0.0000   0.3682
   6.200   1.7259   0.01077   0.00613  -0.2255  0.4864  1.0000  -2.0677   0.0000   0.0000   0.0000   0.3671
   6.300   1.7350   0.01083   0.00619  -0.2252  0.4851  1.0000  -2.0814   0.0000   0.0000   0.0000   0.3661
   6.400   1.7440   0.01089   0.00626  -0.2249  0.4837  1.0000  -2.0966   0.0000   0.0000   0.0000   0.3650
   6.500   1.7529   0.01096   0.00633  -0.2245  0.4822  1.0000  -2.1120   0.0000   0.0000   0.0000   0.3640
   6.600   1.7617   0.01103   0.00640  -0.2241  0.4806  1.0000  -2.1273   0.0000   0.0000   0.0000   0.3629
   6.700   1.7703   0.01110   0.00647  -0.2237  0.4788  1.0000  -2.1425   0.0000   0.0000   0.0000   0.3619
   6.800   1.7786   0.01119   0.00655  -0.2233  0.4768  1.0000  -2.1574   0.0000   0.0000   0.0000   0.3608
   6.900   1.7867   0.01128   0.00663  -0.2228  0.4746  1.0000  -2.1721   0.0000   0.0000   0.0000   0.3598
   7.000   1.7943   0.01138   0.00672  -0.2222  0.4721  1.0000  -2.1864   0.0000   0.0000   0.0000   0.3587
   7.100   1.8015   0.01150   0.00682  -0.2215  0.4694  1.0000  -2.2024   0.0000   0.0000   0.0000   0.3577
   7.200   1.8084   0.01163   0.00694  -0.2208  0.4665  1.0000  -2.2180   0.0000   0.0000   0.0000   0.3566
   7.300   1.8151   0.01177   0.00706  -0.2201  0.4633  1.0000  -2.2334   0.0000   0.0000   0.0000   0.3556
   7.400   1.8220   0.01191   0.00718  -0.2194  0.4601  1.0000  -2.2491   0.0000   0.0000   0.0000   0.3545
   7.500   1.8291   0.01205   0.00731  -0.2188  0.4569  1.0000  -2.2649   0.0000   0.0000   0.0000   0.3535
   7.600   1.8364   0.01220   0.00745  -0.2182  0.4535  1.0000  -2.2810   0.0000   0.0000   0.0000   0.3525
   7.700   1.8441   0.01234   0.00758  -0.2176  0.4502  1.0000  -2.2974   0.0000   0.0000   0.0000   0.3515
   7.800   1.8526   0.01245   0.00769  -0.2172  0.4482  1.0000  -2.3148   0.0000   0.0000   0.0000   0.3506
   7.900   1.8617   0.01251   0.00777  -0.2170  0.4477  1.0000  -2.3349   0.0000   0.0000   0.0000   0.3497
   8.000   1.8707   0.01257   0.00786  -0.2167  0.4470  1.0000  -2.3555   0.0000   0.0000   0.0000   0.3488
   8.100   1.8794   0.01265   0.00795  -0.2164  0.4462  1.0000  -2.3759   0.0000   0.0000   0.0000   0.3478
   8.200   1.8881   0.01273   0.00806  -0.2160  0.4453  1.0000  -2.3962   0.0000   0.0000   0.0000   0.3469
   8.300   1.8965   0.01281   0.00816  -0.2156  0.4442  1.0000  -2.4164   0.0000   0.0000   0.0000   0.3460
   8.400   1.9048   0.01291   0.00827  -0.2152  0.4429  1.0000  -2.4364   0.0000   0.0000   0.0000   0.3451
   8.500   1.9130   0.01301   0.00838  -0.2148  0.4415  1.0000  -2.4562   0.0000   0.0000   0.0000   0.3442
   8.600   1.9209   0.01312   0.00850  -0.2143  0.4398  1.0000  -2.4759   0.0000   0.0000   0.0000   0.3433
   8.700   1.9285   0.01324   0.00863  -0.2138  0.4376  1.0000  -2.4962   0.0000   0.0000   0.0000   0.3424
   8.800   1.9357   0.01337   0.00876  -0.2132  0.4350  1.0000  -2.5181   0.0000   0.0000   0.0000   0.3414
   8.900   1.9423   0.01353   0.00891  -0.2125  0.4320  1.0000  -2.5392   0.0000   0.0000   0.0000   0.3405
   9.000   1.9482   0.01372   0.00908  -0.2117  0.4286  1.0000  -2.5595   0.0000   0.0000   0.0000   0.3395
   9.100   1.9533   0.01393   0.00927  -0.2108  0.4248  1.0000  -2.5789   0.0000   0.0000   0.0000   0.3386
   9.200   1.9578   0.01418   0.00949  -0.2098  0.4208  1.0000  -2.5975   0.0000   0.0000   0.0000   0.3376
   9.300   1.9622   0.01443   0.00973  -0.2087  0.4164  1.0000  -2.6158   0.0000   0.0000   0.0000   0.3366
   9.400   1.9668   0.01468   0.00999  -0.2077  0.4120  1.0000  -2.6345   0.0000   0.0000   0.0000   0.3356
   9.500   1.9711   0.01494   0.01025  -0.2067  0.4079  1.0000  -2.6529   0.0000   0.0000   0.0000   0.3347
   9.600   1.9758   0.01519   0.01050  -0.2057  0.4043  1.0000  -2.6716   0.0000   0.0000   0.0000   0.3337
   9.700   1.9838   0.01531   0.01064  -0.2053  0.4037  1.0000  -2.6949   0.0000   0.0000   0.0000   0.3329
   9.800   1.9917   0.01544   0.01079  -0.2049  0.4028  1.0000  -2.7187   0.0000   0.0000   0.0000   0.3321
   9.900   1.9993   0.01558   0.01095  -0.2045  0.4017  1.0000  -2.7454   0.0000   0.0000   0.0000   0.3312
  10.000   2.0067   0.01573   0.01112  -0.2040  0.4000  1.0000  -2.7718   0.0000   0.0000   0.0000   0.3304
  10.100   2.0136   0.01590   0.01130  -0.2034  0.3978  1.0000  -2.7976   0.0000   0.0000   0.0000   0.3296
  10.200   2.0199   0.01611   0.01151  -0.2028  0.3948  1.0000  -2.8225   0.0000   0.0000   0.0000   0.3287
  10.300   2.0252   0.01636   0.01175  -0.2020  0.3910  1.0000  -2.8461   0.0000   0.0000   0.0000   0.3278
  10.400   2.0293   0.01666   0.01204  -0.2010  0.3867  1.0000  -2.8679   0.0000   0.0000   0.0000   0.3269
  10.500   2.0322   0.01703   0.01238  -0.1998  0.3822  1.0000  -2.8879   0.0000   0.0000   0.0000   0.3260
  10.600   2.0328   0.01750   0.01283  -0.1983  0.3776  1.0000  -2.9044   0.0000   0.0000   0.0000   0.3250
  10.700   2.0336   0.01797   0.01328  -0.1969  0.3728  1.0000  -2.9210   0.0000   0.0000   0.0000   0.3240
  10.800   2.0354   0.01842   0.01371  -0.1956  0.3674  1.0000  -2.9393   0.0000   0.0000   0.0000   0.3231
  10.900   2.0384   0.01881   0.01411  -0.1945  0.3623  1.0000  -2.9593   0.0000   0.0000   0.0000   0.3222
  11.000   2.0445   0.01905   0.01436  -0.1939  0.3603  1.0000  -2.9843   0.0000   0.0000   0.0000   0.3214
  11.100   2.0509   0.01927   0.01460  -0.1934  0.3590  1.0000  -3.0139   0.0000   0.0000   0.0000   0.3206
  11.200   2.0568   0.01952   0.01487  -0.1928  0.3570  1.0000  -3.0432   0.0000   0.0000   0.0000   0.3198
  11.300   2.0611   0.01985   0.01521  -0.1920  0.3542  1.0000  -3.0698   0.0000   0.0000   0.0000   0.3190
  11.400   2.0633   0.02030   0.01567  -0.1908  0.3506  1.0000  -3.0927   0.0000   0.0000   0.0000   0.3181
  11.500   2.0644   0.02084   0.01619  -0.1896  0.3458  1.0000  -3.1137   0.0000   0.0000   0.0000   0.3172
  11.600   2.0641   0.02147   0.01679  -0.1882  0.3402  1.0000  -3.1323   0.0000   0.0000   0.0000   0.3163
  11.700   2.0624   0.02222   0.01750  -0.1866  0.3340  1.0000  -3.1481   0.0000   0.0000   0.0000   0.3154
  11.800   2.0596   0.02306   0.01831  -0.1850  0.3268  1.0000  -3.1620   0.0000   0.0000   0.0000   0.3145
  11.900   2.0568   0.02393   0.01917  -0.1834  0.3199  1.0000  -3.1757   0.0000   0.0000   0.0000   0.3136
  12.000   2.0605   0.02439   0.01964  -0.1827  0.3173  1.0000  -3.2014   0.0000   0.0000   0.0000   0.3129
  12.100   2.0643   0.02484   0.02011  -0.1819  0.3146  1.0000  -3.2273   0.0000   0.0000   0.0000   0.3121
  12.200   2.0673   0.02536   0.02063  -0.1811  0.3113  1.0000  -3.2519   0.0000   0.0000   0.0000   0.3113
  12.300   2.0690   0.02597   0.02124  -0.1801  0.3071  1.0000  -3.2741   0.0000   0.0000   0.0000   0.3106
  12.400   2.0687   0.02674   0.02199  -0.1790  0.3023  1.0000  -3.2938   0.0000   0.0000   0.0000   0.3098
  12.500   2.0638   0.02788   0.02313  -0.1774  0.2975  1.0000  -3.3064   0.0000   0.0000   0.0000   0.3090
  12.600   2.0598   0.02898   0.02419  -0.1759  0.2920  1.0000  -3.3210   0.0000   0.0000   0.0000   0.3082
  12.700   2.0570   0.03001   0.02520  -0.1746  0.2853  1.0000  -3.3379   0.0000   0.0000   0.0000   0.3074
  12.800   2.0560   0.03091   0.02609  -0.1736  0.2788  1.0000  -3.3588   0.0000   0.0000   0.0000   0.3067
  12.900   2.0588   0.03151   0.02671  -0.1729  0.2767  1.0000  -3.3882   0.0000   0.0000   0.0000   0.3060
  13.000   2.0578   0.03246   0.02769  -0.1719  0.2742  1.0000  -3.4092   0.0000   0.0000   0.0000   0.3053
  13.100   2.0571   0.03339   0.02862  -0.1710  0.2709  1.0000  -3.4309   0.0000   0.0000   0.0000   0.3046
  13.200   2.0560   0.03434   0.02957  -0.1700  0.2665  1.0000  -3.4518   0.0000   0.0000   0.0000   0.3039
  13.300   2.0533   0.03544   0.03065  -0.1689  0.2615  1.0000  -3.4690   0.0000   0.0000   0.0000   0.3032
  13.400   2.0487   0.03673   0.03192  -0.1677  0.2561  1.0000  -3.4819   0.0000   0.0000   0.0000   0.3026
  13.500   2.0396   0.03849   0.03366  -0.1662  0.2511  1.0000  -3.4844   0.0000   0.0000   0.0000   0.3020
  13.600   2.0333   0.03999   0.03515  -0.1650  0.2446  1.0000  -3.4932   0.0000   0.0000   0.0000   0.3013
  13.700   2.0319   0.04105   0.03622  -0.1642  0.2391  1.0000  -3.5130   0.0000   0.0000   0.0000   0.3007
  13.800   2.0336   0.04184   0.03702  -0.1636  0.2368  1.0000  -3.5399   0.0000   0.0000   0.0000   0.3001
  13.900   2.0339   0.04274   0.03793  -0.1629  0.2338  1.0000  -3.5640   0.0000   0.0000   0.0000   0.2995
  14.000   2.0328   0.04382   0.03901  -0.1621  0.2303  1.0000  -3.5846   0.0000   0.0000   0.0000   0.2989
  14.100   2.0272   0.04542   0.04064  -0.1612  0.2269  1.0000  -3.5947   0.0000   0.0000   0.0000   0.2984
  14.200   2.0206   0.04716   0.04238  -0.1602  0.2234  1.0000  -3.6024   0.0000   0.0000   0.0000   0.2979
  14.300   2.0165   0.04860   0.04380  -0.1594  0.2194  1.0000  -3.6158   0.0000   0.0000   0.0000   0.2974
  14.400   2.0127   0.05003   0.04521  -0.1586  0.2150  1.0000  -3.6300   0.0000   0.0000   0.0000   0.2969
  14.500   2.0095   0.05141   0.04658  -0.1578  0.2098  1.0000  -3.6453   0.0000   0.0000   0.0000   0.2964
  14.600   2.0071   0.05273   0.04790  -0.1572  0.2046  1.0000  -3.6624   0.0000   0.0000   0.0000   0.2959
  14.700   2.0068   0.05384   0.04903  -0.1566  0.2020  1.0000  -3.6846   0.0000   0.0000   0.0000   0.2953
  14.800   2.0004   0.05574   0.05098  -0.1560  0.2009  1.0000  -3.6921   0.0000   0.0000   0.0000   0.2950
  14.900   1.9998   0.05692   0.05218  -0.1555  0.1992  1.0000  -3.7137   0.0000   0.0000   0.0000   0.2945
  15.000   2.0000   0.05800   0.05328  -0.1551  0.1970  1.0000  -3.7371   0.0000   0.0000   0.0000   0.2940
  15.100   1.9997   0.05911   0.05446  -0.1546  0.1943  1.0000  -3.7595   0.0000   0.0000   0.0000   0.2935
  15.200   1.9986   0.06031   0.05567  -0.1541  0.1912  1.0000  -3.7799   0.0000   0.0000   0.0000   0.2930
  15.300   1.9961   0.06167   0.05702  -0.1535  0.1877  1.0000  -3.7969   0.0000   0.0000   0.0000   0.2926
  15.400   1.9921   0.06321   0.05855  -0.1529  0.1840  1.0000  -3.8143   0.0000   0.0000   0.0000   0.2922
  15.500   1.9870   0.06493   0.06026  -0.1524  0.1800  1.0000  -3.8286   0.0000   0.0000   0.0000   0.2918
  15.600   1.9737   0.06781   0.06317  -0.1517  0.1770  1.0000  -3.8187   0.0000   0.0000   0.0000   0.2917
  15.700   1.9682   0.06962   0.06498  -0.1513  0.1723  1.0000  -3.8314   0.0000   0.0000   0.0000   0.2914
  15.800   1.9664   0.07096   0.06633  -0.1509  0.1678  1.0000  -3.8546   0.0000   0.0000   0.0000   0.2910
  15.900   1.9684   0.07183   0.06723  -0.1506  0.1665  1.0000  -3.8892   0.0000   0.0000   0.0000   0.2905
  16.000   1.9699   0.07277   0.06818  -0.1503  0.1647  1.0000  -3.9226   0.0000   0.0000   0.0000   0.2900
  16.100   1.9705   0.07382   0.06924  -0.1500  0.1622  1.0000  -3.9533   0.0000   0.0000   0.0000   0.2896
  16.200   1.9698   0.07499   0.07041  -0.1497  0.1593  1.0000  -3.9803   0.0000   0.0000   0.0000   0.2892
  16.300   1.9677   0.07632   0.07173  -0.1494  0.1562  1.0000  -4.0034   0.0000   0.0000   0.0000   0.2888
  16.400   1.9643   0.07784   0.07325  -0.1490  0.1530  1.0000  -4.0222   0.0000   0.0000   0.0000   0.2885
  16.500   1.9591   0.07962   0.07502  -0.1487  0.1499  1.0000  -4.0354   0.0000   0.0000   0.0000   0.2882
  16.600   1.9423   0.08311   0.07857  -0.1483  0.1485  1.0000  -4.0131   0.0000   0.0000   0.0000   0.2884
  16.700   1.9381   0.08486   0.08031  -0.1481  0.1448  1.0000  -4.0290   0.0000   0.0000   0.0000   0.2882
  16.800   1.9365   0.08625   0.08170  -0.1479  0.1407  1.0000  -4.0526   0.0000   0.0000   0.0000   0.2878
  16.900   1.9362   0.08746   0.08292  -0.1477  0.1368  1.0000  -4.0803   0.0000   0.0000   0.0000   0.2875
  17.000   1.9384   0.08836   0.08384  -0.1476  0.1353  1.0000  -4.1157   0.0000   0.0000   0.0000   0.2870
  17.100   1.9409   0.08920   0.08470  -0.1474  0.1343  1.0000  -4.1526   0.0000   0.0000   0.0000   0.2866
  17.200   1.9431   0.09009   0.08561  -0.1473  0.1331  1.0000  -4.1883   0.0000   0.0000   0.0000   0.2861
  17.300   1.9447   0.09106   0.08658  -0.1472  0.1314  1.0000  -4.2224   0.0000   0.0000   0.0000   0.2857
  17.400   1.9455   0.09213   0.08766  -0.1470  0.1295  1.0000  -4.2540   0.0000   0.0000   0.0000   0.2853
  17.500   1.9454   0.09332   0.08886  -0.1469  0.1272  1.0000  -4.2828   0.0000   0.0000   0.0000   0.2850
  17.600   1.9442   0.09466   0.09020  -0.1468  0.1249  1.0000  -4.3081   0.0000   0.0000   0.0000   0.2847
  17.700   1.9417   0.09619   0.09173  -0.1467  0.1225  1.0000  -4.3305   0.0000   0.0000   0.0000   0.2845
  17.800   1.9373   0.09800   0.09354  -0.1466  0.1201  1.0000  -4.3512   0.0000   0.0000   0.0000   0.2843
  17.900   1.9214   0.10167   0.09728  -0.1468  0.1189  1.0000  -4.3270   0.0000   0.0000   0.0000   0.2847
  18.000   1.9179   0.10338   0.09899  -0.1469  0.1159  1.0000  -4.3505   0.0000   0.0000   0.0000   0.2846
  18.100   1.9165   0.10479   0.10038  -0.1468  0.1125  1.0000  -4.3819   0.0000   0.0000   0.0000   0.2844
  18.200   1.9162   0.10602   0.10162  -0.1468  0.1090  1.0000  -4.4176   0.0000   0.0000   0.0000   0.2841
  18.300   1.9172   0.10707   0.10268  -0.1468  0.1067  1.0000  -4.4586   0.0000   0.0000   0.0000   0.2837
  18.400   1.9200   0.10787   0.10350  -0.1468  0.1061  1.0000  -4.5071   0.0000   0.0000   0.0000   0.2833
  18.500   1.9225   0.10870   0.10435  -0.1468  0.1052  1.0000  -4.5547   0.0000   0.0000   0.0000   0.2829
  18.600   1.9246   0.10958   0.10525  -0.1468  0.1042  1.0000  -4.6009   0.0000   0.0000   0.0000   0.2825
  18.700   1.9263   0.11051   0.10620  -0.1468  0.1028  1.0000  -4.6454   0.0000   0.0000   0.0000   0.2822
  18.800   1.9274   0.11153   0.10722  -0.1468  0.1012  1.0000  -4.6877   0.0000   0.0000   0.0000   0.2818
  18.900   1.9276   0.11266   0.10836  -0.1469  0.0994  1.0000  -4.7332   0.0000   0.0000   0.0000   0.2816
  19.000   1.9269   0.11392   0.10962  -0.1469  0.0975  1.0000  -4.7800   0.0000   0.0000   0.0000   0.2813
  19.100   1.9251   0.11533   0.11104  -0.1471  0.0955  1.0000  -4.8305   0.0000   0.0000   0.0000   0.2811
  19.200   1.9225   0.11690   0.11261  -0.1472  0.0934  1.0000  -4.8757   0.0000   0.0000   0.0000   0.2810
  19.300   1.9085   0.12031   0.11608  -0.1478  0.0925  1.0000  -4.8510   0.0000   0.0000   0.0000   0.2816
  19.400   1.9030   0.12233   0.11811  -0.1482  0.0904  1.0000  -4.8780   0.0000   0.0000   0.0000   0.2817
  19.500   1.9011   0.12378   0.11955  -0.1484  0.0877  1.0000  -4.9265   0.0000   0.0000   0.0000   0.2816
  19.600   1.9002   0.12506   0.12083  -0.1485  0.0846  1.0000  -4.9815   0.0000   0.0000   0.0000   0.2814
  19.700   1.9000   0.12624   0.12202  -0.1487  0.0817  1.0000  -5.0404   0.0000   0.0000   0.0000   0.2812
  19.800   1.9019   0.12711   0.12290  -0.1488  0.0806  1.0000  -5.1139   0.0000   0.0000   0.0000   0.2809
  19.900   1.9045   0.12788   0.12370  -0.1489  0.0800  1.0000  -5.1919   0.0000   0.0000   0.0000   0.2805
  20.000   1.9066   0.12871   0.12455  -0.1491  0.0790  1.0000  -5.2672   0.0000   0.0000   0.0000   0.2802
  20.100   1.9080   0.12964   0.12548  -0.1492  0.0776  1.0000  -5.3386   0.0000   0.0000   0.0000   0.2799
  20.200   1.9085   0.13067   0.12652  -0.1494  0.0759  1.0000  -5.4050   0.0000   0.0000   0.0000   0.2797
  20.300   1.9081   0.13185   0.12768  -0.1496  0.0738  1.0000  -5.4651   0.0000   0.0000   0.0000   0.2795
  20.400   1.9065   0.13319   0.12901  -0.1499  0.0717  1.0000  -5.5171   0.0000   0.0000   0.0000   0.2794
  20.500   1.9041   0.13467   0.13048  -0.1503  0.0695  1.0000  -5.5638   0.0000   0.0000   0.0000   0.2794
  20.600   1.9010   0.13621   0.13201  -0.1507  0.0672  1.0000  -5.6058   0.0000   0.0000   0.0000   0.2794
  20.700   1.8956   0.13805   0.13387  -0.1513  0.0652  1.0000  -5.6303   0.0000   0.0000   0.0000   0.2796
  20.800   1.8831   0.14097   0.13686  -0.1523  0.0644  1.0000  -5.6045   0.0000   0.0000   0.0000   0.2804
  20.900   1.8812   0.14226   0.13815  -0.1528  0.0618  1.0000  -5.6525   0.0000   0.0000   0.0000   0.2804
  21.000   1.8807   0.14336   0.13925  -0.1531  0.0594  1.0000  -5.7102   0.0000   0.0000   0.0000   0.2803
  21.100   1.8819   0.14424   0.14015  -0.1534  0.0582  1.0000  -5.7799   0.0000   0.0000   0.0000   0.2801
  21.200   1.8841   0.14497   0.14090  -0.1536  0.0579  1.0000  -5.8584   0.0000   0.0000   0.0000   0.2798
  21.300   1.8862   0.14571   0.14167  -0.1539  0.0575  1.0000  -5.9363   0.0000   0.0000   0.0000   0.2795
  21.400   1.8881   0.14649   0.14247  -0.1541  0.0569  1.0000  -6.0130   0.0000   0.0000   0.0000   0.2792
  21.500   1.8897   0.14732   0.14331  -0.1544  0.0562  1.0000  -6.0882   0.0000   0.0000   0.0000   0.2790
  21.600   1.8910   0.14820   0.14420  -0.1547  0.0553  1.0000  -6.1611   0.0000   0.0000   0.0000   0.2787
  21.700   1.8918   0.14914   0.14520  -0.1551  0.0543  1.0000  -6.2311   0.0000   0.0000   0.0000   0.2785
  21.800   1.8921   0.15018   0.14624  -0.1554  0.0531  1.0000  -6.2976   0.0000   0.0000   0.0000   0.2784
  21.900   1.8918   0.15132   0.14738  -0.1559  0.0519  1.0000  -6.3595   0.0000   0.0000   0.0000   0.2783
  22.000   1.8909   0.15257   0.14863  -0.1563  0.0507  1.0000  -6.4173   0.0000   0.0000   0.0000   0.2782
  22.100   1.8889   0.15401   0.15008  -0.1569  0.0495  1.0000  -6.4670   0.0000   0.0000   0.0000   0.2783
  22.200   1.8855   0.15571   0.15180  -0.1576  0.0483  1.0000  -6.5057   0.0000   0.0000   0.0000   0.2785
  22.300   1.8711   0.15943   0.15560  -0.1591  0.0480  1.0000  -6.4581   0.0000   0.0000   0.0000   0.2797
  22.400   1.8687   0.16103   0.15719  -0.1598  0.0467  1.0000  -6.5031   0.0000   0.0000   0.0000   0.2798
  22.500   1.8674   0.16242   0.15859  -0.1603  0.0450  1.0000  -6.5571   0.0000   0.0000   0.0000   0.2798
  22.600   1.8666   0.16373   0.15991  -0.1609  0.0432  1.0000  -6.6148   0.0000   0.0000   0.0000   0.2798
  22.700   1.8662   0.16500   0.16118  -0.1614  0.0415  1.0000  -6.6750   0.0000   0.0000   0.0000   0.2797
  22.800   1.8658   0.16625   0.16245  -0.1619  0.0400  1.0000  -6.7361   0.0000   0.0000   0.0000   0.2797
  22.900   1.8669   0.16727   0.16350  -0.1623  0.0393  1.0000  -6.8090   0.0000   0.0000   0.0000   0.2795
  23.000   1.8687   0.16815   0.16440  -0.1627  0.0391  1.0000  -6.8898   0.0000   0.0000   0.0000   0.2793
  23.100   1.8704   0.16907   0.16535  -0.1631  0.0389  1.0000  -6.9690   0.0000   0.0000   0.0000   0.2791
  23.200   1.8717   0.17005   0.16635  -0.1635  0.0386  1.0000  -7.0460   0.0000   0.0000   0.0000   0.2789
  23.300   1.8726   0.17109   0.16742  -0.1639  0.0383  1.0000  -7.1201   0.0000   0.0000   0.0000   0.2787
  23.400   1.8732   0.17221   0.16856  -0.1644  0.0378  1.0000  -7.1918   0.0000   0.0000   0.0000   0.2786
  23.500   1.8733   0.17343   0.16980  -0.1649  0.0373  1.0000  -7.2593   0.0000   0.0000   0.0000   0.2785
  23.600   1.8725   0.17484   0.17123  -0.1656  0.0366  1.0000  -7.3192   0.0000   0.0000   0.0000   0.2785
  23.700   1.8702   0.17653   0.17295  -0.1663  0.0360  1.0000  -7.3667   0.0000   0.0000   0.0000   0.2787
  23.800   1.8558   0.18072   0.17722  -0.1682  0.0359  1.0000  -7.3079   0.0000   0.0000   0.0000   0.2801
  23.900   1.8540   0.18236   0.17887  -0.1690  0.0352  1.0000  -7.3588   0.0000   0.0000   0.0000   0.2803
  24.000   1.8528   0.18386   0.18038  -0.1697  0.0344  1.0000  -7.4154   0.0000   0.0000   0.0000   0.2803
  24.100   1.8518   0.18533   0.18185  -0.1703  0.0335  1.0000  -7.4734   0.0000   0.0000   0.0000   0.2804
  24.200   1.8507   0.18683   0.18334  -0.1710  0.0325  1.0000  -7.5310   0.0000   0.0000   0.0000   0.2805
  24.300   1.8493   0.18838   0.18490  -0.1717  0.0316  1.0000  -7.5873   0.0000   0.0000   0.0000   0.2806
  24.400   1.8478   0.18997   0.18648  -0.1725  0.0305  1.0000  -7.6428   0.0000   0.0000   0.0000   0.2807
  24.500   1.8463   0.19157   0.18809  -0.1732  0.0293  1.0000  -7.6976   0.0000   0.0000   0.0000   0.2808
  24.600   1.8447   0.19323   0.18976  -0.1740  0.0281  1.0000  -7.7506   0.0000   0.0000   0.0000   0.2809
  24.700   1.8427   0.19496   0.19151  -0.1748  0.0269  1.0000  -7.8011   0.0000   0.0000   0.0000   0.2811
  24.800   1.8401   0.19686   0.19344  -0.1757  0.0259  1.0000  -7.8445   0.0000   0.0000   0.0000   0.2814
  24.900   1.8359   0.19915   0.19576  -0.1767  0.0250  1.0000  -7.8721   0.0000   0.0000   0.0000   0.2818
  25.000   1.8211   0.20392   0.20061  -0.1790  0.0250  1.0000  -7.7973   0.0000   0.0000   0.0000   0.2835
  25.100   1.8179   0.20602   0.20274  -0.1799  0.0241  1.0000  -7.8336   0.0000   0.0000   0.0000   0.2839
  25.200   1.8186   0.20724   0.20400  -0.1805  0.0240  1.0000  -7.9100   0.0000   0.0000   0.0000   0.2838
  25.300   1.8195   0.20843   0.20521  -0.1811  0.0240  1.0000  -7.9885   0.0000   0.0000   0.0000   0.2837
  25.400   1.8204   0.20962   0.20642  -0.1817  0.0238  1.0000  -8.0675   0.0000   0.0000   0.0000   0.2836
  25.500   1.8212   0.21081   0.20765  -0.1823  0.0237  1.0000  -8.1461   0.0000   0.0000   0.0000   0.2835
  25.600   1.8219   0.21204   0.20890  -0.1829  0.0235  1.0000  -8.2234   0.0000   0.0000   0.0000   0.2834
  25.700   1.8223   0.21333   0.21021  -0.1835  0.0233  1.0000  -8.2984   0.0000   0.0000   0.0000   0.2833
  25.800   1.8225   0.21469   0.21159  -0.1842  0.0230  1.0000  -8.3709   0.0000   0.0000   0.0000   0.2833
  25.900   1.8222   0.21613   0.21305  -0.1849  0.0226  1.0000  -8.4397   0.0000   0.0000   0.0000   0.2833
  26.000   1.8215   0.21769   0.21463  -0.1856  0.0222  1.0000  -8.5038   0.0000   0.0000   0.0000   0.2834
  26.100   1.8206   0.21933   0.21629  -0.1864  0.0218  1.0000  -8.5651   0.0000   0.0000   0.0000   0.2835
  26.200   1.8187   0.22120   0.21818  -0.1873  0.0213  1.0000  -8.6169   0.0000   0.0000   0.0000   0.2837
  26.300   1.8152   0.22347   0.22048  -0.1884  0.0209  1.0000  -8.6523   0.0000   0.0000   0.0000   0.2841
  26.400   1.7988   0.22914   0.22624  -0.1910  0.0209  1.0000  -8.5474   0.0000   0.0000   0.0000   0.2862
  26.500   1.7957   0.23139   0.22851  -0.1920  0.0204  1.0000  -8.5845   0.0000   0.0000   0.0000   0.2866
  26.600   1.7933   0.23345   0.23058  -0.1930  0.0199  1.0000  -8.6300   0.0000   0.0000   0.0000   0.2869
  26.700   1.7911   0.23547   0.23260  -0.1940  0.0193  1.0000  -8.6773   0.0000   0.0000   0.0000   0.2872
  26.800   1.7888   0.23752   0.23465  -0.1949  0.0186  1.0000  -8.7238   0.0000   0.0000   0.0000   0.2875
  26.900   1.7864   0.23961   0.23674  -0.1959  0.0180  1.0000  -8.7687   0.0000   0.0000   0.0000   0.2878
  27.000   1.7835   0.24183   0.23896  -0.1969  0.0173  1.0000  -8.8082   0.0000   0.0000   0.0000   0.2882
  27.100   1.7804   0.24412   0.24127  -0.1980  0.0166  1.0000  -8.8450   0.0000   0.0000   0.0000   0.2886
  27.200   1.7770   0.24655   0.24372  -0.1991  0.0159  1.0000  -8.8773   0.0000   0.0000   0.0000   0.2890
  27.300   1.7722   0.24938   0.24658  -0.2004  0.0152  1.0000  -8.8936   0.0000   0.0000   0.0000   0.2897
  27.400   1.7538   0.25620   0.25351  -0.2033  0.0154  1.0000  -8.7525   0.0000   0.0000   0.0000   0.2923
  27.500   1.7491   0.25910   0.25644  -0.2046  0.0147  1.0000  -8.7674   0.0000   0.0000   0.0000   0.2930
  27.600   1.7456   0.26166   0.25901  -0.2057  0.0140  1.0000  -8.7962   0.0000   0.0000   0.0000   0.2935
  27.700   1.7424   0.26412   0.26150  -0.2068  0.0133  1.0000  -8.8283   0.0000   0.0000   0.0000   0.2939
  27.800   1.7394   0.26654   0.26395  -0.2078  0.0127  1.0000  -8.8615   0.0000   0.0000   0.0000   0.2944
  27.900   1.7384   0.26838   0.26582  -0.2087  0.0125  1.0000  -8.9206   0.0000   0.0000   0.0000   0.2945
  28.000   1.7380   0.27003   0.26749  -0.2094  0.0125  1.0000  -8.9883   0.0000   0.0000   0.0000   0.2945
  28.100   1.7376   0.27167   0.26916  -0.2102  0.0124  1.0000  -9.0568   0.0000   0.0000   0.0000   0.2946
  28.200   1.7371   0.27336   0.27088  -0.2109  0.0124  1.0000  -9.1236   0.0000   0.0000   0.0000   0.2946
  28.300   1.7362   0.27517   0.27271  -0.2117  0.0123  1.0000  -9.1861   0.0000   0.0000   0.0000   0.2947
  28.400   1.7347   0.27715   0.27473  -0.2126  0.0122  1.0000  -9.2415   0.0000   0.0000   0.0000   0.2949
  28.500   1.7321   0.27947   0.27708  -0.2136  0.0121  1.0000  -9.2839   0.0000   0.0000   0.0000   0.2953
  28.800   1.7032   0.29330   0.29109  -0.2190  0.0120  1.0000  -9.1468   0.0000   0.0000   0.0000   0.2996
  28.900   1.7011   0.29548   0.29329  -0.2199  0.0118  1.0000  -9.1956   0.0000   0.0000   0.0000   0.2998
  29.000   1.6991   0.29765   0.29548  -0.2208  0.0116  1.0000  -9.2451   0.0000   0.0000   0.0000   0.3001
  29.100   1.6970   0.29984   0.29769  -0.2216  0.0114  1.0000  -9.2936   0.0000   0.0000   0.0000   0.3003
  29.200   1.6949   0.30200   0.29987  -0.2225  0.0111  1.0000  -9.3435   0.0000   0.0000   0.0000   0.3006
  29.300   1.6925   0.30426   0.30214  -0.2234  0.0108  1.0000  -9.3898   0.0000   0.0000   0.0000   0.3009
  29.400   1.6896   0.30669   0.30458  -0.2243  0.0105  1.0000  -9.4293   0.0000   0.0000   0.0000   0.3012
  29.500   1.6858   0.30939   0.30730  -0.2253  0.0101  1.0000  -9.4584   0.0000   0.0000   0.0000   0.3017
  29.600   1.6804   0.31258   0.31051  -0.2264  0.0098  1.0000  -9.4686   0.0000   0.0000   0.0000   0.3024
  29.700   1.6703   0.31733   0.31534  -0.2280  0.0095  1.0000  -9.4192   0.0000   0.0000   0.0000   0.3038
  29.900   1.6342   0.33165   0.32977  -0.2322  0.0093  1.0000  -9.1349   0.0000   0.0000   0.0000   0.3090
  30.000   1.6279   0.33482   0.33295  -0.2331  0.0089  1.0000  -9.1429   0.0000   0.0000   0.0000   0.3097


