xflr5 v6.61

 Calculated polar for: E423

 1 1 Reynolds number fixed          Mach number fixed         

 xtrf =   1.000 (top)        1.000 (bottom)
 Mach =   0.000     Re =     0.500 e 6     Ncrit =   9.000

  alpha     CL        CD       CDp       Cm    Top Xtr Bot Xtr   Cpmin    Chinge    XCp    
 ------- -------- --------- --------- -------- ------- ------- -------- --------- ---------
 -10.000   0.3318   0.09291   0.08939  -0.1661  0.7872  0.0267  -1.0318   0.0000   0.0000   0.0000   0.7853
  -9.900   0.3352   0.09252   0.08896  -0.1663  0.7805  0.0270  -1.0331   0.0000   0.0000   0.0000   0.7803
  -9.800   0.3381   0.09215   0.08854  -0.1665  0.7736  0.0273  -1.0337   0.0000   0.0000   0.0000   0.7757
  -9.600   0.3444   0.09118   0.08750  -0.1669  0.7616  0.0277  -1.0398   0.0000   0.0000   0.0000   0.7667
  -9.500   0.3476   0.09059   0.08691  -0.1672  0.7584  0.0278  -1.0430   0.0000   0.0000   0.0000   0.7623
  -9.400   0.3509   0.08996   0.08627  -0.1674  0.7547  0.0279  -1.0453   0.0000   0.0000   0.0000   0.7578
  -9.300   0.3543   0.08929   0.08559  -0.1676  0.7509  0.0280  -1.0466   0.0000   0.0000   0.0000   0.7531
  -9.200   0.3576   0.08862   0.08490  -0.1678  0.7469  0.0281  -1.0481   0.0000   0.0000   0.0000   0.7487
  -9.100   0.3608   0.08794   0.08419  -0.1679  0.7428  0.0281  -1.0499   0.0000   0.0000   0.0000   0.7443
  -9.000   0.3639   0.08725   0.08348  -0.1680  0.7387  0.0282  -1.0515   0.0000   0.0000   0.0000   0.7400
  -8.900   0.3669   0.08657   0.08277  -0.1680  0.7343  0.0282  -1.0532   0.0000   0.0000   0.0000   0.7359
  -8.800   0.3698   0.08589   0.08205  -0.1681  0.7295  0.0282  -1.0550   0.0000   0.0000   0.0000   0.7318
  -8.700   0.3733   0.08516   0.08129  -0.1683  0.7243  0.0283  -1.0567   0.0000   0.0000   0.0000   0.7276
  -8.600   0.3772   0.08439   0.08050  -0.1686  0.7203  0.0283  -1.0583   0.0000   0.0000   0.0000   0.7233
  -8.500   0.3805   0.08361   0.07973  -0.1688  0.7189  0.0283  -1.0603   0.0000   0.0000   0.0000   0.7193
  -8.400   0.3839   0.08283   0.07896  -0.1690  0.7173  0.0284  -1.0624   0.0000   0.0000   0.0000   0.7153
  -8.300   0.3872   0.08204   0.07818  -0.1691  0.7154  0.0284  -1.0646   0.0000   0.0000   0.0000   0.7115
  -8.200   0.3905   0.08125   0.07739  -0.1693  0.7132  0.0284  -1.0667   0.0000   0.0000   0.0000   0.7076
  -8.100   0.3937   0.08046   0.07661  -0.1694  0.7108  0.0284  -1.0689   0.0000   0.0000   0.0000   0.7039
  -8.000   0.3969   0.07968   0.07582  -0.1695  0.7082  0.0285  -1.0712   0.0000   0.0000   0.0000   0.7002
  -7.900   0.4000   0.07890   0.07503  -0.1696  0.7056  0.0285  -1.0736   0.0000   0.0000   0.0000   0.6967
  -7.800   0.4031   0.07813   0.07425  -0.1697  0.7028  0.0285  -1.0760   0.0000   0.0000   0.0000   0.6932
  -7.700   0.4060   0.07736   0.07347  -0.1698  0.7000  0.0285  -1.0786   0.0000   0.0000   0.0000   0.6897
  -7.600   0.4089   0.07660   0.07269  -0.1698  0.6972  0.0285  -1.0813   0.0000   0.0000   0.0000   0.6864
  -7.500   0.4116   0.07584   0.07192  -0.1698  0.6942  0.0285  -1.0841   0.0000   0.0000   0.0000   0.6832
  -7.400   0.4142   0.07510   0.07116  -0.1697  0.6911  0.0286  -1.0869   0.0000   0.0000   0.0000   0.6801
  -7.300   0.4169   0.07435   0.07039  -0.1697  0.6879  0.0286  -1.0897   0.0000   0.0000   0.0000   0.6769
  -7.200   0.4199   0.07359   0.06961  -0.1698  0.6844  0.0286  -1.0924   0.0000   0.0000   0.0000   0.6738
  -7.100   0.4234   0.07280   0.06880  -0.1700  0.6809  0.0286  -1.0950   0.0000   0.0000   0.0000   0.6705
  -7.000   0.4273   0.07198   0.06793  -0.1703  0.6774  0.0286  -1.0979   0.0000   0.0000   0.0000   0.6672
  -6.900   0.4304   0.07118   0.06714  -0.1704  0.6758  0.0286  -1.1008   0.0000   0.0000   0.0000   0.6641
  -6.800   0.4327   0.07041   0.06638  -0.1703  0.6751  0.0286  -1.1059   0.0000   0.0000   0.0000   0.6614
  -6.700   0.4349   0.06964   0.06564  -0.1702  0.6743  0.0287  -1.1135   0.0000   0.0000   0.0000   0.6587
  -6.600   0.4368   0.06889   0.06490  -0.1700  0.6733  0.0287  -1.1213   0.0000   0.0000   0.0000   0.6562
  -6.500   0.4385   0.06816   0.06419  -0.1698  0.6723  0.0287  -1.1294   0.0000   0.0000   0.0000   0.6538
  -6.400   0.4400   0.06744   0.06349  -0.1695  0.6712  0.0287  -1.1378   0.0000   0.0000   0.0000   0.6515
  -6.300   0.4418   0.06674   0.06279  -0.1694  0.6700  0.0287  -1.1464   0.0000   0.0000   0.0000   0.6492
  -6.200   0.4446   0.06594   0.06201  -0.1695  0.6688  0.0287  -1.1549   0.0000   0.0000   0.0000   0.6466
  -6.100   0.4479   0.06510   0.06117  -0.1697  0.6675  0.0287  -1.1636   0.0000   0.0000   0.0000   0.6439
  -6.000   0.4514   0.06424   0.06032  -0.1700  0.6661  0.0287  -1.1725   0.0000   0.0000   0.0000   0.6412
  -5.900   0.4551   0.06338   0.05946  -0.1703  0.6647  0.0287  -1.1817   0.0000   0.0000   0.0000   0.6386
  -5.800   0.4589   0.06249   0.05859  -0.1707  0.6632  0.0287  -1.1911   0.0000   0.0000   0.0000   0.6359
  -5.700   0.4628   0.06160   0.05770  -0.1711  0.6616  0.0287  -1.2008   0.0000   0.0000   0.0000   0.6332
  -5.600   0.4669   0.06070   0.05679  -0.1715  0.6601  0.0287  -1.2109   0.0000   0.0000   0.0000   0.6305
  -5.500   0.4711   0.05977   0.05586  -0.1720  0.6585  0.0287  -1.2214   0.0000   0.0000   0.0000   0.6279
  -5.400   0.4755   0.05884   0.05493  -0.1725  0.6568  0.0287  -1.2323   0.0000   0.0000   0.0000   0.6252
  -5.300   0.4800   0.05789   0.05397  -0.1731  0.6552  0.0287  -1.2438   0.0000   0.0000   0.0000   0.6226
  -5.200   0.4847   0.05691   0.05298  -0.1737  0.6535  0.0287  -1.2560   0.0000   0.0000   0.0000   0.6200
  -5.100   0.4895   0.05591   0.05198  -0.1743  0.6518  0.0287  -1.2691   0.0000   0.0000   0.0000   0.6174
  -4.900   0.4867   0.05113   0.04720  -0.1758  0.6487  0.0262  -1.4632   0.0000   0.0000   0.0000   0.6221
  -4.800   0.4914   0.04972   0.04577  -0.1771  0.6468  0.0254  -1.5085   0.0000   0.0000   0.0000   0.6209
  -4.400   0.6055   0.01786   0.01277  -0.2327  0.6397  0.0225  -3.2299   0.0000   0.0000   0.0000   0.6429
  -4.300   0.6212   0.01688   0.01158  -0.2345  0.6373  0.0232  -3.1990   0.0000   0.0000   0.0000   0.6356
  -4.200   0.6360   0.01623   0.01077  -0.2358  0.6348  0.0239  -3.1496   0.0000   0.0000   0.0000   0.6285
  -4.100   0.6505   0.01571   0.01011  -0.2369  0.6323  0.0247  -3.0943   0.0000   0.0000   0.0000   0.6215
  -4.000   0.6643   0.01526   0.00955  -0.2377  0.6305  0.0255  -3.0366   0.0000   0.0000   0.0000   0.6149
  -3.900   0.6763   0.01487   0.00906  -0.2380  0.6302  0.0262  -2.9776   0.0000   0.0000   0.0000   0.6087
  -3.800   0.6879   0.01457   0.00869  -0.2383  0.6297  0.0269  -2.9116   0.0000   0.0000   0.0000   0.6028
  -3.700   0.6993   0.01436   0.00843  -0.2383  0.6292  0.0275  -2.8388   0.0000   0.0000   0.0000   0.5970
  -3.600   0.7103   0.01423   0.00825  -0.2384  0.6286  0.0280  -2.7608   0.0000   0.0000   0.0000   0.5914
  -3.500   0.7212   0.01415   0.00815  -0.2383  0.6280  0.0284  -2.6792   0.0000   0.0000   0.0000   0.5860
  -3.400   0.7319   0.01411   0.00810  -0.2382  0.6272  0.0287  -2.5954   0.0000   0.0000   0.0000   0.5807
  -3.300   0.7447   0.01343   0.00724  -0.2388  0.6264  0.0301  -2.5592   0.0000   0.0000   0.0000   0.5756
  -3.200   0.7584   0.01257   0.00618  -0.2396  0.6256  0.0352  -2.5482   0.0000   0.0000   0.0000   0.5706
  -3.100   0.7695   0.01248   0.00610  -0.2396  0.6247  0.0378  -2.4724   0.0000   0.0000   0.0000   0.5658
  -3.000   0.7804   0.01246   0.00608  -0.2395  0.6237  0.0400  -2.3922   0.0000   0.0000   0.0000   0.5611
  -2.900   0.7914   0.01243   0.00604  -0.2395  0.6228  0.0420  -2.3136   0.0000   0.0000   0.0000   0.5565
  -2.800   0.8025   0.01239   0.00598  -0.2395  0.6218  0.0439  -2.2364   0.0000   0.0000   0.0000   0.5521
  -2.700   0.8135   0.01237   0.00594  -0.2394  0.6209  0.0456  -2.1582   0.0000   0.0000   0.0000   0.5477
  -2.600   0.8245   0.01236   0.00592  -0.2394  0.6199  0.0470  -2.0792   0.0000   0.0000   0.0000   0.5435
  -2.500   0.8354   0.01238   0.00593  -0.2393  0.6189  0.0481  -1.9997   0.0000   0.0000   0.0000   0.5394
  -2.400   0.8462   0.01241   0.00595  -0.2392  0.6178  0.0488  -1.9204   0.0000   0.0000   0.0000   0.5354
  -2.300   0.8571   0.01244   0.00598  -0.2391  0.6168  0.0493  -1.8421   0.0000   0.0000   0.0000   0.5315
  -2.200   0.8701   0.01188   0.00527  -0.2396  0.6157  0.0577  -1.8005   0.0000   0.0000   0.0000   0.5276
  -2.100   0.8812   0.01185   0.00528  -0.2396  0.6147  0.0630  -1.7260   0.0000   0.0000   0.0000   0.5239
  -2.000   0.8920   0.01189   0.00533  -0.2396  0.6136  0.0668  -1.6489   0.0000   0.0000   0.0000   0.5203
  -1.900   0.9028   0.01193   0.00538  -0.2395  0.6124  0.0700  -1.5732   0.0000   0.0000   0.0000   0.5168
  -1.800   0.9135   0.01197   0.00541  -0.2394  0.6113  0.0723  -1.4990   0.0000   0.0000   0.0000   0.5134
  -1.700   0.9243   0.01201   0.00543  -0.2393  0.6101  0.0738  -1.4262   0.0000   0.0000   0.0000   0.5100
  -1.600   0.9351   0.01205   0.00545  -0.2392  0.6089  0.0747  -1.3545   0.0000   0.0000   0.0000   0.5067
  -1.500   0.9458   0.01209   0.00548  -0.2391  0.6077  0.0753  -1.2954   0.0000   0.0000   0.0000   0.5034
  -1.400   0.9580   0.01175   0.00507  -0.2393  0.6065  0.0854  -1.3039   0.0000   0.0000   0.0000   0.5003
  -1.300   0.9690   0.01174   0.00508  -0.2393  0.6052  0.0909  -1.3119   0.0000   0.0000   0.0000   0.4972
  -1.200   0.9797   0.01177   0.00510  -0.2392  0.6039  0.0950  -1.3199   0.0000   0.0000   0.0000   0.4942
  -1.100   0.9905   0.01181   0.00513  -0.2391  0.6025  0.0985  -1.3279   0.0000   0.0000   0.0000   0.4913
  -1.000   1.0012   0.01186   0.00516  -0.2390  0.6010  0.1014  -1.3359   0.0000   0.0000   0.0000   0.4884
  -0.900   1.0121   0.01192   0.00519  -0.2390  0.5994  0.1035  -1.3442   0.0000   0.0000   0.0000   0.4856
  -0.800   1.0230   0.01199   0.00524  -0.2389  0.5976  0.1050  -1.3533   0.0000   0.0000   0.0000   0.4828
  -0.700   1.0342   0.01207   0.00530  -0.2389  0.5957  0.1060  -1.3625   0.0000   0.0000   0.0000   0.4801
  -0.600   1.0457   0.01217   0.00538  -0.2390  0.5935  0.1067  -1.3719   0.0000   0.0000   0.0000   0.4775
  -0.500   1.0586   0.01202   0.00520  -0.2395  0.5912  0.1170  -1.3818   0.0000   0.0000   0.0000   0.4749
  -0.400   1.0711   0.01211   0.00530  -0.2398  0.5886  0.1230  -1.3916   0.0000   0.0000   0.0000   0.4724
  -0.300   1.0836   0.01226   0.00548  -0.2402  0.5858  0.1279  -1.4013   0.0000   0.0000   0.0000   0.4700
  -0.200   1.0948   0.01235   0.00558  -0.2402  0.5844  0.1320  -1.4105   0.0000   0.0000   0.0000   0.4676
  -0.100   1.1051   0.01237   0.00561  -0.2400  0.5841  0.1355  -1.4194   0.0000   0.0000   0.0000   0.4652
   0.000   1.1153   0.01239   0.00563  -0.2398  0.5837  0.1384  -1.4283   0.0000   0.0000   0.0000   0.4628
   0.100   1.1256   0.01242   0.00566  -0.2396  0.5833  0.1405  -1.4372   0.0000   0.0000   0.0000   0.4605
   0.200   1.1359   0.01245   0.00569  -0.2394  0.5828  0.1419  -1.4461   0.0000   0.0000   0.0000   0.4582
   0.300   1.1463   0.01248   0.00573  -0.2393  0.5824  0.1429  -1.4550   0.0000   0.0000   0.0000   0.4560
   0.400   1.1566   0.01252   0.00576  -0.2391  0.5819  0.1436  -1.4638   0.0000   0.0000   0.0000   0.4538
   0.500   1.1675   0.01242   0.00565  -0.2391  0.5813  0.1479  -1.4729   0.0000   0.0000   0.0000   0.4517
   0.600   1.1783   0.01234   0.00557  -0.2391  0.5808  0.1557  -1.4819   0.0000   0.0000   0.0000   0.4496
   0.700   1.1888   0.01233   0.00560  -0.2390  0.5801  0.1616  -1.4908   0.0000   0.0000   0.0000   0.4475
   0.800   1.1992   0.01235   0.00564  -0.2388  0.5794  0.1661  -1.4997   0.0000   0.0000   0.0000   0.4455
   0.900   1.2096   0.01238   0.00569  -0.2387  0.5787  0.1702  -1.5085   0.0000   0.0000   0.0000   0.4435
   1.000   1.2199   0.01240   0.00572  -0.2385  0.5780  0.1738  -1.5174   0.0000   0.0000   0.0000   0.4415
   1.100   1.2303   0.01243   0.00575  -0.2384  0.5772  0.1770  -1.5262   0.0000   0.0000   0.0000   0.4396
   1.200   1.2406   0.01245   0.00578  -0.2382  0.5763  0.1798  -1.5351   0.0000   0.0000   0.0000   0.4376
   1.300   1.2509   0.01249   0.00581  -0.2381  0.5754  0.1821  -1.5439   0.0000   0.0000   0.0000   0.4358
   1.400   1.2612   0.01252   0.00584  -0.2379  0.5745  0.1838  -1.5527   0.0000   0.0000   0.0000   0.4339
   1.500   1.2715   0.01256   0.00588  -0.2378  0.5736  0.1852  -1.5615   0.0000   0.0000   0.0000   0.4321
   1.600   1.2818   0.01260   0.00592  -0.2376  0.5726  0.1862  -1.5703   0.0000   0.0000   0.0000   0.4303
   1.700   1.2920   0.01264   0.00596  -0.2374  0.5716  0.1869  -1.5791   0.0000   0.0000   0.0000   0.4285
   1.800   1.3025   0.01264   0.00596  -0.2373  0.5706  0.1895  -1.5880   0.0000   0.0000   0.0000   0.4268
   1.900   1.3132   0.01260   0.00591  -0.2373  0.5696  0.1964  -1.5970   0.0000   0.0000   0.0000   0.4251
   2.000   1.3237   0.01260   0.00592  -0.2372  0.5686  0.2032  -1.6070   0.0000   0.0000   0.0000   0.4234
   2.100   1.3340   0.01260   0.00594  -0.2371  0.5674  0.2089  -1.6170   0.0000   0.0000   0.0000   0.4217
   2.200   1.3442   0.01262   0.00598  -0.2369  0.5663  0.2138  -1.6269   0.0000   0.0000   0.0000   0.4201
   2.300   1.3542   0.01264   0.00601  -0.2367  0.5650  0.2186  -1.6367   0.0000   0.0000   0.0000   0.4185
   2.400   1.3641   0.01266   0.00604  -0.2365  0.5638  0.2232  -1.6465   0.0000   0.0000   0.0000   0.4168
   2.500   1.3739   0.01269   0.00607  -0.2362  0.5625  0.2274  -1.6563   0.0000   0.0000   0.0000   0.4152
   2.600   1.3837   0.01272   0.00609  -0.2360  0.5611  0.2309  -1.6660   0.0000   0.0000   0.0000   0.4137
   2.700   1.3934   0.01276   0.00612  -0.2357  0.5597  0.2335  -1.6757   0.0000   0.0000   0.0000   0.4121
   2.800   1.4031   0.01281   0.00616  -0.2354  0.5582  0.2354  -1.6854   0.0000   0.0000   0.0000   0.4106
   2.900   1.4128   0.01286   0.00620  -0.2352  0.5568  0.2366  -1.6951   0.0000   0.0000   0.0000   0.4091
   3.000   1.4230   0.01289   0.00622  -0.2350  0.5553  0.2441  -1.7049   0.0000   0.0000   0.0000   0.4076
   3.100   1.4332   0.01292   0.00627  -0.2349  0.5538  0.2545  -1.7148   0.0000   0.0000   0.0000   0.4061
   3.200   1.4434   0.01297   0.00634  -0.2348  0.5522  0.2638  -1.7246   0.0000   0.0000   0.0000   0.4047
   3.300   1.4539   0.01304   0.00642  -0.2347  0.5504  0.2717  -1.7347   0.0000   0.0000   0.0000   0.4033
   3.400   1.4648   0.01313   0.00652  -0.2348  0.5485  0.2792  -1.7449   0.0000   0.0000   0.0000   0.4020
   3.500   1.4761   0.01324   0.00663  -0.2349  0.5463  0.2860  -1.7554   0.0000   0.0000   0.0000   0.4007
   3.600   1.4880   0.01338   0.00677  -0.2352  0.5440  0.2910  -1.7661   0.0000   0.0000   0.0000   0.3994
   3.700   1.5005   0.01353   0.00695  -0.2356  0.5415  0.3118  -1.7772   0.0000   0.0000   0.0000   0.3982
   3.800   1.5133   0.01373   0.00723  -0.2362  0.5387  0.3332  -1.7882   0.0000   0.0000   0.0000   0.3971
   3.900   1.5231   0.01375   0.00728  -0.2360  0.5383  0.3501  -1.7979   0.0000   0.0000   0.0000   0.3957
   4.000   1.5329   0.01372   0.00735  -0.2358  0.5380  0.3904  -1.8077   0.0000   0.0000   0.0000   0.3945
   4.100   1.5428   0.01366   0.00743  -0.2357  0.5377  0.4660  -1.8175   0.0000   0.0000   0.0000   0.3932
   4.300   1.5576   0.01309   0.00758  -0.2342  0.5368  1.0000  -1.8356   0.0000   0.0000   0.0000   0.3905
   4.400   1.5665   0.01312   0.00761  -0.2338  0.5362  1.0000  -1.8460   0.0000   0.0000   0.0000   0.3892
   4.500   1.5753   0.01315   0.00764  -0.2334  0.5355  1.0000  -1.8564   0.0000   0.0000   0.0000   0.3879
   4.600   1.5839   0.01318   0.00767  -0.2329  0.5348  1.0000  -1.8666   0.0000   0.0000   0.0000   0.3866
   4.700   1.5923   0.01321   0.00771  -0.2324  0.5340  1.0000  -1.8766   0.0000   0.0000   0.0000   0.3853
   4.800   1.6006   0.01325   0.00774  -0.2318  0.5331  1.0000  -1.8866   0.0000   0.0000   0.0000   0.3840
   4.900   1.6089   0.01329   0.00779  -0.2313  0.5322  1.0000  -1.8966   0.0000   0.0000   0.0000   0.3828
   5.000   1.6174   0.01334   0.00784  -0.2308  0.5312  1.0000  -1.9073   0.0000   0.0000   0.0000   0.3815
   5.100   1.6258   0.01339   0.00790  -0.2303  0.5301  1.0000  -1.9187   0.0000   0.0000   0.0000   0.3803
   5.200   1.6342   0.01344   0.00795  -0.2298  0.5290  1.0000  -1.9301   0.0000   0.0000   0.0000   0.3791
   5.300   1.6425   0.01348   0.00800  -0.2293  0.5278  1.0000  -1.9415   0.0000   0.0000   0.0000   0.3779
   5.400   1.6509   0.01353   0.00805  -0.2288  0.5264  1.0000  -1.9529   0.0000   0.0000   0.0000   0.3767
   5.500   1.6592   0.01358   0.00810  -0.2283  0.5251  1.0000  -1.9642   0.0000   0.0000   0.0000   0.3755
   5.600   1.6675   0.01363   0.00815  -0.2278  0.5236  1.0000  -1.9768   0.0000   0.0000   0.0000   0.3743
   5.700   1.6757   0.01368   0.00820  -0.2273  0.5222  1.0000  -1.9896   0.0000   0.0000   0.0000   0.3731
   5.800   1.6838   0.01373   0.00826  -0.2267  0.5207  1.0000  -2.0024   0.0000   0.0000   0.0000   0.3720
   5.900   1.6918   0.01379   0.00831  -0.2262  0.5192  1.0000  -2.0152   0.0000   0.0000   0.0000   0.3708
   6.000   1.6999   0.01385   0.00837  -0.2256  0.5177  1.0000  -2.0280   0.0000   0.0000   0.0000   0.3697
   6.100   1.7079   0.01391   0.00842  -0.2251  0.5160  1.0000  -2.0407   0.0000   0.0000   0.0000   0.3685
   6.200   1.7158   0.01397   0.00848  -0.2245  0.5143  1.0000  -2.0534   0.0000   0.0000   0.0000   0.3674
   6.300   1.7236   0.01404   0.00854  -0.2239  0.5125  1.0000  -2.0660   0.0000   0.0000   0.0000   0.3663
   6.400   1.7312   0.01412   0.00860  -0.2233  0.5106  1.0000  -2.0799   0.0000   0.0000   0.0000   0.3651
   6.500   1.7388   0.01421   0.00869  -0.2227  0.5086  1.0000  -2.0940   0.0000   0.0000   0.0000   0.3640
   6.600   1.7466   0.01432   0.00878  -0.2221  0.5065  1.0000  -2.1083   0.0000   0.0000   0.0000   0.3629
   6.700   1.7547   0.01444   0.00889  -0.2216  0.5042  1.0000  -2.1229   0.0000   0.0000   0.0000   0.3619
   6.800   1.7636   0.01458   0.00901  -0.2213  0.5015  1.0000  -2.1381   0.0000   0.0000   0.0000   0.3609
   6.900   1.7738   0.01474   0.00915  -0.2213  0.4983  1.0000  -2.1545   0.0000   0.0000   0.0000   0.3599
   7.000   1.7857   0.01493   0.00934  -0.2216  0.4947  1.0000  -2.1725   0.0000   0.0000   0.0000   0.3591
   7.100   1.7951   0.01506   0.00947  -0.2214  0.4929  1.0000  -2.1900   0.0000   0.0000   0.0000   0.3581
   7.200   1.8019   0.01511   0.00955  -0.2207  0.4924  1.0000  -2.2056   0.0000   0.0000   0.0000   0.3571
   7.300   1.8088   0.01517   0.00963  -0.2199  0.4917  1.0000  -2.2213   0.0000   0.0000   0.0000   0.3560
   7.400   1.8155   0.01524   0.00973  -0.2191  0.4910  1.0000  -2.2368   0.0000   0.0000   0.0000   0.3549
   7.500   1.8222   0.01532   0.00983  -0.2184  0.4903  1.0000  -2.2523   0.0000   0.0000   0.0000   0.3539
   7.600   1.8289   0.01540   0.00994  -0.2176  0.4894  1.0000  -2.2679   0.0000   0.0000   0.0000   0.3528
   7.700   1.8357   0.01549   0.01004  -0.2169  0.4883  1.0000  -2.2835   0.0000   0.0000   0.0000   0.3518
   7.800   1.8424   0.01557   0.01015  -0.2162  0.4871  1.0000  -2.2991   0.0000   0.0000   0.0000   0.3507
   7.900   1.8492   0.01566   0.01025  -0.2155  0.4856  1.0000  -2.3157   0.0000   0.0000   0.0000   0.3497
   8.000   1.8561   0.01575   0.01036  -0.2148  0.4840  1.0000  -2.3339   0.0000   0.0000   0.0000   0.3487
   8.100   1.8631   0.01584   0.01047  -0.2141  0.4823  1.0000  -2.3523   0.0000   0.0000   0.0000   0.3477
   8.200   1.8701   0.01594   0.01058  -0.2134  0.4806  1.0000  -2.3707   0.0000   0.0000   0.0000   0.3467
   8.300   1.8772   0.01604   0.01070  -0.2128  0.4788  1.0000  -2.3893   0.0000   0.0000   0.0000   0.3458
   8.400   1.8844   0.01615   0.01083  -0.2122  0.4769  1.0000  -2.4079   0.0000   0.0000   0.0000   0.3448
   8.500   1.8913   0.01627   0.01096  -0.2115  0.4750  1.0000  -2.4263   0.0000   0.0000   0.0000   0.3438
   8.600   1.8977   0.01640   0.01109  -0.2108  0.4729  1.0000  -2.4441   0.0000   0.0000   0.0000   0.3428
   8.700   1.9035   0.01654   0.01123  -0.2099  0.4706  1.0000  -2.4614   0.0000   0.0000   0.0000   0.3418
   8.800   1.9088   0.01669   0.01138  -0.2090  0.4682  1.0000  -2.4785   0.0000   0.0000   0.0000   0.3408
   8.900   1.9137   0.01687   0.01154  -0.2080  0.4655  1.0000  -2.4973   0.0000   0.0000   0.0000   0.3398
   9.000   1.9180   0.01707   0.01173  -0.2069  0.4626  1.0000  -2.5156   0.0000   0.0000   0.0000   0.3388
   9.100   1.9224   0.01730   0.01194  -0.2058  0.4592  1.0000  -2.5337   0.0000   0.0000   0.0000   0.3378
   9.200   1.9276   0.01753   0.01215  -0.2050  0.4555  1.0000  -2.5531   0.0000   0.0000   0.0000   0.3368
   9.300   1.9350   0.01774   0.01235  -0.2045  0.4516  1.0000  -2.5750   0.0000   0.0000   0.0000   0.3360
   9.400   1.9438   0.01792   0.01252  -0.2042  0.4483  1.0000  -2.5989   0.0000   0.0000   0.0000   0.3352
   9.500   1.9498   0.01808   0.01275  -0.2035  0.4476  1.0000  -2.6195   0.0000   0.0000   0.0000   0.3342
   9.600   1.9558   0.01824   0.01295  -0.2027  0.4468  1.0000  -2.6399   0.0000   0.0000   0.0000   0.3333
   9.700   1.9611   0.01842   0.01317  -0.2019  0.4457  1.0000  -2.6597   0.0000   0.0000   0.0000   0.3324
   9.800   1.9663   0.01861   0.01340  -0.2010  0.4444  1.0000  -2.6792   0.0000   0.0000   0.0000   0.3315
   9.900   1.9715   0.01881   0.01363  -0.2002  0.4427  1.0000  -2.6988   0.0000   0.0000   0.0000   0.3306
  10.000   1.9768   0.01901   0.01385  -0.1994  0.4408  1.0000  -2.7215   0.0000   0.0000   0.0000   0.3297
  10.100   1.9823   0.01921   0.01408  -0.1986  0.4385  1.0000  -2.7449   0.0000   0.0000   0.0000   0.3288
  10.200   1.9875   0.01943   0.01432  -0.1978  0.4359  1.0000  -2.7681   0.0000   0.0000   0.0000   0.3279
  10.300   1.9925   0.01967   0.01456  -0.1969  0.4331  1.0000  -2.7910   0.0000   0.0000   0.0000   0.3270
  10.400   1.9973   0.01992   0.01482  -0.1960  0.4303  1.0000  -2.8136   0.0000   0.0000   0.0000   0.3261
  10.500   2.0013   0.02021   0.01511  -0.1951  0.4275  1.0000  -2.8351   0.0000   0.0000   0.0000   0.3252
  10.600   2.0041   0.02055   0.01545  -0.1939  0.4246  1.0000  -2.8547   0.0000   0.0000   0.0000   0.3242
  10.700   2.0061   0.02093   0.01582  -0.1927  0.4215  1.0000  -2.8733   0.0000   0.0000   0.0000   0.3233
  10.800   2.0076   0.02135   0.01623  -0.1914  0.4181  1.0000  -2.8909   0.0000   0.0000   0.0000   0.3224
  10.900   2.0085   0.02181   0.01668  -0.1900  0.4142  1.0000  -2.9078   0.0000   0.0000   0.0000   0.3214
  11.000   2.0100   0.02228   0.01714  -0.1888  0.4097  1.0000  -2.9253   0.0000   0.0000   0.0000   0.3205
  11.100   2.0132   0.02270   0.01754  -0.1878  0.4049  1.0000  -2.9456   0.0000   0.0000   0.0000   0.3196
  11.200   2.0172   0.02305   0.01793  -0.1869  0.4033  1.0000  -2.9671   0.0000   0.0000   0.0000   0.3188
  11.300   2.0212   0.02340   0.01832  -0.1861  0.4018  1.0000  -2.9927   0.0000   0.0000   0.0000   0.3180
  11.400   2.0255   0.02375   0.01871  -0.1853  0.3998  1.0000  -3.0190   0.0000   0.0000   0.0000   0.3172
  11.500   2.0296   0.02412   0.01911  -0.1845  0.3973  1.0000  -3.0450   0.0000   0.0000   0.0000   0.3164
  11.600   2.0333   0.02452   0.01953  -0.1837  0.3942  1.0000  -3.0705   0.0000   0.0000   0.0000   0.3156
  11.700   2.0365   0.02495   0.01997  -0.1828  0.3908  1.0000  -3.0952   0.0000   0.0000   0.0000   0.3147
  11.800   2.0390   0.02544   0.02047  -0.1819  0.3871  1.0000  -3.1184   0.0000   0.0000   0.0000   0.3139
  11.900   2.0392   0.02607   0.02110  -0.1807  0.3835  1.0000  -3.1377   0.0000   0.0000   0.0000   0.3131
  12.000   2.0385   0.02678   0.02180  -0.1794  0.3796  1.0000  -3.1554   0.0000   0.0000   0.0000   0.3122
  12.100   2.0373   0.02754   0.02255  -0.1780  0.3754  1.0000  -3.1719   0.0000   0.0000   0.0000   0.3114
  12.200   2.0351   0.02839   0.02338  -0.1766  0.3707  1.0000  -3.1866   0.0000   0.0000   0.0000   0.3106
  12.300   2.0329   0.02927   0.02425  -0.1753  0.3654  1.0000  -3.2012   0.0000   0.0000   0.0000   0.3097
  12.400   2.0319   0.03008   0.02506  -0.1741  0.3609  1.0000  -3.2180   0.0000   0.0000   0.0000   0.3090
  12.500   2.0352   0.03062   0.02565  -0.1734  0.3593  1.0000  -3.2427   0.0000   0.0000   0.0000   0.3082
  12.600   2.0383   0.03118   0.02623  -0.1727  0.3569  1.0000  -3.2672   0.0000   0.0000   0.0000   0.3075
  12.700   2.0409   0.03177   0.02685  -0.1720  0.3538  1.0000  -3.2955   0.0000   0.0000   0.0000   0.3068
  12.800   2.0425   0.03243   0.02753  -0.1712  0.3498  1.0000  -3.3222   0.0000   0.0000   0.0000   0.3061
  12.900   2.0426   0.03321   0.02831  -0.1702  0.3451  1.0000  -3.3456   0.0000   0.0000   0.0000   0.3054
  13.000   2.0400   0.03424   0.02933  -0.1690  0.3401  1.0000  -3.3629   0.0000   0.0000   0.0000   0.3047
  13.100   2.0336   0.03560   0.03067  -0.1676  0.3351  1.0000  -3.3720   0.0000   0.0000   0.0000   0.3039
  13.200   2.0271   0.03697   0.03202  -0.1662  0.3295  1.0000  -3.3806   0.0000   0.0000   0.0000   0.3032
  13.300   2.0207   0.03836   0.03339  -0.1648  0.3231  1.0000  -3.3894   0.0000   0.0000   0.0000   0.3026
  13.400   2.0193   0.03937   0.03440  -0.1639  0.3184  1.0000  -3.4091   0.0000   0.0000   0.0000   0.3019
  13.500   2.0197   0.04027   0.03534  -0.1632  0.3158  1.0000  -3.4328   0.0000   0.0000   0.0000   0.3013
  13.600   2.0187   0.04130   0.03640  -0.1624  0.3126  1.0000  -3.4536   0.0000   0.0000   0.0000   0.3007
  13.700   2.0183   0.04229   0.03740  -0.1617  0.3088  1.0000  -3.4755   0.0000   0.0000   0.0000   0.3001
  13.800   2.0173   0.04333   0.03845  -0.1609  0.3044  1.0000  -3.4963   0.0000   0.0000   0.0000   0.2995
  13.900   2.0148   0.04452   0.03963  -0.1600  0.2996  1.0000  -3.5135   0.0000   0.0000   0.0000   0.2989
  14.000   2.0101   0.04594   0.04103  -0.1590  0.2946  1.0000  -3.5258   0.0000   0.0000   0.0000   0.2983
  14.100   2.0009   0.04789   0.04298  -0.1579  0.2896  1.0000  -3.5275   0.0000   0.0000   0.0000   0.2978
  14.200   1.9908   0.05001   0.04508  -0.1568  0.2839  1.0000  -3.5265   0.0000   0.0000   0.0000   0.2974
  14.300   1.9867   0.05145   0.04651  -0.1559  0.2783  1.0000  -3.5395   0.0000   0.0000   0.0000   0.2968
  14.400   1.9887   0.05227   0.04737  -0.1555  0.2761  1.0000  -3.5670   0.0000   0.0000   0.0000   0.2963
  14.500   1.9898   0.05320   0.04832  -0.1550  0.2730  1.0000  -3.5923   0.0000   0.0000   0.0000   0.2957
  14.600   1.9894   0.05428   0.04942  -0.1545  0.2692  1.0000  -3.6143   0.0000   0.0000   0.0000   0.2952
  14.700   1.9872   0.05557   0.05070  -0.1538  0.2649  1.0000  -3.6318   0.0000   0.0000   0.0000   0.2947
  14.800   1.9805   0.05739   0.05253  -0.1531  0.2606  1.0000  -3.6387   0.0000   0.0000   0.0000   0.2943
  14.900   1.9715   0.05952   0.05465  -0.1523  0.2562  1.0000  -3.6397   0.0000   0.0000   0.0000   0.2940
  15.000   1.9643   0.06143   0.05654  -0.1515  0.2511  1.0000  -3.6450   0.0000   0.0000   0.0000   0.2936
  15.100   1.9573   0.06331   0.05840  -0.1508  0.2452  1.0000  -3.6505   0.0000   0.0000   0.0000   0.2933
  15.200   1.9530   0.06486   0.05994  -0.1502  0.2394  1.0000  -3.6625   0.0000   0.0000   0.0000   0.2928
  15.300   1.9544   0.06580   0.06092  -0.1499  0.2373  1.0000  -3.6883   0.0000   0.0000   0.0000   0.2924
  15.400   1.9545   0.06690   0.06204  -0.1495  0.2345  1.0000  -3.7111   0.0000   0.0000   0.0000   0.2919
  15.500   1.9529   0.06820   0.06336  -0.1491  0.2311  1.0000  -3.7297   0.0000   0.0000   0.0000   0.2915
  15.600   1.9451   0.07035   0.06563  -0.1487  0.2278  1.0000  -3.7326   0.0000   0.0000   0.0000   0.2913
  15.700   1.9403   0.07203   0.06732  -0.1482  0.2240  1.0000  -3.7432   0.0000   0.0000   0.0000   0.2909
  15.800   1.9360   0.07362   0.06889  -0.1478  0.2200  1.0000  -3.7581   0.0000   0.0000   0.0000   0.2906
  15.900   1.9309   0.07528   0.07054  -0.1473  0.2158  1.0000  -3.7718   0.0000   0.0000   0.0000   0.2903
  16.000   1.9258   0.07702   0.07228  -0.1469  0.2112  1.0000  -3.7850   0.0000   0.0000   0.0000   0.2900
  16.100   1.9212   0.07872   0.07397  -0.1465  0.2061  1.0000  -3.7994   0.0000   0.0000   0.0000   0.2897
  16.200   1.9196   0.08005   0.07530  -0.1462  0.2022  1.0000  -3.8227   0.0000   0.0000   0.0000   0.2893
  16.300   1.9210   0.08103   0.07633  -0.1460  0.2008  1.0000  -3.8551   0.0000   0.0000   0.0000   0.2889
  16.400   1.9213   0.08216   0.07749  -0.1458  0.1988  1.0000  -3.8842   0.0000   0.0000   0.0000   0.2885
  16.500   1.9175   0.08388   0.07924  -0.1456  0.1966  1.0000  -3.9007   0.0000   0.0000   0.0000   0.2883
  16.600   1.9115   0.08588   0.08129  -0.1454  0.1942  1.0000  -3.9109   0.0000   0.0000   0.0000   0.2881
  16.700   1.9094   0.08735   0.08276  -0.1452  0.1913  1.0000  -3.9326   0.0000   0.0000   0.0000   0.2878
  16.800   1.9078   0.08875   0.08416  -0.1451  0.1880  1.0000  -3.9559   0.0000   0.0000   0.0000   0.2875
  16.900   1.9057   0.09021   0.08560  -0.1449  0.1845  1.0000  -3.9778   0.0000   0.0000   0.0000   0.2872
  17.000   1.9026   0.09179   0.08716  -0.1447  0.1808  1.0000  -3.9965   0.0000   0.0000   0.0000   0.2870
  17.100   1.8989   0.09348   0.08884  -0.1446  0.1767  1.0000  -4.0129   0.0000   0.0000   0.0000   0.2868
  17.200   1.8953   0.09514   0.09049  -0.1444  0.1721  1.0000  -4.0297   0.0000   0.0000   0.0000   0.2866
  17.300   1.8936   0.09654   0.09189  -0.1443  0.1678  1.0000  -4.0520   0.0000   0.0000   0.0000   0.2863
  17.400   1.8956   0.09747   0.09287  -0.1442  0.1666  1.0000  -4.0863   0.0000   0.0000   0.0000   0.2859
  17.500   1.8966   0.09853   0.09396  -0.1442  0.1650  1.0000  -4.1177   0.0000   0.0000   0.0000   0.2855
  17.600   1.8964   0.09975   0.09521  -0.1441  0.1628  1.0000  -4.1453   0.0000   0.0000   0.0000   0.2852
  17.700   1.8942   0.10126   0.09675  -0.1441  0.1604  1.0000  -4.1663   0.0000   0.0000   0.0000   0.2850
  17.800   1.8862   0.10370   0.09921  -0.1442  0.1582  1.0000  -4.1684   0.0000   0.0000   0.0000   0.2851
  17.900   1.8831   0.10536   0.10088  -0.1443  0.1553  1.0000  -4.1862   0.0000   0.0000   0.0000   0.2850
  18.000   1.8805   0.10691   0.10241  -0.1443  0.1521  1.0000  -4.2059   0.0000   0.0000   0.0000   0.2848
  18.100   1.8777   0.10848   0.10396  -0.1444  0.1487  1.0000  -4.2246   0.0000   0.0000   0.0000   0.2847
  18.200   1.8744   0.11012   0.10559  -0.1444  0.1449  1.0000  -4.2444   0.0000   0.0000   0.0000   0.2845
  18.300   1.8714   0.11171   0.10716  -0.1445  0.1407  1.0000  -4.2686   0.0000   0.0000   0.0000   0.2844
  18.400   1.8697   0.11310   0.10855  -0.1445  0.1364  1.0000  -4.2972   0.0000   0.0000   0.0000   0.2842
  18.500   1.8718   0.11397   0.10946  -0.1446  0.1351  1.0000  -4.3420   0.0000   0.0000   0.0000   0.2838
  18.600   1.8739   0.11486   0.11038  -0.1446  0.1340  1.0000  -4.3866   0.0000   0.0000   0.0000   0.2835
  18.700   1.8753   0.11583   0.11139  -0.1447  0.1326  1.0000  -4.4285   0.0000   0.0000   0.0000   0.2832
  18.800   1.8759   0.11692   0.11250  -0.1448  0.1308  1.0000  -4.4672   0.0000   0.0000   0.0000   0.2829
  18.900   1.8754   0.11814   0.11374  -0.1449  0.1289  1.0000  -4.5019   0.0000   0.0000   0.0000   0.2827
  19.000   1.8741   0.11951   0.11512  -0.1451  0.1268  1.0000  -4.5329   0.0000   0.0000   0.0000   0.2825
  19.100   1.8680   0.12165   0.11729  -0.1454  0.1249  1.0000  -4.5437   0.0000   0.0000   0.0000   0.2827
  19.200   1.8626   0.12368   0.11933  -0.1458  0.1228  1.0000  -4.5569   0.0000   0.0000   0.0000   0.2828
  19.300   1.8598   0.12526   0.12090  -0.1461  0.1204  1.0000  -4.5812   0.0000   0.0000   0.0000   0.2828
  19.400   1.8574   0.12676   0.12240  -0.1463  0.1177  1.0000  -4.6071   0.0000   0.0000   0.0000   0.2827
  19.500   1.8549   0.12827   0.12389  -0.1466  0.1147  1.0000  -4.6322   0.0000   0.0000   0.0000   0.2827
  19.600   1.8529   0.12969   0.12532  -0.1469  0.1113  1.0000  -4.6659   0.0000   0.0000   0.0000   0.2826
  19.700   1.8516   0.13099   0.12662  -0.1471  0.1079  1.0000  -4.7032   0.0000   0.0000   0.0000   0.2825
  19.800   1.8531   0.13190   0.12756  -0.1473  0.1064  1.0000  -4.7696   0.0000   0.0000   0.0000   0.2822
  19.900   1.8556   0.13269   0.12839  -0.1474  0.1057  1.0000  -4.8437   0.0000   0.0000   0.0000   0.2819
  20.000   1.8575   0.13353   0.12927  -0.1476  0.1047  1.0000  -4.9149   0.0000   0.0000   0.0000   0.2816
  20.100   1.8589   0.13441   0.13018  -0.1478  0.1035  1.0000  -4.9825   0.0000   0.0000   0.0000   0.2813
  20.200   1.8596   0.13536   0.13116  -0.1480  0.1021  1.0000  -5.0461   0.0000   0.0000   0.0000   0.2811
  20.300   1.8596   0.13640   0.13221  -0.1483  0.1005  1.0000  -5.1047   0.0000   0.0000   0.0000   0.2809
  20.400   1.8588   0.13755   0.13337  -0.1487  0.0987  1.0000  -5.1587   0.0000   0.0000   0.0000   0.2808
  20.500   1.8570   0.13885   0.13469  -0.1491  0.0970  1.0000  -5.2058   0.0000   0.0000   0.0000   0.2808
  20.600   1.8493   0.14113   0.13700  -0.1499  0.0956  1.0000  -5.2121   0.0000   0.0000   0.0000   0.2813
  20.700   1.8456   0.14277   0.13864  -0.1505  0.0938  1.0000  -5.2461   0.0000   0.0000   0.0000   0.2815
  20.800   1.8431   0.14422   0.14008  -0.1510  0.0917  1.0000  -5.2882   0.0000   0.0000   0.0000   0.2815
  20.900   1.8409   0.14564   0.14149  -0.1514  0.0894  1.0000  -5.3318   0.0000   0.0000   0.0000   0.2816
  21.000   1.8388   0.14705   0.14290  -0.1519  0.0866  1.0000  -5.3753   0.0000   0.0000   0.0000   0.2816
  21.100   1.8370   0.14840   0.14425  -0.1524  0.0837  1.0000  -5.4212   0.0000   0.0000   0.0000   0.2816
  21.200   1.8360   0.14962   0.14547  -0.1527  0.0809  1.0000  -5.4722   0.0000   0.0000   0.0000   0.2816
  21.300   1.8383   0.15042   0.14631  -0.1530  0.0804  1.0000  -5.5485   0.0000   0.0000   0.0000   0.2813
  21.400   1.8403   0.15125   0.14719  -0.1533  0.0798  1.0000  -5.6236   0.0000   0.0000   0.0000   0.2810
  21.500   1.8420   0.15214   0.14811  -0.1537  0.0790  1.0000  -5.6965   0.0000   0.0000   0.0000   0.2808
  21.600   1.8430   0.15313   0.14914  -0.1540  0.0779  1.0000  -5.7647   0.0000   0.0000   0.0000   0.2806
  21.700   1.8432   0.15425   0.15029  -0.1544  0.0767  1.0000  -5.8276   0.0000   0.0000   0.0000   0.2805
  21.800   1.8427   0.15551   0.15157  -0.1549  0.0753  1.0000  -5.8847   0.0000   0.0000   0.0000   0.2805
  21.900   1.8413   0.15694   0.15300  -0.1555  0.0738  1.0000  -5.9358   0.0000   0.0000   0.0000   0.2805
  22.000   1.8363   0.15903   0.15513  -0.1564  0.0725  1.0000  -5.9593   0.0000   0.0000   0.0000   0.2809
  22.100   1.8302   0.16135   0.15746  -0.1573  0.0712  1.0000  -5.9744   0.0000   0.0000   0.0000   0.2814
  22.200   1.8272   0.16309   0.15920  -0.1581  0.0696  1.0000  -6.0129   0.0000   0.0000   0.0000   0.2816
  22.300   1.8247   0.16475   0.16085  -0.1587  0.0678  1.0000  -6.0547   0.0000   0.0000   0.0000   0.2818
  22.400   1.8222   0.16640   0.16249  -0.1594  0.0658  1.0000  -6.0966   0.0000   0.0000   0.0000   0.2820
  22.500   1.8198   0.16806   0.16420  -0.1601  0.0635  1.0000  -6.1379   0.0000   0.0000   0.0000   0.2821
  22.600   1.8175   0.16970   0.16584  -0.1608  0.0611  1.0000  -6.1792   0.0000   0.0000   0.0000   0.2823
  22.700   1.8157   0.17121   0.16736  -0.1614  0.0586  1.0000  -6.2241   0.0000   0.0000   0.0000   0.2823
  22.800   1.8170   0.17224   0.16843  -0.1618  0.0581  1.0000  -6.2963   0.0000   0.0000   0.0000   0.2822
  22.900   1.8183   0.17328   0.16951  -0.1623  0.0577  1.0000  -6.3693   0.0000   0.0000   0.0000   0.2820
  23.000   1.8193   0.17438   0.17065  -0.1628  0.0572  1.0000  -6.4397   0.0000   0.0000   0.0000   0.2819
  23.100   1.8198   0.17558   0.17189  -0.1633  0.0565  1.0000  -6.5065   0.0000   0.0000   0.0000   0.2818
  23.200   1.8198   0.17687   0.17322  -0.1639  0.0557  1.0000  -6.5695   0.0000   0.0000   0.0000   0.2818
  23.300   1.8189   0.17835   0.17473  -0.1645  0.0549  1.0000  -6.6254   0.0000   0.0000   0.0000   0.2819
  23.400   1.8139   0.18071   0.17715  -0.1656  0.0541  1.0000  -6.6453   0.0000   0.0000   0.0000   0.2824
  23.500   1.8094   0.18296   0.17943  -0.1666  0.0533  1.0000  -6.6703   0.0000   0.0000   0.0000   0.2829
  23.600   1.8075   0.18468   0.18117  -0.1674  0.0522  1.0000  -6.7168   0.0000   0.0000   0.0000   0.2830
  23.700   1.8060   0.18631   0.18280  -0.1682  0.0511  1.0000  -6.7669   0.0000   0.0000   0.0000   0.2832
  23.800   1.8045   0.18794   0.18443  -0.1689  0.0499  1.0000  -6.8168   0.0000   0.0000   0.0000   0.2833
  23.900   1.8027   0.18963   0.18612  -0.1697  0.0487  1.0000  -6.8644   0.0000   0.0000   0.0000   0.2835
  24.000   1.8006   0.19141   0.18789  -0.1705  0.0475  1.0000  -6.9086   0.0000   0.0000   0.0000   0.2837
  24.100   1.7980   0.19328   0.18976  -0.1714  0.0462  1.0000  -6.9488   0.0000   0.0000   0.0000   0.2840
  24.200   1.7951   0.19526   0.19174  -0.1723  0.0447  1.0000  -6.9848   0.0000   0.0000   0.0000   0.2843
  24.300   1.7919   0.19732   0.19381  -0.1732  0.0432  1.0000  -7.0172   0.0000   0.0000   0.0000   0.2847
  24.400   1.7886   0.19938   0.19589  -0.1741  0.0416  1.0000  -7.0483   0.0000   0.0000   0.0000   0.2850
  24.500   1.7859   0.20132   0.19785  -0.1750  0.0399  1.0000  -7.0834   0.0000   0.0000   0.0000   0.2853
  24.600   1.7847   0.20299   0.19956  -0.1757  0.0393  1.0000  -7.1342   0.0000   0.0000   0.0000   0.2854
  24.700   1.7791   0.20576   0.20239  -0.1770  0.0392  1.0000  -7.1451   0.0000   0.0000   0.0000   0.2861
  24.800   1.7771   0.20771   0.20439  -0.1780  0.0390  1.0000  -7.1887   0.0000   0.0000   0.0000   0.2864
  24.900   1.7764   0.20930   0.20603  -0.1787  0.0388  1.0000  -7.2461   0.0000   0.0000   0.0000   0.2865
  25.000   1.7763   0.21079   0.20755  -0.1794  0.0385  1.0000  -7.3080   0.0000   0.0000   0.0000   0.2866
  25.100   1.7763   0.21223   0.20903  -0.1801  0.0381  1.0000  -7.3717   0.0000   0.0000   0.0000   0.2866
  25.200   1.7763   0.21366   0.21051  -0.1808  0.0377  1.0000  -7.4358   0.0000   0.0000   0.0000   0.2866
  25.300   1.7763   0.21512   0.21200  -0.1815  0.0373  1.0000  -7.4993   0.0000   0.0000   0.0000   0.2866
  25.400   1.7761   0.21661   0.21352  -0.1822  0.0368  1.0000  -7.5614   0.0000   0.0000   0.0000   0.2867
  25.500   1.7757   0.21816   0.21511  -0.1829  0.0362  1.0000  -7.6213   0.0000   0.0000   0.0000   0.2867
  25.600   1.7748   0.21982   0.21679  -0.1837  0.0356  1.0000  -7.6772   0.0000   0.0000   0.0000   0.2868
  25.700   1.7734   0.22160   0.21860  -0.1846  0.0350  1.0000  -7.7282   0.0000   0.0000   0.0000   0.2870
  25.800   1.7715   0.22354   0.22057  -0.1855  0.0343  1.0000  -7.7733   0.0000   0.0000   0.0000   0.2873
  25.900   1.7689   0.22565   0.22271  -0.1865  0.0337  1.0000  -7.8122   0.0000   0.0000   0.0000   0.2876
  26.000   1.7655   0.22800   0.22508  -0.1876  0.0330  1.0000  -7.8426   0.0000   0.0000   0.0000   0.2881
  26.100   1.7565   0.23191   0.22904  -0.1894  0.0326  1.0000  -7.8138   0.0000   0.0000   0.0000   0.2894
  26.200   1.7518   0.23465   0.23179  -0.1906  0.0320  1.0000  -7.8302   0.0000   0.0000   0.0000   0.2900
  26.300   1.7485   0.23705   0.23421  -0.1917  0.0313  1.0000  -7.8603   0.0000   0.0000   0.0000   0.2905
  26.400   1.7452   0.23942   0.23658  -0.1928  0.0305  1.0000  -7.8921   0.0000   0.0000   0.0000   0.2910
  26.500   1.7418   0.24185   0.23901  -0.1939  0.0296  1.0000  -7.9215   0.0000   0.0000   0.0000   0.2915
  26.600   1.7382   0.24437   0.24153  -0.1951  0.0287  1.0000  -7.9472   0.0000   0.0000   0.0000   0.2920
  26.700   1.7344   0.24691   0.24409  -0.1962  0.0276  1.0000  -7.9709   0.0000   0.0000   0.0000   0.2925
  26.800   1.7310   0.24938   0.24658  -0.1973  0.0264  1.0000  -7.9956   0.0000   0.0000   0.0000   0.2930
  26.900   1.7279   0.25173   0.24895  -0.1983  0.0249  1.0000  -8.0214   0.0000   0.0000   0.0000   0.2934
  27.000   1.7254   0.25392   0.25119  -0.1992  0.0241  1.0000  -8.0551   0.0000   0.0000   0.0000   0.2937
  27.100   1.7237   0.25600   0.25331  -0.2001  0.0240  1.0000  -8.1030   0.0000   0.0000   0.0000   0.2940
  27.200   1.7214   0.25825   0.25561  -0.2011  0.0239  1.0000  -8.1444   0.0000   0.0000   0.0000   0.2943
  27.300   1.7140   0.26208   0.25950  -0.2028  0.0238  1.0000  -8.1267   0.0000   0.0000   0.0000   0.2955
  27.400   1.7090   0.26519   0.26266  -0.2041  0.0237  1.0000  -8.1365   0.0000   0.0000   0.0000   0.2963
  27.500   1.7065   0.26753   0.26504  -0.2051  0.0235  1.0000  -8.1753   0.0000   0.0000   0.0000   0.2966
  27.600   1.7046   0.26969   0.26724  -0.2061  0.0234  1.0000  -8.2211   0.0000   0.0000   0.0000   0.2969
  27.700   1.7029   0.27179   0.26938  -0.2070  0.0231  1.0000  -8.2693   0.0000   0.0000   0.0000   0.2972
  27.800   1.7012   0.27388   0.27151  -0.2079  0.0229  1.0000  -8.3176   0.0000   0.0000   0.0000   0.2975
  27.900   1.6994   0.27602   0.27368  -0.2088  0.0226  1.0000  -8.3644   0.0000   0.0000   0.0000   0.2977
  28.000   1.6973   0.27823   0.27593  -0.2097  0.0223  1.0000  -8.4085   0.0000   0.0000   0.0000   0.2980
  28.100   1.6949   0.28057   0.27830  -0.2107  0.0220  1.0000  -8.4482   0.0000   0.0000   0.0000   0.2984
  28.200   1.6919   0.28308   0.28085  -0.2118  0.0216  1.0000  -8.4814   0.0000   0.0000   0.0000   0.2989
  28.300   1.6885   0.28573   0.28355  -0.2128  0.0213  1.0000  -8.5098   0.0000   0.0000   0.0000   0.2994
  28.400   1.6839   0.28877   0.28663  -0.2140  0.0209  1.0000  -8.5238   0.0000   0.0000   0.0000   0.3001
  28.500   1.6710   0.29455   0.29249  -0.2162  0.0207  1.0000  -8.4367   0.0000   0.0000   0.0000   0.3021
  28.600   1.6644   0.29826   0.29624  -0.2176  0.0203  1.0000  -8.4266   0.0000   0.0000   0.0000   0.3031
  28.700   1.6601   0.30122   0.29923  -0.2187  0.0199  1.0000  -8.4445   0.0000   0.0000   0.0000   0.3037
  28.800   1.6563   0.30402   0.30205  -0.2197  0.0194  1.0000  -8.4684   0.0000   0.0000   0.0000   0.3042
  28.900   1.6524   0.30680   0.30485  -0.2207  0.0189  1.0000  -8.4927   0.0000   0.0000   0.0000   0.3048
  29.000   1.6480   0.30973   0.30778  -0.2218  0.0184  1.0000  -8.5117   0.0000   0.0000   0.0000   0.3054
  29.100   1.6428   0.31290   0.31096  -0.2229  0.0178  1.0000  -8.5215   0.0000   0.0000   0.0000   0.3061
  29.200   1.6366   0.31639   0.31446  -0.2241  0.0173  1.0000  -8.5193   0.0000   0.0000   0.0000   0.3070
  29.300   1.6283   0.32055   0.31864  -0.2254  0.0167  1.0000  -8.4913   0.0000   0.0000   0.0000   0.3082
  29.400   1.6079   0.32847   0.32664  -0.2276  0.0165  1.0000  -8.3229   0.0000   0.0000   0.0000   0.3111
  29.500   1.5923   0.33452   0.33275  -0.2290  0.0159  1.0000  -8.2190   0.0000   0.0000   0.0000   0.3132
  29.600   1.5800   0.33914   0.33739  -0.2300  0.0150  1.0000  -8.1606   0.0000   0.0000   0.0000   0.3146
  29.700   1.5614   0.34458   0.34288  -0.2307  0.0135  1.0000  -8.0448   0.0000   0.0000   0.0000   0.3166


