xflr5 v6.61

 Calculated polar for: E61  (5.64%)

 1 1 Reynolds number fixed          Mach number fixed         

 xtrf =   1.000 (top)        1.000 (bottom)
 Mach =   0.000     Re =     0.200 e 6     Ncrit =   9.000

  alpha     CL        CD       CDp       Cm    Top Xtr Bot Xtr   Cpmin    Chinge    XCp    
 ------- -------- --------- --------- -------- ------- ------- -------- --------- ---------
 -10.000  -0.3338   0.13821   0.13460  -0.0236  1.0000  0.0137  -1.2624   0.0000   0.0000   0.0000   0.1744
  -9.900  -0.3331   0.13724   0.13364  -0.0234  1.0000  0.0138  -1.2539   0.0000   0.0000   0.0000   0.1752
  -9.800  -0.3325   0.13630   0.13271  -0.0231  1.0000  0.0139  -1.2463   0.0000   0.0000   0.0000   0.1759
  -9.700  -0.3319   0.13539   0.13181  -0.0228  1.0000  0.0140  -1.2393   0.0000   0.0000   0.0000   0.1767
  -9.600  -0.3315   0.13449   0.13093  -0.0225  1.0000  0.0142  -1.2330   0.0000   0.0000   0.0000   0.1775
  -9.500  -0.3311   0.13360   0.13006  -0.0222  1.0000  0.0143  -1.2272   0.0000   0.0000   0.0000   0.1784
  -9.400  -0.3308   0.13273   0.12920  -0.0219  1.0000  0.0144  -1.2219   0.0000   0.0000   0.0000   0.1793
  -9.300  -0.3305   0.13187   0.12836  -0.0216  1.0000  0.0145  -1.2171   0.0000   0.0000   0.0000   0.1802
  -9.200  -0.3303   0.13103   0.12752  -0.0213  1.0000  0.0146  -1.2127   0.0000   0.0000   0.0000   0.1812
  -9.100  -0.3301   0.13019   0.12671  -0.0210  1.0000  0.0148  -1.2088   0.0000   0.0000   0.0000   0.1822
  -9.000  -0.3301   0.12937   0.12590  -0.0206  1.0000  0.0149  -1.2052   0.0000   0.0000   0.0000   0.1833
  -8.900  -0.3301   0.12857   0.12511  -0.0203  1.0000  0.0150  -1.2042   0.0000   0.0000   0.0000   0.1844
  -8.800  -0.3302   0.12777   0.12433  -0.0199  1.0000  0.0150  -1.2048   0.0000   0.0000   0.0000   0.1855
  -8.700  -0.3304   0.12698   0.12355  -0.0196  1.0000  0.0151  -1.2054   0.0000   0.0000   0.0000   0.1867
  -8.600  -0.3307   0.12620   0.12279  -0.0192  1.0000  0.0151  -1.2060   0.0000   0.0000   0.0000   0.1879
  -8.500  -0.3310   0.12543   0.12204  -0.0188  1.0000  0.0152  -1.2062   0.0000   0.0000   0.0000   0.1892
  -8.400  -0.3314   0.12467   0.12129  -0.0184  1.0000  0.0153  -1.2050   0.0000   0.0000   0.0000   0.1905
  -8.300  -0.3318   0.12392   0.12047  -0.0180  1.0000  0.0157  -1.1945   0.0000   0.0000   0.0000   0.1920
  -8.200  -0.3324   0.12318   0.11975  -0.0176  1.0000  0.0157  -1.1965   0.0000   0.0000   0.0000   0.1934
  -8.100  -0.3330   0.12244   0.11903  -0.0172  1.0000  0.0157  -1.1986   0.0000   0.0000   0.0000   0.1948
  -8.000  -0.3337   0.12172   0.11832  -0.0168  1.0000  0.0158  -1.2008   0.0000   0.0000   0.0000   0.1962
  -7.900  -0.3345   0.12101   0.11763  -0.0163  1.0000  0.0158  -1.2032   0.0000   0.0000   0.0000   0.1977
  -7.800  -0.3354   0.12031   0.11694  -0.0159  1.0000  0.0158  -1.2056   0.0000   0.0000   0.0000   0.1993
  -7.700  -0.3364   0.11961   0.11627  -0.0154  1.0000  0.0159  -1.2082   0.0000   0.0000   0.0000   0.2008
  -7.600  -0.3303   0.11825   0.11491  -0.0169  0.9990  0.0159  -1.2063   0.0000   0.0000   0.0000   0.1954
  -7.500  -0.3236   0.11686   0.11352  -0.0185  0.9978  0.0160  -1.2042   0.0000   0.0000   0.0000   0.1893
  -7.400  -0.3169   0.11548   0.11213  -0.0201  0.9965  0.0160  -1.2022   0.0000   0.0000   0.0000   0.1828
  -7.300  -0.3108   0.11412   0.11078  -0.0216  0.9950  0.0161  -1.2006   0.0000   0.0000   0.0000   0.1768
  -7.200  -0.3048   0.11281   0.10947  -0.0230  0.9935  0.0162  -1.1992   0.0000   0.0000   0.0000   0.1707
  -7.100  -0.2988   0.11151   0.10817  -0.0244  0.9920  0.0162  -1.1979   0.0000   0.0000   0.0000   0.1642
  -7.000  -0.2926   0.11022   0.10688  -0.0259  0.9907  0.0163  -1.1967   0.0000   0.0000   0.0000   0.1572
  -6.900  -0.2860   0.10893   0.10560  -0.0275  0.9895  0.0163  -1.1953   0.0000   0.0000   0.0000   0.1494
  -6.800  -0.2803   0.10769   0.10435  -0.0289  0.9879  0.0164  -1.1944   0.0000   0.0000   0.0000   0.1425
  -6.700  -0.2764   0.10654   0.10321  -0.0297  0.9855  0.0164  -1.1946   0.0000   0.0000   0.0000   0.1381
  -6.600  -0.2718   0.10537   0.10205  -0.0307  0.9833  0.0165  -1.1946   0.0000   0.0000   0.0000   0.1324
  -6.500  -0.2667   0.10419   0.10087  -0.0319  0.9814  0.0165  -1.1944   0.0000   0.0000   0.0000   0.1256
  -6.400  -0.2609   0.10298   0.09966  -0.0333  0.9796  0.0166  -1.1939   0.0000   0.0000   0.0000   0.1175
  -6.300  -0.2544   0.10174   0.09842  -0.0349  0.9781  0.0166  -1.1931   0.0000   0.0000   0.0000   0.1078
  -6.200  -0.2472   0.10049   0.09718  -0.0367  0.9769  0.0167  -1.1920   0.0000   0.0000   0.0000   0.0965
  -6.100  -0.2455   0.09953   0.09623  -0.0370  0.9736  0.0167  -1.1940   0.0000   0.0000   0.0000   0.0943
  -6.000  -0.2434   0.09856   0.09526  -0.0373  0.9700  0.0168  -1.1960   0.0000   0.0000   0.0000   0.0917
  -5.900  -0.2384   0.09736   0.09407  -0.0385  0.9672  0.0168  -1.1961   0.0000   0.0000   0.0000   0.0834
  -5.800  -0.2308   0.09595   0.09266  -0.0403  0.9651  0.0169  -1.1944   0.0000   0.0000   0.0000   0.0701
  -5.700  -0.2220   0.09446   0.09117  -0.0424  0.9634  0.0170  -1.1920   0.0000   0.0000   0.0000   0.0534
  -5.600  -0.2122   0.09292   0.08963  -0.0448  0.9620  0.0171  -1.1889   0.0000   0.0000   0.0000   0.0332
  -5.500  -0.2017   0.09134   0.08805  -0.0473  0.9609  0.0172  -1.1853   0.0000   0.0000   0.0000   0.0091
  -5.400  -0.1903   0.08974   0.08644  -0.0501  0.9599  0.0173  -1.1812   0.0000   0.0000   0.0000  -0.0198
  -5.300  -0.1975   0.08931   0.08604  -0.0479  0.9538  0.0173  -1.1885   0.0000   0.0000   0.0000   0.0012
  -5.200  -0.1922   0.08807   0.08480  -0.0491  0.9508  0.0174  -1.1882   0.0000   0.0000   0.0000  -0.0115
  -5.100  -0.1846   0.08666   0.08340  -0.0508  0.9484  0.0175  -1.1863   0.0000   0.0000   0.0000  -0.0316
  -5.000  -0.1754   0.08515   0.08189  -0.0529  0.9464  0.0176  -1.1834   0.0000   0.0000   0.0000  -0.0587
  -4.900  -0.1648   0.08355   0.08029  -0.0554  0.9448  0.0177  -1.1797   0.0000   0.0000   0.0000  -0.0937
  -4.800  -0.1531   0.08190   0.07863  -0.0582  0.9434  0.0179  -1.1751   0.0000   0.0000   0.0000  -0.1380
  -4.700  -0.1403   0.08020   0.07693  -0.0612  0.9422  0.0181  -1.1700   0.0000   0.0000   0.0000  -0.1945
  -4.600  -0.1267   0.07849   0.07521  -0.0644  0.9412  0.0184  -1.1642   0.0000   0.0000   0.0000  -0.2675
  -4.500  -0.1124   0.07677   0.07348  -0.0678  0.9404  0.0187  -1.1581   0.0000   0.0000   0.0000  -0.3638
  -4.400  -0.1137   0.07605   0.07278  -0.0671  0.9360  0.0188  -1.1617   0.0000   0.0000   0.0000  -0.3505
  -4.300  -0.1126   0.07516   0.07189  -0.0671  0.9315  0.0189  -1.1638   0.0000   0.0000   0.0000  -0.3560
  -4.200  -0.1036   0.07378   0.07051  -0.0690  0.9288  0.0192  -1.1610   0.0000   0.0000   0.0000  -0.4268
  -4.100  -0.0919   0.07222   0.06895  -0.0716  0.9266  0.0195  -1.1565   0.0000   0.0000   0.0000  -0.5420
  -4.000  -0.0779   0.07054   0.06726  -0.0747  0.9248  0.0200  -1.1511   0.0000   0.0000   0.0000  -0.7248
  -3.900  -0.0618   0.06877   0.06547  -0.0784  0.9233  0.0207  -1.1453   0.0000   0.0000   0.0000  -1.0361
  -3.800  -0.0437   0.06693   0.06361  -0.0825  0.9220  0.0216  -1.1407   0.0000   0.0000   0.0000  -1.6624
  -3.700  -0.0218   0.06503   0.06168  -0.0876  0.9209  0.0229  -1.1422   0.0000   0.0000   0.0000  -3.8303
  -3.600   0.0193   0.06368   0.06026  -0.0975  0.9200  0.0254  -1.1664   0.0000   0.0000   0.0000   5.3710
  -3.500   0.0473   0.06217   0.05870  -0.1033  0.9193  0.0260  -1.1574   0.0000   0.0000   0.0000   2.4610
  -3.400   0.0723   0.06022   0.05670  -0.1086  0.9187  0.0262  -1.1539   0.0000   0.0000   0.0000   1.7683
  -2.800   0.1855   0.04638   0.04258  -0.1317  0.9161  0.0549  -0.9343   0.0000   0.0000   0.0000   0.9662
  -2.600   0.2027   0.04478   0.04094  -0.1331  0.9100  0.0574  -0.8458   0.0000   0.0000   0.0000   0.9118
  -2.500   0.2162   0.04379   0.03991  -0.1349  0.9074  0.0593  -0.8283   0.0000   0.0000   0.0000   0.8786
  -2.400   0.2359   0.04259   0.03864  -0.1380  0.9059  0.0619  -0.8103   0.0000   0.0000   0.0000   0.8392
  -2.300   0.2594   0.04139   0.03735  -0.1418  0.9049  0.0654  -0.7976   0.0000   0.0000   0.0000   0.8004
  -2.200   0.2865   0.04136   0.03715  -0.1454  0.9035  0.0706  -0.7925   0.0000   0.0000   0.0000   0.7605
  -2.100   0.3070   0.04199   0.03762  -0.1470  0.9016  0.0724  -0.7694   0.0000   0.0000   0.0000   0.7316
  -2.000   0.3488   0.03598   0.03144  -0.1579  0.9052  0.0774  -0.7987   0.0000   0.0000   0.0000   0.7052
  -1.900   0.3602   0.03511   0.03060  -0.1587  0.9037  0.0795  -0.7509   0.0000   0.0000   0.0000   0.6928
  -1.800   0.3737   0.03440   0.02989  -0.1598  0.9023  0.0822  -0.7046   0.0000   0.0000   0.0000   0.6796
  -1.700   0.3898   0.03369   0.02916  -0.1613  0.9011  0.0860  -0.6631   0.0000   0.0000   0.0000   0.6658
  -1.600   0.4085   0.03299   0.02839  -0.1633  0.9001  0.0914  -0.6286   0.0000   0.0000   0.0000   0.6515
  -1.500   0.4282   0.03284   0.02811  -0.1650  0.8988  0.0992  -0.6021   0.0000   0.0000   0.0000   0.6368
  -1.400   0.4603   0.03079   0.02580  -0.1708  0.8996  0.1106  -0.5902   0.0000   0.0000   0.0000   0.6224
  -1.300   0.4751   0.02990   0.02498  -0.1721  0.8988  0.1146  -0.5439   0.0000   0.0000   0.0000   0.6133
  -1.200   0.4911   0.02928   0.02436  -0.1733  0.8979  0.1196  -0.5457   0.0000   0.0000   0.0000   0.6040
  -1.100   0.5087   0.02878   0.02380  -0.1748  0.8970  0.1266  -0.5544   0.0000   0.0000   0.0000   0.5946
  -1.000   0.5255   0.02874   0.02367  -0.1757  0.8958  0.1353  -0.5628   0.0000   0.0000   0.0000   0.5852
  -0.900   0.5493   0.02721   0.02204  -0.1795  0.8961  0.1522  -0.5745   0.0000   0.0000   0.0000   0.5775
  -0.700   0.6238   0.02253   0.01601  -0.1879  0.8997  0.0519  -0.6621   0.0000   0.0000   0.0000   0.5516
  -0.600   0.6363   0.02272   0.01615  -0.1877  0.8978  0.0480  -0.6266   0.0000   0.0000   0.0000   0.5453
  -0.500   0.6561   0.02182   0.01511  -0.1895  0.8976  0.0440  -0.6204   0.0000   0.0000   0.0000   0.5390
  -0.400   0.6755   0.02104   0.01419  -0.1911  0.8972  0.0415  -0.6308   0.0000   0.0000   0.0000   0.5330
  -0.300   0.6938   0.02045   0.01348  -0.1924  0.8966  0.0393  -0.6411   0.0000   0.0000   0.0000   0.5273
  -0.200   0.7116   0.01994   0.01288  -0.1936  0.8959  0.0374  -0.6513   0.0000   0.0000   0.0000   0.5220
  -0.100   0.7293   0.01950   0.01237  -0.1948  0.8951  0.0359  -0.6616   0.0000   0.0000   0.0000   0.5169
   0.000   0.7468   0.01912   0.01194  -0.1960  0.8943  0.0347  -0.6719   0.0000   0.0000   0.0000   0.5121
   0.100   0.7641   0.01881   0.01157  -0.1971  0.8935  0.0338  -0.6827   0.0000   0.0000   0.0000   0.5075
   0.200   0.7811   0.01855   0.01125  -0.1982  0.8927  0.0332  -0.6939   0.0000   0.0000   0.0000   0.5032
   0.300   0.7978   0.01832   0.01096  -0.1993  0.8919  0.0328  -0.7051   0.0000   0.0000   0.0000   0.4990
   0.400   0.8145   0.01810   0.01068  -0.2003  0.8911  0.0328  -0.7163   0.0000   0.0000   0.0000   0.4950
   0.500   0.8313   0.01788   0.01040  -0.2013  0.8903  0.0333  -0.7285   0.0000   0.0000   0.0000   0.4912
   0.600   0.8481   0.01766   0.01014  -0.2023  0.8896  0.0343  -0.7411   0.0000   0.0000   0.0000   0.4874
   0.700   0.8651   0.01744   0.00988  -0.2033  0.8889  0.0364  -0.7538   0.0000   0.0000   0.0000   0.4839
   0.800   0.8821   0.01720   0.00965  -0.2043  0.8883  0.0408  -0.7668   0.0000   0.0000   0.0000   0.4804
   0.900   0.9015   0.01673   0.00954  -0.2062  0.8879  0.1697  -0.7822   0.0000   0.0000   0.0000   0.4773
   1.000   0.9152   0.01534   0.00973  -0.2069  0.8879  0.8603  -0.7948   0.0000   0.0000   0.0000   0.4746
   1.400   0.9439   0.01559   0.01003  -0.2035  0.8711  1.0000  -0.8307   0.0000   0.0000   0.0000   0.4637
   1.500   0.9580   0.01545   0.00987  -0.2040  0.8692  1.0000  -0.8450   0.0000   0.0000   0.0000   0.4609
   1.600   0.9728   0.01528   0.00969  -0.2046  0.8676  1.0000  -0.8599   0.0000   0.0000   0.0000   0.4582
   1.700   0.9882   0.01508   0.00948  -0.2053  0.8660  1.0000  -0.8768   0.0000   0.0000   0.0000   0.4555
   1.800   1.0042   0.01485   0.00924  -0.2061  0.8646  1.0000  -0.8947   0.0000   0.0000   0.0000   0.4529
   1.900   1.0209   0.01461   0.00900  -0.2071  0.8632  1.0000  -0.9132   0.0000   0.0000   0.0000   0.4504
   2.000   1.0380   0.01438   0.00876  -0.2081  0.8620  1.0000  -0.9347   0.0000   0.0000   0.0000   0.4479
   2.100   1.0558   0.01414   0.00851  -0.2093  0.8607  1.0000  -0.9569   0.0000   0.0000   0.0000   0.4456
   2.200   1.0742   0.01388   0.00826  -0.2106  0.8594  1.0000  -0.9798   0.0000   0.0000   0.0000   0.4433
   2.300   1.0930   0.01365   0.00802  -0.2120  0.8580  1.0000  -1.0030   0.0000   0.0000   0.0000   0.4411
   2.400   1.1116   0.01343   0.00780  -0.2134  0.8565  1.0000  -1.0298   0.0000   0.0000   0.0000   0.4390
   2.500   1.1312   0.01320   0.00756  -0.2150  0.8548  1.0000  -1.0578   0.0000   0.0000   0.0000   0.4369
   2.600   1.1307   0.01347   0.00785  -0.2126  0.8484  1.0000  -1.0680   0.0000   0.0000   0.0000   0.4348
   2.700   1.1377   0.01352   0.00792  -0.2117  0.8431  1.0000  -1.0870   0.0000   0.0000   0.0000   0.4327
   2.800   1.1499   0.01345   0.00786  -0.2118  0.8392  1.0000  -1.1119   0.0000   0.0000   0.0000   0.4307
   2.900   1.1641   0.01332   0.00773  -0.2123  0.8357  1.0000  -1.1394   0.0000   0.0000   0.0000   0.4287
   3.000   1.1795   0.01315   0.00758  -0.2130  0.8323  1.0000  -1.1685   0.0000   0.0000   0.0000   0.4268
   3.100   1.1956   0.01297   0.00741  -0.2138  0.8291  1.0000  -1.1985   0.0000   0.0000   0.0000   0.4250
   3.200   1.2129   0.01279   0.00723  -0.2149  0.8260  1.0000  -1.2337   0.0000   0.0000   0.0000   0.4232
   3.300   1.2322   0.01257   0.00701  -0.2164  0.8226  1.0000  -1.2805   0.0000   0.0000   0.0000   0.4216
   3.400   1.2528   0.01239   0.00682  -0.2182  0.8186  1.0000  -1.3346   0.0000   0.0000   0.0000   0.4200
   3.500   1.2550   0.01255   0.00702  -0.2163  0.8125  1.0000  -1.3573   0.0000   0.0000   0.0000   0.4180
   3.600   1.2622   0.01261   0.00711  -0.2154  0.8064  1.0000  -1.3887   0.0000   0.0000   0.0000   0.4162
   3.700   1.2724   0.01260   0.00712  -0.2151  0.8006  1.0000  -1.4255   0.0000   0.0000   0.0000   0.4144
   3.800   1.2851   0.01253   0.00706  -0.2152  0.7950  1.0000  -1.4668   0.0000   0.0000   0.0000   0.4128
   3.900   1.3007   0.01242   0.00695  -0.2160  0.7896  1.0000  -1.5135   0.0000   0.0000   0.0000   0.4112
   4.000   1.3179   0.01232   0.00683  -0.2171  0.7841  1.0000  -1.5631   0.0000   0.0000   0.0000   0.4097
   4.100   1.3315   0.01231   0.00681  -0.2175  0.7780  1.0000  -1.6088   0.0000   0.0000   0.0000   0.4082
   4.200   1.3365   0.01241   0.00695  -0.2161  0.7710  1.0000  -1.6699   0.0000   0.0000   0.0000   0.4064
   4.500   1.3140   0.01438   0.00685  -0.2013  0.4185  1.0000  -2.1267   0.0000   0.0000   0.0000   0.3975
   4.600   1.3047   0.01568   0.00748  -0.1975  0.3216  1.0000  -2.1540   0.0000   0.0000   0.0000   0.3956
   4.700   1.2998   0.01689   0.00814  -0.1947  0.2362  1.0000  -2.2122   0.0000   0.0000   0.0000   0.3939
   4.800   1.2978   0.01798   0.00876  -0.1925  0.1638  1.0000  -2.2749   0.0000   0.0000   0.0000   0.3922
   4.900   1.2977   0.01896   0.00935  -0.1905  0.1033  1.0000  -2.3326   0.0000   0.0000   0.0000   0.3907
   5.000   1.2923   0.02044   0.01025  -0.1878  0.0234  1.0000  -2.3583   0.0000   0.0000   0.0000   0.3890
   5.100   1.2988   0.02083   0.01062  -0.1868  0.0167  1.0000  -2.4423   0.0000   0.0000   0.0000   0.3874
   5.200   1.3062   0.02112   0.01094  -0.1860  0.0152  1.0000  -2.5280   0.0000   0.0000   0.0000   0.3859
   5.300   1.3135   0.02141   0.01126  -0.1853  0.0142  1.0000  -2.6116   0.0000   0.0000   0.0000   0.3843
   5.400   1.3208   0.02169   0.01159  -0.1845  0.0135  1.0000  -2.6933   0.0000   0.0000   0.0000   0.3828
   5.500   1.3281   0.02198   0.01192  -0.1837  0.0129  1.0000  -2.7745   0.0000   0.0000   0.0000   0.3813
   5.600   1.3353   0.02228   0.01227  -0.1829  0.0125  1.0000  -2.8545   0.0000   0.0000   0.0000   0.3799
   5.700   1.3424   0.02259   0.01263  -0.1821  0.0121  1.0000  -2.9336   0.0000   0.0000   0.0000   0.3784
   5.800   1.3492   0.02291   0.01301  -0.1812  0.0118  1.0000  -3.0114   0.0000   0.0000   0.0000   0.3769
   5.900   1.3559   0.02326   0.01341  -0.1803  0.0116  1.0000  -3.0884   0.0000   0.0000   0.0000   0.3755
   6.000   1.3624   0.02361   0.01384  -0.1794  0.0115  1.0000  -3.1646   0.0000   0.0000   0.0000   0.3740
   6.100   1.3688   0.02399   0.01428  -0.1785  0.0113  1.0000  -3.2401   0.0000   0.0000   0.0000   0.3726
   6.200   1.3749   0.02439   0.01474  -0.1775  0.0113  1.0000  -3.3141   0.0000   0.0000   0.0000   0.3712
   6.300   1.3806   0.02481   0.01524  -0.1765  0.0113  1.0000  -3.3861   0.0000   0.0000   0.0000   0.3697
   6.400   1.3860   0.02526   0.01576  -0.1754  0.0113  1.0000  -3.4559   0.0000   0.0000   0.0000   0.3683
   6.500   1.3912   0.02574   0.01630  -0.1742  0.0113  1.0000  -3.5232   0.0000   0.0000   0.0000   0.3669
   6.600   1.3958   0.02625   0.01688  -0.1730  0.0114  1.0000  -3.5866   0.0000   0.0000   0.0000   0.3654
   6.700   1.3999   0.02681   0.01750  -0.1717  0.0115  1.0000  -3.6459   0.0000   0.0000   0.0000   0.3640
   6.800   1.4040   0.02739   0.01815  -0.1703  0.0117  1.0000  -3.7020   0.0000   0.0000   0.0000   0.3626
   6.900   1.4075   0.02802   0.01885  -0.1689  0.0119  1.0000  -3.7532   0.0000   0.0000   0.0000   0.3611
   7.000   1.4108   0.02870   0.01959  -0.1675  0.0121  1.0000  -3.8003   0.0000   0.0000   0.0000   0.3596
   7.100   1.4142   0.02943   0.02039  -0.1660  0.0123  1.0000  -3.8439   0.0000   0.0000   0.0000   0.3582
   7.200   1.4176   0.03022   0.02125  -0.1646  0.0126  1.0000  -3.8842   0.0000   0.0000   0.0000   0.3568
   7.300   1.4215   0.03107   0.02218  -0.1632  0.0130  1.0000  -3.9220   0.0000   0.0000   0.0000   0.3553
   7.400   1.4262   0.03200   0.02317  -0.1620  0.0134  1.0000  -3.9585   0.0000   0.0000   0.0000   0.3539
   7.500   1.4327   0.03303   0.02428  -0.1609  0.0139  1.0000  -3.9948   0.0000   0.0000   0.0000   0.3525
   7.600   1.4418   0.03421   0.02555  -0.1603  0.0146  1.0000  -4.0299   0.0000   0.0000   0.0000   0.3512
   7.700   1.4557   0.03573   0.02717  -0.1603  0.0155  1.0000  -4.0664   0.0000   0.0000   0.0000   0.3500
   7.800   1.5133   0.04176   0.03347  -0.1674  0.0191  1.0000  -4.0831   0.0000   0.0000   0.0000   0.3503
   7.900   1.5172   0.04106   0.03275  -0.1658  0.0199  1.0000  -4.1869   0.0000   0.0000   0.0000   0.3488
  10.100   1.4860   0.09793   0.09404  -0.1294  0.0726  1.0000  -3.2570   0.0000   0.0000   0.0000   0.3239
  10.200   1.4761   0.09804   0.09422  -0.1273  0.0723  1.0000  -3.2572   0.0000   0.0000   0.0000   0.3230
  10.300   1.4669   0.09815   0.09442  -0.1255  0.0718  1.0000  -3.2591   0.0000   0.0000   0.0000   0.3221
  10.400   1.4579   0.09871   0.09506  -0.1240  0.0713  1.0000  -3.2566   0.0000   0.0000   0.0000   0.3215
  10.500   1.4487   0.09969   0.09612  -0.1229  0.0708  1.0000  -3.2487   0.0000   0.0000   0.0000   0.3211
  10.600   1.4393   0.10096   0.09747  -0.1220  0.0704  1.0000  -3.2370   0.0000   0.0000   0.0000   0.3209
  10.700   1.4297   0.10245   0.09904  -0.1215  0.0700  1.0000  -3.2220   0.0000   0.0000   0.0000   0.3209
  10.800   1.4201   0.10411   0.10078  -0.1211  0.0696  1.0000  -3.2043   0.0000   0.0000   0.0000   0.3210
  10.900   1.4102   0.10595   0.10269  -0.1210  0.0692  1.0000  -3.1835   0.0000   0.0000   0.0000   0.3214
  11.000   1.4000   0.10794   0.10475  -0.1212  0.0689  1.0000  -3.1598   0.0000   0.0000   0.0000   0.3220
  11.100   1.3897   0.11007   0.10695  -0.1216  0.0686  1.0000  -3.1335   0.0000   0.0000   0.0000   0.3228
  11.200   1.3791   0.11234   0.10927  -0.1224  0.0683  1.0000  -3.1040   0.0000   0.0000   0.0000   0.3239
  11.300   1.3685   0.11462   0.11161  -0.1233  0.0681  1.0000  -3.0720   0.0000   0.0000   0.0000   0.3251
  11.400   1.3577   0.11705   0.11411  -0.1246  0.0678  1.0000  -3.0366   0.0000   0.0000   0.0000   0.3266
  11.500   1.3470   0.11972   0.11683  -0.1263  0.0675  1.0000  -2.9977   0.0000   0.0000   0.0000   0.3284
  11.600   1.3363   0.12266   0.11983  -0.1282  0.0672  1.0000  -2.9549   0.0000   0.0000   0.0000   0.3305
  11.700   1.3256   0.12594   0.12315  -0.1306  0.0668  1.0000  -2.9072   0.0000   0.0000   0.0000   0.3330
  11.800   1.3153   0.12959   0.12684  -0.1334  0.0663  1.0000  -2.8540   0.0000   0.0000   0.0000   0.3358
  11.900   1.3053   0.13364   0.13094  -0.1366  0.0657  1.0000  -2.7950   0.0000   0.0000   0.0000   0.3389
  12.000   1.2960   0.13815   0.13548  -0.1403  0.0648  1.0000  -2.7304   0.0000   0.0000   0.0000   0.3424
  12.100   1.2880   0.14314   0.14048  -0.1442  0.0638  1.0000  -2.6612   0.0000   0.0000   0.0000   0.3461
  12.200   1.2822   0.14746   0.14480  -0.1473  0.0627  1.0000  -2.6095   0.0000   0.0000   0.0000   0.3489
  12.300   1.2778   0.15114   0.14847  -0.1496  0.0618  1.0000  -2.5723   0.0000   0.0000   0.0000   0.3511
  12.400   1.2743   0.15448   0.15182  -0.1517  0.0610  1.0000  -2.5434   0.0000   0.0000   0.0000   0.3529
  12.500   1.2713   0.15761   0.15494  -0.1534  0.0603  1.0000  -2.5203   0.0000   0.0000   0.0000   0.3545
  12.600   1.2689   0.16057   0.15789  -0.1550  0.0596  1.0000  -2.5019   0.0000   0.0000   0.0000   0.3558
  12.700   1.2669   0.16340   0.16072  -0.1564  0.0589  1.0000  -2.4876   0.0000   0.0000   0.0000   0.3570
  12.800   1.2654   0.16611   0.16343  -0.1577  0.0583  1.0000  -2.4772   0.0000   0.0000   0.0000   0.3580
  12.900   1.2642   0.16873   0.16604  -0.1588  0.0577  1.0000  -2.4703   0.0000   0.0000   0.0000   0.3589
  13.000   1.2633   0.17126   0.16856  -0.1599  0.0572  1.0000  -2.4666   0.0000   0.0000   0.0000   0.3596
  13.100   1.2627   0.17371   0.17101  -0.1608  0.0567  1.0000  -2.4663   0.0000   0.0000   0.0000   0.3603
  13.200   1.2625   0.17609   0.17339  -0.1616  0.0562  1.0000  -2.4692   0.0000   0.0000   0.0000   0.3608
  13.300   1.2625   0.17840   0.17570  -0.1622  0.0557  1.0000  -2.4753   0.0000   0.0000   0.0000   0.3612
  13.400   1.2628   0.18066   0.17795  -0.1628  0.0552  1.0000  -2.4849   0.0000   0.0000   0.0000   0.3614
  13.500   1.2634   0.18286   0.18016  -0.1632  0.0548  1.0000  -2.4981   0.0000   0.0000   0.0000   0.3615
  13.600   1.2643   0.18502   0.18231  -0.1635  0.0543  1.0000  -2.5155   0.0000   0.0000   0.0000   0.3615
  13.700   1.2654   0.18717   0.18447  -0.1636  0.0539  1.0000  -2.5365   0.0000   0.0000   0.0000   0.3613
  13.800   1.2638   0.19007   0.18736  -0.1642  0.0533  1.0000  -2.5354   0.0000   0.0000   0.0000   0.3618
  13.900   1.2412   0.20087   0.19811  -0.1676  0.0511  1.0000  -2.3406   0.0000   0.0000   0.0000   0.3668
  14.000   1.2400   0.20410   0.20134  -0.1692  0.0511  1.0000  -2.3102   0.0000   0.0000   0.0000   0.3682
  14.100   1.2389   0.20725   0.20449  -0.1708  0.0510  1.0000  -2.2817   0.0000   0.0000   0.0000   0.3694
  14.200   1.2380   0.21033   0.20756  -0.1723  0.0510  1.0000  -2.2550   0.0000   0.0000   0.0000   0.3706
  14.300   1.2372   0.21332   0.21055  -0.1738  0.0509  1.0000  -2.2297   0.0000   0.0000   0.0000   0.3718
  14.400   1.2366   0.21621   0.21344  -0.1753  0.0508  1.0000  -2.2058   0.0000   0.0000   0.0000   0.3729
  14.500   1.2362   0.21899   0.21622  -0.1767  0.0506  1.0000  -2.1831   0.0000   0.0000   0.0000   0.3740
  14.600   1.2361   0.22158   0.21881  -0.1783  0.0504  1.0000  -2.1616   0.0000   0.0000   0.0000   0.3752
  14.700   1.2366   0.22387   0.22109  -0.1800  0.0499  1.0000  -2.1410   0.0000   0.0000   0.0000   0.3763
  14.800   1.2372   0.22609   0.22331  -0.1821  0.0489  1.0000  -2.1114   0.0000   0.0000   0.0000   0.3778
  14.900   1.2364   0.22892   0.22613  -0.1842  0.0478  1.0000  -2.0695   0.0000   0.0000   0.0000   0.3796
  15.000   1.2356   0.23184   0.22905  -0.1859  0.0468  1.0000  -2.0384   0.0000   0.0000   0.0000   0.3809
  15.100   1.2347   0.23475   0.23197  -0.1872  0.0459  1.0000  -2.0126   0.0000   0.0000   0.0000   0.3820
  15.200   1.2340   0.23763   0.23484  -0.1885  0.0452  1.0000  -1.9917   0.0000   0.0000   0.0000   0.3829
  15.300   1.2333   0.24047   0.23768  -0.1896  0.0445  1.0000  -1.9736   0.0000   0.0000   0.0000   0.3837
  15.400   1.2326   0.24328   0.24049  -0.1906  0.0438  1.0000  -1.9578   0.0000   0.0000   0.0000   0.3845
  15.500   1.2319   0.24605   0.24326  -0.1915  0.0432  1.0000  -1.9439   0.0000   0.0000   0.0000   0.3852
  15.600   1.2312   0.24879   0.24601  -0.1924  0.0426  1.0000  -1.9313   0.0000   0.0000   0.0000   0.3859
  15.700   1.2304   0.25151   0.24872  -0.1933  0.0420  1.0000  -1.9203   0.0000   0.0000   0.0000   0.3865
  15.800   1.2297   0.25420   0.25142  -0.1941  0.0415  1.0000  -1.9106   0.0000   0.0000   0.0000   0.3870
  15.900   1.2290   0.25686   0.25409  -0.1948  0.0410  1.0000  -1.9021   0.0000   0.0000   0.0000   0.3876
  16.000   1.2282   0.25951   0.25673  -0.1955  0.0405  1.0000  -1.8947   0.0000   0.0000   0.0000   0.3881
  16.100   1.2274   0.26212   0.25935  -0.1961  0.0400  1.0000  -1.8884   0.0000   0.0000   0.0000   0.3885
  16.200   1.2265   0.26471   0.26194  -0.1967  0.0395  1.0000  -1.8831   0.0000   0.0000   0.0000   0.3889
  16.300   1.2255   0.26727   0.26451  -0.1972  0.0391  1.0000  -1.8787   0.0000   0.0000   0.0000   0.3893
  16.400   1.2245   0.26980   0.26704  -0.1977  0.0387  1.0000  -1.8752   0.0000   0.0000   0.0000   0.3897
  16.500   1.2233   0.27230   0.26954  -0.1981  0.0383  1.0000  -1.8727   0.0000   0.0000   0.0000   0.3900
  16.600   1.2220   0.27475   0.27201  -0.1985  0.0379  1.0000  -1.8710   0.0000   0.0000   0.0000   0.3903
  16.700   1.2205   0.27717   0.27443  -0.1988  0.0375  1.0000  -1.8701   0.0000   0.0000   0.0000   0.3906
  16.800   1.2188   0.27953   0.27680  -0.1990  0.0372  1.0000  -1.8701   0.0000   0.0000   0.0000   0.3908
  16.900   1.2168   0.28184   0.27911  -0.1991  0.0368  1.0000  -1.8710   0.0000   0.0000   0.0000   0.3910
  17.000   1.2145   0.28407   0.28135  -0.1991  0.0365  1.0000  -1.8725   0.0000   0.0000   0.0000   0.3911
  17.100   1.2118   0.28622   0.28351  -0.1990  0.0362  1.0000  -1.8746   0.0000   0.0000   0.0000   0.3912
  17.200   1.2085   0.28825   0.28555  -0.1987  0.0359  1.0000  -1.8770   0.0000   0.0000   0.0000   0.3913
  17.300   1.2044   0.29012   0.28744  -0.1983  0.0356  1.0000  -1.8792   0.0000   0.0000   0.0000   0.3913
  17.400   1.1441   0.28379   0.28121  -0.1915  0.0357  1.0000  -1.7189   0.0000   0.0000   0.0000   0.3940
  17.500   1.1317   0.28320   0.28065  -0.1900  0.0355  1.0000  -1.6972   0.0000   0.0000   0.0000   0.3944
  17.600   1.1232   0.28308   0.28055  -0.1889  0.0353  1.0000  -1.6877   0.0000   0.0000   0.0000   0.3946
  17.700   1.1167   0.28321   0.28070  -0.1879  0.0350  1.0000  -1.6861   0.0000   0.0000   0.0000   0.3945
  17.800   1.1111   0.28345   0.28095  -0.1869  0.0347  1.0000  -1.6882   0.0000   0.0000   0.0000   0.3943
  17.900   1.1057   0.28379   0.28131  -0.1860  0.0344  1.0000  -1.6906   0.0000   0.0000   0.0000   0.3941
  18.000   1.1007   0.28431   0.28185  -0.1850  0.0340  1.0000  -1.6954   0.0000   0.0000   0.0000   0.3938
  18.100   1.0785   0.28710   0.28462  -0.1834  0.0328  1.0000  -1.5607   0.0000   0.0000   0.0000   0.3957


