xflr5 v6.61

 Calculated polar for: E61  (5.64%)

 1 1 Reynolds number fixed          Mach number fixed         

 xtrf =   1.000 (top)        1.000 (bottom)
 Mach =   0.000     Re =     0.625 e 6     Ncrit =   9.000

  alpha     CL        CD       CDp       Cm    Top Xtr Bot Xtr   Cpmin    Chinge    XCp    
 ------- -------- --------- --------- -------- ------- ------- -------- --------- ---------
 -10.000  -0.2647   0.12563   0.12345  -0.0451  0.9901  0.0036  -1.7265   0.0000   0.0000   0.0000   0.0715
  -9.900  -0.2588   0.12429   0.12211  -0.0462  0.9898  0.0037  -1.6692   0.0000   0.0000   0.0000   0.0633
  -9.800  -0.2528   0.12299   0.12082  -0.0473  0.9895  0.0038  -1.6164   0.0000   0.0000   0.0000   0.0545
  -9.700  -0.2468   0.12173   0.11955  -0.0484  0.9892  0.0039  -1.5682   0.0000   0.0000   0.0000   0.0451
  -9.600  -0.2409   0.12048   0.11830  -0.0496  0.9890  0.0040  -1.5245   0.0000   0.0000   0.0000   0.0351
  -9.500  -0.2385   0.11941   0.11724  -0.0497  0.9873  0.0040  -1.4945   0.0000   0.0000   0.0000   0.0327
  -9.400  -0.2348   0.11829   0.11612  -0.0502  0.9861  0.0042  -1.4640   0.0000   0.0000   0.0000   0.0272
  -9.300  -0.2304   0.11713   0.11496  -0.0509  0.9851  0.0043  -1.4356   0.0000   0.0000   0.0000   0.0199
  -9.200  -0.2257   0.11593   0.11376  -0.0518  0.9842  0.0044  -1.4138   0.0000   0.0000   0.0000   0.0113
  -9.100  -0.2208   0.11463   0.11242  -0.0528  0.9834  0.0044  -1.4097   0.0000   0.0000   0.0000   0.0016
  -9.000  -0.2156   0.11343   0.11123  -0.0537  0.9826  0.0045  -1.3799   0.0000   0.0000   0.0000  -0.0089
  -8.900  -0.2102   0.11223   0.11003  -0.0548  0.9819  0.0047  -1.3523   0.0000   0.0000   0.0000  -0.0206
  -8.800  -0.2046   0.11101   0.10881  -0.0559  0.9813  0.0049  -1.3267   0.0000   0.0000   0.0000  -0.0333
  -8.700  -0.1989   0.10978   0.10758  -0.0571  0.9807  0.0051  -1.3031   0.0000   0.0000   0.0000  -0.0474
  -8.600  -0.1929   0.10853   0.10633  -0.0583  0.9801  0.0054  -1.2811   0.0000   0.0000   0.0000  -0.0630
  -8.500  -0.1867   0.10727   0.10507  -0.0596  0.9796  0.0056  -1.2609   0.0000   0.0000   0.0000  -0.0802
  -8.400  -0.1803   0.10600   0.10380  -0.0609  0.9791  0.0059  -1.2421   0.0000   0.0000   0.0000  -0.0994
  -8.300  -0.1738   0.10472   0.10252  -0.0623  0.9786  0.0063  -1.2249   0.0000   0.0000   0.0000  -0.1206
  -8.200  -0.1670   0.10343   0.10123  -0.0638  0.9782  0.0066  -1.2090   0.0000   0.0000   0.0000  -0.1445
  -8.100  -0.1599   0.10210   0.09991  -0.0653  0.9778  0.0071  -1.1943   0.0000   0.0000   0.0000  -0.1718
  -8.000  -0.1524   0.10077   0.09857  -0.0670  0.9774  0.0076  -1.1809   0.0000   0.0000   0.0000  -0.2031
  -7.900  -0.1447   0.09944   0.09724  -0.0686  0.9771  0.0082  -1.1690   0.0000   0.0000   0.0000  -0.2388
  -7.800  -0.1365   0.09814   0.09594  -0.0704  0.9768  0.0089  -1.1593   0.0000   0.0000   0.0000  -0.2807
  -7.700  -0.1274   0.09699   0.09479  -0.0722  0.9764  0.0097  -1.1527   0.0000   0.0000   0.0000  -0.3335
  -7.600  -0.1335   0.09666   0.09448  -0.0698  0.9711  0.0099  -1.1583   0.0000   0.0000   0.0000  -0.2876
  -7.500  -0.1269   0.09610   0.09392  -0.0709  0.9693  0.0106  -1.1561   0.0000   0.0000   0.0000  -0.3243
  -7.400  -0.1201   0.09548   0.09330  -0.0723  0.9678  0.0109  -1.1520   0.0000   0.0000   0.0000  -0.3688
  -7.300  -0.1134   0.09465   0.09247  -0.0738  0.9665  0.0111  -1.1484   0.0000   0.0000   0.0000  -0.4181
  -7.200  -0.1066   0.09367   0.09150  -0.0753  0.9655  0.0112  -1.1456   0.0000   0.0000   0.0000  -0.4746
  -7.100  -0.0997   0.09258   0.09041  -0.0769  0.9645  0.0113  -1.1434   0.0000   0.0000   0.0000  -0.5412
  -7.000  -0.0925   0.09141   0.08924  -0.0785  0.9637  0.0113  -1.1393   0.0000   0.0000   0.0000  -0.6199
  -6.900  -0.0851   0.09020   0.08803  -0.0801  0.9629  0.0114  -1.1356   0.0000   0.0000   0.0000  -0.7132
  -6.800  -0.0777   0.08896   0.08679  -0.0817  0.9622  0.0114  -1.1325   0.0000   0.0000   0.0000  -0.8260
  -6.700  -0.0700   0.08767   0.08551  -0.0834  0.9615  0.0114  -1.1296   0.0000   0.0000   0.0000  -0.9690
  -6.600  -0.0617   0.08633   0.08416  -0.0853  0.9609  0.0114  -1.1264   0.0000   0.0000   0.0000  -1.1623
  -6.500  -0.0523   0.08485   0.08268  -0.0874  0.9604  0.0115  -1.1226   0.0000   0.0000   0.0000  -1.4580
  -6.400  -0.0643   0.08489   0.08275  -0.0834  0.9530  0.0115  -1.1322   0.0000   0.0000   0.0000  -1.0743
  -6.300  -0.0586   0.08362   0.08148  -0.0844  0.9507  0.0115  -1.1308   0.0000   0.0000   0.0000  -1.2212
  -6.200  -0.0511   0.08220   0.08006  -0.0860  0.9488  0.0115  -1.1286   0.0000   0.0000   0.0000  -1.4693
  -6.100  -0.0423   0.08069   0.07855  -0.0878  0.9474  0.0115  -1.1259   0.0000   0.0000   0.0000  -1.8668
  -6.000  -0.0334   0.07911   0.07697  -0.0898  0.9462  0.0115  -1.1246   0.0000   0.0000   0.0000  -2.4955
  -5.900  -0.0238   0.07749   0.07536  -0.0919  0.9452  0.0115  -1.1234   0.0000   0.0000   0.0000  -3.6916
  -5.800  -0.0136   0.07585   0.07371  -0.0941  0.9444  0.0115  -1.1222   0.0000   0.0000   0.0000  -6.7877
  -5.700  -0.0030   0.07417   0.07203  -0.0965  0.9436  0.0115  -1.1212   0.0000   0.0000   0.0000  -32.5261
  -5.600   0.0082   0.07246   0.07032  -0.0990  0.9429  0.0114  -1.1203   0.0000   0.0000   0.0000  12.5945
  -5.500   0.0198   0.07073   0.06858  -0.1017  0.9423  0.0114  -1.1198   0.0000   0.0000   0.0000   5.4857
  -5.400   0.0318   0.06898   0.06683  -0.1044  0.9417  0.0114  -1.1198   0.0000   0.0000   0.0000   3.5941
  -5.300   0.0442   0.06720   0.06504  -0.1072  0.9412  0.0114  -1.1204   0.0000   0.0000   0.0000   2.7159
  -5.200   0.0570   0.06540   0.06324  -0.1102  0.9407  0.0114  -1.1219   0.0000   0.0000   0.0000   2.2136
  -5.100   0.0702   0.06358   0.06141  -0.1132  0.9403  0.0113  -1.1246   0.0000   0.0000   0.0000   1.8886
  -5.000   0.0550   0.06386   0.06172  -0.1083  0.9311  0.0113  -1.1346   0.0000   0.0000   0.0000   2.2493
  -4.900   0.0641   0.06232   0.06018  -0.1102  0.9288  0.0113  -1.1395   0.0000   0.0000   0.0000   1.9959
  -4.800   0.0750   0.06062   0.05848  -0.1126  0.9272  0.0112  -1.1460   0.0000   0.0000   0.0000   1.7739
  -4.700   0.0871   0.05879   0.05664  -0.1153  0.9258  0.0112  -1.1558   0.0000   0.0000   0.0000   1.5932
  -4.600   0.1002   0.05679   0.05463  -0.1184  0.9247  0.0110  -1.1729   0.0000   0.0000   0.0000   1.4488
  -4.500   0.1138   0.05447   0.05230  -0.1220  0.9237  0.0107  -1.2068   0.0000   0.0000   0.0000   1.3364
  -4.400   0.1276   0.05201   0.04983  -0.1256  0.9227  0.0101  -1.2454   0.0000   0.0000   0.0000   1.2472
  -4.300   0.1444   0.04968   0.04748  -0.1299  0.9220  0.0096  -1.2778   0.0000   0.0000   0.0000   1.1607
  -4.200   0.1634   0.04739   0.04517  -0.1345  0.9213  0.0091  -1.3081   0.0000   0.0000   0.0000   1.0830
  -4.100   0.1841   0.04508   0.04284  -0.1394  0.9208  0.0089  -1.3387   0.0000   0.0000   0.0000   1.0161
  -4.000   0.2066   0.04271   0.04043  -0.1447  0.9203  0.0087  -1.3698   0.0000   0.0000   0.0000   0.9582
  -3.900   0.2305   0.04028   0.03797  -0.1501  0.9200  0.0088  -1.3993   0.0000   0.0000   0.0000   0.9083
  -3.800   0.2560   0.03785   0.03549  -0.1557  0.9197  0.0093  -1.4207   0.0000   0.0000   0.0000   0.8644
  -3.600   0.2930   0.03523   0.03275  -0.1623  0.9190  0.0183  -1.1118   0.0000   0.0000   0.0000   0.8092
  -3.500   0.3138   0.03380   0.03128  -0.1659  0.9187  0.0200  -1.0428   0.0000   0.0000   0.0000   0.7836
  -3.400   0.3364   0.03211   0.02953  -0.1700  0.9184  0.0207  -1.0382   0.0000   0.0000   0.0000   0.7598
  -3.300   0.3592   0.03039   0.02773  -0.1740  0.9181  0.0212  -1.0392   0.0000   0.0000   0.0000   0.7385
  -3.200   0.3819   0.02871   0.02598  -0.1778  0.9179  0.0217  -1.0406   0.0000   0.0000   0.0000   0.7193
  -3.100   0.4045   0.02710   0.02430  -0.1813  0.9176  0.0223  -1.0425   0.0000   0.0000   0.0000   0.7018
  -3.000   0.4268   0.02561   0.02271  -0.1846  0.9174  0.0230  -1.0436   0.0000   0.0000   0.0000   0.6859
  -2.900   0.4476   0.02437   0.02138  -0.1873  0.9172  0.0237  -1.0357   0.0000   0.0000   0.0000   0.6716
  -2.800   0.4668   0.02347   0.02042  -0.1894  0.9169  0.0246  -1.0151   0.0000   0.0000   0.0000   0.6586
  -2.700   0.4842   0.02302   0.01991  -0.1908  0.9165  0.0254  -0.9768   0.0000   0.0000   0.0000   0.6467
  -2.600   0.5021   0.02253   0.01934  -0.1923  0.9162  0.0259  -0.9402   0.0000   0.0000   0.0000   0.6356
  -2.500   0.5213   0.02172   0.01842  -0.1945  0.9159  0.0261  -0.9157   0.0000   0.0000   0.0000   0.6254
  -2.400   0.5409   0.02081   0.01741  -0.1967  0.9156  0.0263  -0.8944   0.0000   0.0000   0.0000   0.6159
  -2.300   0.5757   0.01613   0.01230  -0.2044  0.9163  0.0291  -1.0302   0.0000   0.0000   0.0000   0.6071
  -2.200   0.5927   0.01546   0.01159  -0.2062  0.9160  0.0309  -0.9584   0.0000   0.0000   0.0000   0.5998
  -2.100   0.6087   0.01508   0.01120  -0.2076  0.9155  0.0327  -0.8774   0.0000   0.0000   0.0000   0.5929
  -2.000   0.6104   0.01497   0.01109  -0.2057  0.9106  0.0337  -0.8429   0.0000   0.0000   0.0000   0.5886
  -1.900   0.6206   0.01472   0.01081  -0.2056  0.9078  0.0358  -0.7894   0.0000   0.0000   0.0000   0.5829
  -1.800   0.6332   0.01446   0.01051  -0.2060  0.9057  0.0389  -0.7362   0.0000   0.0000   0.0000   0.5768
  -1.500   0.6807   0.01283   0.00862  -0.2096  0.9015  0.0527  -0.6482   0.0000   0.0000   0.0000   0.5590
  -1.400   0.6943   0.01258   0.00841  -0.2104  0.8999  0.0570  -0.6549   0.0000   0.0000   0.0000   0.5540
  -1.100   0.7435   0.01160   0.00737  -0.2145  0.8963  0.0844  -0.6786   0.0000   0.0000   0.0000   0.5392
  -1.000   0.7601   0.01144   0.00724  -0.2158  0.8948  0.0930  -0.6867   0.0000   0.0000   0.0000   0.5345
  -0.900   0.7778   0.01135   0.00713  -0.2171  0.8934  0.0998  -0.6958   0.0000   0.0000   0.0000   0.5296
  -0.700   0.8257   0.00888   0.00403  -0.2214  0.8921  0.0507  -0.7171   0.0000   0.0000   0.0000   0.5183
  -0.600   0.8472   0.00806   0.00300  -0.2231  0.8910  0.0317  -0.7276   0.0000   0.0000   0.0000   0.5135
  -0.500   0.8644   0.00800   0.00291  -0.2243  0.8887  0.0280  -0.7372   0.0000   0.0000   0.0000   0.5096
  -0.400   0.8825   0.00778   0.00263  -0.2258  0.8865  0.0255  -0.7479   0.0000   0.0000   0.0000   0.5058
  -0.300   0.8915   0.00762   0.00242  -0.2252  0.8829  0.0242  -0.7540   0.0000   0.0000   0.0000   0.5025
  -0.200   0.9019   0.00751   0.00227  -0.2250  0.8789  0.0231  -0.7610   0.0000   0.0000   0.0000   0.4992
  -0.100   0.9144   0.00742   0.00212  -0.2253  0.8751  0.0220  -0.7695   0.0000   0.0000   0.0000   0.4960
   0.000   0.9278   0.00735   0.00200  -0.2257  0.8714  0.0212  -0.7790   0.0000   0.0000   0.0000   0.4928
   0.100   0.9418   0.00729   0.00189  -0.2263  0.8677  0.0205  -0.7889   0.0000   0.0000   0.0000   0.4897
   0.200   0.9563   0.00725   0.00179  -0.2270  0.8639  0.0200  -0.8002   0.0000   0.0000   0.0000   0.4867
   0.300   0.9709   0.00722   0.00170  -0.2277  0.8599  0.0198  -0.8117   0.0000   0.0000   0.0000   0.4838
   0.400   0.9859   0.00720   0.00164  -0.2285  0.8555  0.0200  -0.8233   0.0000   0.0000   0.0000   0.4809
   0.500   0.9964   0.00720   0.00162  -0.2284  0.8519  0.0210  -0.8337   0.0000   0.0000   0.0000   0.4782
   0.600   1.0060   0.00721   0.00164  -0.2280  0.8479  0.0235  -0.8435   0.0000   0.0000   0.0000   0.4755
   0.700   1.0183   0.00707   0.00171  -0.2284  0.8436  0.1032  -0.8554   0.0000   0.0000   0.0000   0.4730
   0.800   1.0315   0.00689   0.00180  -0.2291  0.8392  0.2191  -0.8689   0.0000   0.0000   0.0000   0.4707
   0.900   1.0447   0.00676   0.00187  -0.2297  0.8346  0.3165  -0.8826   0.0000   0.0000   0.0000   0.4684
   1.000   1.0580   0.00667   0.00193  -0.2303  0.8295  0.4011  -0.8964   0.0000   0.0000   0.0000   0.4661
   1.100   1.0718   0.00654   0.00201  -0.2311  0.8241  0.5158  -0.9106   0.0000   0.0000   0.0000   0.4639
   1.200   1.0861   0.00627   0.00215  -0.2320  0.8185  0.7299  -0.9272   0.0000   0.0000   0.0000   0.4618
   1.300   1.0863   0.00592   0.00218  -0.2293  0.8152  1.0000  -0.9337   0.0000   0.0000   0.0000   0.4592
   1.400   1.0963   0.00596   0.00221  -0.2291  0.8112  1.0000  -0.9476   0.0000   0.0000   0.0000   0.4570
   1.500   1.1067   0.00599   0.00223  -0.2289  0.8068  1.0000  -0.9636   0.0000   0.0000   0.0000   0.4547
   1.600   1.1173   0.00604   0.00226  -0.2288  0.8021  1.0000  -0.9798   0.0000   0.0000   0.0000   0.4526
   1.700   1.1282   0.00608   0.00228  -0.2288  0.7970  1.0000  -0.9962   0.0000   0.0000   0.0000   0.4504
   1.800   1.1391   0.00614   0.00230  -0.2287  0.7913  1.0000  -1.0128   0.0000   0.0000   0.0000   0.4483
   1.900   1.1499   0.00622   0.00232  -0.2286  0.7846  1.0000  -1.0294   0.0000   0.0000   0.0000   0.4463
   2.000   1.1606   0.00628   0.00235  -0.2286  0.7787  1.0000  -1.0487   0.0000   0.0000   0.0000   0.4442
   2.100   1.1705   0.00632   0.00239  -0.2283  0.7748  1.0000  -1.0673   0.0000   0.0000   0.0000   0.4422
   2.200   1.1805   0.00636   0.00243  -0.2281  0.7699  1.0000  -1.0890   0.0000   0.0000   0.0000   0.4403
   2.300   1.1907   0.00641   0.00246  -0.2279  0.7644  1.0000  -1.1117   0.0000   0.0000   0.0000   0.4383
   2.400   1.2009   0.00647   0.00250  -0.2277  0.7586  1.0000  -1.1347   0.0000   0.0000   0.0000   0.4364
   2.500   1.2113   0.00653   0.00253  -0.2275  0.7531  1.0000  -1.1578   0.0000   0.0000   0.0000   0.4346
   2.600   1.2213   0.00662   0.00258  -0.2273  0.7467  1.0000  -1.1807   0.0000   0.0000   0.0000   0.4327
   2.700   1.2315   0.00671   0.00263  -0.2271  0.7390  1.0000  -1.2039   0.0000   0.0000   0.0000   0.4309
   2.800   1.2415   0.00675   0.00267  -0.2268  0.7352  1.0000  -1.2279   0.0000   0.0000   0.0000   0.4291
   2.900   1.2514   0.00679   0.00272  -0.2266  0.7298  1.0000  -1.2561   0.0000   0.0000   0.0000   0.4273
   3.000   1.2611   0.00685   0.00277  -0.2263  0.7225  1.0000  -1.2853   0.0000   0.0000   0.0000   0.4256
   3.100   1.2707   0.00693   0.00281  -0.2260  0.7142  1.0000  -1.3207   0.0000   0.0000   0.0000   0.4238
   3.200   1.2798   0.00705   0.00287  -0.2255  0.7049  1.0000  -1.3554   0.0000   0.0000   0.0000   0.4221
   3.300   1.2882   0.00717   0.00293  -0.2249  0.6928  1.0000  -1.3892   0.0000   0.0000   0.0000   0.4204
   3.400   1.2947   0.00735   0.00299  -0.2238  0.6665  1.0000  -1.4201   0.0000   0.0000   0.0000   0.4185
   3.500   1.2981   0.00768   0.00310  -0.2221  0.6259  1.0000  -1.4460   0.0000   0.0000   0.0000   0.4166
   3.600   1.2987   0.00820   0.00328  -0.2198  0.5703  1.0000  -1.4669   0.0000   0.0000   0.0000   0.4146
   3.700   1.2980   0.00886   0.00354  -0.2174  0.5046  1.0000  -1.4856   0.0000   0.0000   0.0000   0.4127
   3.800   1.2991   0.00954   0.00385  -0.2154  0.4394  1.0000  -1.5072   0.0000   0.0000   0.0000   0.4110
   3.900   1.3035   0.01004   0.00409  -0.2142  0.3952  1.0000  -1.5343   0.0000   0.0000   0.0000   0.4093
   4.000   1.3085   0.01053   0.00434  -0.2131  0.3543  1.0000  -1.5641   0.0000   0.0000   0.0000   0.4078
   4.100   1.3137   0.01102   0.00460  -0.2120  0.3140  1.0000  -1.6021   0.0000   0.0000   0.0000   0.4062
   4.200   1.3191   0.01152   0.00485  -0.2111  0.2752  1.0000  -1.6406   0.0000   0.0000   0.0000   0.4047
   4.500   1.3132   0.01541   0.00727  -0.2038  0.0066  1.0000  -2.1172   0.0000   0.0000   0.0000   0.3995
   4.600   1.3225   0.01556   0.00751  -0.2034  0.0065  1.0000  -2.2702   0.0000   0.0000   0.0000   0.3980
   4.700   1.3315   0.01574   0.00773  -0.2029  0.0065  1.0000  -2.3848   0.0000   0.0000   0.0000   0.3964
   4.800   1.3404   0.01592   0.00794  -0.2024  0.0065  1.0000  -2.4868   0.0000   0.0000   0.0000   0.3949
   4.900   1.3492   0.01611   0.00816  -0.2019  0.0065  1.0000  -2.5830   0.0000   0.0000   0.0000   0.3934
   5.000   1.3579   0.01631   0.00839  -0.2013  0.0065  1.0000  -2.6755   0.0000   0.0000   0.0000   0.3919
   5.100   1.3664   0.01653   0.00864  -0.2008  0.0065  1.0000  -2.7644   0.0000   0.0000   0.0000   0.3904
   5.200   1.3747   0.01676   0.00892  -0.2001  0.0066  1.0000  -2.8500   0.0000   0.0000   0.0000   0.3890
   5.300   1.3827   0.01702   0.00922  -0.1994  0.0068  1.0000  -2.9318   0.0000   0.0000   0.0000   0.3875
   5.400   1.3903   0.01730   0.00955  -0.1986  0.0069  1.0000  -3.0091   0.0000   0.0000   0.0000   0.3860
   5.500   1.3975   0.01761   0.00993  -0.1977  0.0071  1.0000  -3.0802   0.0000   0.0000   0.0000   0.3845
   5.600   1.4041   0.01798   0.01036  -0.1967  0.0074  1.0000  -3.1438   0.0000   0.0000   0.0000   0.3829
   5.700   1.4100   0.01841   0.01086  -0.1955  0.0077  1.0000  -3.1969   0.0000   0.0000   0.0000   0.3814
   5.800   1.4145   0.01895   0.01149  -0.1941  0.0080  1.0000  -3.2345   0.0000   0.0000   0.0000   0.3798
   5.900   1.4167   0.01972   0.01236  -0.1921  0.0083  1.0000  -3.2436   0.0000   0.0000   0.0000   0.3780
   6.000   1.4218   0.02019   0.01288  -0.1908  0.0088  1.0000  -3.2979   0.0000   0.0000   0.0000   0.3765
   6.100   1.4323   0.02014   0.01281  -0.1906  0.0096  1.0000  -3.4281   0.0000   0.0000   0.0000   0.3752
   6.200   1.4404   0.02031   0.01300  -0.1899  0.0107  1.0000  -3.5252   0.0000   0.0000   0.0000   0.3738
   6.300   1.4450   0.02085   0.01365  -0.1882  0.0124  1.0000  -3.5395   0.0000   0.0000   0.0000   0.3721
   6.400   1.4462   0.02187   0.01484  -0.1858  0.0146  1.0000  -3.4865   0.0000   0.0000   0.0000   0.3701
   6.500   1.4478   0.02351   0.01663  -0.1834  0.0171  1.0000  -3.4176   0.0000   0.0000   0.0000   0.3682
   8.200   1.5886   0.03776   0.03171  -0.1748  0.0060  1.0000  -5.2894   0.0000   0.0000   0.0000   0.3490
   8.300   1.5935   0.03842   0.03243  -0.1737  0.0056  1.0000  -5.4185   0.0000   0.0000   0.0000   0.3479
   8.400   1.5977   0.03912   0.03319  -0.1726  0.0052  1.0000  -5.5460   0.0000   0.0000   0.0000   0.3467
   8.500   1.6010   0.03983   0.03396  -0.1714  0.0049  1.0000  -5.6709   0.0000   0.0000   0.0000   0.3456
   8.600   1.6035   0.04054   0.03473  -0.1700  0.0046  1.0000  -5.7922   0.0000   0.0000   0.0000   0.3444
   8.700   1.6053   0.04125   0.03549  -0.1685  0.0044  1.0000  -5.9123   0.0000   0.0000   0.0000   0.3433
   8.800   1.6064   0.04197   0.03627  -0.1670  0.0042  1.0000  -6.0274   0.0000   0.0000   0.0000   0.3421
   8.900   1.6066   0.04272   0.03708  -0.1653  0.0041  1.0000  -6.1324   0.0000   0.0000   0.0000   0.3408
   9.000   1.6065   0.04350   0.03793  -0.1636  0.0039  1.0000  -6.2352   0.0000   0.0000   0.0000   0.3396
   9.100   1.6061   0.04432   0.03881  -0.1619  0.0038  1.0000  -6.3363   0.0000   0.0000   0.0000   0.3384
   9.200   1.6109   0.04613   0.04103  -0.1606  0.0040  1.0000  -6.2900   0.0000   0.0000   0.0000   0.3372
   9.300   1.6104   0.04721   0.04220  -0.1589  0.0040  1.0000  -6.3520   0.0000   0.0000   0.0000   0.3360
   9.400   1.6091   0.04824   0.04332  -0.1571  0.0039  1.0000  -6.4187   0.0000   0.0000   0.0000   0.3348
   9.500   1.6074   0.04927   0.04444  -0.1552  0.0038  1.0000  -6.4868   0.0000   0.0000   0.0000   0.3336
   9.600   1.6053   0.05032   0.04557  -0.1534  0.0037  1.0000  -6.5551   0.0000   0.0000   0.0000   0.3325
   9.700   1.6027   0.05139   0.04673  -0.1516  0.0036  1.0000  -6.6212   0.0000   0.0000   0.0000   0.3314
   9.800   1.5992   0.05248   0.04790  -0.1497  0.0036  1.0000  -6.6795   0.0000   0.0000   0.0000   0.3302
   9.900   1.5953   0.05360   0.04911  -0.1478  0.0035  1.0000  -6.7335   0.0000   0.0000   0.0000   0.3291
  10.000   1.5913   0.05478   0.05037  -0.1460  0.0034  1.0000  -6.7861   0.0000   0.0000   0.0000   0.3281
  10.100   1.5868   0.05603   0.05170  -0.1442  0.0034  1.0000  -6.8323   0.0000   0.0000   0.0000   0.3270
  10.200   1.5821   0.05734   0.05309  -0.1425  0.0033  1.0000  -6.8746   0.0000   0.0000   0.0000   0.3260
  10.300   1.5773   0.05872   0.05456  -0.1408  0.0033  1.0000  -6.9132   0.0000   0.0000   0.0000   0.3251
  10.400   1.5719   0.06016   0.05609  -0.1392  0.0032  1.0000  -6.9432   0.0000   0.0000   0.0000   0.3242
  10.500   1.5662   0.06168   0.05769  -0.1377  0.0032  1.0000  -6.9674   0.0000   0.0000   0.0000   0.3234
  10.600   1.5604   0.06327   0.05937  -0.1362  0.0031  1.0000  -6.9861   0.0000   0.0000   0.0000   0.3226
  10.700   1.5539   0.06492   0.06111  -0.1348  0.0031  1.0000  -6.9959   0.0000   0.0000   0.0000   0.3219
  10.800   1.5471   0.06664   0.06291  -0.1334  0.0030  1.0000  -7.0002   0.0000   0.0000   0.0000   0.3212
  10.900   1.5402   0.06842   0.06478  -0.1322  0.0030  1.0000  -6.9992   0.0000   0.0000   0.0000   0.3206
  11.000   1.5326   0.07024   0.06669  -0.1310  0.0030  1.0000  -6.9921   0.0000   0.0000   0.0000   0.3201
  11.100   1.5251   0.07211   0.06864  -0.1300  0.0029  1.0000  -6.9817   0.0000   0.0000   0.0000   0.3197
  11.200   1.5174   0.07401   0.07064  -0.1291  0.0029  1.0000  -6.9678   0.0000   0.0000   0.0000   0.3194
  11.300   1.5094   0.07593   0.07264  -0.1284  0.0029  1.0000  -6.9515   0.0000   0.0000   0.0000   0.3192
  11.400   1.5016   0.07790   0.07470  -0.1277  0.0029  1.0000  -6.9331   0.0000   0.0000   0.0000   0.3190
  11.500   1.4935   0.07988   0.07676  -0.1273  0.0029  1.0000  -6.9138   0.0000   0.0000   0.0000   0.3190
  11.600   1.4855   0.08182   0.07878  -0.1269  0.0029  1.0000  -6.8936   0.0000   0.0000   0.0000   0.3190
  11.700   1.4776   0.08366   0.08070  -0.1267  0.0028  1.0000  -6.8727   0.0000   0.0000   0.0000   0.3191
  11.800   1.4695   0.08554   0.08265  -0.1266  0.0028  1.0000  -6.8525   0.0000   0.0000   0.0000   0.3194
  11.900   1.4618   0.08753   0.08472  -0.1267  0.0028  1.0000  -6.8307   0.0000   0.0000   0.0000   0.3197
  12.000   1.4542   0.08961   0.08687  -0.1270  0.0028  1.0000  -6.8086   0.0000   0.0000   0.0000   0.3201
  12.100   1.4466   0.09178   0.08911  -0.1274  0.0028  1.0000  -6.7868   0.0000   0.0000   0.0000   0.3207
  12.200   1.4395   0.09407   0.09148  -0.1280  0.0028  1.0000  -6.7630   0.0000   0.0000   0.0000   0.3214
  12.300   1.4323   0.09645   0.09393  -0.1288  0.0028  1.0000  -6.7403   0.0000   0.0000   0.0000   0.3222
  12.400   1.4253   0.09892   0.09647  -0.1297  0.0028  1.0000  -6.7164   0.0000   0.0000   0.0000   0.3231
  12.500   1.4186   0.10148   0.09910  -0.1307  0.0028  1.0000  -6.6913   0.0000   0.0000   0.0000   0.3240
  12.600   1.4118   0.10416   0.10184  -0.1320  0.0028  1.0000  -6.6666   0.0000   0.0000   0.0000   0.3252
  12.700   1.4054   0.10691   0.10466  -0.1334  0.0029  1.0000  -6.6397   0.0000   0.0000   0.0000   0.3264
  12.800   1.3990   0.10978   0.10759  -0.1349  0.0029  1.0000  -6.6120   0.0000   0.0000   0.0000   0.3277
  12.900   1.3929   0.11276   0.11063  -0.1366  0.0029  1.0000  -6.5821   0.0000   0.0000   0.0000   0.3292
  13.000   1.3869   0.11584   0.11377  -0.1384  0.0029  1.0000  -6.5495   0.0000   0.0000   0.0000   0.3308
  13.100   1.3810   0.11908   0.11707  -0.1404  0.0029  1.0000  -6.5134   0.0000   0.0000   0.0000   0.3325
  13.200   1.3752   0.12242   0.12047  -0.1425  0.0029  1.0000  -6.4729   0.0000   0.0000   0.0000   0.3342
  13.300   1.3695   0.12598   0.12409  -0.1448  0.0030  1.0000  -6.4251   0.0000   0.0000   0.0000   0.3362
  13.400   1.3638   0.12968   0.12784  -0.1472  0.0030  1.0000  -6.3697   0.0000   0.0000   0.0000   0.3383
  13.500   1.3580   0.13368   0.13190  -0.1499  0.0030  1.0000  -6.3003   0.0000   0.0000   0.0000   0.3406
  13.600   1.3520   0.13798   0.13627  -0.1528  0.0031  1.0000  -6.2125   0.0000   0.0000   0.0000   0.3430
  13.700   1.3457   0.14269   0.14104  -0.1558  0.0032  1.0000  -6.0987   0.0000   0.0000   0.0000   0.3457
  13.800   1.3383   0.14826   0.14668  -0.1594  0.0033  1.0000  -5.9295   0.0000   0.0000   0.0000   0.3490
  13.900   1.3292   0.15514   0.15363  -0.1636  0.0034  1.0000  -5.6732   0.0000   0.0000   0.0000   0.3529
  14.000   1.3194   0.16312   0.16167  -0.1680  0.0035  1.0000  -5.3468   0.0000   0.0000   0.0000   0.3572
  14.100   1.3123   0.16998   0.16855  -0.1714  0.0036  1.0000  -5.1145   0.0000   0.0000   0.0000   0.3606
  14.400   1.2987   0.18629   0.18468  -0.1783  0.0035  1.0000  -4.6417   0.0000   0.0000   0.0000   0.3672
  14.500   1.2942   0.19178   0.19016  -0.1805  0.0036  1.0000  -4.4349   0.0000   0.0000   0.0000   0.3692
  14.600   1.2906   0.19653   0.19491  -0.1823  0.0036  1.0000  -4.2872   0.0000   0.0000   0.0000   0.3710
  14.700   1.2876   0.20089   0.19927  -0.1841  0.0037  1.0000  -4.1706   0.0000   0.0000   0.0000   0.3726
  14.800   1.2850   0.20499   0.20337  -0.1857  0.0037  1.0000  -4.0743   0.0000   0.0000   0.0000   0.3740
  14.900   1.2828   0.20890   0.20728  -0.1872  0.0037  1.0000  -3.9926   0.0000   0.0000   0.0000   0.3754
  15.000   1.2808   0.21267   0.21105  -0.1887  0.0037  1.0000  -3.9222   0.0000   0.0000   0.0000   0.3766
  15.100   1.2790   0.21632   0.21470  -0.1901  0.0037  1.0000  -3.8609   0.0000   0.0000   0.0000   0.3777
  15.200   1.2774   0.21988   0.21826  -0.1914  0.0036  1.0000  -3.8070   0.0000   0.0000   0.0000   0.3788
  15.300   1.2759   0.22335   0.22173  -0.1926  0.0036  1.0000  -3.7594   0.0000   0.0000   0.0000   0.3799
  15.400   1.2745   0.22676   0.22514  -0.1939  0.0036  1.0000  -3.7174   0.0000   0.0000   0.0000   0.3809
  15.500   1.2732   0.23011   0.22849  -0.1950  0.0035  1.0000  -3.6801   0.0000   0.0000   0.0000   0.3818
  15.600   1.2719   0.23340   0.23178  -0.1962  0.0035  1.0000  -3.6469   0.0000   0.0000   0.0000   0.3827
  15.700   1.2707   0.23665   0.23503  -0.1973  0.0035  1.0000  -3.6174   0.0000   0.0000   0.0000   0.3835
  15.800   1.2695   0.23986   0.23824  -0.1983  0.0034  1.0000  -3.5911   0.0000   0.0000   0.0000   0.3844
  15.900   1.2682   0.24303   0.24141  -0.1993  0.0034  1.0000  -3.5673   0.0000   0.0000   0.0000   0.3852
  16.000   1.2670   0.24617   0.24455  -0.2003  0.0033  1.0000  -3.5457   0.0000   0.0000   0.0000   0.3859
  16.100   1.2657   0.24929   0.24767  -0.2012  0.0033  1.0000  -3.5256   0.0000   0.0000   0.0000   0.3867
  16.200   1.2643   0.25239   0.25077  -0.2022  0.0032  1.0000  -3.5064   0.0000   0.0000   0.0000   0.3874
  16.300   1.2629   0.25548   0.25387  -0.2030  0.0032  1.0000  -3.4873   0.0000   0.0000   0.0000   0.3881
  16.400   1.2613   0.25856   0.25695  -0.2039  0.0031  1.0000  -3.4675   0.0000   0.0000   0.0000   0.3888
  16.500   1.2595   0.26165   0.26004  -0.2047  0.0031  1.0000  -3.4461   0.0000   0.0000   0.0000   0.3895
  16.600   1.2575   0.26475   0.26315  -0.2055  0.0030  1.0000  -3.4221   0.0000   0.0000   0.0000   0.3902
  16.700   1.2553   0.26787   0.26627  -0.2062  0.0030  1.0000  -3.3943   0.0000   0.0000   0.0000   0.3909
  16.800   1.2527   0.27102   0.26942  -0.2069  0.0029  1.0000  -3.3614   0.0000   0.0000   0.0000   0.3917
  16.900   1.2497   0.27419   0.27259  -0.2075  0.0029  1.0000  -3.3223   0.0000   0.0000   0.0000   0.3924
  17.000   1.2462   0.27739   0.27580  -0.2081  0.0028  1.0000  -3.2759   0.0000   0.0000   0.0000   0.3932
  17.100   1.2420   0.28060   0.27901  -0.2086  0.0028  1.0000  -3.2213   0.0000   0.0000   0.0000   0.3940
  17.200   1.2370   0.28379   0.28221  -0.2090  0.0027  1.0000  -3.1583   0.0000   0.0000   0.0000   0.3948
  17.300   1.2309   0.28688   0.28531  -0.2092  0.0027  1.0000  -3.0875   0.0000   0.0000   0.0000   0.3957
  17.400   1.2233   0.28974   0.28818  -0.2092  0.0026  1.0000  -3.0120   0.0000   0.0000   0.0000   0.3966


