xflr5 v6.61

 Calculated polar for: E61  (5.64%)

 1 1 Reynolds number fixed          Mach number fixed         

 xtrf =   1.000 (top)        1.000 (bottom)
 Mach =   0.000     Re =     0.563 e 6     Ncrit =   9.000

  alpha     CL        CD       CDp       Cm    Top Xtr Bot Xtr   Cpmin    Chinge    XCp    
 ------- -------- --------- --------- -------- ------- ------- -------- --------- ---------
 -10.000  -0.2788   0.12807   0.12580  -0.0397  0.9913  0.0040  -1.4850   0.0000   0.0000   0.0000   0.1002
  -9.900  -0.2730   0.12677   0.12451  -0.0409  0.9908  0.0042  -1.4512   0.0000   0.0000   0.0000   0.0926
  -9.800  -0.2672   0.12548   0.12321  -0.0422  0.9904  0.0043  -1.4202   0.0000   0.0000   0.0000   0.0846
  -9.700  -0.2614   0.12419   0.12193  -0.0434  0.9900  0.0044  -1.3920   0.0000   0.0000   0.0000   0.0762
  -9.600  -0.2556   0.12291   0.12065  -0.0446  0.9896  0.0046  -1.3663   0.0000   0.0000   0.0000   0.0675
  -9.500  -0.2497   0.12163   0.11936  -0.0459  0.9893  0.0047  -1.3429   0.0000   0.0000   0.0000   0.0581
  -9.400  -0.2437   0.12034   0.11808  -0.0472  0.9890  0.0049  -1.3221   0.0000   0.0000   0.0000   0.0480
  -9.300  -0.2400   0.11916   0.11689  -0.0477  0.9878  0.0050  -1.3078   0.0000   0.0000   0.0000   0.0427
  -9.200  -0.2367   0.11790   0.11559  -0.0483  0.9864  0.0050  -1.3138   0.0000   0.0000   0.0000   0.0377
  -9.100  -0.2323   0.11671   0.11440  -0.0490  0.9852  0.0052  -1.2958   0.0000   0.0000   0.0000   0.0303
  -9.000  -0.2275   0.11550   0.11319  -0.0500  0.9843  0.0054  -1.2786   0.0000   0.0000   0.0000   0.0216
  -8.900  -0.2224   0.11426   0.11197  -0.0510  0.9833  0.0056  -1.2623   0.0000   0.0000   0.0000   0.0119
  -8.800  -0.2171   0.11302   0.11072  -0.0520  0.9825  0.0059  -1.2471   0.0000   0.0000   0.0000   0.0012
  -8.700  -0.2115   0.11176   0.10946  -0.0532  0.9817  0.0062  -1.2328   0.0000   0.0000   0.0000  -0.0107
  -8.600  -0.2057   0.11048   0.10818  -0.0544  0.9810  0.0065  -1.2195   0.0000   0.0000   0.0000  -0.0239
  -8.500  -0.1997   0.10919   0.10689  -0.0556  0.9804  0.0068  -1.2070   0.0000   0.0000   0.0000  -0.0387
  -8.400  -0.1934   0.10788   0.10559  -0.0570  0.9798  0.0072  -1.1956   0.0000   0.0000   0.0000  -0.0550
  -8.300  -0.1869   0.10658   0.10428  -0.0584  0.9792  0.0077  -1.1853   0.0000   0.0000   0.0000  -0.0731
  -8.200  -0.1800   0.10528   0.10298  -0.0598  0.9787  0.0082  -1.1761   0.0000   0.0000   0.0000  -0.0935
  -8.100  -0.1728   0.10398   0.10169  -0.0614  0.9782  0.0088  -1.1686   0.0000   0.0000   0.0000  -0.1169
  -8.000  -0.1647   0.10276   0.10046  -0.0631  0.9778  0.0095  -1.1637   0.0000   0.0000   0.0000  -0.1453
  -7.900  -0.1549   0.10184   0.09955  -0.0651  0.9773  0.0103  -1.1623   0.0000   0.0000   0.0000  -0.1834
  -7.800  -0.1449   0.10118   0.09888  -0.0675  0.9769  0.0108  -1.1596   0.0000   0.0000   0.0000  -0.2296
  -7.700  -0.1358   0.10033   0.09804  -0.0697  0.9764  0.0111  -1.1560   0.0000   0.0000   0.0000  -0.2781
  -7.600  -0.1412   0.09995   0.09767  -0.0676  0.9712  0.0111  -1.1612   0.0000   0.0000   0.0000  -0.2426
  -7.500  -0.1365   0.09908   0.09680  -0.0685  0.9694  0.0112  -1.1607   0.0000   0.0000   0.0000  -0.2660
  -7.400  -0.1311   0.09810   0.09582  -0.0697  0.9679  0.0113  -1.1602   0.0000   0.0000   0.0000  -0.2965
  -7.300  -0.1251   0.09701   0.09474  -0.0710  0.9666  0.0113  -1.1574   0.0000   0.0000   0.0000  -0.3330
  -7.200  -0.1187   0.09586   0.09359  -0.0724  0.9656  0.0114  -1.1546   0.0000   0.0000   0.0000  -0.3758
  -7.100  -0.1120   0.09465   0.09238  -0.0738  0.9646  0.0114  -1.1521   0.0000   0.0000   0.0000  -0.4262
  -7.000  -0.1051   0.09341   0.09115  -0.0754  0.9637  0.0114  -1.1499   0.0000   0.0000   0.0000  -0.4853
  -6.900  -0.0979   0.09215   0.08988  -0.0769  0.9629  0.0114  -1.1475   0.0000   0.0000   0.0000  -0.5553
  -6.800  -0.0905   0.09086   0.08859  -0.0786  0.9622  0.0115  -1.1451   0.0000   0.0000   0.0000  -0.6386
  -6.700  -0.0829   0.08953   0.08727  -0.0803  0.9615  0.0115  -1.1428   0.0000   0.0000   0.0000  -0.7411
  -6.600  -0.0746   0.08814   0.08588  -0.0821  0.9609  0.0115  -1.1403   0.0000   0.0000   0.0000  -0.8769
  -6.500  -0.0649   0.08662   0.08435  -0.0843  0.9603  0.0115  -1.1370   0.0000   0.0000   0.0000  -1.0777
  -6.400  -0.0770   0.08666   0.08442  -0.0804  0.9528  0.0115  -1.1466   0.0000   0.0000   0.0000  -0.8169
  -6.300  -0.0711   0.08535   0.08311  -0.0815  0.9505  0.0115  -1.1455   0.0000   0.0000   0.0000  -0.9208
  -6.200  -0.0634   0.08387   0.08163  -0.0830  0.9487  0.0115  -1.1437   0.0000   0.0000   0.0000  -1.0874
  -6.100  -0.0550   0.08229   0.08005  -0.0848  0.9473  0.0115  -1.1423   0.0000   0.0000   0.0000  -1.3234
  -6.000  -0.0460   0.08068   0.07844  -0.0867  0.9461  0.0115  -1.1407   0.0000   0.0000   0.0000  -1.6751
  -5.900  -0.0364   0.07905   0.07681  -0.0888  0.9451  0.0115  -1.1393   0.0000   0.0000   0.0000  -2.2386
  -5.800  -0.0263   0.07739   0.07515  -0.0911  0.9442  0.0115  -1.1378   0.0000   0.0000   0.0000  -3.2831
  -5.700  -0.0156   0.07570   0.07346  -0.0934  0.9434  0.0115  -1.1365   0.0000   0.0000   0.0000  -5.8354
  -5.600  -0.0045   0.07398   0.07174  -0.0959  0.9427  0.0115  -1.1353   0.0000   0.0000   0.0000  -21.6474
  -5.500   0.0072   0.07223   0.06999  -0.0986  0.9421  0.0115  -1.1343   0.0000   0.0000   0.0000  14.2566
  -5.400   0.0192   0.07047   0.06822  -0.1013  0.9415  0.0115  -1.1337   0.0000   0.0000   0.0000   5.6198
  -5.300   0.0317   0.06868   0.06643  -0.1041  0.9410  0.0114  -1.1337   0.0000   0.0000   0.0000   3.5907
  -5.200   0.0446   0.06687   0.06461  -0.1071  0.9405  0.0114  -1.1343   0.0000   0.0000   0.0000   2.6914
  -5.100   0.0346   0.06678   0.06454  -0.1037  0.9332  0.0114  -1.1429   0.0000   0.0000   0.0000   3.2911
  -5.000   0.0403   0.06550   0.06326  -0.1046  0.9299  0.0114  -1.1467   0.0000   0.0000   0.0000   2.8862
  -4.900   0.0500   0.06391   0.06167  -0.1066  0.9280  0.0114  -1.1501   0.0000   0.0000   0.0000   2.4154
  -4.800   0.0611   0.06221   0.05997  -0.1090  0.9264  0.0113  -1.1545   0.0000   0.0000   0.0000   2.0607
  -4.700   0.0733   0.06041   0.05816  -0.1118  0.9251  0.0113  -1.1607   0.0000   0.0000   0.0000   1.7963
  -4.600   0.0865   0.05850   0.05624  -0.1148  0.9241  0.0112  -1.1705   0.0000   0.0000   0.0000   1.5959
  -4.500   0.1003   0.05643   0.05417  -0.1181  0.9231  0.0111  -1.1878   0.0000   0.0000   0.0000   1.4428
  -4.400   0.1151   0.05404   0.05177  -0.1219  0.9222  0.0107  -1.2229   0.0000   0.0000   0.0000   1.3228
  -4.300   0.1303   0.05158   0.04929  -0.1258  0.9215  0.0102  -1.2586   0.0000   0.0000   0.0000   1.2279
  -4.200   0.1479   0.04924   0.04693  -0.1302  0.9208  0.0098  -1.2876   0.0000   0.0000   0.0000   1.1407
  -4.100   0.1678   0.04693   0.04459  -0.1349  0.9203  0.0095  -1.3147   0.0000   0.0000   0.0000   1.0635
  -4.000   0.1895   0.04459   0.04223  -0.1400  0.9198  0.0093  -1.3419   0.0000   0.0000   0.0000   0.9973
  -3.500   0.3008   0.03648   0.03387  -0.1614  0.9183  0.0248  -1.0202   0.0000   0.0000   0.0000   0.7915
  -3.400   0.3212   0.03562   0.03296  -0.1641  0.9180  0.0255  -0.9823   0.0000   0.0000   0.0000   0.7655
  -3.300   0.3421   0.03423   0.03151  -0.1674  0.9177  0.0257  -0.9722   0.0000   0.0000   0.0000   0.7436
  -3.200   0.3632   0.03277   0.02999  -0.1707  0.9174  0.0259  -0.9650   0.0000   0.0000   0.0000   0.7240
  -3.100   0.3842   0.03130   0.02845  -0.1740  0.9171  0.0260  -0.9595   0.0000   0.0000   0.0000   0.7064
  -3.000   0.4053   0.02984   0.02692  -0.1772  0.9168  0.0261  -0.9548   0.0000   0.0000   0.0000   0.6905
  -2.900   0.4262   0.02841   0.02540  -0.1802  0.9166  0.0261  -0.9502   0.0000   0.0000   0.0000   0.6759
  -2.800   0.4471   0.02704   0.02394  -0.1832  0.9163  0.0262  -0.9446   0.0000   0.0000   0.0000   0.6627
  -2.700   0.4677   0.02573   0.02252  -0.1860  0.9161  0.0263  -0.9373   0.0000   0.0000   0.0000   0.6505
  -2.600   0.4881   0.02449   0.02118  -0.1888  0.9159  0.0263  -0.9271   0.0000   0.0000   0.0000   0.6392
  -0.700   0.8078   0.00965   0.00467  -0.2176  0.8939  0.0498  -0.7081   0.0000   0.0000   0.0000   0.5197
  -0.600   0.8304   0.00867   0.00349  -0.2196  0.8934  0.0322  -0.7190   0.0000   0.0000   0.0000   0.5147
  -0.500   0.8481   0.00855   0.00333  -0.2210  0.8919  0.0283  -0.7289   0.0000   0.0000   0.0000   0.5106
  -0.400   0.8655   0.00846   0.00322  -0.2222  0.8900  0.0261  -0.7392   0.0000   0.0000   0.0000   0.5067
  -0.300   0.8853   0.00804   0.00269  -0.2241  0.8884  0.0244  -0.7506   0.0000   0.0000   0.0000   0.5030
  -0.200   0.9024   0.00785   0.00244  -0.2254  0.8862  0.0231  -0.7609   0.0000   0.0000   0.0000   0.4995
  -0.100   0.9097   0.00782   0.00238  -0.2245  0.8821  0.0225  -0.7667   0.0000   0.0000   0.0000   0.4964
   0.000   0.9195   0.00777   0.00229  -0.2241  0.8780  0.0218  -0.7743   0.0000   0.0000   0.0000   0.4933
   0.100   0.9316   0.00772   0.00220  -0.2243  0.8742  0.0213  -0.7833   0.0000   0.0000   0.0000   0.4902
   0.200   0.9450   0.00767   0.00211  -0.2247  0.8706  0.0209  -0.7936   0.0000   0.0000   0.0000   0.4871
   0.300   0.9592   0.00762   0.00201  -0.2254  0.8670  0.0206  -0.8048   0.0000   0.0000   0.0000   0.4842
   0.400   0.9740   0.00758   0.00191  -0.2261  0.8633  0.0207  -0.8164   0.0000   0.0000   0.0000   0.4813
   0.500   0.9892   0.00754   0.00185  -0.2269  0.8595  0.0223  -0.8291   0.0000   0.0000   0.0000   0.4784
   0.600   1.0044   0.00751   0.00182  -0.2278  0.8555  0.0252  -0.8423   0.0000   0.0000   0.0000   0.4757
   0.700   1.0177   0.00727   0.00192  -0.2286  0.8520  0.1648  -0.8546   0.0000   0.0000   0.0000   0.4734
   0.800   1.0286   0.00713   0.00202  -0.2287  0.8481  0.2666  -0.8667   0.0000   0.0000   0.0000   0.4710
   0.900   1.0405   0.00700   0.00211  -0.2291  0.8439  0.3635  -0.8795   0.0000   0.0000   0.0000   0.4687
   1.000   1.0531   0.00688   0.00220  -0.2295  0.8394  0.4640  -0.8928   0.0000   0.0000   0.0000   0.4664
   1.100   1.0672   0.00663   0.00232  -0.2304  0.8349  0.6459  -0.9073   0.0000   0.0000   0.0000   0.4642
   1.200   1.0725   0.00623   0.00239  -0.2290  0.8298  0.8964  -0.9172   0.0000   0.0000   0.0000   0.4617
   1.400   1.0952   0.00624   0.00234  -0.2290  0.8188  1.0000  -0.9465   0.0000   0.0000   0.0000   0.4571
   1.500   1.1046   0.00628   0.00238  -0.2286  0.8154  1.0000  -0.9616   0.0000   0.0000   0.0000   0.4549
   1.600   1.1145   0.00631   0.00241  -0.2283  0.8114  1.0000  -0.9771   0.0000   0.0000   0.0000   0.4527
   1.700   1.1247   0.00635   0.00244  -0.2281  0.8070  1.0000  -0.9931   0.0000   0.0000   0.0000   0.4505
   1.800   1.1353   0.00639   0.00247  -0.2280  0.8022  1.0000  -1.0094   0.0000   0.0000   0.0000   0.4484
   1.900   1.1462   0.00644   0.00249  -0.2280  0.7969  1.0000  -1.0260   0.0000   0.0000   0.0000   0.4463
   2.000   1.1572   0.00650   0.00250  -0.2279  0.7909  1.0000  -1.0452   0.0000   0.0000   0.0000   0.4443
   2.100   1.1683   0.00657   0.00252  -0.2279  0.7841  1.0000  -1.0650   0.0000   0.0000   0.0000   0.4423
   2.200   1.1790   0.00664   0.00256  -0.2278  0.7785  1.0000  -1.0869   0.0000   0.0000   0.0000   0.4403
   2.300   1.1887   0.00667   0.00261  -0.2275  0.7745  1.0000  -1.1091   0.0000   0.0000   0.0000   0.4384
   2.400   1.1986   0.00671   0.00265  -0.2273  0.7695  1.0000  -1.1317   0.0000   0.0000   0.0000   0.4365
   2.500   1.2088   0.00676   0.00269  -0.2271  0.7641  1.0000  -1.1546   0.0000   0.0000   0.0000   0.4346
   2.600   1.2191   0.00682   0.00272  -0.2269  0.7587  1.0000  -1.1778   0.0000   0.0000   0.0000   0.4327
   2.700   1.2295   0.00689   0.00276  -0.2267  0.7529  1.0000  -1.2012   0.0000   0.0000   0.0000   0.4309
   2.800   1.2395   0.00698   0.00280  -0.2265  0.7459  1.0000  -1.2247   0.0000   0.0000   0.0000   0.4291
   2.900   1.2498   0.00707   0.00286  -0.2263  0.7383  1.0000  -1.2534   0.0000   0.0000   0.0000   0.4273
   3.000   1.2595   0.00711   0.00291  -0.2260  0.7340  1.0000  -1.2822   0.0000   0.0000   0.0000   0.4256
   3.100   1.2692   0.00716   0.00296  -0.2257  0.7277  1.0000  -1.3177   0.0000   0.0000   0.0000   0.4239
   3.200   1.2789   0.00722   0.00301  -0.2254  0.7200  1.0000  -1.3533   0.0000   0.0000   0.0000   0.4221
   3.300   1.2883   0.00731   0.00306  -0.2250  0.7114  1.0000  -1.3889   0.0000   0.0000   0.0000   0.4204
   3.400   1.2958   0.00749   0.00312  -0.2242  0.6946  1.0000  -1.4214   0.0000   0.0000   0.0000   0.4186
   3.500   1.3019   0.00767   0.00318  -0.2230  0.6668  1.0000  -1.4517   0.0000   0.0000   0.0000   0.4168
   3.600   1.3049   0.00801   0.00328  -0.2212  0.6244  1.0000  -1.4771   0.0000   0.0000   0.0000   0.4149
   3.700   1.3052   0.00853   0.00346  -0.2188  0.5692  1.0000  -1.4977   0.0000   0.0000   0.0000   0.4129
   3.800   1.3046   0.00918   0.00372  -0.2164  0.5065  1.0000  -1.5164   0.0000   0.0000   0.0000   0.4110
   3.900   1.3064   0.00978   0.00400  -0.2146  0.4495  1.0000  -1.5392   0.0000   0.0000   0.0000   0.4093
   4.000   1.3107   0.01027   0.00424  -0.2133  0.4091  1.0000  -1.5671   0.0000   0.0000   0.0000   0.4076
   4.100   1.3153   0.01077   0.00450  -0.2121  0.3675  1.0000  -1.6038   0.0000   0.0000   0.0000   0.4060
   4.200   1.3202   0.01127   0.00475  -0.2110  0.3277  1.0000  -1.6414   0.0000   0.0000   0.0000   0.4045
   4.500   1.3078   0.01571   0.00737  -0.2028  0.0071  1.0000  -2.0569   0.0000   0.0000   0.0000   0.3994
   4.600   1.3172   0.01587   0.00763  -0.2023  0.0069  1.0000  -2.2323   0.0000   0.0000   0.0000   0.3977
   4.700   1.3261   0.01606   0.00785  -0.2017  0.0069  1.0000  -2.3500   0.0000   0.0000   0.0000   0.3962
   4.800   1.3350   0.01625   0.00808  -0.2012  0.0068  1.0000  -2.4535   0.0000   0.0000   0.0000   0.3947
   4.900   1.3437   0.01644   0.00831  -0.2007  0.0068  1.0000  -2.5507   0.0000   0.0000   0.0000   0.3931
   5.000   1.3522   0.01665   0.00855  -0.2001  0.0068  1.0000  -2.6438   0.0000   0.0000   0.0000   0.3917
   5.100   1.3606   0.01687   0.00881  -0.1995  0.0068  1.0000  -2.7336   0.0000   0.0000   0.0000   0.3902
   5.200   1.3688   0.01710   0.00908  -0.1989  0.0068  1.0000  -2.8203   0.0000   0.0000   0.0000   0.3887
   5.300   1.3766   0.01736   0.00938  -0.1982  0.0069  1.0000  -2.9033   0.0000   0.0000   0.0000   0.3872
   5.400   1.3841   0.01764   0.00971  -0.1974  0.0070  1.0000  -2.9825   0.0000   0.0000   0.0000   0.3857
   5.500   1.3913   0.01794   0.01007  -0.1965  0.0072  1.0000  -3.0571   0.0000   0.0000   0.0000   0.3842
   5.600   1.3981   0.01829   0.01048  -0.1955  0.0074  1.0000  -3.1257   0.0000   0.0000   0.0000   0.3827
   5.700   1.4042   0.01869   0.01095  -0.1944  0.0076  1.0000  -3.1861   0.0000   0.0000   0.0000   0.3811
   5.800   1.4094   0.01917   0.01151  -0.1931  0.0078  1.0000  -3.2361   0.0000   0.0000   0.0000   0.3796
   5.900   1.4132   0.01978   0.01219  -0.1915  0.0081  1.0000  -3.2704   0.0000   0.0000   0.0000   0.3780
   6.000   1.4144   0.02063   0.01314  -0.1894  0.0083  1.0000  -3.2735   0.0000   0.0000   0.0000   0.3762
   6.100   1.4211   0.02093   0.01348  -0.1885  0.0088  1.0000  -3.3546   0.0000   0.0000   0.0000   0.3748
   6.200   1.4308   0.02095   0.01348  -0.1881  0.0095  1.0000  -3.4777   0.0000   0.0000   0.0000   0.3735
   6.300   1.4388   0.02113   0.01369  -0.1874  0.0104  1.0000  -3.5757   0.0000   0.0000   0.0000   0.3721
   6.400   1.4441   0.02161   0.01425  -0.1860  0.0118  1.0000  -3.6120   0.0000   0.0000   0.0000   0.3705
   6.500   1.4461   0.02256   0.01536  -0.1837  0.0138  1.0000  -3.5709   0.0000   0.0000   0.0000   0.3686
   6.600   1.4484   0.02393   0.01688  -0.1815  0.0161  1.0000  -3.5184   0.0000   0.0000   0.0000   0.3667
   6.700   1.4578   0.02520   0.01821  -0.1804  0.0208  1.0000  -3.4844   0.0000   0.0000   0.0000   0.3650
   8.200   1.5859   0.04239   0.03643  -0.1741  0.0080  1.0000  -4.9435   0.0000   0.0000   0.0000   0.3488
   8.300   1.5905   0.04159   0.03564  -0.1728  0.0074  1.0000  -5.1281   0.0000   0.0000   0.0000   0.3475
   8.400   1.5952   0.04183   0.03592  -0.1717  0.0069  1.0000  -5.2633   0.0000   0.0000   0.0000   0.3463
   8.500   1.5996   0.04240   0.03656  -0.1705  0.0064  1.0000  -5.3812   0.0000   0.0000   0.0000   0.3452
   8.600   1.6032   0.04313   0.03736  -0.1693  0.0060  1.0000  -5.4900   0.0000   0.0000   0.0000   0.3440
   8.700   1.6060   0.04392   0.03823  -0.1679  0.0056  1.0000  -5.5927   0.0000   0.0000   0.0000   0.3428
   8.800   1.6076   0.04474   0.03913  -0.1664  0.0054  1.0000  -5.6883   0.0000   0.0000   0.0000   0.3416
   8.900   1.6082   0.04556   0.04002  -0.1647  0.0051  1.0000  -5.7782   0.0000   0.0000   0.0000   0.3404
   9.000   1.6080   0.04638   0.04092  -0.1630  0.0049  1.0000  -5.8644   0.0000   0.0000   0.0000   0.3392
   9.100   1.6073   0.04722   0.04182  -0.1611  0.0047  1.0000  -5.9482   0.0000   0.0000   0.0000   0.3379
   9.200   1.6063   0.04807   0.04274  -0.1593  0.0046  1.0000  -6.0319   0.0000   0.0000   0.0000   0.3367
   9.300   1.6065   0.04988   0.04495  -0.1574  0.0048  1.0000  -5.9770   0.0000   0.0000   0.0000   0.3354
   9.400   1.6048   0.05118   0.04637  -0.1555  0.0048  1.0000  -5.9986   0.0000   0.0000   0.0000   0.3341
   9.500   1.6025   0.05235   0.04765  -0.1536  0.0047  1.0000  -6.0360   0.0000   0.0000   0.0000   0.3329
   9.600   1.5998   0.05350   0.04890  -0.1516  0.0047  1.0000  -6.0783   0.0000   0.0000   0.0000   0.3317
   9.700   1.5968   0.05466   0.05014  -0.1497  0.0046  1.0000  -6.1231   0.0000   0.0000   0.0000   0.3306
   9.800   1.5931   0.05581   0.05138  -0.1478  0.0045  1.0000  -6.1659   0.0000   0.0000   0.0000   0.3294
   9.900   1.5887   0.05695   0.05262  -0.1459  0.0044  1.0000  -6.2052   0.0000   0.0000   0.0000   0.3283
  10.000   1.5843   0.05814   0.05389  -0.1440  0.0044  1.0000  -6.2457   0.0000   0.0000   0.0000   0.3272
  10.100   1.5798   0.05937   0.05520  -0.1422  0.0043  1.0000  -6.2853   0.0000   0.0000   0.0000   0.3262
  10.200   1.5749   0.06063   0.05654  -0.1405  0.0042  1.0000  -6.3232   0.0000   0.0000   0.0000   0.3252
  10.300   1.5701   0.06193   0.05792  -0.1389  0.0042  1.0000  -6.3621   0.0000   0.0000   0.0000   0.3243
  10.400   1.5650   0.06327   0.05935  -0.1373  0.0041  1.0000  -6.3980   0.0000   0.0000   0.0000   0.3234
  10.500   1.5596   0.06465   0.06080  -0.1358  0.0041  1.0000  -6.4315   0.0000   0.0000   0.0000   0.3226
  10.600   1.5543   0.06607   0.06230  -0.1344  0.0040  1.0000  -6.4657   0.0000   0.0000   0.0000   0.3218
  10.700   1.5484   0.06755   0.06386  -0.1330  0.0040  1.0000  -6.4903   0.0000   0.0000   0.0000   0.3211
  10.800   1.5421   0.06909   0.06548  -0.1318  0.0039  1.0000  -6.5100   0.0000   0.0000   0.0000   0.3205
  10.900   1.5360   0.07067   0.06714  -0.1306  0.0039  1.0000  -6.5287   0.0000   0.0000   0.0000   0.3199
  11.000   1.5292   0.07230   0.06886  -0.1296  0.0039  1.0000  -6.5404   0.0000   0.0000   0.0000   0.3194
  11.100   1.5225   0.07397   0.07060  -0.1286  0.0038  1.0000  -6.5515   0.0000   0.0000   0.0000   0.3190
  11.200   1.5157   0.07568   0.07239  -0.1278  0.0038  1.0000  -6.5595   0.0000   0.0000   0.0000   0.3186
  11.300   1.5084   0.07745   0.07424  -0.1271  0.0038  1.0000  -6.5609   0.0000   0.0000   0.0000   0.3184
  11.400   1.5014   0.07924   0.07611  -0.1265  0.0038  1.0000  -6.5629   0.0000   0.0000   0.0000   0.3182
  11.500   1.4940   0.08109   0.07804  -0.1260  0.0037  1.0000  -6.5584   0.0000   0.0000   0.0000   0.3181
  11.600   1.4864   0.08296   0.07998  -0.1257  0.0037  1.0000  -6.5496   0.0000   0.0000   0.0000   0.3182
  11.700   1.4789   0.08473   0.08183  -0.1255  0.0037  1.0000  -6.5399   0.0000   0.0000   0.0000   0.3183
  11.800   1.4709   0.08659   0.08377  -0.1254  0.0037  1.0000  -6.5207   0.0000   0.0000   0.0000   0.3185
  11.900   1.4633   0.08855   0.08580  -0.1255  0.0037  1.0000  -6.5023   0.0000   0.0000   0.0000   0.3188
  12.000   1.4557   0.09061   0.08794  -0.1258  0.0037  1.0000  -6.4810   0.0000   0.0000   0.0000   0.3193
  12.100   1.4477   0.09284   0.09024  -0.1262  0.0037  1.0000  -6.4510   0.0000   0.0000   0.0000   0.3199
  12.200   1.4402   0.09515   0.09262  -0.1268  0.0037  1.0000  -6.4230   0.0000   0.0000   0.0000   0.3206
  12.300   1.4323   0.09766   0.09521  -0.1277  0.0037  1.0000  -6.3855   0.0000   0.0000   0.0000   0.3214
  12.400   1.4246   0.10029   0.09790  -0.1286  0.0037  1.0000  -6.3451   0.0000   0.0000   0.0000   0.3224
  12.500   1.4171   0.10303   0.10072  -0.1298  0.0037  1.0000  -6.3015   0.0000   0.0000   0.0000   0.3235
  12.600   1.4091   0.10601   0.10377  -0.1312  0.0038  1.0000  -6.2462   0.0000   0.0000   0.0000   0.3249
  12.700   1.4016   0.10907   0.10690  -0.1327  0.0038  1.0000  -6.1915   0.0000   0.0000   0.0000   0.3263
  12.800   1.3935   0.11243   0.11034  -0.1346  0.0038  1.0000  -6.1207   0.0000   0.0000   0.0000   0.3280
  12.900   1.3858   0.11589   0.11386  -0.1365  0.0038  1.0000  -6.0490   0.0000   0.0000   0.0000   0.3298
  13.000   1.3775   0.11973   0.11777  -0.1389  0.0039  1.0000  -5.9578   0.0000   0.0000   0.0000   0.3319
  13.100   1.3685   0.12405   0.12217  -0.1416  0.0040  1.0000  -5.8353   0.0000   0.0000   0.0000   0.3344
  13.200   1.3588   0.12891   0.12710  -0.1447  0.0041  1.0000  -5.6874   0.0000   0.0000   0.0000   0.3373
  13.300   1.3488   0.13427   0.13253  -0.1483  0.0042  1.0000  -5.5205   0.0000   0.0000   0.0000   0.3407
  13.400   1.3390   0.13999   0.13833  -0.1521  0.0043  1.0000  -5.3464   0.0000   0.0000   0.0000   0.3443
  13.500   1.3303   0.14581   0.14419  -0.1560  0.0044  1.0000  -5.1860   0.0000   0.0000   0.0000   0.3478
  13.600   1.3237   0.15108   0.14949  -0.1594  0.0043  1.0000  -5.0807   0.0000   0.0000   0.0000   0.3510
  13.700   1.3197   0.15527   0.15368  -0.1621  0.0042  1.0000  -5.0609   0.0000   0.0000   0.0000   0.3533
  13.800   1.3158   0.15957   0.15781  -0.1648  0.0041  1.0000  -5.0326   0.0000   0.0000   0.0000   0.3556
  13.900   1.2978   0.17478   0.17309  -0.1713  0.0049  1.0000  -4.2065   0.0000   0.0000   0.0000   0.3627
  14.000   1.2929   0.18020   0.17851  -0.1738  0.0051  1.0000  -4.0362   0.0000   0.0000   0.0000   0.3651
  14.100   1.2890   0.18492   0.18322  -0.1759  0.0052  1.0000  -3.9100   0.0000   0.0000   0.0000   0.3670
  14.200   1.2857   0.18928   0.18758  -0.1778  0.0053  1.0000  -3.8062   0.0000   0.0000   0.0000   0.3688
  14.300   1.2829   0.19341   0.19171  -0.1796  0.0053  1.0000  -3.7169   0.0000   0.0000   0.0000   0.3704
  14.400   1.2804   0.19737   0.19567  -0.1813  0.0053  1.0000  -3.6380   0.0000   0.0000   0.0000   0.3719
  14.500   1.2782   0.20121   0.19951  -0.1829  0.0054  1.0000  -3.5670   0.0000   0.0000   0.0000   0.3733
  14.600   1.2762   0.20494   0.20324  -0.1844  0.0053  1.0000  -3.5025   0.0000   0.0000   0.0000   0.3746
  14.700   1.2744   0.20859   0.20689  -0.1859  0.0053  1.0000  -3.4434   0.0000   0.0000   0.0000   0.3758
  14.800   1.2728   0.21217   0.21047  -0.1873  0.0053  1.0000  -3.3888   0.0000   0.0000   0.0000   0.3770
  14.900   1.2713   0.21569   0.21399  -0.1886  0.0053  1.0000  -3.3383   0.0000   0.0000   0.0000   0.3781
  15.000   1.2699   0.21916   0.21745  -0.1899  0.0052  1.0000  -3.2914   0.0000   0.0000   0.0000   0.3791
  15.100   1.2686   0.22257   0.22087  -0.1912  0.0052  1.0000  -3.2477   0.0000   0.0000   0.0000   0.3801
  15.200   1.2674   0.22595   0.22424  -0.1924  0.0051  1.0000  -3.2070   0.0000   0.0000   0.0000   0.3811
  15.300   1.2663   0.22928   0.22758  -0.1936  0.0051  1.0000  -3.1691   0.0000   0.0000   0.0000   0.3820
  15.400   1.2652   0.23258   0.23087  -0.1947  0.0050  1.0000  -3.1339   0.0000   0.0000   0.0000   0.3829
  15.500   1.2641   0.23584   0.23414  -0.1958  0.0049  1.0000  -3.1011   0.0000   0.0000   0.0000   0.3838
  15.600   1.2630   0.23907   0.23737  -0.1969  0.0048  1.0000  -3.0707   0.0000   0.0000   0.0000   0.3846
  15.700   1.2620   0.24227   0.24056  -0.1979  0.0048  1.0000  -3.0424   0.0000   0.0000   0.0000   0.3854
  15.800   1.2609   0.24544   0.24374  -0.1989  0.0047  1.0000  -3.0158   0.0000   0.0000   0.0000   0.3862
  15.900   1.2598   0.24858   0.24688  -0.1999  0.0046  1.0000  -2.9915   0.0000   0.0000   0.0000   0.3869
  16.000   1.2587   0.25169   0.24999  -0.2008  0.0045  1.0000  -2.9693   0.0000   0.0000   0.0000   0.3876
  16.100   1.2575   0.25476   0.25306  -0.2017  0.0044  1.0000  -2.9491   0.0000   0.0000   0.0000   0.3883
  16.200   1.2563   0.25780   0.25610  -0.2025  0.0044  1.0000  -2.9309   0.0000   0.0000   0.0000   0.3890
  16.300   1.2550   0.26080   0.25911  -0.2033  0.0043  1.0000  -2.9146   0.0000   0.0000   0.0000   0.3896
  16.400   1.2536   0.26377   0.26208  -0.2041  0.0042  1.0000  -2.9000   0.0000   0.0000   0.0000   0.3903
  16.500   1.2520   0.26670   0.26501  -0.2048  0.0041  1.0000  -2.8871   0.0000   0.0000   0.0000   0.3909
  16.600   1.2503   0.26959   0.26790  -0.2055  0.0040  1.0000  -2.8757   0.0000   0.0000   0.0000   0.3915
  16.700   1.2485   0.27244   0.27075  -0.2061  0.0040  1.0000  -2.8656   0.0000   0.0000   0.0000   0.3921
  16.800   1.2464   0.27524   0.27356  -0.2067  0.0039  1.0000  -2.8563   0.0000   0.0000   0.0000   0.3926
  16.900   1.2441   0.27800   0.27633  -0.2072  0.0038  1.0000  -2.8475   0.0000   0.0000   0.0000   0.3932
  17.000   1.2414   0.28071   0.27904  -0.2077  0.0037  1.0000  -2.8387   0.0000   0.0000   0.0000   0.3938
  17.100   1.2383   0.28335   0.28169  -0.2081  0.0037  1.0000  -2.8293   0.0000   0.0000   0.0000   0.3943
  17.200   1.2346   0.28592   0.28426  -0.2084  0.0036  1.0000  -2.8183   0.0000   0.0000   0.0000   0.3949
  17.300   1.2301   0.28839   0.28674  -0.2086  0.0036  1.0000  -2.8040   0.0000   0.0000   0.0000   0.3955
  17.400   1.2244   0.29072   0.28907  -0.2086  0.0035  1.0000  -2.7833   0.0000   0.0000   0.0000   0.3961


