xflr5 v6.61

 Calculated polar for: E61  (5.64%)

 1 1 Reynolds number fixed          Mach number fixed         

 xtrf =   1.000 (top)        1.000 (bottom)
 Mach =   0.000     Re =     0.100 e 6     Ncrit =   9.000

  alpha     CL        CD       CDp       Cm    Top Xtr Bot Xtr   Cpmin    Chinge    XCp    
 ------- -------- --------- --------- -------- ------- ------- -------- --------- ---------
 -10.000  -0.3448   0.15500   0.14990  -0.0294  1.0000  0.0263  -1.2765   0.0000   0.0000   0.0000   0.1608
  -9.900  -0.3444   0.15417   0.14909  -0.0292  1.0000  0.0263  -1.2796   0.0000   0.0000   0.0000   0.1613
  -9.800  -0.3442   0.15335   0.14829  -0.0290  1.0000  0.0263  -1.2828   0.0000   0.0000   0.0000   0.1619
  -9.700  -0.3439   0.15252   0.14749  -0.0288  1.0000  0.0263  -1.2860   0.0000   0.0000   0.0000   0.1625
  -9.600  -0.3438   0.15171   0.14669  -0.0285  1.0000  0.0263  -1.2893   0.0000   0.0000   0.0000   0.1632
  -9.500  -0.3438   0.15090   0.14590  -0.0283  1.0000  0.0263  -1.2926   0.0000   0.0000   0.0000   0.1639
  -9.400  -0.3438   0.15010   0.14512  -0.0280  1.0000  0.0264  -1.2960   0.0000   0.0000   0.0000   0.1648
  -9.300  -0.3439   0.14931   0.14435  -0.0277  1.0000  0.0264  -1.2994   0.0000   0.0000   0.0000   0.1657
  -9.200  -0.3441   0.14814   0.14327  -0.0275  1.0000  0.0264  -1.3075   0.0000   0.0000   0.0000   0.1666
  -9.100  -0.3442   0.14454   0.13968  -0.0274  1.0000  0.0267  -1.3388   0.0000   0.0000   0.0000   0.1669
  -9.000  -0.3383   0.13923   0.13436  -0.0269  1.0000  0.0272  -1.3216   0.0000   0.0000   0.0000   0.1668
  -8.900  -0.3310   0.13512   0.13025  -0.0262  1.0000  0.0277  -1.2786   0.0000   0.0000   0.0000   0.1670
  -8.800  -0.3279   0.13293   0.12807  -0.0256  1.0000  0.0280  -1.2550   0.0000   0.0000   0.0000   0.1680
  -8.700  -0.3260   0.13125   0.12640  -0.0251  1.0000  0.0282  -1.2375   0.0000   0.0000   0.0000   0.1691
  -8.600  -0.3246   0.12982   0.12499  -0.0246  1.0000  0.0285  -1.2233   0.0000   0.0000   0.0000   0.1703
  -8.500  -0.3236   0.12855   0.12373  -0.0241  1.0000  0.0287  -1.2112   0.0000   0.0000   0.0000   0.1716
  -8.400  -0.3229   0.12738   0.12258  -0.0236  1.0000  0.0290  -1.2004   0.0000   0.0000   0.0000   0.1730
  -8.300  -0.3217   0.12600   0.12110  -0.0230  1.0000  0.0295  -1.1792   0.0000   0.0000   0.0000   0.1746
  -8.200  -0.3216   0.12508   0.12020  -0.0226  1.0000  0.0297  -1.1740   0.0000   0.0000   0.0000   0.1760
  -8.100  -0.3217   0.12420   0.11934  -0.0221  1.0000  0.0299  -1.1696   0.0000   0.0000   0.0000   0.1775
  -8.000  -0.3220   0.12334   0.11851  -0.0216  1.0000  0.0301  -1.1658   0.0000   0.0000   0.0000   0.1791
  -7.900  -0.3223   0.12252   0.11770  -0.0212  1.0000  0.0303  -1.1625   0.0000   0.0000   0.0000   0.1807
  -7.800  -0.3228   0.12171   0.11692  -0.0207  1.0000  0.0304  -1.1597   0.0000   0.0000   0.0000   0.1823
  -7.700  -0.3234   0.12093   0.11616  -0.0202  1.0000  0.0306  -1.1574   0.0000   0.0000   0.0000   0.1840
  -7.600  -0.3240   0.12017   0.11542  -0.0197  1.0000  0.0308  -1.1555   0.0000   0.0000   0.0000   0.1857
  -7.500  -0.3248   0.11942   0.11469  -0.0192  1.0000  0.0310  -1.1539   0.0000   0.0000   0.0000   0.1875
  -7.400  -0.3257   0.11869   0.11399  -0.0187  1.0000  0.0312  -1.1527   0.0000   0.0000   0.0000   0.1893
  -7.300  -0.3267   0.11798   0.11330  -0.0181  1.0000  0.0314  -1.1519   0.0000   0.0000   0.0000   0.1912
  -7.200  -0.3278   0.11729   0.11263  -0.0176  1.0000  0.0316  -1.1514   0.0000   0.0000   0.0000   0.1932
  -7.100  -0.3291   0.11661   0.11198  -0.0170  1.0000  0.0317  -1.1512   0.0000   0.0000   0.0000   0.1951
  -7.000  -0.3305   0.11595   0.11134  -0.0164  1.0000  0.0319  -1.1513   0.0000   0.0000   0.0000   0.1972
  -6.900  -0.3320   0.11530   0.11072  -0.0158  1.0000  0.0321  -1.1517   0.0000   0.0000   0.0000   0.1993
  -6.800  -0.3336   0.11467   0.11011  -0.0152  1.0000  0.0323  -1.1524   0.0000   0.0000   0.0000   0.2014
  -6.700  -0.3354   0.11406   0.10952  -0.0146  1.0000  0.0324  -1.1533   0.0000   0.0000   0.0000   0.2036
  -6.600  -0.3373   0.11346   0.10895  -0.0139  1.0000  0.0326  -1.1546   0.0000   0.0000   0.0000   0.2059
  -6.500  -0.3394   0.11288   0.10839  -0.0133  1.0000  0.0328  -1.1562   0.0000   0.0000   0.0000   0.2082
  -6.400  -0.3417   0.11232   0.10786  -0.0126  1.0000  0.0330  -1.1581   0.0000   0.0000   0.0000   0.2106
  -6.300  -0.3442   0.11177   0.10734  -0.0118  1.0000  0.0331  -1.1602   0.0000   0.0000   0.0000   0.2131
  -6.200  -0.3469   0.11125   0.10684  -0.0111  1.0000  0.0333  -1.1627   0.0000   0.0000   0.0000   0.2156
  -6.100  -0.3497   0.11074   0.10636  -0.0103  1.0000  0.0334  -1.1655   0.0000   0.0000   0.0000   0.2182
  -6.000  -0.3528   0.11024   0.10589  -0.0094  1.0000  0.0336  -1.1686   0.0000   0.0000   0.0000   0.2209
  -5.900  -0.3559   0.10975   0.10542  -0.0086  1.0000  0.0337  -1.1719   0.0000   0.0000   0.0000   0.2235
  -5.800  -0.3589   0.10925   0.10494  -0.0078  1.0000  0.0339  -1.1751   0.0000   0.0000   0.0000   0.2260
  -5.700  -0.3614   0.10869   0.10441  -0.0072  1.0000  0.0341  -1.1779   0.0000   0.0000   0.0000   0.2280
  -5.600  -0.3630   0.10803   0.10378  -0.0067  1.0000  0.0343  -1.1799   0.0000   0.0000   0.0000   0.2293
  -5.500  -0.3642   0.10733   0.10310  -0.0064  1.0000  0.0345  -1.1815   0.0000   0.0000   0.0000   0.2303
  -5.400  -0.3652   0.10662   0.10240  -0.0062  1.0000  0.0347  -1.1831   0.0000   0.0000   0.0000   0.2311
  -5.300  -0.3660   0.10587   0.10168  -0.0060  1.0000  0.0349  -1.1846   0.0000   0.0000   0.0000   0.2316
  -5.200  -0.3665   0.10511   0.10094  -0.0059  1.0000  0.0352  -1.1859   0.0000   0.0000   0.0000   0.2320
  -5.100  -0.3667   0.10432   0.10017  -0.0058  1.0000  0.0354  -1.1872   0.0000   0.0000   0.0000   0.2322
  -5.000  -0.3667   0.10351   0.09938  -0.0058  1.0000  0.0357  -1.1883   0.0000   0.0000   0.0000   0.2321
  -4.900  -0.3664   0.10268   0.09856  -0.0060  1.0000  0.0360  -1.1894   0.0000   0.0000   0.0000   0.2318
  -4.800  -0.3658   0.10182   0.09772  -0.0061  1.0000  0.0363  -1.1903   0.0000   0.0000   0.0000   0.2313
  -4.700  -0.3649   0.10094   0.09686  -0.0064  1.0000  0.0366  -1.1911   0.0000   0.0000   0.0000   0.2306
  -4.600  -0.3636   0.10003   0.09597  -0.0067  1.0000  0.0370  -1.1918   0.0000   0.0000   0.0000   0.2295
  -4.500  -0.3620   0.09910   0.09505  -0.0072  1.0000  0.0374  -1.1924   0.0000   0.0000   0.0000   0.2282
  -4.400  -0.3599   0.09814   0.09411  -0.0077  1.0000  0.0377  -1.1929   0.0000   0.0000   0.0000   0.2266
  -4.300  -0.3576   0.09716   0.09315  -0.0084  1.0000  0.0382  -1.1934   0.0000   0.0000   0.0000   0.2246
  -4.200  -0.3547   0.09616   0.09216  -0.0091  1.0000  0.0386  -1.1939   0.0000   0.0000   0.0000   0.2223
  -4.100  -0.3513   0.09514   0.09115  -0.0100  1.0000  0.0391  -1.1945   0.0000   0.0000   0.0000   0.2195
  -4.000  -0.3473   0.09410   0.09011  -0.0111  1.0000  0.0397  -1.1952   0.0000   0.0000   0.0000   0.2161
  -3.900  -0.3428   0.09304   0.08906  -0.0123  1.0000  0.0403  -1.1961   0.0000   0.0000   0.0000   0.2121
  -3.800  -0.3373   0.09196   0.08800  -0.0138  1.0000  0.0409  -1.1977   0.0000   0.0000   0.0000   0.2072
  -3.700  -0.3306   0.09089   0.08693  -0.0156  1.0000  0.0417  -1.2004   0.0000   0.0000   0.0000   0.2008
  -3.600  -0.3220   0.08985   0.08589  -0.0180  1.0000  0.0425  -1.2054   0.0000   0.0000   0.0000   0.1921
  -3.500  -0.3094   0.08895   0.08498  -0.0217  1.0000  0.0436  -1.2159   0.0000   0.0000   0.0000   0.1778
  -3.400  -0.2445   0.08803   0.08392  -0.0400  0.9941  0.0459  -1.2446   0.0000   0.0000   0.0000   0.0834
  -3.300  -0.2160   0.08651   0.08234  -0.0468  0.9911  0.0463  -1.2392   0.0000   0.0000   0.0000   0.0300
  -3.200  -0.1858   0.08458   0.08034  -0.0537  0.9877  0.0466  -1.2326   0.0000   0.0000   0.0000  -0.0431
  -3.100  -0.1643   0.08276   0.07847  -0.0584  0.9846  0.0467  -1.2290   0.0000   0.0000   0.0000  -0.1099
  -3.000  -0.1578   0.07719   0.07297  -0.0615  0.9833  0.0480  -1.2794   0.0000   0.0000   0.0000  -0.1449
  -2.900  -0.1567   0.07472   0.07053  -0.0605  0.9815  0.0491  -1.2413   0.0000   0.0000   0.0000  -0.1409
  -2.800  -0.1519   0.07296   0.06880  -0.0598  0.9794  0.0504  -1.1886   0.0000   0.0000   0.0000  -0.1492
  -2.700  -0.1420   0.07143   0.06728  -0.0604  0.9774  0.0521  -1.1327   0.0000   0.0000   0.0000  -0.1814
  -2.600  -0.1285   0.06992   0.06576  -0.0622  0.9743  0.0542  -1.0866   0.0000   0.0000   0.0000  -0.2405
  -2.500  -0.1143   0.06843   0.06425  -0.0645  0.9710  0.0565  -1.0540   0.0000   0.0000   0.0000  -0.3209
  -2.400  -0.0942   0.06679   0.06258  -0.0683  0.9684  0.0597  -1.0248   0.0000   0.0000   0.0000  -0.4839
  -2.300  -0.0643   0.06496   0.06068  -0.0748  0.9661  0.0647  -1.0041   0.0000   0.0000   0.0000  -0.9262
  -1.900   0.0541   0.05647   0.05176  -0.0992  0.9607  0.1138  -0.8854   0.0000   0.0000   0.0000   2.0988
  -1.800   0.0668   0.05548   0.05075  -0.1003  0.9585  0.1175  -0.8095   0.0000   0.0000   0.0000   1.7639
  -1.700   0.0780   0.05458   0.04983  -0.1014  0.9557  0.1214  -0.7616   0.0000   0.0000   0.0000   1.5598
  -1.600   0.0973   0.05370   0.04888  -0.1043  0.9536  0.1279  -0.7380   0.0000   0.0000   0.0000   1.3299
  -1.500   0.1551   0.05238   0.04719  -0.1174  0.9526  0.1455  -0.7412   0.0000   0.0000   0.0000   1.0114
  -1.400   0.1630   0.05065   0.04553  -0.1176  0.9509  0.1485  -0.7098   0.0000   0.0000   0.0000   0.9756
  -1.300   0.1730   0.04957   0.04450  -0.1179  0.9492  0.1521  -0.6763   0.0000   0.0000   0.0000   0.9354
  -1.200   0.1856   0.04877   0.04370  -0.1187  0.9474  0.1570  -0.6432   0.0000   0.0000   0.0000   0.8931
  -1.100   0.2037   0.04812   0.04300  -0.1208  0.9459  0.1653  -0.6119   0.0000   0.0000   0.0000   0.8460
  -1.000   0.2442   0.04720   0.04183  -0.1288  0.9450  0.1903  -0.5900   0.0000   0.0000   0.0000   0.7799
  -0.900   0.2565   0.04593   0.04062  -0.1295  0.9438  0.1954  -0.5561   0.0000   0.0000   0.0000   0.7570
  -0.800   0.2724   0.04517   0.03988  -0.1308  0.9424  0.2032  -0.5218   0.0000   0.0000   0.0000   0.7318
  -0.700   0.3070   0.04506   0.03955  -0.1366  0.9414  0.2366  -0.4876   0.0000   0.0000   0.0000   0.6964
  -0.600   0.3225   0.04355   0.03811  -0.1379  0.9405  0.2430  -0.4564   0.0000   0.0000   0.0000   0.6788
  -0.400   0.4375   0.03767   0.03081  -0.1569  0.9417  0.0943  -0.6432   0.0000   0.0000   0.0000   0.6091
  -0.300   0.4695   0.03674   0.02928  -0.1601  0.9411  0.0744  -0.7063   0.0000   0.0000   0.0000   0.5912
  -0.200   0.4946   0.03554   0.02791  -0.1631  0.9407  0.0685  -0.6944   0.0000   0.0000   0.0000   0.5798
  -0.100   0.5203   0.03453   0.02664  -0.1660  0.9403  0.0643  -0.6868   0.0000   0.0000   0.0000   0.5690
   0.000   0.5443   0.03381   0.02567  -0.1684  0.9397  0.0606  -0.6775   0.0000   0.0000   0.0000   0.5593
   0.100   0.5480   0.03353   0.02532  -0.1673  0.9343  0.0592  -0.6747   0.0000   0.0000   0.0000   0.5550
   0.200   0.5626   0.03313   0.02477  -0.1680  0.9318  0.0571  -0.6655   0.0000   0.0000   0.0000   0.5482
   0.300   0.5779   0.03280   0.02431  -0.1689  0.9298  0.0553  -0.6510   0.0000   0.0000   0.0000   0.5416
   0.400   0.5937   0.03253   0.02393  -0.1698  0.9278  0.0539  -0.6309   0.0000   0.0000   0.0000   0.5353
   0.500   0.6101   0.03230   0.02361  -0.1708  0.9259  0.0529  -0.6044   0.0000   0.0000   0.0000   0.5291
   0.600   0.6275   0.03209   0.02334  -0.1720  0.9240  0.0523  -0.5986   0.0000   0.0000   0.0000   0.5232
   0.700   0.6460   0.03190   0.02308  -0.1734  0.9223  0.0522  -0.6102   0.0000   0.0000   0.0000   0.5174
   0.800   0.6653   0.03173   0.02282  -0.1750  0.9206  0.0526  -0.6233   0.0000   0.0000   0.0000   0.5118
   0.900   0.6852   0.03158   0.02259  -0.1766  0.9191  0.0540  -0.6367   0.0000   0.0000   0.0000   0.5065
   1.000   0.7053   0.03147   0.02238  -0.1782  0.9177  0.0567  -0.6505   0.0000   0.0000   0.0000   0.5013
   1.100   0.7253   0.03140   0.02221  -0.1798  0.9165  0.0617  -0.6643   0.0000   0.0000   0.0000   0.4964
   1.300   0.7401   0.03159   0.02241  -0.1788  0.9078  0.0860  -0.6771   0.0000   0.0000   0.0000   0.4899
   1.400   0.7582   0.03012   0.02275  -0.1805  0.9079  0.7821  -0.6919   0.0000   0.0000   0.0000   0.4863
   1.500   0.7607   0.03014   0.02279  -0.1790  0.9021  1.0000  -0.6960   0.0000   0.0000   0.0000   0.4834
   1.600   0.7743   0.03024   0.02278  -0.1795  0.8989  1.0000  -0.7074   0.0000   0.0000   0.0000   0.4798
   1.700   0.7898   0.03028   0.02273  -0.1803  0.8961  1.0000  -0.7205   0.0000   0.0000   0.0000   0.4761
   1.800   0.8068   0.03029   0.02265  -0.1813  0.8937  1.0000  -0.7361   0.0000   0.0000   0.0000   0.4725
   1.900   0.8246   0.03028   0.02257  -0.1825  0.8916  1.0000  -0.7524   0.0000   0.0000   0.0000   0.4690
   2.000   0.8433   0.03026   0.02266  -0.1838  0.8899  1.0000  -0.7693   0.0000   0.0000   0.0000   0.4655
   2.100   0.8625   0.03024   0.02261  -0.1852  0.8884  1.0000  -0.7868   0.0000   0.0000   0.0000   0.4622
   2.200   0.8821   0.03023   0.02257  -0.1867  0.8870  1.0000  -0.8057   0.0000   0.0000   0.0000   0.4590
   2.300   0.8700   0.03087   0.02323  -0.1831  0.8772  1.0000  -0.8005   0.0000   0.0000   0.0000   0.4577
   2.400   0.8790   0.03101   0.02337  -0.1829  0.8723  1.0000  -0.8121   0.0000   0.0000   0.0000   0.4551
   2.500   0.8923   0.03103   0.02338  -0.1833  0.8685  1.0000  -0.8274   0.0000   0.0000   0.0000   0.4524
   2.600   0.9080   0.03097   0.02330  -0.1840  0.8655  1.0000  -0.8446   0.0000   0.0000   0.0000   0.4495
   2.700   0.9252   0.03085   0.02318  -0.1850  0.8629  1.0000  -0.8655   0.0000   0.0000   0.0000   0.4467
   2.800   0.9438   0.03069   0.02300  -0.1862  0.8608  1.0000  -0.8882   0.0000   0.0000   0.0000   0.4439
   2.900   0.9632   0.03049   0.02281  -0.1875  0.8589  1.0000  -0.9117   0.0000   0.0000   0.0000   0.4412
   3.000   0.9826   0.03029   0.02261  -0.1888  0.8572  1.0000  -0.9354   0.0000   0.0000   0.0000   0.4385
   3.100   1.0029   0.03006   0.02238  -0.1902  0.8556  1.0000  -0.9624   0.0000   0.0000   0.0000   0.4359
   3.300   1.0010   0.03101   0.02337  -0.1865  0.8398  1.0000  -0.9755   0.0000   0.0000   0.0000   0.4323
   3.400   1.0145   0.03091   0.02329  -0.1868  0.8356  1.0000  -0.9973   0.0000   0.0000   0.0000   0.4300
   3.500   1.0309   0.03069   0.02309  -0.1875  0.8323  1.0000  -1.0248   0.0000   0.0000   0.0000   0.4276
   3.600   1.0488   0.03040   0.02283  -0.1884  0.8295  1.0000  -1.0562   0.0000   0.0000   0.0000   0.4253
   3.700   1.0675   0.03004   0.02250  -0.1894  0.8271  1.0000  -1.0889   0.0000   0.0000   0.0000   0.4229
   3.800   1.0878   0.02957   0.02206  -0.1905  0.8250  1.0000  -1.1239   0.0000   0.0000   0.0000   0.4206
   3.900   1.1092   0.02902   0.02155  -0.1918  0.8232  1.0000  -1.1607   0.0000   0.0000   0.0000   0.4182
   4.000   1.1312   0.02842   0.02100  -0.1932  0.8216  1.0000  -1.2046   0.0000   0.0000   0.0000   0.4160
   4.100   1.1535   0.02779   0.02042  -0.1946  0.8203  1.0000  -1.2595   0.0000   0.0000   0.0000   0.4138
   4.200   1.1771   0.02707   0.01976  -0.1962  0.8191  1.0000  -1.3198   0.0000   0.0000   0.0000   0.4116
   4.400   1.1648   0.02860   0.02135  -0.1907  0.7978  1.0000  -1.3317   0.0000   0.0000   0.0000   0.4084
   4.500   1.1832   0.02802   0.02083  -0.1913  0.7947  1.0000  -1.3833   0.0000   0.0000   0.0000   0.4063
   4.600   1.2033   0.02733   0.02021  -0.1922  0.7921  1.0000  -1.4384   0.0000   0.0000   0.0000   0.4042
   4.700   1.2259   0.02647   0.01942  -0.1934  0.7897  1.0000  -1.4987   0.0000   0.0000   0.0000   0.4021
   4.800   1.2505   0.02552   0.01855  -0.1949  0.7873  1.0000  -1.5693   0.0000   0.0000   0.0000   0.4000
   5.000   1.3267   0.01817   0.01027  -0.1918  0.5123  1.0000  -2.5519   0.0000   0.0000   0.0000   0.3883
   5.100   1.3240   0.01908   0.01055  -0.1889  0.4274  1.0000  -2.5918   0.0000   0.0000   0.0000   0.3863
   5.200   1.3188   0.02018   0.01105  -0.1859  0.3483  1.0000  -2.6184   0.0000   0.0000   0.0000   0.3844
   5.300   1.3166   0.02117   0.01158  -0.1836  0.2860  1.0000  -2.6536   0.0000   0.0000   0.0000   0.3827
   5.400   1.3161   0.02207   0.01212  -0.1816  0.2333  1.0000  -2.6920   0.0000   0.0000   0.0000   0.3812
   5.500   1.3163   0.02301   0.01268  -0.1798  0.1779  1.0000  -2.7293   0.0000   0.0000   0.0000   0.3796
   5.700   1.3096   0.02581   0.01429  -0.1754  0.0389  1.0000  -2.7776   0.0000   0.0000   0.0000   0.3767
   5.800   1.3145   0.02638   0.01481  -0.1742  0.0306  1.0000  -2.8285   0.0000   0.0000   0.0000   0.3752
   5.900   1.3205   0.02683   0.01527  -0.1732  0.0278  1.0000  -2.8865   0.0000   0.0000   0.0000   0.3737
   6.000   1.3265   0.02728   0.01575  -0.1722  0.0258  1.0000  -2.9467   0.0000   0.0000   0.0000   0.3722
   6.100   1.3324   0.02775   0.01625  -0.1712  0.0242  1.0000  -3.0074   0.0000   0.0000   0.0000   0.3707
   6.200   1.3380   0.02823   0.01679  -0.1701  0.0230  1.0000  -3.0666   0.0000   0.0000   0.0000   0.3693
   6.300   1.3435   0.02873   0.01735  -0.1690  0.0220  1.0000  -3.1243   0.0000   0.0000   0.0000   0.3678
   6.400   1.3488   0.02925   0.01797  -0.1679  0.0212  1.0000  -3.1802   0.0000   0.0000   0.0000   0.3663
   6.500   1.3536   0.02982   0.01862  -0.1667  0.0205  1.0000  -3.2335   0.0000   0.0000   0.0000   0.3649
   6.600   1.3579   0.03042   0.01932  -0.1655  0.0201  1.0000  -3.2836   0.0000   0.0000   0.0000   0.3634
   6.700   1.3616   0.03106   0.02007  -0.1641  0.0197  1.0000  -3.3311   0.0000   0.0000   0.0000   0.3620
   6.800   1.3648   0.03175   0.02086  -0.1627  0.0194  1.0000  -3.3757   0.0000   0.0000   0.0000   0.3605
   6.900   1.3674   0.03247   0.02169  -0.1612  0.0191  1.0000  -3.4175   0.0000   0.0000   0.0000   0.3591
   7.000   1.3695   0.03323   0.02255  -0.1597  0.0189  1.0000  -3.4575   0.0000   0.0000   0.0000   0.3576
   7.100   1.3713   0.03403   0.02344  -0.1582  0.0188  1.0000  -3.4960   0.0000   0.0000   0.0000   0.3562
   7.200   1.3730   0.03487   0.02436  -0.1566  0.0187  1.0000  -3.5339   0.0000   0.0000   0.0000   0.3548
   7.300   1.3749   0.03574   0.02531  -0.1551  0.0186  1.0000  -3.5722   0.0000   0.0000   0.0000   0.3534
   7.400   1.3772   0.03663   0.02622  -0.1537  0.0186  1.0000  -3.6122   0.0000   0.0000   0.0000   0.3520
   7.500   1.3805   0.03752   0.02717  -0.1524  0.0186  1.0000  -3.6574   0.0000   0.0000   0.0000   0.3507
   7.600   1.3847   0.03848   0.02818  -0.1513  0.0186  1.0000  -3.7035   0.0000   0.0000   0.0000   0.3494
   7.800   1.3978   0.04051   0.03036  -0.1496  0.0187  1.0000  -3.8115   0.0000   0.0000   0.0000   0.3469
   7.900   1.4070   0.04150   0.03140  -0.1491  0.0188  1.0000  -3.8781   0.0000   0.0000   0.0000   0.3457
   8.000   1.4177   0.04248   0.03243  -0.1489  0.0189  1.0000  -3.9520   0.0000   0.0000   0.0000   0.3445
   8.100   1.4292   0.04344   0.03343  -0.1487  0.0192  1.0000  -4.0308   0.0000   0.0000   0.0000   0.3434
   8.200   1.4410   0.04436   0.03441  -0.1485  0.0195  1.0000  -4.1114   0.0000   0.0000   0.0000   0.3423
   8.300   1.4532   0.04528   0.03540  -0.1484  0.0199  1.0000  -4.1921   0.0000   0.0000   0.0000   0.3412
   8.400   1.4667   0.04627   0.03649  -0.1484  0.0204  1.0000  -4.2695   0.0000   0.0000   0.0000   0.3401
   8.500   1.4835   0.04755   0.03794  -0.1487  0.0213  1.0000  -4.3335   0.0000   0.0000   0.0000   0.3390
   8.600   1.5085   0.04992   0.04064  -0.1500  0.0228  1.0000  -4.3589   0.0000   0.0000   0.0000   0.3380
   8.700   1.5274   0.05283   0.04392  -0.1505  0.0245  1.0000  -4.3448   0.0000   0.0000   0.0000   0.3370
   8.800   1.5358   0.05523   0.04660  -0.1497  0.0257  1.0000  -4.3268   0.0000   0.0000   0.0000   0.3357
   8.900   1.5402   0.05743   0.04905  -0.1484  0.0267  1.0000  -4.3131   0.0000   0.0000   0.0000   0.3345
   9.000   1.5425   0.05955   0.05140  -0.1470  0.0276  1.0000  -4.3015   0.0000   0.0000   0.0000   0.3333
   9.100   1.5431   0.06164   0.05369  -0.1455  0.0284  1.0000  -4.2907   0.0000   0.0000   0.0000   0.3322
   9.200   1.5424   0.06371   0.05595  -0.1439  0.0292  1.0000  -4.2796   0.0000   0.0000   0.0000   0.3310
   9.300   1.5401   0.06574   0.05815  -0.1421  0.0298  1.0000  -4.2675   0.0000   0.0000   0.0000   0.3299
   9.400   1.5366   0.06778   0.06035  -0.1403  0.0304  1.0000  -4.2535   0.0000   0.0000   0.0000   0.3288
   9.500   1.5322   0.06989   0.06260  -0.1384  0.0309  1.0000  -4.2366   0.0000   0.0000   0.0000   0.3277
   9.600   1.5270   0.07215   0.06501  -0.1367  0.0314  1.0000  -4.2152   0.0000   0.0000   0.0000   0.3267
   9.700   1.5212   0.07497   0.06796  -0.1351  0.0320  1.0000  -4.1815   0.0000   0.0000   0.0000   0.3259
   9.900   1.5309   0.07558   0.06906  -0.1311  0.0380  1.0000  -4.1495   0.0000   0.0000   0.0000   0.3224
  10.000   1.5207   0.07721   0.07089  -0.1287  0.0386  1.0000  -4.1038   0.0000   0.0000   0.0000   0.3213
  10.100   1.5107   0.07892   0.07277  -0.1265  0.0392  1.0000  -4.0620   0.0000   0.0000   0.0000   0.3203
  10.200   1.5008   0.08067   0.07468  -0.1245  0.0397  1.0000  -4.0241   0.0000   0.0000   0.0000   0.3194
  10.300   1.4911   0.08248   0.07663  -0.1228  0.0403  1.0000  -3.9885   0.0000   0.0000   0.0000   0.3187
  10.400   1.4816   0.08438   0.07867  -0.1212  0.0408  1.0000  -3.9539   0.0000   0.0000   0.0000   0.3180
  10.500   1.4722   0.08630   0.08072  -0.1199  0.0412  1.0000  -3.9219   0.0000   0.0000   0.0000   0.3175
  10.600   1.4628   0.08826   0.08280  -0.1187  0.0416  1.0000  -3.8918   0.0000   0.0000   0.0000   0.3171
  10.700   1.4533   0.09022   0.08487  -0.1177  0.0420  1.0000  -3.8637   0.0000   0.0000   0.0000   0.3168
  10.800   1.4439   0.09221   0.08697  -0.1169  0.0423  1.0000  -3.8365   0.0000   0.0000   0.0000   0.3166
  10.900   1.4345   0.09422   0.08908  -0.1163  0.0425  1.0000  -3.8104   0.0000   0.0000   0.0000   0.3165
  11.000   1.4251   0.09626   0.09121  -0.1159  0.0426  1.0000  -3.7844   0.0000   0.0000   0.0000   0.3166
  11.100   1.4156   0.09831   0.09336  -0.1157  0.0427  1.0000  -3.7592   0.0000   0.0000   0.0000   0.3168
  11.200   1.4063   0.10041   0.09555  -0.1156  0.0428  1.0000  -3.7336   0.0000   0.0000   0.0000   0.3172
  11.300   1.3969   0.10253   0.09775  -0.1157  0.0428  1.0000  -3.7084   0.0000   0.0000   0.0000   0.3177
  11.400   1.3876   0.10469   0.10000  -0.1161  0.0427  1.0000  -3.6826   0.0000   0.0000   0.0000   0.3183
  11.500   1.3783   0.10680   0.10218  -0.1166  0.0426  1.0000  -3.6573   0.0000   0.0000   0.0000   0.3191
  11.600   1.3692   0.10896   0.10442  -0.1173  0.0424  1.0000  -3.6311   0.0000   0.0000   0.0000   0.3200
  11.700   1.3602   0.11120   0.10673  -0.1182  0.0422  1.0000  -3.6049   0.0000   0.0000   0.0000   0.3211
  11.800   1.3513   0.11359   0.10919  -0.1193  0.0420  1.0000  -3.5770   0.0000   0.0000   0.0000   0.3224
  11.900   1.3426   0.11609   0.11175  -0.1207  0.0417  1.0000  -3.5489   0.0000   0.0000   0.0000   0.3238
  12.000   1.3342   0.11875   0.11447  -0.1222  0.0414  1.0000  -3.5189   0.0000   0.0000   0.0000   0.3254
  12.100   1.3259   0.12154   0.11732  -0.1240  0.0410  1.0000  -3.4882   0.0000   0.0000   0.0000   0.3271
  12.200   1.3179   0.12449   0.12032  -0.1259  0.0407  1.0000  -3.4552   0.0000   0.0000   0.0000   0.3290
  12.300   1.3102   0.12760   0.12347  -0.1280  0.0404  1.0000  -3.4206   0.0000   0.0000   0.0000   0.3310
  12.400   1.3028   0.13088   0.12680  -0.1302  0.0400  1.0000  -3.3832   0.0000   0.0000   0.0000   0.3332
  12.500   1.2957   0.13437   0.13033  -0.1327  0.0397  1.0000  -3.3418   0.0000   0.0000   0.0000   0.3355
  12.600   1.2889   0.13808   0.13407  -0.1353  0.0394  1.0000  -3.2959   0.0000   0.0000   0.0000   0.3379
  12.700   1.2824   0.14202   0.13804  -0.1380  0.0392  1.0000  -3.2441   0.0000   0.0000   0.0000   0.3405
  12.800   1.2762   0.14621   0.14226  -0.1408  0.0390  1.0000  -3.1847   0.0000   0.0000   0.0000   0.3432
  12.900   1.2703   0.15070   0.14676  -0.1438  0.0389  1.0000  -3.1159   0.0000   0.0000   0.0000   0.3460
  13.000   1.2646   0.15564   0.15172  -0.1469  0.0389  1.0000  -3.0319   0.0000   0.0000   0.0000   0.3489
  13.100   1.2593   0.16072   0.15679  -0.1500  0.0391  1.0000  -2.9385   0.0000   0.0000   0.0000   0.3518
  13.200   1.2542   0.16561   0.16168  -0.1528  0.0396  1.0000  -2.8453   0.0000   0.0000   0.0000   0.3544
  13.300   1.2495   0.17028   0.16635  -0.1554  0.0403  1.0000  -2.7558   0.0000   0.0000   0.0000   0.3569
  13.400   1.2453   0.17472   0.17078  -0.1577  0.0412  1.0000  -2.6731   0.0000   0.0000   0.0000   0.3591
  13.500   1.2418   0.17886   0.17491  -0.1597  0.0425  1.0000  -2.6005   0.0000   0.0000   0.0000   0.3610
  13.600   1.2391   0.18266   0.17870  -0.1613  0.0441  1.0000  -2.5420   0.0000   0.0000   0.0000   0.3625
  13.700   1.2373   0.18603   0.18207  -0.1624  0.0462  1.0000  -2.5033   0.0000   0.0000   0.0000   0.3634
  13.800   1.2287   0.19578   0.19184  -0.1680  0.0624  1.0000  -2.1843   0.0000   0.0000   0.0000   0.3691
  14.200   1.2276   0.21003   0.20613  -0.1732  0.0801  1.0000  -2.0043   0.0000   0.0000   0.0000   0.3731
  14.300   1.2272   0.21281   0.20891  -0.1743  0.0800  1.0000  -1.9890   0.0000   0.0000   0.0000   0.3738
  14.400   1.2270   0.21552   0.21162  -0.1752  0.0798  1.0000  -1.9771   0.0000   0.0000   0.0000   0.3745
  14.500   1.2271   0.21817   0.21427  -0.1760  0.0796  1.0000  -1.9685   0.0000   0.0000   0.0000   0.3750
  14.600   1.2274   0.22077   0.21687  -0.1768  0.0793  1.0000  -1.9628   0.0000   0.0000   0.0000   0.3754
  14.700   1.2280   0.22334   0.21944  -0.1774  0.0789  1.0000  -1.9598   0.0000   0.0000   0.0000   0.3757
  14.800   1.2288   0.22587   0.22197  -0.1779  0.0785  1.0000  -1.9595   0.0000   0.0000   0.0000   0.3759
  14.900   1.2297   0.22840   0.22450  -0.1784  0.0781  1.0000  -1.9615   0.0000   0.0000   0.0000   0.3760
  15.000   1.2309   0.23092   0.22702  -0.1787  0.0777  1.0000  -1.9661   0.0000   0.0000   0.0000   0.3760
  15.100   1.2323   0.23346   0.22957  -0.1790  0.0773  1.0000  -1.9732   0.0000   0.0000   0.0000   0.3758
  15.200   1.2338   0.23603   0.23214  -0.1791  0.0768  1.0000  -1.9825   0.0000   0.0000   0.0000   0.3756
  15.300   1.2354   0.23868   0.23480  -0.1792  0.0764  1.0000  -1.9936   0.0000   0.0000   0.0000   0.3753
  15.400   1.2373   0.24147   0.23760  -0.1791  0.0759  1.0000  -2.0081   0.0000   0.0000   0.0000   0.3748
  15.500   1.2395   0.24459   0.24073  -0.1786  0.0753  1.0000  -2.0273   0.0000   0.0000   0.0000   0.3740
  15.600   1.2317   0.25403   0.25012  -0.1784  0.0735  1.0000  -1.9780   0.0000   0.0000   0.0000   0.3747
  15.700   1.2308   0.25674   0.25284  -0.1795  0.0734  1.0000  -1.9609   0.0000   0.0000   0.0000   0.3755
  15.800   1.2299   0.25940   0.25550  -0.1805  0.0733  1.0000  -1.9437   0.0000   0.0000   0.0000   0.3763
  15.900   1.2289   0.26201   0.25810  -0.1815  0.0733  1.0000  -1.9264   0.0000   0.0000   0.0000   0.3771
  16.000   1.2278   0.26454   0.26064  -0.1825  0.0732  1.0000  -1.9089   0.0000   0.0000   0.0000   0.3779
  16.100   1.2265   0.26700   0.26310  -0.1836  0.0731  1.0000  -1.8911   0.0000   0.0000   0.0000   0.3787
  16.200   1.2252   0.26934   0.26545  -0.1846  0.0729  1.0000  -1.8726   0.0000   0.0000   0.0000   0.3796
  16.300   1.2236   0.27155   0.26765  -0.1857  0.0728  1.0000  -1.8531   0.0000   0.0000   0.0000   0.3805
  16.400   1.2212   0.27356   0.26967  -0.1870  0.0725  1.0000  -1.8278   0.0000   0.0000   0.0000   0.3817
  16.500   1.2170   0.27531   0.27141  -0.1888  0.0720  1.0000  -1.7896   0.0000   0.0000   0.0000   0.3836
  16.600   1.2115   0.27679   0.27289  -0.1909  0.0710  1.0000  -1.7400   0.0000   0.0000   0.0000   0.3859
  16.700   1.2048   0.27847   0.27458  -0.1928  0.0698  1.0000  -1.6898   0.0000   0.0000   0.0000   0.3882
  16.800   1.2000   0.28057   0.27668  -0.1941  0.0686  1.0000  -1.6551   0.0000   0.0000   0.0000   0.3897
  16.900   1.1962   0.28282   0.27893  -0.1949  0.0675  1.0000  -1.6301   0.0000   0.0000   0.0000   0.3908
  17.000   1.1925   0.28506   0.28119  -0.1955  0.0665  1.0000  -1.6097   0.0000   0.0000   0.0000   0.3916
  17.100   1.1884   0.28724   0.28338  -0.1959  0.0655  1.0000  -1.5913   0.0000   0.0000   0.0000   0.3923
  17.200   1.1838   0.28929   0.28544  -0.1960  0.0647  1.0000  -1.5734   0.0000   0.0000   0.0000   0.3929
  17.300   1.1780   0.29114   0.28731  -0.1960  0.0639  1.0000  -1.5547   0.0000   0.0000   0.0000   0.3935
  17.400   1.1360   0.28716   0.28343  -0.1909  0.0639  1.0000  -1.4625   0.0000   0.0000   0.0000   0.3952
  17.500   1.1185   0.28591   0.28223  -0.1891  0.0634  1.0000  -1.4209   0.0000   0.0000   0.0000   0.3961
  17.600   1.1076   0.28562   0.28197  -0.1881  0.0628  1.0000  -1.3934   0.0000   0.0000   0.0000   0.3968
  17.700   1.0990   0.28563   0.28201  -0.1875  0.0622  1.0000  -1.3715   0.0000   0.0000   0.0000   0.3974
  17.800   1.0917   0.28580   0.28220  -0.1869  0.0615  1.0000  -1.3532   0.0000   0.0000   0.0000   0.3979
  17.900   1.0855   0.28606   0.28248  -0.1865  0.0608  1.0000  -1.3375   0.0000   0.0000   0.0000   0.3983
  18.000   1.0799   0.28639   0.28283  -0.1861  0.0602  1.0000  -1.3240   0.0000   0.0000   0.0000   0.3987
  18.100   1.0750   0.28676   0.28322  -0.1858  0.0596  1.0000  -1.3124   0.0000   0.0000   0.0000   0.3991
  18.200   1.0705   0.28717   0.28364  -0.1855  0.0589  1.0000  -1.3027   0.0000   0.0000   0.0000   0.3994
  18.300   1.0664   0.28760   0.28410  -0.1853  0.0583  1.0000  -1.2946   0.0000   0.0000   0.0000   0.3996
  18.400   1.0627   0.28806   0.28457  -0.1850  0.0577  1.0000  -1.2882   0.0000   0.0000   0.0000   0.3998
  18.500   1.0594   0.28854   0.28506  -0.1847  0.0572  1.0000  -1.2836   0.0000   0.0000   0.0000   0.3999
  18.600   1.0563   0.28903   0.28557  -0.1845  0.0566  1.0000  -1.2807   0.0000   0.0000   0.0000   0.4000
  18.700   1.0536   0.28954   0.28610  -0.1842  0.0560  1.0000  -1.2799   0.0000   0.0000   0.0000   0.4000
  18.800   1.0513   0.29009   0.28665  -0.1839  0.0555  1.0000  -1.2812   0.0000   0.0000   0.0000   0.3999
  18.900   1.0493   0.29067   0.28725  -0.1835  0.0550  1.0000  -1.2852   0.0000   0.0000   0.0000   0.3997


