xflr5 v6.61

 Calculated polar for: E61  (5.64%)

 1 1 Reynolds number fixed          Mach number fixed         

 xtrf =   1.000 (top)        1.000 (bottom)
 Mach =   0.000     Re =     0.688 e 6     Ncrit =   9.000

  alpha     CL        CD       CDp       Cm    Top Xtr Bot Xtr   Cpmin    Chinge    XCp    
 ------- -------- --------- --------- -------- ------- ------- -------- --------- ---------
 -10.000  -0.2414   0.12880   0.12667  -0.0503  0.9893  0.0029  -1.4034   0.0000   0.0000   0.0000   0.0327
  -9.900  -0.2450   0.12310   0.12100  -0.0517  0.9891  0.0032  -1.8982   0.0000   0.0000   0.0000   0.0295
  -9.800  -0.2401   0.12114   0.11904  -0.0526  0.9889  0.0034  -1.8720   0.0000   0.0000   0.0000   0.0215
  -9.700  -0.2390   0.11994   0.11785  -0.0522  0.9868  0.0034  -1.8373   0.0000   0.0000   0.0000   0.0223
  -9.600  -0.2349   0.11868   0.11659  -0.0525  0.9859  0.0035  -1.7764   0.0000   0.0000   0.0000   0.0168
  -9.500  -0.2304   0.11747   0.11539  -0.0531  0.9850  0.0036  -1.7187   0.0000   0.0000   0.0000   0.0100
  -9.400  -0.2256   0.11629   0.11420  -0.0537  0.9842  0.0037  -1.6649   0.0000   0.0000   0.0000   0.0020
  -9.300  -0.2207   0.11511   0.11303  -0.0545  0.9835  0.0038  -1.6158   0.0000   0.0000   0.0000  -0.0070
  -9.000  -0.2050   0.11143   0.10930  -0.0574  0.9815  0.0040  -1.5248   0.0000   0.0000   0.0000  -0.0406
  -8.900  -0.1994   0.11026   0.10813  -0.0584  0.9810  0.0041  -1.4815   0.0000   0.0000   0.0000  -0.0539
  -8.800  -0.1937   0.10908   0.10696  -0.0595  0.9804  0.0043  -1.4416   0.0000   0.0000   0.0000  -0.0685
  -8.700  -0.1877   0.10789   0.10577  -0.0607  0.9800  0.0044  -1.4048   0.0000   0.0000   0.0000  -0.0846
  -8.600  -0.1816   0.10669   0.10457  -0.0619  0.9795  0.0046  -1.3708   0.0000   0.0000   0.0000  -0.1025
  -8.500  -0.1754   0.10548   0.10336  -0.0632  0.9791  0.0048  -1.3396   0.0000   0.0000   0.0000  -0.1224
  -8.400  -0.1689   0.10425   0.10213  -0.0645  0.9787  0.0051  -1.3109   0.0000   0.0000   0.0000  -0.1445
  -8.300  -0.1622   0.10300   0.10089  -0.0659  0.9783  0.0053  -1.2846   0.0000   0.0000   0.0000  -0.1693
  -8.200  -0.1553   0.10173   0.09961  -0.0674  0.9779  0.0056  -1.2603   0.0000   0.0000   0.0000  -0.1978
  -8.100  -0.1480   0.10043   0.09831  -0.0689  0.9776  0.0060  -1.2379   0.0000   0.0000   0.0000  -0.2302
  -8.000  -0.1406   0.09912   0.09700  -0.0705  0.9772  0.0063  -1.2176   0.0000   0.0000   0.0000  -0.2670
  -7.700  -0.1299   0.09596   0.09386  -0.0718  0.9722  0.0075  -1.1833   0.0000   0.0000   0.0000  -0.3190
  -7.600  -0.1262   0.09492   0.09282  -0.0723  0.9703  0.0080  -1.1742   0.0000   0.0000   0.0000  -0.3397
  -7.500  -0.1209   0.09381   0.09171  -0.0732  0.9689  0.0086  -1.1651   0.0000   0.0000   0.0000  -0.3727
  -7.400  -0.1146   0.09273   0.09064  -0.0743  0.9677  0.0093  -1.1574   0.0000   0.0000   0.0000  -0.4167
  -7.300  -0.1065   0.09192   0.08983  -0.0758  0.9666  0.0102  -1.1515   0.0000   0.0000   0.0000  -0.4806
  -7.200  -0.0978   0.09135   0.08927  -0.0775  0.9656  0.0108  -1.1441   0.0000   0.0000   0.0000  -0.5632
  -7.100  -0.0898   0.09055   0.08846  -0.0793  0.9646  0.0110  -1.1374   0.0000   0.0000   0.0000  -0.6546
  -7.000  -0.0822   0.08956   0.08747  -0.0810  0.9638  0.0111  -1.1326   0.0000   0.0000   0.0000  -0.7594
  -6.900  -0.0747   0.08847   0.08638  -0.0827  0.9630  0.0112  -1.1291   0.0000   0.0000   0.0000  -0.8826
  -6.800  -0.0672   0.08730   0.08522  -0.0843  0.9623  0.0113  -1.1251   0.0000   0.0000   0.0000  -1.0353
  -6.700  -0.0593   0.08607   0.08399  -0.0861  0.9616  0.0113  -1.1206   0.0000   0.0000   0.0000  -1.2336
  -6.600  -0.0511   0.08477   0.08269  -0.0879  0.9610  0.0114  -1.1165   0.0000   0.0000   0.0000  -1.5095
  -6.500  -0.0418   0.08335   0.08127  -0.0900  0.9605  0.0114  -1.1122   0.0000   0.0000   0.0000  -1.9524
  -6.400  -0.0531   0.08334   0.08128  -0.0862  0.9535  0.0114  -1.1215   0.0000   0.0000   0.0000  -1.4074
  -6.300  -0.0480   0.08214   0.08008  -0.0870  0.9509  0.0114  -1.1202   0.0000   0.0000   0.0000  -1.6006
  -6.200  -0.0405   0.08074   0.07869  -0.0885  0.9490  0.0114  -1.1173   0.0000   0.0000   0.0000  -1.9796
  -6.100  -0.0318   0.07927   0.07721  -0.0904  0.9476  0.0114  -1.1141   0.0000   0.0000   0.0000  -2.6452
  -6.000  -0.0226   0.07778   0.07573  -0.0924  0.9464  0.0115  -1.1111   0.0000   0.0000   0.0000  -3.9162
  -5.900  -0.0130   0.07618   0.07413  -0.0945  0.9454  0.0114  -1.1101   0.0000   0.0000   0.0000  -7.1431
  -5.800  -0.0029   0.07455   0.07249  -0.0968  0.9445  0.0114  -1.1091   0.0000   0.0000   0.0000  -33.7655
  -5.700   0.0077   0.07288   0.07083  -0.0992  0.9438  0.0114  -1.1084   0.0000   0.0000   0.0000  13.3322
  -5.600   0.0189   0.07119   0.06913  -0.1017  0.9431  0.0114  -1.1078   0.0000   0.0000   0.0000   5.7350
  -5.500   0.0304   0.06947   0.06741  -0.1043  0.9425  0.0114  -1.1077   0.0000   0.0000   0.0000   3.7389
  -5.400   0.0424   0.06773   0.06566  -0.1070  0.9419  0.0114  -1.1082   0.0000   0.0000   0.0000   2.8194
  -5.300   0.0548   0.06596   0.06389  -0.1099  0.9414  0.0113  -1.1094   0.0000   0.0000   0.0000   2.2897
  -5.200   0.0675   0.06418   0.06210  -0.1128  0.9409  0.0113  -1.1117   0.0000   0.0000   0.0000   1.9489
  -5.100   0.0807   0.06235   0.06028  -0.1159  0.9405  0.0113  -1.1156   0.0000   0.0000   0.0000   1.7097
  -5.000   0.0692   0.06237   0.06031  -0.1120  0.9327  0.0113  -1.1246   0.0000   0.0000   0.0000   1.8929
  -4.900   0.0766   0.06094   0.05888  -0.1134  0.9299  0.0112  -1.1312   0.0000   0.0000   0.0000   1.7521
  -4.800   0.0871   0.05926   0.05719  -0.1157  0.9281  0.0112  -1.1400   0.0000   0.0000   0.0000   1.5980
  -4.700   0.0990   0.05738   0.05531  -0.1185  0.9266  0.0111  -1.1543   0.0000   0.0000   0.0000   1.4634
  -4.600   0.1118   0.05524   0.05317  -0.1217  0.9254  0.0108  -1.1818   0.0000   0.0000   0.0000   1.3534
  -4.500   0.1242   0.05279   0.05071  -0.1250  0.9242  0.0102  -1.2233   0.0000   0.0000   0.0000   1.2702
  -4.400   0.1396   0.05041   0.04831  -0.1291  0.9233  0.0095  -1.2619   0.0000   0.0000   0.0000   1.1868
  -4.300   0.1574   0.04814   0.04602  -0.1335  0.9225  0.0090  -1.2959   0.0000   0.0000   0.0000   1.1089
  -4.200   0.1772   0.04585   0.04371  -0.1383  0.9219  0.0086  -1.3305   0.0000   0.0000   0.0000   1.0400
  -4.100   0.1984   0.04351   0.04135  -0.1434  0.9213  0.0083  -1.3657   0.0000   0.0000   0.0000   0.9808
  -4.000   0.2213   0.04111   0.03891  -0.1487  0.9209  0.0082  -1.4005   0.0000   0.0000   0.0000   0.9293
  -3.900   0.2458   0.03863   0.03639  -0.1543  0.9205  0.0084  -1.4319   0.0000   0.0000   0.0000   0.8842
  -3.800   0.2716   0.03618   0.03390  -0.1598  0.9202  0.0091  -1.4496   0.0000   0.0000   0.0000   0.8445
  -3.600   0.3128   0.03301   0.03057  -0.1676  0.9194  0.0160  -1.1693   0.0000   0.0000   0.0000   0.7907
  -3.500   0.3312   0.03183   0.02935  -0.1704  0.9190  0.0170  -1.1169   0.0000   0.0000   0.0000   0.7693
  -3.400   0.3528   0.03022   0.02769  -0.1742  0.9187  0.0175  -1.1047   0.0000   0.0000   0.0000   0.7481
  -3.300   0.3751   0.02855   0.02594  -0.1780  0.9184  0.0179  -1.1006   0.0000   0.0000   0.0000   0.7286
  -3.200   0.3977   0.02689   0.02421  -0.1818  0.9182  0.0183  -1.0974   0.0000   0.0000   0.0000   0.7108
  -3.100   0.4202   0.02528   0.02252  -0.1853  0.9179  0.0187  -1.0944   0.0000   0.0000   0.0000   0.6945
  -3.000   0.4423   0.02375   0.02089  -0.1887  0.9177  0.0192  -1.0909   0.0000   0.0000   0.0000   0.6798
  -2.900   0.4639   0.02231   0.01935  -0.1917  0.9175  0.0198  -1.0867   0.0000   0.0000   0.0000   0.6663
  -2.800   0.4850   0.02097   0.01791  -0.1946  0.9173  0.0204  -1.0807   0.0000   0.0000   0.0000   0.6539
  -2.700   0.5055   0.01978   0.01661  -0.1971  0.9171  0.0212  -1.0704   0.0000   0.0000   0.0000   0.6426
  -2.600   0.5251   0.01875   0.01548  -0.1993  0.9169  0.0221  -1.0545   0.0000   0.0000   0.0000   0.6320
  -2.500   0.5438   0.01792   0.01455  -0.2012  0.9165  0.0231  -1.0298   0.0000   0.0000   0.0000   0.6223
  -2.400   0.5614   0.01738   0.01394  -0.2027  0.9162  0.0242  -0.9921   0.0000   0.0000   0.0000   0.6132
  -2.300   0.5771   0.01736   0.01388  -0.2035  0.9156  0.0254  -0.9288   0.0000   0.0000   0.0000   0.6047
  -2.200   0.5770   0.01757   0.01408  -0.2008  0.9104  0.0259  -0.8952   0.0000   0.0000   0.0000   0.6000
  -2.100   0.6240   0.01389   0.00993  -0.2102  0.9155  0.0289  -0.9641   0.0000   0.0000   0.0000   0.5887
  -2.000   0.6292   0.01348   0.00950  -0.2092  0.9115  0.0303  -0.9242   0.0000   0.0000   0.0000   0.5842
  -1.900   0.6377   0.01324   0.00925  -0.2089  0.9082  0.0319  -0.8641   0.0000   0.0000   0.0000   0.5791
  -1.800   0.6490   0.01303   0.00905  -0.2091  0.9057  0.0339  -0.7937   0.0000   0.0000   0.0000   0.5737
  -1.700   0.6614   0.01284   0.00884  -0.2095  0.9035  0.0368  -0.7277   0.0000   0.0000   0.0000   0.5681
  -1.400   0.7095   0.01158   0.00738  -0.2132  0.8993  0.0526  -0.6619   0.0000   0.0000   0.0000   0.5515
  -1.300   0.7250   0.01137   0.00721  -0.2145  0.8979  0.0579  -0.6695   0.0000   0.0000   0.0000   0.5467
  -0.600   0.8614   0.00760   0.00264  -0.2260  0.8875  0.0316  -0.7347   0.0000   0.0000   0.0000   0.5126
  -0.500   0.8718   0.00760   0.00262  -0.2258  0.8842  0.0284  -0.7410   0.0000   0.0000   0.0000   0.5091
  -0.400   0.8798   0.00768   0.00273  -0.2250  0.8799  0.0267  -0.7470   0.0000   0.0000   0.0000   0.5057
  -0.300   0.8948   0.00731   0.00225  -0.2258  0.8766  0.0244  -0.7559   0.0000   0.0000   0.0000   0.5022
  -0.200   0.9086   0.00717   0.00203  -0.2263  0.8728  0.0228  -0.7646   0.0000   0.0000   0.0000   0.4988
  -0.100   0.9227   0.00707   0.00187  -0.2269  0.8692  0.0215  -0.7740   0.0000   0.0000   0.0000   0.4956
   0.000   0.9370   0.00701   0.00175  -0.2276  0.8653  0.0206  -0.7841   0.0000   0.0000   0.0000   0.4924
   0.100   0.9515   0.00697   0.00164  -0.2282  0.8611  0.0198  -0.7945   0.0000   0.0000   0.0000   0.4893
   0.200   0.9659   0.00695   0.00155  -0.2289  0.8565  0.0193  -0.8058   0.0000   0.0000   0.0000   0.4863
   0.300   0.9777   0.00694   0.00151  -0.2291  0.8527  0.0190  -0.8156   0.0000   0.0000   0.0000   0.4835
   0.400   0.9876   0.00694   0.00151  -0.2287  0.8489  0.0189  -0.8244   0.0000   0.0000   0.0000   0.4807
   0.500   0.9981   0.00694   0.00149  -0.2286  0.8445  0.0196  -0.8348   0.0000   0.0000   0.0000   0.4780
   0.600   1.0092   0.00695   0.00147  -0.2286  0.8398  0.0220  -0.8456   0.0000   0.0000   0.0000   0.4754
   0.700   1.0209   0.00695   0.00152  -0.2287  0.8352  0.0260  -0.8575   0.0000   0.0000   0.0000   0.4728
   0.800   1.0358   0.00670   0.00160  -0.2298  0.8305  0.1832  -0.8720   0.0000   0.0000   0.0000   0.4705
   0.900   1.0492   0.00659   0.00167  -0.2304  0.8249  0.2775  -0.8858   0.0000   0.0000   0.0000   0.4682
   1.000   1.0627   0.00651   0.00174  -0.2311  0.8187  0.3629  -0.8997   0.0000   0.0000   0.0000   0.4659
   1.100   1.0735   0.00643   0.00182  -0.2312  0.8156  0.4376  -0.9121   0.0000   0.0000   0.0000   0.4637
   1.300   1.0972   0.00603   0.00208  -0.2319  0.8076  0.7532  -0.9417   0.0000   0.0000   0.0000   0.4594
   1.400   1.0988   0.00573   0.00208  -0.2295  0.8028  1.0000  -0.9498   0.0000   0.0000   0.0000   0.4569
   1.500   1.1096   0.00578   0.00210  -0.2294  0.7979  1.0000  -0.9662   0.0000   0.0000   0.0000   0.4547
   1.600   1.1204   0.00584   0.00212  -0.2294  0.7925  1.0000  -0.9825   0.0000   0.0000   0.0000   0.4525
   1.700   1.1310   0.00591   0.00214  -0.2293  0.7862  1.0000  -0.9988   0.0000   0.0000   0.0000   0.4504
   1.800   1.1419   0.00598   0.00217  -0.2292  0.7796  1.0000  -1.0154   0.0000   0.0000   0.0000   0.4483
   1.900   1.1518   0.00601   0.00221  -0.2290  0.7760  1.0000  -1.0314   0.0000   0.0000   0.0000   0.4462
   2.000   1.1619   0.00605   0.00224  -0.2288  0.7713  1.0000  -1.0502   0.0000   0.0000   0.0000   0.4442
   2.100   1.1722   0.00610   0.00228  -0.2286  0.7659  1.0000  -1.0692   0.0000   0.0000   0.0000   0.4422
   2.200   1.1824   0.00615   0.00231  -0.2284  0.7600  1.0000  -1.0914   0.0000   0.0000   0.0000   0.4402
   2.300   1.1926   0.00622   0.00234  -0.2282  0.7539  1.0000  -1.1142   0.0000   0.0000   0.0000   0.4383
   2.400   1.2026   0.00630   0.00238  -0.2280  0.7480  1.0000  -1.1369   0.0000   0.0000   0.0000   0.4364
   2.500   1.2126   0.00639   0.00243  -0.2277  0.7411  1.0000  -1.1597   0.0000   0.0000   0.0000   0.4345
   2.600   1.2229   0.00644   0.00247  -0.2276  0.7366  1.0000  -1.1828   0.0000   0.0000   0.0000   0.4327
   2.700   1.2330   0.00647   0.00252  -0.2274  0.7322  1.0000  -1.2059   0.0000   0.0000   0.0000   0.4309
   2.800   1.2430   0.00653   0.00256  -0.2271  0.7261  1.0000  -1.2306   0.0000   0.0000   0.0000   0.4291
   2.900   1.2527   0.00660   0.00260  -0.2268  0.7183  1.0000  -1.2586   0.0000   0.0000   0.0000   0.4273
   3.000   1.2621   0.00669   0.00265  -0.2264  0.7095  1.0000  -1.2872   0.0000   0.0000   0.0000   0.4255
   3.100   1.2707   0.00682   0.00271  -0.2259  0.6995  1.0000  -1.3211   0.0000   0.0000   0.0000   0.4238
   3.200   1.2803   0.00689   0.00277  -0.2256  0.6916  1.0000  -1.3566   0.0000   0.0000   0.0000   0.4221
   3.300   1.2874   0.00705   0.00283  -0.2247  0.6684  1.0000  -1.3884   0.0000   0.0000   0.0000   0.4203
   3.400   1.2914   0.00736   0.00293  -0.2231  0.6307  1.0000  -1.4150   0.0000   0.0000   0.0000   0.4184
   3.500   1.2925   0.00786   0.00310  -0.2209  0.5758  1.0000  -1.4368   0.0000   0.0000   0.0000   0.4164
   3.600   1.2916   0.00854   0.00337  -0.2184  0.5079  1.0000  -1.4550   0.0000   0.0000   0.0000   0.4145
   3.700   1.2923   0.00926   0.00369  -0.2164  0.4368  1.0000  -1.4758   0.0000   0.0000   0.0000   0.4127
   3.800   1.2955   0.00988   0.00399  -0.2149  0.3822  1.0000  -1.5008   0.0000   0.0000   0.0000   0.4110
   3.900   1.3009   0.01036   0.00422  -0.2139  0.3408  1.0000  -1.5295   0.0000   0.0000   0.0000   0.4095
   4.000   1.3065   0.01083   0.00446  -0.2129  0.3010  1.0000  -1.5610   0.0000   0.0000   0.0000   0.4079
   4.100   1.3122   0.01130   0.00471  -0.2120  0.2634  1.0000  -1.6002   0.0000   0.0000   0.0000   0.4064
   4.200   1.3182   0.01175   0.00495  -0.2111  0.2289  1.0000  -1.6401   0.0000   0.0000   0.0000   0.4048
   4.500   1.3179   0.01514   0.00717  -0.2048  0.0061  1.0000  -2.1591   0.0000   0.0000   0.0000   0.3997
   4.600   1.3272   0.01529   0.00740  -0.2044  0.0062  1.0000  -2.3010   0.0000   0.0000   0.0000   0.3982
   4.700   1.3363   0.01545   0.00761  -0.2039  0.0062  1.0000  -2.4140   0.0000   0.0000   0.0000   0.3966
   4.800   1.3453   0.01563   0.00781  -0.2034  0.0062  1.0000  -2.5156   0.0000   0.0000   0.0000   0.3951
   4.900   1.3541   0.01582   0.00803  -0.2029  0.0062  1.0000  -2.6107   0.0000   0.0000   0.0000   0.3936
   5.000   1.3628   0.01602   0.00826  -0.2024  0.0063  1.0000  -2.7019   0.0000   0.0000   0.0000   0.3921
   5.100   1.3714   0.01623   0.00850  -0.2018  0.0064  1.0000  -2.7898   0.0000   0.0000   0.0000   0.3907
   5.200   1.3798   0.01646   0.00877  -0.2012  0.0065  1.0000  -2.8741   0.0000   0.0000   0.0000   0.3892
   5.300   1.3879   0.01672   0.00908  -0.2005  0.0067  1.0000  -2.9541   0.0000   0.0000   0.0000   0.3877
   5.400   1.3957   0.01701   0.00942  -0.1997  0.0069  1.0000  -3.0285   0.0000   0.0000   0.0000   0.3862
   5.500   1.4029   0.01734   0.00981  -0.1988  0.0072  1.0000  -3.0957   0.0000   0.0000   0.0000   0.3847
   5.600   1.4094   0.01772   0.01027  -0.1978  0.0075  1.0000  -3.1527   0.0000   0.0000   0.0000   0.3831
   5.700   1.4148   0.01821   0.01084  -0.1965  0.0078  1.0000  -3.1950   0.0000   0.0000   0.0000   0.3815
   5.800   1.4180   0.01888   0.01161  -0.1947  0.0082  1.0000  -3.2114   0.0000   0.0000   0.0000   0.3798
   5.900   1.4211   0.01956   0.01237  -0.1929  0.0087  1.0000  -3.2324   0.0000   0.0000   0.0000   0.3782
   6.000   1.4324   0.01943   0.01221  -0.1929  0.0095  1.0000  -3.3709   0.0000   0.0000   0.0000   0.3769
   6.100   1.4409   0.01958   0.01237  -0.1922  0.0107  1.0000  -3.4706   0.0000   0.0000   0.0000   0.3755
   6.200   1.4454   0.02014   0.01307  -0.1905  0.0128  1.0000  -3.4720   0.0000   0.0000   0.0000   0.3738
   6.300   1.4460   0.02120   0.01430  -0.1878  0.0152  1.0000  -3.4118   0.0000   0.0000   0.0000   0.3717
   6.400   1.4474   0.02339   0.01664  -0.1852  0.0197  1.0000  -3.2872   0.0000   0.0000   0.0000   0.3697
   7.600   1.5553   0.03370   0.02742  -0.1810  0.0079  1.0000  -4.6278   0.0000   0.0000   0.0000   0.3563
   7.700   1.5595   0.03334   0.02708  -0.1797  0.0072  1.0000  -4.7933   0.0000   0.0000   0.0000   0.3550
   7.800   1.5652   0.03357   0.02734  -0.1788  0.0066  1.0000  -4.9422   0.0000   0.0000   0.0000   0.3538
   7.900   1.5711   0.03403   0.02784  -0.1779  0.0060  1.0000  -5.0857   0.0000   0.0000   0.0000   0.3527
   8.000   1.5768   0.03458   0.02843  -0.1770  0.0056  1.0000  -5.2281   0.0000   0.0000   0.0000   0.3515
   8.100   1.5818   0.03517   0.02907  -0.1760  0.0052  1.0000  -5.3690   0.0000   0.0000   0.0000   0.3504
   8.200   1.5861   0.03577   0.02972  -0.1749  0.0048  1.0000  -5.5094   0.0000   0.0000   0.0000   0.3493
   8.300   1.5899   0.03639   0.03038  -0.1737  0.0045  1.0000  -5.6502   0.0000   0.0000   0.0000   0.3481
   8.400   1.5929   0.03702   0.03106  -0.1724  0.0043  1.0000  -5.7859   0.0000   0.0000   0.0000   0.3470
   8.500   1.5952   0.03768   0.03178  -0.1710  0.0041  1.0000  -5.9156   0.0000   0.0000   0.0000   0.3458
   8.600   1.5970   0.03836   0.03252  -0.1696  0.0039  1.0000  -6.0419   0.0000   0.0000   0.0000   0.3446
   8.700   1.5988   0.03909   0.03330  -0.1681  0.0037  1.0000  -6.1677   0.0000   0.0000   0.0000   0.3434
   8.800   1.6005   0.03991   0.03417  -0.1667  0.0035  1.0000  -6.2900   0.0000   0.0000   0.0000   0.3423
   8.900   1.6022   0.04085   0.03518  -0.1654  0.0034  1.0000  -6.4044   0.0000   0.0000   0.0000   0.3412
   9.000   1.6039   0.04202   0.03642  -0.1640  0.0032  1.0000  -6.5004   0.0000   0.0000   0.0000   0.3401
   9.100   1.6079   0.04307   0.03782  -0.1626  0.0034  1.0000  -6.5178   0.0000   0.0000   0.0000   0.3388
   9.200   1.6088   0.04420   0.03905  -0.1611  0.0033  1.0000  -6.5877   0.0000   0.0000   0.0000   0.3376
   9.300   1.6087   0.04536   0.04030  -0.1595  0.0033  1.0000  -6.6579   0.0000   0.0000   0.0000   0.3365
   9.400   1.6079   0.04663   0.04166  -0.1578  0.0032  1.0000  -6.7186   0.0000   0.0000   0.0000   0.3353
   9.500   1.6061   0.04806   0.04320  -0.1560  0.0031  1.0000  -6.7618   0.0000   0.0000   0.0000   0.3342
   9.600   1.6032   0.04970   0.04495  -0.1541  0.0030  1.0000  -6.7790   0.0000   0.0000   0.0000   0.3331
   9.700   1.5983   0.05153   0.04690  -0.1520  0.0029  1.0000  -6.7658   0.0000   0.0000   0.0000   0.3319
   9.800   1.5914   0.05345   0.04896  -0.1497  0.0028  1.0000  -6.7277   0.0000   0.0000   0.0000   0.3307
   9.900   1.5832   0.05553   0.05118  -0.1473  0.0027  1.0000  -6.6687   0.0000   0.0000   0.0000   0.3295
  10.000   1.5740   0.05772   0.05351  -0.1450  0.0026  1.0000  -6.5953   0.0000   0.0000   0.0000   0.3284
  10.100   1.5638   0.05996   0.05590  -0.1426  0.0026  1.0000  -6.5151   0.0000   0.0000   0.0000   0.3274
  10.200   1.5531   0.06231   0.05838  -0.1404  0.0025  1.0000  -6.4265   0.0000   0.0000   0.0000   0.3265
  10.300   1.5420   0.06461   0.06082  -0.1383  0.0025  1.0000  -6.3421   0.0000   0.0000   0.0000   0.3256
  10.400   1.5306   0.06701   0.06335  -0.1364  0.0025  1.0000  -6.2516   0.0000   0.0000   0.0000   0.3249
  10.500   1.5190   0.06936   0.06582  -0.1347  0.0025  1.0000  -6.1674   0.0000   0.0000   0.0000   0.3242
  10.600   1.5070   0.07182   0.06841  -0.1331  0.0024  1.0000  -6.0751   0.0000   0.0000   0.0000   0.3237
  10.700   1.4945   0.07433   0.07104  -0.1317  0.0024  1.0000  -5.9792   0.0000   0.0000   0.0000   0.3234
  10.800   1.4606   0.07998   0.07669  -0.1299  0.0023  1.0000  -5.5354   0.0000   0.0000   0.0000   0.3240
  10.900   1.4528   0.08183   0.07861  -0.1293  0.0023  1.0000  -5.5236   0.0000   0.0000   0.0000   0.3239
  11.000   1.4453   0.08371   0.08056  -0.1288  0.0023  1.0000  -5.5110   0.0000   0.0000   0.0000   0.3239
  11.100   1.4373   0.08558   0.08250  -0.1285  0.0023  1.0000  -5.4960   0.0000   0.0000   0.0000   0.3240
  11.200   1.4296   0.08734   0.08433  -0.1283  0.0023  1.0000  -5.4807   0.0000   0.0000   0.0000   0.3242
  11.300   1.4217   0.08916   0.08623  -0.1283  0.0023  1.0000  -5.4635   0.0000   0.0000   0.0000   0.3245
  11.400   1.4140   0.09110   0.08823  -0.1285  0.0023  1.0000  -5.4453   0.0000   0.0000   0.0000   0.3249
  11.500   1.4066   0.09314   0.09034  -0.1288  0.0023  1.0000  -5.4265   0.0000   0.0000   0.0000   0.3254
  11.600   1.3989   0.09531   0.09258  -0.1293  0.0023  1.0000  -5.4049   0.0000   0.0000   0.0000   0.3261
  11.700   1.3916   0.09756   0.09489  -0.1300  0.0023  1.0000  -5.3832   0.0000   0.0000   0.0000   0.3269
  11.800   1.3842   0.09994   0.09734  -0.1308  0.0023  1.0000  -5.3591   0.0000   0.0000   0.0000   0.3278
  11.900   1.3770   0.10245   0.09991  -0.1318  0.0023  1.0000  -5.3336   0.0000   0.0000   0.0000   0.3289
  12.000   1.3701   0.10506   0.10258  -0.1330  0.0023  1.0000  -5.3070   0.0000   0.0000   0.0000   0.3300
  12.100   1.3630   0.10783   0.10541  -0.1344  0.0023  1.0000  -5.2771   0.0000   0.0000   0.0000   0.3314
  12.200   1.3564   0.11068   0.10832  -0.1359  0.0023  1.0000  -5.2468   0.0000   0.0000   0.0000   0.3328
  12.300   1.3495   0.11371   0.11141  -0.1377  0.0023  1.0000  -5.2126   0.0000   0.0000   0.0000   0.3345
  12.400   1.3431   0.11683   0.11459  -0.1395  0.0023  1.0000  -5.1773   0.0000   0.0000   0.0000   0.3362
  12.500   1.3366   0.12014   0.11795  -0.1416  0.0023  1.0000  -5.1380   0.0000   0.0000   0.0000   0.3381
  12.600   1.3305   0.12353   0.12140  -0.1438  0.0023  1.0000  -5.0971   0.0000   0.0000   0.0000   0.3401
  12.700   1.3244   0.12715   0.12507  -0.1462  0.0023  1.0000  -5.0514   0.0000   0.0000   0.0000   0.3422
  12.800   1.3187   0.13083   0.12880  -0.1487  0.0023  1.0000  -5.0038   0.0000   0.0000   0.0000   0.3444
  13.800   1.3003   0.16323   0.16155  -0.1696  0.0025  1.0000  -5.0634   0.0000   0.0000   0.0000   0.3608
  13.900   1.2995   0.16674   0.16508  -0.1715  0.0025  1.0000  -5.0557   0.0000   0.0000   0.0000   0.3622
  14.000   1.2985   0.17031   0.16867  -0.1733  0.0025  1.0000  -5.0385   0.0000   0.0000   0.0000   0.3636
  14.100   1.2976   0.17395   0.17233  -0.1751  0.0026  1.0000  -5.0145   0.0000   0.0000   0.0000   0.3650
  14.200   1.2966   0.17766   0.17606  -0.1769  0.0026  1.0000  -4.9793   0.0000   0.0000   0.0000   0.3663
  14.300   1.2954   0.18146   0.17988  -0.1785  0.0026  1.0000  -4.9325   0.0000   0.0000   0.0000   0.3676
  14.400   1.2942   0.18536   0.18379  -0.1801  0.0027  1.0000  -4.8721   0.0000   0.0000   0.0000   0.3689
  14.500   1.2927   0.18935   0.18778  -0.1817  0.0027  1.0000  -4.7977   0.0000   0.0000   0.0000   0.3702
  14.600   1.2909   0.19342   0.19186  -0.1832  0.0027  1.0000  -4.7081   0.0000   0.0000   0.0000   0.3714
  14.700   1.2890   0.19750   0.19594  -0.1847  0.0027  1.0000  -4.6122   0.0000   0.0000   0.0000   0.3727
  14.800   1.2870   0.20151   0.19996  -0.1861  0.0028  1.0000  -4.5198   0.0000   0.0000   0.0000   0.3739
  14.900   1.2849   0.20548   0.20393  -0.1876  0.0028  1.0000  -4.4310   0.0000   0.0000   0.0000   0.3752
  15.000   1.2828   0.20941   0.20786  -0.1890  0.0028  1.0000  -4.3451   0.0000   0.0000   0.0000   0.3764
  15.100   1.2808   0.21330   0.21175  -0.1905  0.0028  1.0000  -4.2615   0.0000   0.0000   0.0000   0.3777
  15.200   1.2787   0.21717   0.21562  -0.1919  0.0028  1.0000  -4.1796   0.0000   0.0000   0.0000   0.3789
  15.300   1.2767   0.22102   0.21947  -0.1932  0.0027  1.0000  -4.0988   0.0000   0.0000   0.0000   0.3801
  15.400   1.2746   0.22487   0.22332  -0.1945  0.0027  1.0000  -4.0181   0.0000   0.0000   0.0000   0.3812
  15.500   1.2725   0.22872   0.22718  -0.1958  0.0027  1.0000  -3.9367   0.0000   0.0000   0.0000   0.3824
  15.600   1.2703   0.23260   0.23105  -0.1971  0.0027  1.0000  -3.8534   0.0000   0.0000   0.0000   0.3835
  15.700   1.2680   0.23650   0.23495  -0.1983  0.0027  1.0000  -3.7669   0.0000   0.0000   0.0000   0.3846
  15.800   1.2656   0.24046   0.23891  -0.1996  0.0026  1.0000  -3.6759   0.0000   0.0000   0.0000   0.3858
  15.900   1.2629   0.24448   0.24294  -0.2008  0.0026  1.0000  -3.5786   0.0000   0.0000   0.0000   0.3869
  16.000   1.2600   0.24860   0.24705  -0.2019  0.0026  1.0000  -3.4731   0.0000   0.0000   0.0000   0.3881
  16.100   1.2567   0.25284   0.25130  -0.2031  0.0025  1.0000  -3.3568   0.0000   0.0000   0.0000   0.3893
  16.200   1.2529   0.25724   0.25570  -0.2042  0.0025  1.0000  -3.2258   0.0000   0.0000   0.0000   0.3906
  16.300   1.2485   0.26189   0.26035  -0.2053  0.0024  1.0000  -3.0733   0.0000   0.0000   0.0000   0.3919
  16.400   1.2428   0.26695   0.26542  -0.2063  0.0024  1.0000  -2.8844   0.0000   0.0000   0.0000   0.3934


