xflr5 v6.61

 Calculated polar for: E61  (5.64%)

 1 1 Reynolds number fixed          Mach number fixed         

 xtrf =   1.000 (top)        1.000 (bottom)
 Mach =   0.000     Re =     0.160 e 6     Ncrit =   9.000

  alpha     CL        CD       CDp       Cm    Top Xtr Bot Xtr   Cpmin    Chinge    XCp    
 ------- -------- --------- --------- -------- ------- ------- -------- --------- ---------
 -10.000  -0.3285   0.13811   0.13405  -0.0241  1.0000  0.0180  -1.1070   0.0000   0.0000   0.0000   0.1718
  -9.900  -0.3279   0.13724   0.13319  -0.0239  1.0000  0.0181  -1.1078   0.0000   0.0000   0.0000   0.1723
  -9.800  -0.3273   0.13637   0.13234  -0.0237  1.0000  0.0182  -1.1088   0.0000   0.0000   0.0000   0.1729
  -9.700  -0.3268   0.13551   0.13149  -0.0235  1.0000  0.0183  -1.1098   0.0000   0.0000   0.0000   0.1734
  -9.600  -0.3264   0.13466   0.13065  -0.0233  1.0000  0.0183  -1.1108   0.0000   0.0000   0.0000   0.1741
  -9.500  -0.3260   0.13381   0.12982  -0.0230  1.0000  0.0184  -1.1120   0.0000   0.0000   0.0000   0.1748
  -9.400  -0.3256   0.13297   0.12900  -0.0228  1.0000  0.0185  -1.1132   0.0000   0.0000   0.0000   0.1755
  -9.300  -0.3253   0.13213   0.12818  -0.0225  1.0000  0.0186  -1.1145   0.0000   0.0000   0.0000   0.1763
  -9.200  -0.3251   0.13131   0.12736  -0.0222  1.0000  0.0187  -1.1158   0.0000   0.0000   0.0000   0.1772
  -9.100  -0.3250   0.13048   0.12656  -0.0220  1.0000  0.0188  -1.1172   0.0000   0.0000   0.0000   0.1781
  -9.000  -0.3249   0.12967   0.12576  -0.0217  1.0000  0.0188  -1.1187   0.0000   0.0000   0.0000   0.1790
  -8.900  -0.3248   0.12886   0.12497  -0.0214  1.0000  0.0189  -1.1202   0.0000   0.0000   0.0000   0.1800
  -8.800  -0.3249   0.12807   0.12419  -0.0210  1.0000  0.0190  -1.1218   0.0000   0.0000   0.0000   0.1811
  -8.700  -0.3250   0.12728   0.12342  -0.0207  1.0000  0.0191  -1.1234   0.0000   0.0000   0.0000   0.1822
  -8.600  -0.3252   0.12651   0.12266  -0.0204  1.0000  0.0193  -1.1248   0.0000   0.0000   0.0000   0.1833
  -8.500  -0.3254   0.12577   0.12185  -0.0200  1.0000  0.0198  -1.1250   0.0000   0.0000   0.0000   0.1845
  -8.400  -0.3258   0.12501   0.12111  -0.0196  1.0000  0.0199  -1.1273   0.0000   0.0000   0.0000   0.1858
  -8.300  -0.3262   0.12426   0.12038  -0.0193  1.0000  0.0200  -1.1296   0.0000   0.0000   0.0000   0.1871
  -8.200  -0.3267   0.12352   0.11966  -0.0189  1.0000  0.0200  -1.1320   0.0000   0.0000   0.0000   0.1885
  -8.100  -0.3272   0.12279   0.11894  -0.0185  1.0000  0.0201  -1.1345   0.0000   0.0000   0.0000   0.1899
  -8.000  -0.3279   0.12206   0.11824  -0.0181  1.0000  0.0202  -1.1371   0.0000   0.0000   0.0000   0.1913
  -7.900  -0.3286   0.12135   0.11754  -0.0176  1.0000  0.0202  -1.1399   0.0000   0.0000   0.0000   0.1928
  -7.800  -0.3294   0.12064   0.11685  -0.0172  1.0000  0.0203  -1.1427   0.0000   0.0000   0.0000   0.1943
  -7.700  -0.3303   0.11995   0.11618  -0.0167  1.0000  0.0204  -1.1456   0.0000   0.0000   0.0000   0.1959
  -7.600  -0.3313   0.11927   0.11551  -0.0163  1.0000  0.0204  -1.1486   0.0000   0.0000   0.0000   0.1975
  -7.500  -0.3323   0.11859   0.11486  -0.0158  1.0000  0.0205  -1.1517   0.0000   0.0000   0.0000   0.1992
  -7.400  -0.3335   0.11793   0.11422  -0.0153  1.0000  0.0206  -1.1550   0.0000   0.0000   0.0000   0.2009
  -7.300  -0.3347   0.11727   0.11358  -0.0148  1.0000  0.0206  -1.1583   0.0000   0.0000   0.0000   0.2026
  -7.200  -0.3361   0.11663   0.11295  -0.0143  1.0000  0.0207  -1.1618   0.0000   0.0000   0.0000   0.2044
  -7.100  -0.3375   0.11599   0.11234  -0.0138  1.0000  0.0207  -1.1654   0.0000   0.0000   0.0000   0.2062
  -7.000  -0.3391   0.11537   0.11173  -0.0132  1.0000  0.0208  -1.1691   0.0000   0.0000   0.0000   0.2080
  -6.900  -0.3407   0.11476   0.11114  -0.0127  1.0000  0.0209  -1.1729   0.0000   0.0000   0.0000   0.2099
  -6.800  -0.3425   0.11416   0.11057  -0.0121  1.0000  0.0209  -1.1769   0.0000   0.0000   0.0000   0.2118
  -6.700  -0.3445   0.11358   0.11001  -0.0115  1.0000  0.0210  -1.1810   0.0000   0.0000   0.0000   0.2138
  -6.600  -0.3377   0.11229   0.10871  -0.0132  0.9985  0.0211  -1.1807   0.0000   0.0000   0.0000   0.2080
  -6.500  -0.3303   0.11096   0.10739  -0.0151  0.9968  0.0212  -1.1803   0.0000   0.0000   0.0000   0.2012
  -6.400  -0.3234   0.10965   0.10607  -0.0169  0.9946  0.0214  -1.1801   0.0000   0.0000   0.0000   0.1947
  -6.300  -0.3168   0.10840   0.10483  -0.0186  0.9924  0.0215  -1.1803   0.0000   0.0000   0.0000   0.1882
  -6.200  -0.3100   0.10717   0.10360  -0.0203  0.9904  0.0217  -1.1807   0.0000   0.0000   0.0000   0.1811
  -6.100  -0.3027   0.10597   0.10239  -0.0222  0.9887  0.0218  -1.1811   0.0000   0.0000   0.0000   0.1731
  -6.000  -0.2993   0.10490   0.10133  -0.0231  0.9854  0.0220  -1.1833   0.0000   0.0000   0.0000   0.1695
  -5.900  -0.2950   0.10385   0.10028  -0.0241  0.9827  0.0221  -1.1854   0.0000   0.0000   0.0000   0.1647
  -5.800  -0.2895   0.10270   0.09914  -0.0256  0.9805  0.0222  -1.1869   0.0000   0.0000   0.0000   0.1581
  -5.700  -0.2817   0.10139   0.09783  -0.0275  0.9787  0.0224  -1.1875   0.0000   0.0000   0.0000   0.1485
  -5.600  -0.2726   0.10002   0.09646  -0.0299  0.9772  0.0226  -1.1878   0.0000   0.0000   0.0000   0.1365
  -5.500  -0.2659   0.09877   0.09522  -0.0316  0.9749  0.0228  -1.1894   0.0000   0.0000   0.0000   0.1273
  -5.400  -0.2631   0.09773   0.09419  -0.0322  0.9714  0.0230  -1.1928   0.0000   0.0000   0.0000   0.1238
  -5.300  -0.2571   0.09653   0.09299  -0.0336  0.9687  0.0232  -1.1955   0.0000   0.0000   0.0000   0.1150
  -5.200  -0.2490   0.09522   0.09169  -0.0357  0.9663  0.0234  -1.1982   0.0000   0.0000   0.0000   0.1023
  -5.100  -0.2390   0.09384   0.09030  -0.0383  0.9642  0.0237  -1.2015   0.0000   0.0000   0.0000   0.0853
  -5.000  -0.2268   0.09241   0.08887  -0.0415  0.9625  0.0240  -1.2058   0.0000   0.0000   0.0000   0.0621
  -4.800  -0.1991   0.08972   0.08616  -0.0492  0.9588  0.0247  -1.2211   0.0000   0.0000   0.0000  -0.0024
  -4.700  -0.1985   0.08895   0.08541  -0.0493  0.9542  0.0249  -1.2298   0.0000   0.0000   0.0000  -0.0038
  -4.600  -0.1882   0.08784   0.08430  -0.0522  0.9511  0.0251  -1.2395   0.0000   0.0000   0.0000  -0.0329
  -4.500  -0.1744   0.08656   0.08301  -0.0558  0.9486  0.0254  -1.2464   0.0000   0.0000   0.0000  -0.0761
  -4.400  -0.1590   0.08514   0.08158  -0.0595  0.9465  0.0256  -1.2468   0.0000   0.0000   0.0000  -0.1310
  -4.300  -0.1426   0.08358   0.08000  -0.0633  0.9448  0.0258  -1.2433   0.0000   0.0000   0.0000  -0.2015
  -4.200  -0.1252   0.08189   0.07829  -0.0673  0.9434  0.0260  -1.2395   0.0000   0.0000   0.0000  -0.2963
  -4.100  -0.1067   0.08008   0.07646  -0.0715  0.9422  0.0261  -1.2356   0.0000   0.0000   0.0000  -0.4303
  -4.000  -0.0874   0.07819   0.07454  -0.0759  0.9412  0.0262  -1.2317   0.0000   0.0000   0.0000  -0.6304
  -3.900  -0.0673   0.07623   0.07255  -0.0804  0.9403  0.0262  -1.2279   0.0000   0.0000   0.0000  -0.9619
  -3.800  -0.0610   0.07502   0.07134  -0.0814  0.9365  0.0263  -1.2297   0.0000   0.0000   0.0000  -1.1017
  -3.700  -0.0545   0.07378   0.07010  -0.0824  0.9325  0.0263  -1.2315   0.0000   0.0000   0.0000  -1.2828
  -3.600  -0.0410   0.07216   0.06845  -0.0851  0.9301  0.0263  -1.2312   0.0000   0.0000   0.0000  -1.8537
  -3.500  -0.0277   0.06876   0.06508  -0.0890  0.9284  0.0268  -1.2852   0.0000   0.0000   0.0000  -2.9985
  -3.400  -0.0198   0.06490   0.06122  -0.0918  0.9271  0.0278  -1.3188   0.0000   0.0000   0.0000  -4.4270
  -3.300  -0.0159   0.06336   0.05969  -0.0913  0.9255  0.0288  -1.2587   0.0000   0.0000   0.0000  -5.5637
  -3.200  -0.0095   0.06215   0.05850  -0.0912  0.9241  0.0299  -1.1897   0.0000   0.0000   0.0000  -9.4846
  -3.100   0.0014   0.06090   0.05725  -0.0924  0.9228  0.0313  -1.1272   0.0000   0.0000   0.0000  67.3186
  -3.000   0.0170   0.05949   0.05582  -0.0950  0.9217  0.0334  -1.0752   0.0000   0.0000   0.0000   5.8837
  -2.900   0.0376   0.05785   0.05415  -0.0989  0.9209  0.0363  -1.0352   0.0000   0.0000   0.0000   2.9081
  -2.800   0.0677   0.05595   0.05218  -0.1054  0.9203  0.0412  -1.0155   0.0000   0.0000   0.0000   1.8212
  -2.600   0.1514   0.04940   0.04537  -0.1253  0.9205  0.0499  -1.0738   0.0000   0.0000   0.0000   1.0838
  -2.500   0.1722   0.05312   0.04879  -0.1253  0.9187  0.0724  -0.8863   0.0000   0.0000   0.0000   0.9835
  -2.400   0.1977   0.05205   0.04759  -0.1295  0.9182  0.0727  -0.8531   0.0000   0.0000   0.0000   0.9097
  -2.300   0.2189   0.04548   0.04104  -0.1367  0.9190  0.0769  -0.8823   0.0000   0.0000   0.0000   0.8787
  -2.200   0.2312   0.04431   0.03989  -0.1377  0.9184  0.0788  -0.8329   0.0000   0.0000   0.0000   0.8495
  -2.100   0.2458   0.04334   0.03892  -0.1391  0.9178  0.0813  -0.7858   0.0000   0.0000   0.0000   0.8196
  -2.000   0.2631   0.04241   0.03797  -0.1411  0.9173  0.0845  -0.7432   0.0000   0.0000   0.0000   0.7896
  -1.900   0.2843   0.04144   0.03693  -0.1440  0.9168  0.0891  -0.7078   0.0000   0.0000   0.0000   0.7596
  -1.800   0.3108   0.04060   0.03596  -0.1479  0.9165  0.0965  -0.6833   0.0000   0.0000   0.0000   0.7285
  -1.700   0.3517   0.03939   0.03439  -0.1554  0.9165  0.1074  -0.6932   0.0000   0.0000   0.0000   0.6940
  -1.600   0.3677   0.03735   0.03241  -0.1577  0.9163  0.1117  -0.6497   0.0000   0.0000   0.0000   0.6809
  -1.500   0.3838   0.03649   0.03158  -0.1592  0.9158  0.1159  -0.6023   0.0000   0.0000   0.0000   0.6667
  -0.800   0.5596   0.02810   0.02164  -0.1807  0.9143  0.0771  -0.6215   0.0000   0.0000   0.0000   0.5734
  -0.700   0.5822   0.02688   0.02025  -0.1828  0.9143  0.0616  -0.6388   0.0000   0.0000   0.0000   0.5645
  -0.600   0.5806   0.02672   0.01999  -0.1807  0.9079  0.0586  -0.6546   0.0000   0.0000   0.0000   0.5615
  -0.500   0.6000   0.02597   0.01888  -0.1818  0.9067  0.0503  -0.6930   0.0000   0.0000   0.0000   0.5533
  -0.400   0.6099   0.02609   0.01896  -0.1814  0.9035  0.0481  -0.6589   0.0000   0.0000   0.0000   0.5475
  -0.300   0.6242   0.02586   0.01868  -0.1820  0.9014  0.0461  -0.6240   0.0000   0.0000   0.0000   0.5415
  -0.200   0.6454   0.02488   0.01752  -0.1840  0.9010  0.0441  -0.6177   0.0000   0.0000   0.0000   0.5350
  -0.100   0.6636   0.02428   0.01682  -0.1854  0.9000  0.0426  -0.6224   0.0000   0.0000   0.0000   0.5291
   0.000   0.6812   0.02380   0.01626  -0.1866  0.8988  0.0413  -0.6324   0.0000   0.0000   0.0000   0.5235
   0.100   0.6986   0.02339   0.01579  -0.1877  0.8977  0.0402  -0.6427   0.0000   0.0000   0.0000   0.5183
   0.200   0.7157   0.02305   0.01539  -0.1889  0.8966  0.0394  -0.6536   0.0000   0.0000   0.0000   0.5133
   0.300   0.7328   0.02276   0.01505  -0.1900  0.8956  0.0388  -0.6646   0.0000   0.0000   0.0000   0.5086
   0.400   0.7498   0.02252   0.01474  -0.1911  0.8944  0.0385  -0.6755   0.0000   0.0000   0.0000   0.5041
   0.500   0.7668   0.02230   0.01445  -0.1922  0.8933  0.0385  -0.6867   0.0000   0.0000   0.0000   0.4997
   0.600   0.7840   0.02209   0.01417  -0.1932  0.8922  0.0390  -0.6991   0.0000   0.0000   0.0000   0.4955
   0.700   0.8013   0.02189   0.01392  -0.1943  0.8911  0.0400  -0.7117   0.0000   0.0000   0.0000   0.4914
   0.800   0.8186   0.02170   0.01368  -0.1954  0.8902  0.0419  -0.7244   0.0000   0.0000   0.0000   0.4875
   0.900   0.8360   0.02151   0.01347  -0.1965  0.8893  0.0457  -0.7372   0.0000   0.0000   0.0000   0.4837
   1.100   0.8765   0.02054   0.01341  -0.2006  0.8883  0.4068  -0.7690   0.0000   0.0000   0.0000   0.4774
   1.300   0.8805   0.01995   0.01378  -0.1969  0.8800  1.0000  -0.7787   0.0000   0.0000   0.0000   0.4718
   1.400   0.8878   0.02009   0.01397  -0.1961  0.8753  1.0000  -0.7876   0.0000   0.0000   0.0000   0.4690
   1.500   0.8996   0.02007   0.01394  -0.1962  0.8722  1.0000  -0.8000   0.0000   0.0000   0.0000   0.4661
   1.600   0.9130   0.02000   0.01384  -0.1966  0.8697  1.0000  -0.8137   0.0000   0.0000   0.0000   0.4632
   1.700   0.9275   0.01988   0.01371  -0.1971  0.8675  1.0000  -0.8281   0.0000   0.0000   0.0000   0.4603
   1.800   0.9426   0.01974   0.01355  -0.1978  0.8657  1.0000  -0.8432   0.0000   0.0000   0.0000   0.4575
   1.900   0.9584   0.01955   0.01336  -0.1985  0.8642  1.0000  -0.8608   0.0000   0.0000   0.0000   0.4547
   2.000   0.9749   0.01933   0.01313  -0.1994  0.8627  1.0000  -0.8790   0.0000   0.0000   0.0000   0.4520
   2.100   0.9920   0.01907   0.01286  -0.2003  0.8615  1.0000  -0.8979   0.0000   0.0000   0.0000   0.4493
   2.200   1.0093   0.01878   0.01256  -0.2013  0.8603  1.0000  -0.9196   0.0000   0.0000   0.0000   0.4467
   2.300   1.0267   0.01848   0.01227  -0.2023  0.8593  1.0000  -0.9416   0.0000   0.0000   0.0000   0.4441
   2.400   1.0446   0.01818   0.01196  -0.2034  0.8583  1.0000  -0.9641   0.0000   0.0000   0.0000   0.4417
   2.500   1.0633   0.01785   0.01163  -0.2046  0.8573  1.0000  -0.9873   0.0000   0.0000   0.0000   0.4393
   2.600   1.0828   0.01750   0.01129  -0.2060  0.8563  1.0000  -1.0150   0.0000   0.0000   0.0000   0.4370
   2.700   1.1026   0.01718   0.01098  -0.2075  0.8552  1.0000  -1.0433   0.0000   0.0000   0.0000   0.4349
   2.900   1.1006   0.01795   0.01178  -0.2029  0.8408  1.0000  -1.0611   0.0000   0.0000   0.0000   0.4308
   3.000   1.1143   0.01775   0.01159  -0.2031  0.8374  1.0000  -1.0878   0.0000   0.0000   0.0000   0.4286
   3.100   1.1299   0.01747   0.01133  -0.2037  0.8347  1.0000  -1.1169   0.0000   0.0000   0.0000   0.4265
   3.200   1.1468   0.01717   0.01105  -0.2046  0.8323  1.0000  -1.1478   0.0000   0.0000   0.0000   0.4245
   3.300   1.1652   0.01683   0.01074  -0.2058  0.8301  1.0000  -1.1805   0.0000   0.0000   0.0000   0.4226
   3.400   1.1849   0.01646   0.01039  -0.2072  0.8280  1.0000  -1.2175   0.0000   0.0000   0.0000   0.4207
   3.500   1.2053   0.01610   0.01006  -0.2087  0.8258  1.0000  -1.2647   0.0000   0.0000   0.0000   0.4189
   3.600   1.2252   0.01575   0.00973  -0.2102  0.8234  1.0000  -1.3180   0.0000   0.0000   0.0000   0.4171
   3.700   1.2472   0.01536   0.00937  -0.2121  0.8207  1.0000  -1.3751   0.0000   0.0000   0.0000   0.4155
   3.800   1.2601   0.01528   0.00931  -0.2122  0.8161  1.0000  -1.4164   0.0000   0.0000   0.0000   0.4137
   3.900   1.2608   0.01551   0.00958  -0.2101  0.8088  1.0000  -1.4365   0.0000   0.0000   0.0000   0.4118
   4.000   1.2703   0.01548   0.00959  -0.2095  0.8028  1.0000  -1.4721   0.0000   0.0000   0.0000   0.4100
   4.100   1.2839   0.01532   0.00946  -0.2098  0.7974  1.0000  -1.5153   0.0000   0.0000   0.0000   0.4083
   4.200   1.2997   0.01510   0.00926  -0.2104  0.7923  1.0000  -1.5626   0.0000   0.0000   0.0000   0.4067
   4.300   1.3187   0.01482   0.00899  -0.2117  0.7874  1.0000  -1.6424   0.0000   0.0000   0.0000   0.4052
   4.500   1.3222   0.01439   0.00719  -0.2027  0.5177  1.0000  -2.1950   0.0000   0.0000   0.0000   0.3976
   4.600   1.3134   0.01551   0.00761  -0.1986  0.4233  1.0000  -2.2256   0.0000   0.0000   0.0000   0.3954
   4.700   1.3092   0.01646   0.00811  -0.1957  0.3546  1.0000  -2.2814   0.0000   0.0000   0.0000   0.3935
   4.800   1.3066   0.01741   0.00864  -0.1932  0.2888  1.0000  -2.3346   0.0000   0.0000   0.0000   0.3918
   4.900   1.3055   0.01834   0.00918  -0.1910  0.2297  1.0000  -2.3868   0.0000   0.0000   0.0000   0.3901
   5.000   1.3015   0.01958   0.00985  -0.1885  0.1500  1.0000  -2.4201   0.0000   0.0000   0.0000   0.3885
   5.100   1.2962   0.02100   0.01066  -0.1859  0.0678  1.0000  -2.4449   0.0000   0.0000   0.0000   0.3870
   5.200   1.2964   0.02198   0.01132  -0.1840  0.0259  1.0000  -2.4907   0.0000   0.0000   0.0000   0.3854
   5.300   1.3024   0.02240   0.01173  -0.1829  0.0194  1.0000  -2.5559   0.0000   0.0000   0.0000   0.3838
   5.400   1.3097   0.02270   0.01205  -0.1821  0.0177  1.0000  -2.6287   0.0000   0.0000   0.0000   0.3822
   5.500   1.3169   0.02301   0.01240  -0.1813  0.0168  1.0000  -2.7047   0.0000   0.0000   0.0000   0.3807
   5.600   1.3239   0.02332   0.01277  -0.1805  0.0161  1.0000  -2.7805   0.0000   0.0000   0.0000   0.3792
   5.700   1.3308   0.02365   0.01315  -0.1796  0.0155  1.0000  -2.8557   0.0000   0.0000   0.0000   0.3778
   5.800   1.3376   0.02398   0.01355  -0.1788  0.0150  1.0000  -2.9303   0.0000   0.0000   0.0000   0.3763
   5.900   1.3443   0.02433   0.01395  -0.1779  0.0146  1.0000  -3.0046   0.0000   0.0000   0.0000   0.3748
   6.000   1.3508   0.02470   0.01438  -0.1770  0.0143  1.0000  -3.0780   0.0000   0.0000   0.0000   0.3734
   6.100   1.3571   0.02508   0.01484  -0.1760  0.0141  1.0000  -3.1502   0.0000   0.0000   0.0000   0.3719
   6.200   1.3631   0.02549   0.01532  -0.1750  0.0139  1.0000  -3.2207   0.0000   0.0000   0.0000   0.3705
   6.300   1.3688   0.02593   0.01583  -0.1740  0.0137  1.0000  -3.2892   0.0000   0.0000   0.0000   0.3690
   6.400   1.3743   0.02639   0.01636  -0.1729  0.0136  1.0000  -3.3560   0.0000   0.0000   0.0000   0.3676
   6.500   1.3793   0.02688   0.01693  -0.1717  0.0135  1.0000  -3.4198   0.0000   0.0000   0.0000   0.3662
   6.600   1.3837   0.02741   0.01754  -0.1705  0.0135  1.0000  -3.4802   0.0000   0.0000   0.0000   0.3647
   6.700   1.3878   0.02798   0.01819  -0.1692  0.0135  1.0000  -3.5379   0.0000   0.0000   0.0000   0.3633
   6.800   1.3915   0.02858   0.01886  -0.1678  0.0135  1.0000  -3.5930   0.0000   0.0000   0.0000   0.3618
   6.900   1.3947   0.02922   0.01958  -0.1664  0.0136  1.0000  -3.6445   0.0000   0.0000   0.0000   0.3604
   7.000   1.3979   0.02990   0.02033  -0.1650  0.0137  1.0000  -3.6941   0.0000   0.0000   0.0000   0.3590
   7.100   1.4009   0.03062   0.02112  -0.1635  0.0138  1.0000  -3.7415   0.0000   0.0000   0.0000   0.3575
   7.200   1.4039   0.03139   0.02195  -0.1621  0.0139  1.0000  -3.7872   0.0000   0.0000   0.0000   0.3561
   7.300   1.4074   0.03219   0.02282  -0.1607  0.0141  1.0000  -3.8323   0.0000   0.0000   0.0000   0.3547
   7.400   1.4112   0.03305   0.02375  -0.1594  0.0143  1.0000  -3.8764   0.0000   0.0000   0.0000   0.3533
   7.500   1.4161   0.03397   0.02473  -0.1583  0.0146  1.0000  -3.9209   0.0000   0.0000   0.0000   0.3520
   7.600   1.4224   0.03496   0.02578  -0.1573  0.0149  1.0000  -3.9661   0.0000   0.0000   0.0000   0.3507
   7.700   1.4310   0.03607   0.02697  -0.1566  0.0153  1.0000  -4.0133   0.0000   0.0000   0.0000   0.3494
   7.800   1.4430   0.03740   0.02837  -0.1564  0.0159  1.0000  -4.0632   0.0000   0.0000   0.0000   0.3482
   7.900   1.4614   0.03922   0.03030  -0.1572  0.0167  1.0000  -4.1165   0.0000   0.0000   0.0000   0.3472
   8.000   1.5116   0.04492   0.03627  -0.1632  0.0189  1.0000  -4.1532   0.0000   0.0000   0.0000   0.3474
   8.100   1.5169   0.04452   0.03587  -0.1619  0.0195  1.0000  -4.2557   0.0000   0.0000   0.0000   0.3460
   8.200   1.5230   0.04438   0.03579  -0.1606  0.0205  1.0000  -4.3355   0.0000   0.0000   0.0000   0.3446
   8.300   1.5478   0.04753   0.03956  -0.1608  0.0253  1.0000  -4.2125   0.0000   0.0000   0.0000   0.3428
   8.400   1.5583   0.05130   0.04370  -0.1600  0.0287  1.0000  -4.1307   0.0000   0.0000   0.0000   0.3415
   8.500   1.5620   0.05525   0.04792  -0.1589  0.0310  1.0000  -4.0719   0.0000   0.0000   0.0000   0.3404
   8.600   1.5751   0.06094   0.05441  -0.1563  0.0477  1.0000  -3.7666   0.0000   0.0000   0.0000   0.3378
  12.800   1.2530   0.16922   0.16619  -0.1583  0.0663  1.0000  -2.3481   0.0000   0.0000   0.0000   0.3599
  12.900   1.2502   0.17247   0.16943  -0.1602  0.0654  1.0000  -2.3148   0.0000   0.0000   0.0000   0.3616
  13.000   1.2479   0.17560   0.17256  -0.1619  0.0647  1.0000  -2.2856   0.0000   0.0000   0.0000   0.3631
  13.100   1.2458   0.17865   0.17560  -0.1635  0.0640  1.0000  -2.2593   0.0000   0.0000   0.0000   0.3645
  13.200   1.2441   0.18162   0.17857  -0.1651  0.0634  1.0000  -2.2357   0.0000   0.0000   0.0000   0.3658
  13.300   1.2426   0.18453   0.18148  -0.1665  0.0628  1.0000  -2.2144   0.0000   0.0000   0.0000   0.3670
  13.400   1.2414   0.18739   0.18433  -0.1678  0.0622  1.0000  -2.1954   0.0000   0.0000   0.0000   0.3680
  13.500   1.2403   0.19019   0.18713  -0.1691  0.0616  1.0000  -2.1786   0.0000   0.0000   0.0000   0.3691
  13.600   1.2395   0.19294   0.18987  -0.1703  0.0610  1.0000  -2.1640   0.0000   0.0000   0.0000   0.3700
  13.700   1.2388   0.19563   0.19256  -0.1714  0.0604  1.0000  -2.1516   0.0000   0.0000   0.0000   0.3708
  13.800   1.2384   0.19828   0.19520  -0.1725  0.0599  1.0000  -2.1416   0.0000   0.0000   0.0000   0.3716
  13.900   1.2381   0.20087   0.19779  -0.1735  0.0593  1.0000  -2.1339   0.0000   0.0000   0.0000   0.3723
  14.000   1.2380   0.20342   0.20034  -0.1744  0.0587  1.0000  -2.1286   0.0000   0.0000   0.0000   0.3729
  14.100   1.2381   0.20592   0.20283  -0.1752  0.0582  1.0000  -2.1257   0.0000   0.0000   0.0000   0.3734
  14.200   1.2384   0.20837   0.20529  -0.1760  0.0576  1.0000  -2.1252   0.0000   0.0000   0.0000   0.3738
  14.300   1.2389   0.21078   0.20770  -0.1766  0.0571  1.0000  -2.1273   0.0000   0.0000   0.0000   0.3741
  14.400   1.2395   0.21315   0.21007  -0.1772  0.0566  1.0000  -2.1319   0.0000   0.0000   0.0000   0.3744
  14.500   1.2404   0.21549   0.21241  -0.1777  0.0561  1.0000  -2.1395   0.0000   0.0000   0.0000   0.3745
  14.600   1.2414   0.21779   0.21471  -0.1781  0.0556  1.0000  -2.1499   0.0000   0.0000   0.0000   0.3745
  14.700   1.2424   0.22011   0.21703  -0.1785  0.0551  1.0000  -2.1611   0.0000   0.0000   0.0000   0.3745
  14.800   1.2434   0.22242   0.21935  -0.1788  0.0547  1.0000  -2.1747   0.0000   0.0000   0.0000   0.3745
  14.900   1.2447   0.22475   0.22167  -0.1789  0.0542  1.0000  -2.1913   0.0000   0.0000   0.0000   0.3743
  15.000   1.2460   0.22711   0.22404  -0.1789  0.0538  1.0000  -2.2111   0.0000   0.0000   0.0000   0.3739
  15.100   1.2476   0.22959   0.22653  -0.1787  0.0533  1.0000  -2.2345   0.0000   0.0000   0.0000   0.3734
  15.200   1.2468   0.23294   0.22988  -0.1787  0.0526  1.0000  -2.2413   0.0000   0.0000   0.0000   0.3733
  15.300   1.2319   0.24246   0.23935  -0.1805  0.0511  1.0000  -2.1039   0.0000   0.0000   0.0000   0.3765
  15.400   1.2311   0.24535   0.24225  -0.1816  0.0511  1.0000  -2.0842   0.0000   0.0000   0.0000   0.3773
  15.500   1.2304   0.24821   0.24511  -0.1827  0.0511  1.0000  -2.0649   0.0000   0.0000   0.0000   0.3781
  15.600   1.2296   0.25103   0.24793  -0.1838  0.0510  1.0000  -2.0459   0.0000   0.0000   0.0000   0.3789
  15.700   1.2288   0.25380   0.25070  -0.1848  0.0509  1.0000  -2.0272   0.0000   0.0000   0.0000   0.3797
  15.800   1.2280   0.25652   0.25343  -0.1858  0.0509  1.0000  -2.0087   0.0000   0.0000   0.0000   0.3805
  15.900   1.2271   0.25918   0.25609  -0.1869  0.0508  1.0000  -1.9903   0.0000   0.0000   0.0000   0.3813
  16.000   1.2262   0.26176   0.25867  -0.1879  0.0507  1.0000  -1.9720   0.0000   0.0000   0.0000   0.3821
  16.100   1.2253   0.26424   0.26114  -0.1890  0.0505  1.0000  -1.9536   0.0000   0.0000   0.0000   0.3829
  16.200   1.2245   0.26657   0.26348  -0.1901  0.0503  1.0000  -1.9347   0.0000   0.0000   0.0000   0.3838
  16.300   1.2234   0.26875   0.26566  -0.1914  0.0499  1.0000  -1.9109   0.0000   0.0000   0.0000   0.3849
  16.400   1.2210   0.27095   0.26786  -0.1932  0.0492  1.0000  -1.8715   0.0000   0.0000   0.0000   0.3865
  16.500   1.2182   0.27332   0.27023  -0.1950  0.0484  1.0000  -1.8296   0.0000   0.0000   0.0000   0.3882
  16.600   1.2148   0.27582   0.27274  -0.1963  0.0475  1.0000  -1.7930   0.0000   0.0000   0.0000   0.3896
  16.700   1.2118   0.27839   0.27531  -0.1973  0.0468  1.0000  -1.7644   0.0000   0.0000   0.0000   0.3907
  16.800   1.2089   0.28094   0.27786  -0.1981  0.0460  1.0000  -1.7408   0.0000   0.0000   0.0000   0.3916
  16.900   1.2057   0.28343   0.28037  -0.1987  0.0454  1.0000  -1.7199   0.0000   0.0000   0.0000   0.3923
  17.000   1.2021   0.28585   0.28279  -0.1991  0.0447  1.0000  -1.7003   0.0000   0.0000   0.0000   0.3930
  17.100   1.1980   0.28815   0.28511  -0.1994  0.0441  1.0000  -1.6812   0.0000   0.0000   0.0000   0.3936
  17.200   1.1929   0.29029   0.28726  -0.1995  0.0436  1.0000  -1.6613   0.0000   0.0000   0.0000   0.3943
  17.300   1.1862   0.29215   0.28914  -0.1993  0.0431  1.0000  -1.6391   0.0000   0.0000   0.0000   0.3949
  17.400   1.1285   0.28515   0.28225  -0.1921  0.0434  1.0000  -1.5086   0.0000   0.0000   0.0000   0.3972
  17.500   1.1168   0.28487   0.28200  -0.1911  0.0430  1.0000  -1.4768   0.0000   0.0000   0.0000   0.3980
  17.600   1.1078   0.28494   0.28208  -0.1905  0.0425  1.0000  -1.4513   0.0000   0.0000   0.0000   0.3986
  17.700   1.1002   0.28517   0.28233  -0.1900  0.0421  1.0000  -1.4297   0.0000   0.0000   0.0000   0.3992
  17.800   1.0937   0.28549   0.28268  -0.1896  0.0416  1.0000  -1.4109   0.0000   0.0000   0.0000   0.3998
  17.900   1.0878   0.28588   0.28308  -0.1893  0.0412  1.0000  -1.3943   0.0000   0.0000   0.0000   0.4003
  18.000   1.0825   0.28632   0.28353  -0.1890  0.0407  1.0000  -1.3795   0.0000   0.0000   0.0000   0.4007
  18.100   1.0777   0.28678   0.28401  -0.1888  0.0403  1.0000  -1.3665   0.0000   0.0000   0.0000   0.4011
  18.200   1.0733   0.28728   0.28451  -0.1886  0.0398  1.0000  -1.3550   0.0000   0.0000   0.0000   0.4015
  18.300   1.0693   0.28779   0.28503  -0.1884  0.0394  1.0000  -1.3449   0.0000   0.0000   0.0000   0.4018
  18.400   1.0655   0.28831   0.28557  -0.1883  0.0390  1.0000  -1.3362   0.0000   0.0000   0.0000   0.4022
  18.500   1.0620   0.28884   0.28611  -0.1881  0.0386  1.0000  -1.3289   0.0000   0.0000   0.0000   0.4024
  18.600   1.0588   0.28938   0.28666  -0.1880  0.0382  1.0000  -1.3229   0.0000   0.0000   0.0000   0.4027
  18.700   1.0558   0.28992   0.28721  -0.1879  0.0378  1.0000  -1.3182   0.0000   0.0000   0.0000   0.4029


