xflr5 v6.61

 Calculated polar for: E61  (5.64%)

 1 1 Reynolds number fixed          Mach number fixed         

 xtrf =   1.000 (top)        1.000 (bottom)
 Mach =   0.000     Re =     0.400 e 6     Ncrit =   9.000

  alpha     CL        CD       CDp       Cm    Top Xtr Bot Xtr   Cpmin    Chinge    XCp    
 ------- -------- --------- --------- -------- ------- ------- -------- --------- ---------
 -10.000  -0.3265   0.13550   0.13292  -0.0246  0.9979  0.0074  -1.2071   0.0000   0.0000   0.0000   0.1695
  -9.900  -0.3211   0.13418   0.13160  -0.0259  0.9974  0.0077  -1.2020   0.0000   0.0000   0.0000   0.1643
  -9.800  -0.3156   0.13285   0.13026  -0.0271  0.9969  0.0080  -1.1975   0.0000   0.0000   0.0000   0.1589
  -9.700  -0.3102   0.13150   0.12892  -0.0282  0.9961  0.0084  -1.1937   0.0000   0.0000   0.0000   0.1536
  -9.600  -0.3047   0.13017   0.12758  -0.0294  0.9953  0.0087  -1.1907   0.0000   0.0000   0.0000   0.1479
  -9.500  -0.2990   0.12886   0.12628  -0.0306  0.9944  0.0092  -1.1891   0.0000   0.0000   0.0000   0.1419
  -9.400  -0.2929   0.12761   0.12503  -0.0319  0.9936  0.0096  -1.1892   0.0000   0.0000   0.0000   0.1352
  -9.300  -0.2863   0.12649   0.12390  -0.0333  0.9927  0.0100  -1.1918   0.0000   0.0000   0.0000   0.1276
  -9.200  -0.2792   0.12556   0.12297  -0.0349  0.9919  0.0105  -1.1964   0.0000   0.0000   0.0000   0.1188
  -9.100  -0.2722   0.12471   0.12213  -0.0366  0.9911  0.0108  -1.2006   0.0000   0.0000   0.0000   0.1091
  -9.000  -0.2664   0.12328   0.12064  -0.0380  0.9905  0.0108  -1.2039   0.0000   0.0000   0.0000   0.1008
  -8.900  -0.2592   0.12255   0.11991  -0.0399  0.9898  0.0110  -1.2076   0.0000   0.0000   0.0000   0.0893
  -8.800  -0.2523   0.12172   0.11907  -0.0418  0.9893  0.0111  -1.2101   0.0000   0.0000   0.0000   0.0775
  -8.700  -0.2466   0.12080   0.11816  -0.0433  0.9883  0.0112  -1.2125   0.0000   0.0000   0.0000   0.0674
  -8.600  -0.2431   0.11990   0.11726  -0.0441  0.9863  0.0113  -1.2154   0.0000   0.0000   0.0000   0.0617
  -8.500  -0.2383   0.11887   0.11624  -0.0452  0.9848  0.0114  -1.2164   0.0000   0.0000   0.0000   0.0532
  -8.400  -0.2329   0.11777   0.11513  -0.0465  0.9835  0.0114  -1.2157   0.0000   0.0000   0.0000   0.0432
  -8.300  -0.2272   0.11661   0.11397  -0.0478  0.9823  0.0114  -1.2152   0.0000   0.0000   0.0000   0.0320
  -8.200  -0.2211   0.11540   0.11277  -0.0493  0.9812  0.0115  -1.2146   0.0000   0.0000   0.0000   0.0194
  -8.100  -0.2147   0.11415   0.11152  -0.0508  0.9802  0.0115  -1.2140   0.0000   0.0000   0.0000   0.0053
  -8.000  -0.2078   0.11284   0.11021  -0.0524  0.9793  0.0115  -1.2127   0.0000   0.0000   0.0000  -0.0106
  -7.900  -0.2007   0.11150   0.10887  -0.0541  0.9786  0.0115  -1.2112   0.0000   0.0000   0.0000  -0.0282
  -7.800  -0.1934   0.11014   0.10751  -0.0558  0.9779  0.0116  -1.2099   0.0000   0.0000   0.0000  -0.0476
  -7.700  -0.1860   0.10878   0.10615  -0.0576  0.9773  0.0116  -1.2086   0.0000   0.0000   0.0000  -0.0690
  -7.600  -0.1784   0.10741   0.10478  -0.0594  0.9767  0.0116  -1.2071   0.0000   0.0000   0.0000  -0.0926
  -7.500  -0.1765   0.10642   0.10380  -0.0595  0.9743  0.0116  -1.2087   0.0000   0.0000   0.0000  -0.0968
  -7.400  -0.1756   0.10551   0.10289  -0.0593  0.9712  0.0116  -1.2109   0.0000   0.0000   0.0000  -0.0973
  -7.300  -0.1715   0.10436   0.10175  -0.0601  0.9692  0.0116  -1.2114   0.0000   0.0000   0.0000  -0.1102
  -7.200  -0.1664   0.10316   0.10055  -0.0611  0.9675  0.0116  -1.2116   0.0000   0.0000   0.0000  -0.1275
  -7.100  -0.1606   0.10189   0.09929  -0.0623  0.9661  0.0116  -1.2114   0.0000   0.0000   0.0000  -0.1485
  -7.000  -0.1544   0.10059   0.09799  -0.0637  0.9648  0.0116  -1.2110   0.0000   0.0000   0.0000  -0.1732
  -6.900  -0.1478   0.09926   0.09666  -0.0651  0.9637  0.0117  -1.2104   0.0000   0.0000   0.0000  -0.2019
  -6.800  -0.1408   0.09790   0.09530  -0.0667  0.9627  0.0117  -1.2096   0.0000   0.0000   0.0000  -0.2356
  -6.700  -0.1332   0.09641   0.09381  -0.0683  0.9619  0.0117  -1.2080   0.0000   0.0000   0.0000  -0.2758
  -6.400  -0.1168   0.09236   0.08977  -0.0713  0.9565  0.0117  -1.2064   0.0000   0.0000   0.0000  -0.3747
  -6.300  -0.1163   0.09138   0.08881  -0.0709  0.9523  0.0117  -1.2088   0.0000   0.0000   0.0000  -0.3736
  -6.200  -0.1101   0.08994   0.08737  -0.0721  0.9500  0.0117  -1.2081   0.0000   0.0000   0.0000  -0.4192
  -6.100  -0.1024   0.08837   0.08580  -0.0737  0.9483  0.0116  -1.2065   0.0000   0.0000   0.0000  -0.4856
  -6.000  -0.0935   0.08672   0.08415  -0.0756  0.9468  0.0116  -1.2046   0.0000   0.0000   0.0000  -0.5751
  -5.900  -0.0839   0.08502   0.08245  -0.0777  0.9456  0.0116  -1.2024   0.0000   0.0000   0.0000  -0.6944
  -5.800  -0.0739   0.08332   0.08074  -0.0798  0.9445  0.0116  -1.2002   0.0000   0.0000   0.0000  -0.8522
  -5.700  -0.0635   0.08160   0.07902  -0.0822  0.9436  0.0116  -1.1981   0.0000   0.0000   0.0000  -1.0697
  -5.600  -0.0524   0.07985   0.07727  -0.0846  0.9427  0.0116  -1.1959   0.0000   0.0000   0.0000  -1.3944
  -5.500  -0.0409   0.07807   0.07549  -0.0872  0.9420  0.0116  -1.1938   0.0000   0.0000   0.0000  -1.9214
  -5.400  -0.0289   0.07628   0.07369  -0.0899  0.9413  0.0116  -1.1917   0.0000   0.0000   0.0000  -2.9142
  -5.300  -0.0164   0.07447   0.07188  -0.0927  0.9407  0.0116  -1.1897   0.0000   0.0000   0.0000  -5.4919
  -5.200  -0.0035   0.07264   0.07005  -0.0956  0.9402  0.0116  -1.1879   0.0000   0.0000   0.0000  -27.3975
  -5.100  -0.0164   0.07275   0.07018  -0.0915  0.9316  0.0116  -1.1979   0.0000   0.0000   0.0000  -5.4390
  -5.000  -0.0088   0.07132   0.06875  -0.0930  0.9290  0.0116  -1.1989   0.0000   0.0000   0.0000  -10.4962
  -4.900   0.0009   0.06973   0.06716  -0.0949  0.9271  0.0116  -1.1992   0.0000   0.0000   0.0000  113.0096
  -4.800   0.0119   0.06806   0.06548  -0.0973  0.9255  0.0116  -1.1995   0.0000   0.0000   0.0000   8.5838
  -4.700   0.0238   0.06632   0.06373  -0.0998  0.9242  0.0116  -1.1998   0.0000   0.0000   0.0000   4.5030
  -4.600   0.0367   0.06452   0.06193  -0.1026  0.9231  0.0116  -1.2004   0.0000   0.0000   0.0000   3.0833
  -4.500   0.0505   0.06267   0.06007  -0.1056  0.9221  0.0115  -1.2016   0.0000   0.0000   0.0000   2.3713
  -4.400   0.0650   0.06078   0.05817  -0.1088  0.9212  0.0115  -1.2034   0.0000   0.0000   0.0000   1.9469
  -4.300   0.0803   0.05883   0.05621  -0.1121  0.9205  0.0115  -1.2063   0.0000   0.0000   0.0000   1.6640
  -4.200   0.0966   0.05683   0.05420  -0.1157  0.9198  0.0115  -1.2104   0.0000   0.0000   0.0000   1.4633
  -4.100   0.1137   0.05478   0.05213  -0.1195  0.9192  0.0115  -1.2159   0.0000   0.0000   0.0000   1.3134
  -4.000   0.1321   0.05268   0.05001  -0.1235  0.9187  0.0114  -1.2225   0.0000   0.0000   0.0000   1.1963
  -3.900   0.1516   0.05057   0.04788  -0.1278  0.9183  0.0114  -1.2285   0.0000   0.0000   0.0000   1.1024
  -3.800   0.1729   0.04848   0.04576  -0.1324  0.9179  0.0115  -1.2306   0.0000   0.0000   0.0000   1.0238
  -3.300   0.2962   0.03575   0.03268  -0.1610  0.9168  0.0300  -1.0699   0.0000   0.0000   0.0000   0.7985
  -3.200   0.3134   0.03461   0.03150  -0.1635  0.9166  0.0309  -1.0220   0.0000   0.0000   0.0000   0.7760
  -3.100   0.3316   0.03346   0.03031  -0.1661  0.9163  0.0318  -0.9782   0.0000   0.0000   0.0000   0.7549
  -3.000   0.3509   0.03226   0.02906  -0.1689  0.9161  0.0330  -0.9402   0.0000   0.0000   0.0000   0.7351
  -2.900   0.3712   0.03101   0.02775  -0.1719  0.9159  0.0344  -0.9081   0.0000   0.0000   0.0000   0.7166
  -2.800   0.3659   0.03083   0.02757  -0.1690  0.9079  0.0347  -0.9084   0.0000   0.0000   0.0000   0.7152
  -2.700   0.3838   0.02970   0.02637  -0.1713  0.9066  0.0362  -0.8858   0.0000   0.0000   0.0000   0.6995
  -2.600   0.4036   0.02852   0.02511  -0.1740  0.9058  0.0382  -0.8668   0.0000   0.0000   0.0000   0.6840
  -2.500   0.4241   0.02743   0.02393  -0.1766  0.9051  0.0407  -0.8526   0.0000   0.0000   0.0000   0.6691
  -2.400   0.4420   0.02691   0.02332  -0.1781  0.9041  0.0437  -0.8347   0.0000   0.0000   0.0000   0.6553
  -2.300   0.4546   0.02755   0.02390  -0.1775  0.9023  0.0459  -0.7907   0.0000   0.0000   0.0000   0.6428
  -2.200   0.4719   0.02732   0.02356  -0.1788  0.9014  0.0465  -0.7609   0.0000   0.0000   0.0000   0.6310
  -2.100   0.5137   0.02198   0.01791  -0.1890  0.9047  0.0515  -0.8201   0.0000   0.0000   0.0000   0.6199
  -2.000   0.5263   0.02147   0.01743  -0.1898  0.9035  0.0537  -0.7557   0.0000   0.0000   0.0000   0.6124
  -1.900   0.5400   0.02103   0.01698  -0.1907  0.9025  0.0566  -0.6974   0.0000   0.0000   0.0000   0.6048
  -1.800   0.5557   0.02050   0.01641  -0.1920  0.9017  0.0602  -0.6523   0.0000   0.0000   0.0000   0.5969
  -1.700   0.5718   0.02005   0.01589  -0.1931  0.9010  0.0647  -0.6151   0.0000   0.0000   0.0000   0.5890
  -1.500   0.6115   0.01841   0.01392  -0.1972  0.9003  0.0773  -0.6135   0.0000   0.0000   0.0000   0.5736
  -1.400   0.6274   0.01759   0.01313  -0.1987  0.8997  0.0818  -0.6211   0.0000   0.0000   0.0000   0.5677
  -1.300   0.6424   0.01714   0.01269  -0.1997  0.8990  0.0861  -0.6283   0.0000   0.0000   0.0000   0.5618
  -1.200   0.6582   0.01676   0.01229  -0.2008  0.8983  0.0917  -0.6357   0.0000   0.0000   0.0000   0.5558
  -1.100   0.6734   0.01658   0.01207  -0.2014  0.8974  0.0981  -0.6432   0.0000   0.0000   0.0000   0.5498
  -1.000   0.6940   0.01558   0.01092  -0.2039  0.8973  0.1120  -0.6530   0.0000   0.0000   0.0000   0.5444
  -0.700   0.7600   0.01226   0.00679  -0.2087  0.8973  0.0417  -0.6822   0.0000   0.0000   0.0000   0.5248
  -0.600   0.7798   0.01141   0.00576  -0.2102  0.8971  0.0342  -0.6922   0.0000   0.0000   0.0000   0.5197
  -0.500   0.7967   0.01103   0.00528  -0.2112  0.8962  0.0302  -0.7013   0.0000   0.0000   0.0000   0.5152
  -0.400   0.8121   0.01085   0.00509  -0.2120  0.8951  0.0282  -0.7103   0.0000   0.0000   0.0000   0.5110
  -0.300   0.8275   0.01071   0.00495  -0.2128  0.8939  0.0268  -0.7199   0.0000   0.0000   0.0000   0.5070
  -0.200   0.8458   0.01032   0.00448  -0.2143  0.8931  0.0257  -0.7307   0.0000   0.0000   0.0000   0.5031
  -0.100   0.8643   0.00999   0.00410  -0.2158  0.8923  0.0249  -0.7417   0.0000   0.0000   0.0000   0.4994
   0.000   0.8826   0.00976   0.00380  -0.2173  0.8913  0.0243  -0.7535   0.0000   0.0000   0.0000   0.4958
   0.100   0.9009   0.00958   0.00356  -0.2188  0.8902  0.0238  -0.7655   0.0000   0.0000   0.0000   0.4923
   0.200   0.9187   0.00943   0.00335  -0.2202  0.8889  0.0235  -0.7776   0.0000   0.0000   0.0000   0.4890
   0.300   0.9366   0.00929   0.00317  -0.2216  0.8874  0.0234  -0.7908   0.0000   0.0000   0.0000   0.4859
   0.400   0.9467   0.00927   0.00314  -0.2213  0.8841  0.0235  -0.7997   0.0000   0.0000   0.0000   0.4829
   0.500   0.9536   0.00929   0.00315  -0.2204  0.8797  0.0239  -0.8067   0.0000   0.0000   0.0000   0.4801
   0.700   0.9803   0.00888   0.00322  -0.2215  0.8732  0.2063  -0.8301   0.0000   0.0000   0.0000   0.4748
   0.800   0.9960   0.00860   0.00328  -0.2227  0.8702  0.3532  -0.8440   0.0000   0.0000   0.0000   0.4723
   0.900   1.0135   0.00825   0.00337  -0.2244  0.8676  0.5489  -0.8604   0.0000   0.0000   0.0000   0.4700
   1.000   1.0221   0.00763   0.00343  -0.2237  0.8647  0.8809  -0.8713   0.0000   0.0000   0.0000   0.4674
   1.200   1.0506   0.00744   0.00322  -0.2249  0.8580  1.0000  -0.9004   0.0000   0.0000   0.0000   0.4623
   1.300   1.0670   0.00743   0.00316  -0.2261  0.8544  1.0000  -0.9182   0.0000   0.0000   0.0000   0.4600
   1.400   1.0745   0.00748   0.00322  -0.2253  0.8504  1.0000  -0.9299   0.0000   0.0000   0.0000   0.4577
   1.500   1.0831   0.00753   0.00327  -0.2247  0.8459  1.0000  -0.9426   0.0000   0.0000   0.0000   0.4554
   1.600   1.0931   0.00755   0.00328  -0.2244  0.8411  1.0000  -0.9583   0.0000   0.0000   0.0000   0.4531
   1.700   1.1049   0.00756   0.00327  -0.2245  0.8363  1.0000  -0.9755   0.0000   0.0000   0.0000   0.4509
   1.800   1.1177   0.00757   0.00325  -0.2249  0.8319  1.0000  -0.9935   0.0000   0.0000   0.0000   0.4488
   1.900   1.1311   0.00758   0.00323  -0.2253  0.8274  1.0000  -1.0121   0.0000   0.0000   0.0000   0.4467
   2.000   1.1449   0.00760   0.00320  -0.2259  0.8229  1.0000  -1.0322   0.0000   0.0000   0.0000   0.4447
   2.100   1.1585   0.00764   0.00321  -0.2264  0.8181  1.0000  -1.0542   0.0000   0.0000   0.0000   0.4427
   2.200   1.1668   0.00769   0.00327  -0.2258  0.8143  1.0000  -1.0715   0.0000   0.0000   0.0000   0.4407
   2.300   1.1757   0.00773   0.00333  -0.2253  0.8096  1.0000  -1.0928   0.0000   0.0000   0.0000   0.4387
   2.400   1.1857   0.00777   0.00336  -0.2251  0.8042  1.0000  -1.1153   0.0000   0.0000   0.0000   0.4367
   2.500   1.1965   0.00781   0.00338  -0.2250  0.7983  1.0000  -1.1390   0.0000   0.0000   0.0000   0.4348
   2.600   1.2082   0.00785   0.00338  -0.2250  0.7923  1.0000  -1.1636   0.0000   0.0000   0.0000   0.4329
   2.700   1.2202   0.00790   0.00339  -0.2252  0.7864  1.0000  -1.1888   0.0000   0.0000   0.0000   0.4311
   2.800   1.2329   0.00797   0.00341  -0.2255  0.7799  1.0000  -1.2149   0.0000   0.0000   0.0000   0.4293
   2.900   1.2415   0.00801   0.00348  -0.2250  0.7760  1.0000  -1.2394   0.0000   0.0000   0.0000   0.4275
   3.000   1.2508   0.00806   0.00355  -0.2246  0.7713  1.0000  -1.2668   0.0000   0.0000   0.0000   0.4257
   3.100   1.2605   0.00811   0.00360  -0.2243  0.7658  1.0000  -1.3009   0.0000   0.0000   0.0000   0.4240
   3.200   1.2706   0.00817   0.00364  -0.2240  0.7593  1.0000  -1.3372   0.0000   0.0000   0.0000   0.4222
   3.300   1.2812   0.00823   0.00368  -0.2239  0.7523  1.0000  -1.3745   0.0000   0.0000   0.0000   0.4205
   3.400   1.2919   0.00832   0.00371  -0.2237  0.7442  1.0000  -1.4123   0.0000   0.0000   0.0000   0.4189
   3.500   1.3021   0.00840   0.00377  -0.2235  0.7369  1.0000  -1.4493   0.0000   0.0000   0.0000   0.4172
   3.600   1.3108   0.00845   0.00384  -0.2230  0.7305  1.0000  -1.4838   0.0000   0.0000   0.0000   0.4155
   3.700   1.3179   0.00856   0.00385  -0.2220  0.7102  1.0000  -1.5163   0.0000   0.0000   0.0000   0.4137
   3.800   1.3230   0.00877   0.00388  -0.2205  0.6782  1.0000  -1.5454   0.0000   0.0000   0.0000   0.4118
   3.900   1.3256   0.00911   0.00395  -0.2185  0.6335  1.0000  -1.5704   0.0000   0.0000   0.0000   0.4098
   4.000   1.3260   0.00960   0.00409  -0.2161  0.5788  1.0000  -1.5932   0.0000   0.0000   0.0000   0.4079
   4.100   1.3258   0.01017   0.00431  -0.2137  0.5237  1.0000  -1.6198   0.0000   0.0000   0.0000   0.4060
   4.700   1.3073   0.01720   0.00831  -0.1978  0.0083  1.0000  -2.2184   0.0000   0.0000   0.0000   0.3954
   4.800   1.3157   0.01742   0.00859  -0.1972  0.0081  1.0000  -2.3297   0.0000   0.0000   0.0000   0.3938
   4.900   1.3239   0.01764   0.00885  -0.1965  0.0080  1.0000  -2.4303   0.0000   0.0000   0.0000   0.3922
   5.000   1.3321   0.01786   0.00912  -0.1959  0.0079  1.0000  -2.5251   0.0000   0.0000   0.0000   0.3907
   5.100   1.3401   0.01809   0.00940  -0.1952  0.0078  1.0000  -2.6159   0.0000   0.0000   0.0000   0.3892
   5.200   1.3479   0.01833   0.00969  -0.1945  0.0078  1.0000  -2.7038   0.0000   0.0000   0.0000   0.3877
   5.300   1.3556   0.01858   0.00999  -0.1938  0.0077  1.0000  -2.7892   0.0000   0.0000   0.0000   0.3862
   5.400   1.3631   0.01885   0.01032  -0.1930  0.0077  1.0000  -2.8719   0.0000   0.0000   0.0000   0.3847
   5.500   1.3703   0.01915   0.01067  -0.1922  0.0078  1.0000  -2.9513   0.0000   0.0000   0.0000   0.3832
   5.600   1.3771   0.01949   0.01107  -0.1913  0.0078  1.0000  -3.0269   0.0000   0.0000   0.0000   0.3817
   5.700   1.3835   0.01986   0.01150  -0.1903  0.0079  1.0000  -3.0983   0.0000   0.0000   0.0000   0.3803
   5.800   1.3894   0.02028   0.01198  -0.1892  0.0080  1.0000  -3.1638   0.0000   0.0000   0.0000   0.3787
   5.900   1.3944   0.02077   0.01253  -0.1879  0.0081  1.0000  -3.2220   0.0000   0.0000   0.0000   0.3772
   6.000   1.3986   0.02132   0.01315  -0.1865  0.0082  1.0000  -3.2714   0.0000   0.0000   0.0000   0.3756
   6.100   1.4017   0.02198   0.01388  -0.1848  0.0083  1.0000  -3.3083   0.0000   0.0000   0.0000   0.3741
   6.200   1.4039   0.02273   0.01473  -0.1831  0.0084  1.0000  -3.3374   0.0000   0.0000   0.0000   0.3724
   6.300   1.4112   0.02299   0.01500  -0.1823  0.0087  1.0000  -3.4345   0.0000   0.0000   0.0000   0.3711
   6.400   1.4185   0.02324   0.01526  -0.1815  0.0091  1.0000  -3.5339   0.0000   0.0000   0.0000   0.3697
   6.500   1.4258   0.02351   0.01555  -0.1807  0.0096  1.0000  -3.6311   0.0000   0.0000   0.0000   0.3684
   6.600   1.4325   0.02384   0.01591  -0.1798  0.0102  1.0000  -3.7189   0.0000   0.0000   0.0000   0.3670
   6.700   1.4382   0.02429   0.01643  -0.1786  0.0109  1.0000  -3.7823   0.0000   0.0000   0.0000   0.3655
   6.800   1.4423   0.02500   0.01724  -0.1770  0.0120  1.0000  -3.7985   0.0000   0.0000   0.0000   0.3639
   6.900   1.4458   0.02604   0.01841  -0.1752  0.0133  1.0000  -3.7812   0.0000   0.0000   0.0000   0.3622
   7.000   1.4520   0.02746   0.01997  -0.1737  0.0152  1.0000  -3.7525   0.0000   0.0000   0.0000   0.3605
   7.100   1.4759   0.02996   0.02255  -0.1751  0.0202  1.0000  -3.7160   0.0000   0.0000   0.0000   0.3593
  14.200   1.2636   0.20228   0.20032  -0.1795  0.0232  1.0000  -2.6414   0.0000   0.0000   0.0000   0.3732
  14.300   1.2705   0.19574   0.19378  -0.1752  0.0197  1.0000  -3.1334   0.0000   0.0000   0.0000   0.3684
  14.400   1.2672   0.19974   0.19778  -0.1769  0.0195  1.0000  -3.0738   0.0000   0.0000   0.0000   0.3700
  14.500   1.2636   0.20392   0.20195  -0.1785  0.0194  1.0000  -3.0063   0.0000   0.0000   0.0000   0.3716
  14.600   1.2599   0.20826   0.20629  -0.1802  0.0192  1.0000  -2.9309   0.0000   0.0000   0.0000   0.3732
  14.700   1.2559   0.21279   0.21082  -0.1819  0.0191  1.0000  -2.8474   0.0000   0.0000   0.0000   0.3749
  14.800   1.2515   0.21753   0.21556  -0.1836  0.0189  1.0000  -2.7552   0.0000   0.0000   0.0000   0.3767
  14.900   1.2468   0.22253   0.22056  -0.1854  0.0188  1.0000  -2.6530   0.0000   0.0000   0.0000   0.3786
  15.000   1.2417   0.22777   0.22580  -0.1871  0.0186  1.0000  -2.5413   0.0000   0.0000   0.0000   0.3805
  15.100   1.2396   0.23168   0.22968  -0.1885  0.0186  1.0000  -2.4844   0.0000   0.0000   0.0000   0.3817
  15.200   1.2389   0.23489   0.23289  -0.1896  0.0186  1.0000  -2.4559   0.0000   0.0000   0.0000   0.3826
  15.300   1.2383   0.23806   0.23606  -0.1907  0.0185  1.0000  -2.4286   0.0000   0.0000   0.0000   0.3834
  15.400   1.2377   0.24120   0.23921  -0.1917  0.0185  1.0000  -2.4025   0.0000   0.0000   0.0000   0.3842
  15.500   1.2370   0.24431   0.24231  -0.1928  0.0185  1.0000  -2.3775   0.0000   0.0000   0.0000   0.3849
  15.600   1.2364   0.24738   0.24539  -0.1938  0.0185  1.0000  -2.3536   0.0000   0.0000   0.0000   0.3857
  15.700   1.2357   0.25042   0.24843  -0.1947  0.0184  1.0000  -2.3308   0.0000   0.0000   0.0000   0.3864
  15.800   1.2351   0.25341   0.25142  -0.1957  0.0184  1.0000  -2.3090   0.0000   0.0000   0.0000   0.3871
  15.900   1.2344   0.25636   0.25437  -0.1966  0.0184  1.0000  -2.2885   0.0000   0.0000   0.0000   0.3878
  16.000   1.2337   0.25925   0.25726  -0.1975  0.0183  1.0000  -2.2694   0.0000   0.0000   0.0000   0.3884
  16.100   1.2332   0.26206   0.26007  -0.1983  0.0182  1.0000  -2.2525   0.0000   0.0000   0.0000   0.3891
  16.200   1.2329   0.26472   0.26273  -0.1992  0.0181  1.0000  -2.2394   0.0000   0.0000   0.0000   0.3896
  16.300   1.2355   0.26659   0.26461  -0.2003  0.0176  1.0000  -2.2485   0.0000   0.0000   0.0000   0.3900
  16.400   1.2387   0.26879   0.26682  -0.2017  0.0162  1.0000  -2.2353   0.0000   0.0000   0.0000   0.3906
  16.500   1.2375   0.27179   0.26981  -0.2027  0.0155  1.0000  -2.2049   0.0000   0.0000   0.0000   0.3914
  16.600   1.2357   0.27470   0.27273  -0.2035  0.0148  1.0000  -2.1814   0.0000   0.0000   0.0000   0.3922
  16.700   1.2337   0.27749   0.27552  -0.2042  0.0141  1.0000  -2.1659   0.0000   0.0000   0.0000   0.3929
  16.800   1.2315   0.28013   0.27816  -0.2048  0.0134  1.0000  -2.1583   0.0000   0.0000   0.0000   0.3934
  16.900   1.2291   0.28259   0.28063  -0.2052  0.0128  1.0000  -2.1595   0.0000   0.0000   0.0000   0.3940
  17.000   1.2266   0.28482   0.28287  -0.2056  0.0121  1.0000  -2.1725   0.0000   0.0000   0.0000   0.3944
  17.100   1.2241   0.28667   0.28472  -0.2057  0.0114  1.0000  -2.2074   0.0000   0.0000   0.0000   0.3946


