xflr5 v6.61

 Calculated polar for: E61  (5.64%)

 1 1 Reynolds number fixed          Mach number fixed         

 xtrf =   1.000 (top)        1.000 (bottom)
 Mach =   0.000     Re =     0.300 e 6     Ncrit =   9.000

  alpha     CL        CD       CDp       Cm    Top Xtr Bot Xtr   Cpmin    Chinge    XCp    
 ------- -------- --------- --------- -------- ------- ------- -------- --------- ---------
 -10.000  -0.3406   0.14371   0.14076  -0.0220  1.0000  0.0115  -1.2561   0.0000   0.0000   0.0000   0.1810
  -9.900  -0.3405   0.14303   0.14009  -0.0218  1.0000  0.0115  -1.2592   0.0000   0.0000   0.0000   0.1816
  -9.800  -0.3404   0.14234   0.13941  -0.0216  1.0000  0.0115  -1.2622   0.0000   0.0000   0.0000   0.1823
  -9.700  -0.3403   0.14164   0.13873  -0.0214  1.0000  0.0115  -1.2654   0.0000   0.0000   0.0000   0.1830
  -9.600  -0.3404   0.14094   0.13804  -0.0211  1.0000  0.0115  -1.2686   0.0000   0.0000   0.0000   0.1838
  -9.500  -0.3405   0.14025   0.13736  -0.0209  1.0000  0.0115  -1.2719   0.0000   0.0000   0.0000   0.1847
  -9.400  -0.3407   0.13955   0.13668  -0.0206  1.0000  0.0116  -1.2753   0.0000   0.0000   0.0000   0.1856
  -9.300  -0.3352   0.13827   0.13540  -0.0220  0.9993  0.0116  -1.2760   0.0000   0.0000   0.0000   0.1803
  -9.200  -0.3291   0.13692   0.13405  -0.0235  0.9985  0.0116  -1.2760   0.0000   0.0000   0.0000   0.1743
  -9.100  -0.3230   0.13558   0.13270  -0.0251  0.9977  0.0116  -1.2761   0.0000   0.0000   0.0000   0.1681
  -9.000  -0.3169   0.13422   0.13135  -0.0266  0.9969  0.0116  -1.2762   0.0000   0.0000   0.0000   0.1616
  -8.900  -0.3110   0.13285   0.12997  -0.0280  0.9958  0.0116  -1.2765   0.0000   0.0000   0.0000   0.1553
  -8.800  -0.3051   0.13149   0.12862  -0.0295  0.9947  0.0116  -1.2769   0.0000   0.0000   0.0000   0.1488
  -8.700  -0.2992   0.13013   0.12725  -0.0309  0.9935  0.0117  -1.2774   0.0000   0.0000   0.0000   0.1418
  -8.600  -0.2930   0.12874   0.12587  -0.0324  0.9924  0.0117  -1.2780   0.0000   0.0000   0.0000   0.1343
  -8.500  -0.2867   0.12737   0.12443  -0.0341  0.9913  0.0117  -1.2826   0.0000   0.0000   0.0000   0.1260
  -8.400  -0.2800   0.12598   0.12303  -0.0357  0.9904  0.0117  -1.2827   0.0000   0.0000   0.0000   0.1172
  -8.300  -0.2731   0.12457   0.12163  -0.0374  0.9896  0.0117  -1.2826   0.0000   0.0000   0.0000   0.1075
  -8.200  -0.2660   0.12316   0.12022  -0.0392  0.9889  0.0117  -1.2823   0.0000   0.0000   0.0000   0.0971
  -8.100  -0.2619   0.12189   0.11895  -0.0400  0.9867  0.0117  -1.2833   0.0000   0.0000   0.0000   0.0917
  -8.000  -0.2569   0.12058   0.11764  -0.0411  0.9848  0.0117  -1.2839   0.0000   0.0000   0.0000   0.0844
  -7.900  -0.2513   0.11924   0.11630  -0.0423  0.9832  0.0117  -1.2842   0.0000   0.0000   0.0000   0.0758
  -7.800  -0.2455   0.11789   0.11495  -0.0436  0.9818  0.0117  -1.2845   0.0000   0.0000   0.0000   0.0663
  -7.700  -0.2395   0.11653   0.11360  -0.0450  0.9805  0.0117  -1.2848   0.0000   0.0000   0.0000   0.0558
  -7.600  -0.2331   0.11516   0.11222  -0.0465  0.9794  0.0118  -1.2850   0.0000   0.0000   0.0000   0.0442
  -7.500  -0.2264   0.11377   0.11084  -0.0480  0.9784  0.0118  -1.2851   0.0000   0.0000   0.0000   0.0313
  -7.400  -0.2195   0.11239   0.10946  -0.0496  0.9776  0.0118  -1.2853   0.0000   0.0000   0.0000   0.0169
  -7.200  -0.2085   0.10973   0.10681  -0.0519  0.9750  0.0118  -1.2845   0.0000   0.0000   0.0000  -0.0063
  -7.100  -0.2090   0.10884   0.10592  -0.0514  0.9713  0.0118  -1.2874   0.0000   0.0000   0.0000  -0.0031
  -7.000  -0.2053   0.10763   0.10473  -0.0520  0.9690  0.0118  -1.2880   0.0000   0.0000   0.0000  -0.0107
  -6.900  -0.2004   0.10634   0.10343  -0.0530  0.9671  0.0118  -1.2879   0.0000   0.0000   0.0000  -0.0218
  -6.800  -0.1946   0.10495   0.10205  -0.0542  0.9655  0.0118  -1.2873   0.0000   0.0000   0.0000  -0.0362
  -6.700  -0.1876   0.10346   0.10056  -0.0557  0.9641  0.0118  -1.2859   0.0000   0.0000   0.0000  -0.0549
  -6.600  -0.1792   0.10182   0.09892  -0.0576  0.9630  0.0118  -1.2836   0.0000   0.0000   0.0000  -0.0796
  -6.500  -0.1700   0.10011   0.09721  -0.0596  0.9621  0.0118  -1.2808   0.0000   0.0000   0.0000  -0.1094
  -6.400  -0.1603   0.09837   0.09547  -0.0618  0.9613  0.0118  -1.2778   0.0000   0.0000   0.0000  -0.1450
  -6.300  -0.1500   0.09659   0.09369  -0.0641  0.9606  0.0118  -1.2745   0.0000   0.0000   0.0000  -0.1877
  -6.200  -0.1508   0.09572   0.09283  -0.0634  0.9566  0.0118  -1.2777   0.0000   0.0000   0.0000  -0.1807
  -6.100  -0.1491   0.09461   0.09173  -0.0634  0.9525  0.0118  -1.2796   0.0000   0.0000   0.0000  -0.1853
  -6.000  -0.1423   0.09310   0.09022  -0.0648  0.9500  0.0118  -1.2786   0.0000   0.0000   0.0000  -0.2157
  -5.900  -0.1338   0.09144   0.08856  -0.0666  0.9481  0.0118  -1.2767   0.0000   0.0000   0.0000  -0.2587
  -5.800  -0.1243   0.08972   0.08684  -0.0686  0.9465  0.0118  -1.2744   0.0000   0.0000   0.0000  -0.3140
  -5.700  -0.1140   0.08796   0.08507  -0.0709  0.9452  0.0118  -1.2718   0.0000   0.0000   0.0000  -0.3845
  -5.600  -0.1033   0.08618   0.08330  -0.0733  0.9440  0.0118  -1.2693   0.0000   0.0000   0.0000  -0.4736
  -5.500  -0.0920   0.08439   0.08150  -0.0758  0.9431  0.0118  -1.2666   0.0000   0.0000   0.0000  -0.5896
  -5.400  -0.0802   0.08257   0.07967  -0.0784  0.9422  0.0118  -1.2639   0.0000   0.0000   0.0000  -0.7463
  -5.300  -0.0680   0.08074   0.07784  -0.0811  0.9415  0.0118  -1.2612   0.0000   0.0000   0.0000  -0.9650
  -5.200  -0.0555   0.07892   0.07601  -0.0839  0.9408  0.0118  -1.2586   0.0000   0.0000   0.0000  -1.2884
  -5.100  -0.0427   0.07710   0.07419  -0.0868  0.9402  0.0118  -1.2561   0.0000   0.0000   0.0000  -1.8184
  -5.000  -0.0547   0.07715   0.07426  -0.0831  0.9321  0.0118  -1.2659   0.0000   0.0000   0.0000  -1.2936
  -4.900  -0.0476   0.07574   0.07286  -0.0844  0.9293  0.0118  -1.2664   0.0000   0.0000   0.0000  -1.5514
  -4.800  -0.0380   0.07415   0.07126  -0.0864  0.9273  0.0118  -1.2660   0.0000   0.0000   0.0000  -2.0606
  -4.700  -0.0269   0.07246   0.06957  -0.0887  0.9256  0.0118  -1.2651   0.0000   0.0000   0.0000  -3.0999
  -4.600  -0.0146   0.07070   0.06780  -0.0913  0.9242  0.0118  -1.2641   0.0000   0.0000   0.0000  -6.0836
  -4.500  -0.0015   0.06889   0.06598  -0.0941  0.9230  0.0118  -1.2631   0.0000   0.0000   0.0000  -64.9948
  -3.900   0.0962   0.05642   0.05345  -0.1158  0.9182  0.0119  -1.3159   0.0000   0.0000   0.0000   1.4680
  -3.800   0.1179   0.05210   0.04910  -0.1225  0.9177  0.0124  -1.4467   0.0000   0.0000   0.0000   1.3012
  -3.700   0.1372   0.04912   0.04608  -0.1276  0.9173  0.0131  -1.4609   0.0000   0.0000   0.0000   1.1904
  -3.600   0.1471   0.04820   0.04516  -0.1285  0.9168  0.0143  -1.3198   0.0000   0.0000   0.0000   1.1333
  -3.500   0.1594   0.04748   0.04445  -0.1298  0.9164  0.0165  -1.1743   0.0000   0.0000   0.0000   1.0730
  -3.400   0.1824   0.04609   0.04302  -0.1342  0.9161  0.0216  -1.0856   0.0000   0.0000   0.0000   0.9931
  -3.200   0.2177   0.04327   0.04004  -0.1406  0.9130  0.0402  -0.9803   0.0000   0.0000   0.0000   0.9018
  -3.100   0.2169   0.04280   0.03955  -0.1392  0.9056  0.0408  -0.9699   0.0000   0.0000   0.0000   0.8974
  -3.000   0.2429   0.04142   0.03809  -0.1438  0.9047  0.0431  -0.9111   0.0000   0.0000   0.0000   0.8471
  -2.900   0.2683   0.04087   0.03745  -0.1474  0.9035  0.0452  -0.8941   0.0000   0.0000   0.0000   0.8037
  -2.600   0.3901   0.03106   0.02711  -0.1732  0.9151  0.0503  -0.9317   0.0000   0.0000   0.0000   0.6970
  -2.500   0.3740   0.03145   0.02752  -0.1679  0.9037  0.0500  -0.9458   0.0000   0.0000   0.0000   0.7016
  -2.400   0.3872   0.03048   0.02656  -0.1692  0.9027  0.0515  -0.8917   0.0000   0.0000   0.0000   0.6895
  -2.300   0.4009   0.02975   0.02583  -0.1703  0.9017  0.0531  -0.8373   0.0000   0.0000   0.0000   0.6774
  -2.200   0.4162   0.02902   0.02507  -0.1718  0.9008  0.0552  -0.7888   0.0000   0.0000   0.0000   0.6652
  -2.100   0.4333   0.02825   0.02425  -0.1737  0.9001  0.0578  -0.7475   0.0000   0.0000   0.0000   0.6530
  -2.000   0.4519   0.02744   0.02336  -0.1757  0.8995  0.0612  -0.7142   0.0000   0.0000   0.0000   0.6408
  -1.900   0.4712   0.02676   0.02258  -0.1777  0.8990  0.0656  -0.6887   0.0000   0.0000   0.0000   0.6289
  -1.800   0.4866   0.02703   0.02276  -0.1780  0.8978  0.0703  -0.6554   0.0000   0.0000   0.0000   0.6174
  -1.700   0.5187   0.02454   0.01996  -0.1839  0.8989  0.0765  -0.6682   0.0000   0.0000   0.0000   0.6060
  -1.600   0.5355   0.02339   0.01883  -0.1859  0.8985  0.0803  -0.6175   0.0000   0.0000   0.0000   0.5985
  -1.500   0.5507   0.02281   0.01827  -0.1871  0.8978  0.0839  -0.5813   0.0000   0.0000   0.0000   0.5910
  -1.400   0.5669   0.02231   0.01773  -0.1884  0.8972  0.0888  -0.5888   0.0000   0.0000   0.0000   0.5833
  -1.300   0.5837   0.02194   0.01730  -0.1895  0.8965  0.0953  -0.5969   0.0000   0.0000   0.0000   0.5756
  -1.200   0.5971   0.02237   0.01769  -0.1893  0.8953  0.1019  -0.6038   0.0000   0.0000   0.0000   0.5678
  -1.100   0.6232   0.02021   0.01537  -0.1939  0.8960  0.1145  -0.6157   0.0000   0.0000   0.0000   0.5618
  -0.800   0.6959   0.01636   0.01052  -0.2001  0.8970  0.0506  -0.6467   0.0000   0.0000   0.0000   0.5379
  -0.700   0.7126   0.01589   0.00998  -0.2009  0.8965  0.0430  -0.6554   0.0000   0.0000   0.0000   0.5323
  -0.600   0.7322   0.01503   0.00896  -0.2026  0.8965  0.0381  -0.6654   0.0000   0.0000   0.0000   0.5268
  -0.500   0.7505   0.01440   0.00819  -0.2038  0.8962  0.0342  -0.6749   0.0000   0.0000   0.0000   0.5217
  -0.400   0.7674   0.01396   0.00767  -0.2048  0.8957  0.0314  -0.6842   0.0000   0.0000   0.0000   0.5169
  -0.300   0.7834   0.01366   0.00733  -0.2057  0.8950  0.0296  -0.6940   0.0000   0.0000   0.0000   0.5124
  -0.200   0.7993   0.01340   0.00705  -0.2065  0.8943  0.0284  -0.7038   0.0000   0.0000   0.0000   0.5082
  -0.100   0.8156   0.01314   0.00678  -0.2075  0.8935  0.0274  -0.7139   0.0000   0.0000   0.0000   0.5041
   0.000   0.8321   0.01288   0.00650  -0.2085  0.8928  0.0266  -0.7242   0.0000   0.0000   0.0000   0.5002
   0.100   0.8494   0.01257   0.00613  -0.2098  0.8922  0.0262  -0.7356   0.0000   0.0000   0.0000   0.4964
   0.200   0.8665   0.01230   0.00579  -0.2109  0.8915  0.0259  -0.7471   0.0000   0.0000   0.0000   0.4928
   0.300   0.8835   0.01208   0.00550  -0.2121  0.8907  0.0258  -0.7587   0.0000   0.0000   0.0000   0.4893
   0.400   0.9004   0.01187   0.00525  -0.2132  0.8898  0.0258  -0.7714   0.0000   0.0000   0.0000   0.4859
   0.500   0.9176   0.01170   0.00502  -0.2144  0.8890  0.0261  -0.7842   0.0000   0.0000   0.0000   0.4827
   0.700   0.9587   0.01082   0.00498  -0.2188  0.8877  0.3403  -0.8149   0.0000   0.0000   0.0000   0.4770
   0.800   0.9789   0.01027   0.00505  -0.2211  0.8870  0.5975  -0.8312   0.0000   0.0000   0.0000   0.4745
   0.900   0.9767   0.00993   0.00523  -0.2180  0.8823  0.8527  -0.8344   0.0000   0.0000   0.0000   0.4718
   1.100   0.9900   0.00982   0.00517  -0.2158  0.8738  1.0000  -0.8531   0.0000   0.0000   0.0000   0.4664
   1.200   1.0038   0.00974   0.00508  -0.2163  0.8710  1.0000  -0.8672   0.0000   0.0000   0.0000   0.4638
   1.300   1.0181   0.00966   0.00498  -0.2169  0.8683  1.0000  -0.8818   0.0000   0.0000   0.0000   0.4612
   1.400   1.0327   0.00957   0.00488  -0.2176  0.8658  1.0000  -0.8974   0.0000   0.0000   0.0000   0.4587
   1.500   1.0483   0.00947   0.00476  -0.2185  0.8634  1.0000  -0.9150   0.0000   0.0000   0.0000   0.4563
   1.600   1.0651   0.00936   0.00463  -0.2196  0.8610  1.0000  -0.9334   0.0000   0.0000   0.0000   0.4540
   1.700   1.0822   0.00926   0.00450  -0.2208  0.8585  1.0000  -0.9549   0.0000   0.0000   0.0000   0.4518
   1.800   1.0998   0.00918   0.00440  -0.2222  0.8559  1.0000  -0.9767   0.0000   0.0000   0.0000   0.4496
   1.900   1.1110   0.00920   0.00441  -0.2222  0.8520  1.0000  -0.9935   0.0000   0.0000   0.0000   0.4475
   2.000   1.1176   0.00927   0.00449  -0.2212  0.8471  1.0000  -1.0065   0.0000   0.0000   0.0000   0.4453
   2.100   1.1269   0.00929   0.00451  -0.2207  0.8423  1.0000  -1.0223   0.0000   0.0000   0.0000   0.4431
   2.200   1.1378   0.00930   0.00451  -0.2206  0.8378  1.0000  -1.0418   0.0000   0.0000   0.0000   0.4411
   2.300   1.1506   0.00928   0.00448  -0.2209  0.8336  1.0000  -1.0633   0.0000   0.0000   0.0000   0.4390
   2.400   1.1648   0.00924   0.00442  -0.2215  0.8295  1.0000  -1.0897   0.0000   0.0000   0.0000   0.4371
   2.500   1.1798   0.00920   0.00436  -0.2223  0.8255  1.0000  -1.1178   0.0000   0.0000   0.0000   0.4352
   2.600   1.1956   0.00918   0.00431  -0.2232  0.8212  1.0000  -1.1470   0.0000   0.0000   0.0000   0.4334
   2.700   1.2073   0.00922   0.00434  -0.2233  0.8166  1.0000  -1.1716   0.0000   0.0000   0.0000   0.4316
   2.800   1.2144   0.00928   0.00442  -0.2224  0.8114  1.0000  -1.1913   0.0000   0.0000   0.0000   0.4296
   2.900   1.2230   0.00932   0.00448  -0.2219  0.8056  1.0000  -1.2127   0.0000   0.0000   0.0000   0.4277
   3.000   1.2336   0.00935   0.00450  -0.2217  0.7998  1.0000  -1.2400   0.0000   0.0000   0.0000   0.4259
   3.100   1.2456   0.00936   0.00450  -0.2218  0.7941  1.0000  -1.2729   0.0000   0.0000   0.0000   0.4241
   3.200   1.2587   0.00938   0.00448  -0.2221  0.7885  1.0000  -1.3140   0.0000   0.0000   0.0000   0.4225
   3.300   1.2724   0.00941   0.00448  -0.2227  0.7828  1.0000  -1.3566   0.0000   0.0000   0.0000   0.4208
   3.400   1.2830   0.00947   0.00454  -0.2225  0.7776  1.0000  -1.3939   0.0000   0.0000   0.0000   0.4191
   3.500   1.2908   0.00952   0.00463  -0.2218  0.7722  1.0000  -1.4265   0.0000   0.0000   0.0000   0.4174
   3.600   1.2997   0.00958   0.00470  -0.2213  0.7656  1.0000  -1.4613   0.0000   0.0000   0.0000   0.4157
   3.700   1.3098   0.00962   0.00473  -0.2210  0.7582  1.0000  -1.4982   0.0000   0.0000   0.0000   0.4140
   3.800   1.3210   0.00967   0.00474  -0.2209  0.7503  1.0000  -1.5374   0.0000   0.0000   0.0000   0.4124
   3.900   1.3319   0.00974   0.00472  -0.2207  0.7365  1.0000  -1.5765   0.0000   0.0000   0.0000   0.4107
   4.000   1.3363   0.00982   0.00471  -0.2189  0.7119  1.0000  -1.6048   0.0000   0.0000   0.0000   0.4088
   4.600   1.2970   0.01651   0.00771  -0.1976  0.1160  1.0000  -2.0697   0.0000   0.0000   0.0000   0.3965
   4.700   1.2914   0.01810   0.00867  -0.1947  0.0196  1.0000  -2.1237   0.0000   0.0000   0.0000   0.3948
   4.800   1.2980   0.01850   0.00902  -0.1937  0.0122  1.0000  -2.2507   0.0000   0.0000   0.0000   0.3931
   4.900   1.3060   0.01874   0.00932  -0.1929  0.0104  1.0000  -2.3495   0.0000   0.0000   0.0000   0.3915
   5.000   1.3140   0.01899   0.00962  -0.1922  0.0098  1.0000  -2.4391   0.0000   0.0000   0.0000   0.3899
   5.100   1.3219   0.01923   0.00992  -0.1915  0.0093  1.0000  -2.5243   0.0000   0.0000   0.0000   0.3884
   5.200   1.3297   0.01948   0.01024  -0.1907  0.0090  1.0000  -2.6063   0.0000   0.0000   0.0000   0.3869
   5.300   1.3372   0.01975   0.01058  -0.1900  0.0088  1.0000  -2.6856   0.0000   0.0000   0.0000   0.3854
   5.400   1.3445   0.02004   0.01094  -0.1892  0.0087  1.0000  -2.7626   0.0000   0.0000   0.0000   0.3838
   5.500   1.3515   0.02037   0.01134  -0.1883  0.0086  1.0000  -2.8377   0.0000   0.0000   0.0000   0.3823
   5.600   1.3583   0.02071   0.01175  -0.1874  0.0085  1.0000  -2.9114   0.0000   0.0000   0.0000   0.3808
   5.700   1.3647   0.02109   0.01219  -0.1864  0.0085  1.0000  -2.9839   0.0000   0.0000   0.0000   0.3794
   5.800   1.3706   0.02149   0.01266  -0.1854  0.0085  1.0000  -3.0550   0.0000   0.0000   0.0000   0.3779
   5.900   1.3764   0.02191   0.01313  -0.1843  0.0086  1.0000  -3.1263   0.0000   0.0000   0.0000   0.3764
   6.000   1.3819   0.02234   0.01362  -0.1832  0.0086  1.0000  -3.1977   0.0000   0.0000   0.0000   0.3749
   6.100   1.3873   0.02278   0.01410  -0.1821  0.0087  1.0000  -3.2699   0.0000   0.0000   0.0000   0.3735
   6.200   1.3927   0.02322   0.01458  -0.1810  0.0088  1.0000  -3.3442   0.0000   0.0000   0.0000   0.3720
   6.300   1.3982   0.02366   0.01506  -0.1799  0.0090  1.0000  -3.4204   0.0000   0.0000   0.0000   0.3706
   6.400   1.4037   0.02409   0.01553  -0.1788  0.0092  1.0000  -3.4983   0.0000   0.0000   0.0000   0.3691
   6.500   1.4092   0.02453   0.01600  -0.1777  0.0094  1.0000  -3.5769   0.0000   0.0000   0.0000   0.3677
   6.600   1.4146   0.02497   0.01648  -0.1766  0.0097  1.0000  -3.6553   0.0000   0.0000   0.0000   0.3663
   6.700   1.4199   0.02543   0.01698  -0.1755  0.0100  1.0000  -3.7315   0.0000   0.0000   0.0000   0.3649
   6.800   1.4250   0.02592   0.01752  -0.1743  0.0104  1.0000  -3.8018   0.0000   0.0000   0.0000   0.3635
   6.900   1.4297   0.02648   0.01815  -0.1730  0.0109  1.0000  -3.8594   0.0000   0.0000   0.0000   0.3620
   7.000   1.4338   0.02717   0.01891  -0.1715  0.0115  1.0000  -3.8963   0.0000   0.0000   0.0000   0.3605
   7.100   1.4379   0.02802   0.01986  -0.1700  0.0123  1.0000  -3.9129   0.0000   0.0000   0.0000   0.3590
   7.200   1.4429   0.02908   0.02103  -0.1686  0.0132  1.0000  -3.9188   0.0000   0.0000   0.0000   0.3574
   7.300   1.4515   0.03044   0.02251  -0.1677  0.0146  1.0000  -3.9183   0.0000   0.0000   0.0000   0.3560
   7.400   1.4965   0.03450   0.02671  -0.1725  0.0198  1.0000  -3.9046   0.0000   0.0000   0.0000   0.3555
  12.100   1.3117   0.13431   0.13193  -0.1359  0.0498  1.0000  -3.0456   0.0000   0.0000   0.0000   0.3373
  12.200   1.3040   0.13761   0.13528  -0.1386  0.0496  1.0000  -3.0012   0.0000   0.0000   0.0000   0.3399
  12.300   1.2966   0.14129   0.13901  -0.1417  0.0493  1.0000  -2.9498   0.0000   0.0000   0.0000   0.3428
  12.400   1.2901   0.14549   0.14325  -0.1453  0.0488  1.0000  -2.8886   0.0000   0.0000   0.0000   0.3460
  12.500   1.2842   0.15067   0.14847  -0.1495  0.0480  1.0000  -2.8068   0.0000   0.0000   0.0000   0.3498
  12.600   1.2799   0.15614   0.15394  -0.1536  0.0470  1.0000  -2.7207   0.0000   0.0000   0.0000   0.3534
  12.700   1.2765   0.16045   0.15825  -0.1565  0.0461  1.0000  -2.6619   0.0000   0.0000   0.0000   0.3559
  12.800   1.2730   0.16447   0.16227  -0.1591  0.0453  1.0000  -2.6090   0.0000   0.0000   0.0000   0.3582
  12.900   1.2700   0.16817   0.16596  -0.1613  0.0445  1.0000  -2.5652   0.0000   0.0000   0.0000   0.3601
  13.000   1.2673   0.17164   0.16942  -0.1633  0.0438  1.0000  -2.5283   0.0000   0.0000   0.0000   0.3619
  13.100   1.2650   0.17495   0.17273  -0.1651  0.0431  1.0000  -2.4968   0.0000   0.0000   0.0000   0.3634
  13.200   1.2630   0.17813   0.17590  -0.1668  0.0425  1.0000  -2.4695   0.0000   0.0000   0.0000   0.3648
  13.300   1.2613   0.18121   0.17898  -0.1683  0.0419  1.0000  -2.4459   0.0000   0.0000   0.0000   0.3661
  13.400   1.2598   0.18420   0.18197  -0.1698  0.0414  1.0000  -2.4255   0.0000   0.0000   0.0000   0.3673
  13.500   1.2586   0.18712   0.18488  -0.1712  0.0408  1.0000  -2.4080   0.0000   0.0000   0.0000   0.3684
  13.600   1.2575   0.18997   0.18773  -0.1724  0.0403  1.0000  -2.3933   0.0000   0.0000   0.0000   0.3694
  13.700   1.2567   0.19275   0.19051  -0.1736  0.0399  1.0000  -2.3811   0.0000   0.0000   0.0000   0.3703
  13.800   1.2560   0.19549   0.19325  -0.1748  0.0394  1.0000  -2.3712   0.0000   0.0000   0.0000   0.3711
  13.900   1.2555   0.19818   0.19593  -0.1759  0.0390  1.0000  -2.3634   0.0000   0.0000   0.0000   0.3719
  14.000   1.2551   0.20082   0.19857  -0.1769  0.0386  1.0000  -2.3579   0.0000   0.0000   0.0000   0.3726
  14.100   1.2549   0.20342   0.20117  -0.1778  0.0382  1.0000  -2.3545   0.0000   0.0000   0.0000   0.3732
  14.200   1.2548   0.20598   0.20373  -0.1787  0.0378  1.0000  -2.3534   0.0000   0.0000   0.0000   0.3738
  14.300   1.2549   0.20848   0.20623  -0.1795  0.0375  1.0000  -2.3550   0.0000   0.0000   0.0000   0.3743
  14.400   1.2550   0.21095   0.20870  -0.1803  0.0371  1.0000  -2.3587   0.0000   0.0000   0.0000   0.3747
  14.500   1.2553   0.21331   0.21106  -0.1809  0.0367  1.0000  -2.3682   0.0000   0.0000   0.0000   0.3750
  14.600   1.2562   0.21537   0.21313  -0.1813  0.0363  1.0000  -2.3925   0.0000   0.0000   0.0000   0.3750
  14.700   1.2593   0.21488   0.21265  -0.1785  0.0343  1.0000  -2.5717   0.0000   0.0000   0.0000   0.3721
  14.800   1.2531   0.21984   0.21760  -0.1798  0.0336  1.0000  -2.5072   0.0000   0.0000   0.0000   0.3737
  14.900   1.2444   0.22632   0.22408  -0.1818  0.0332  1.0000  -2.3864   0.0000   0.0000   0.0000   0.3762
  15.000   1.2370   0.23260   0.23032  -0.1839  0.0328  1.0000  -2.2675   0.0000   0.0000   0.0000   0.3787
  15.100   1.2363   0.23569   0.23341  -0.1851  0.0328  1.0000  -2.2418   0.0000   0.0000   0.0000   0.3797
  15.200   1.2356   0.23873   0.23645  -0.1863  0.0328  1.0000  -2.2173   0.0000   0.0000   0.0000   0.3806
  15.300   1.2349   0.24170   0.23943  -0.1875  0.0327  1.0000  -2.1940   0.0000   0.0000   0.0000   0.3815
  15.400   1.2344   0.24462   0.24234  -0.1887  0.0327  1.0000  -2.1720   0.0000   0.0000   0.0000   0.3824
  15.500   1.2339   0.24744   0.24516  -0.1899  0.0326  1.0000  -2.1514   0.0000   0.0000   0.0000   0.3832
  15.600   1.2336   0.25014   0.24786  -0.1911  0.0325  1.0000  -2.1328   0.0000   0.0000   0.0000   0.3841
  15.700   1.2338   0.25262   0.25034  -0.1923  0.0323  1.0000  -2.1173   0.0000   0.0000   0.0000   0.3849
  15.800   1.2353   0.25466   0.25239  -0.1936  0.0318  1.0000  -2.1075   0.0000   0.0000   0.0000   0.3857
  15.900   1.2368   0.25683   0.25455  -0.1952  0.0310  1.0000  -2.0869   0.0000   0.0000   0.0000   0.3866
  16.000   1.2366   0.25961   0.25733  -0.1967  0.0302  1.0000  -2.0532   0.0000   0.0000   0.0000   0.3877
  16.100   1.2356   0.26254   0.26027  -0.1980  0.0294  1.0000  -2.0212   0.0000   0.0000   0.0000   0.3888
  16.200   1.2342   0.26545   0.26318  -0.1991  0.0287  1.0000  -1.9944   0.0000   0.0000   0.0000   0.3897
  16.300   1.2327   0.26830   0.26603  -0.2001  0.0279  1.0000  -1.9733   0.0000   0.0000   0.0000   0.3905
  16.400   1.2311   0.27107   0.26881  -0.2009  0.0271  1.0000  -1.9572   0.0000   0.0000   0.0000   0.3912
  16.500   1.2295   0.27377   0.27151  -0.2016  0.0264  1.0000  -1.9453   0.0000   0.0000   0.0000   0.3918
  16.600   1.2277   0.27637   0.27412  -0.2021  0.0256  1.0000  -1.9374   0.0000   0.0000   0.0000   0.3924
  16.700   1.2257   0.27888   0.27663  -0.2026  0.0249  1.0000  -1.9334   0.0000   0.0000   0.0000   0.3928
  16.800   1.2236   0.28126   0.27902  -0.2030  0.0242  1.0000  -1.9337   0.0000   0.0000   0.0000   0.3933
  16.900   1.2213   0.28351   0.28127  -0.2032  0.0235  1.0000  -1.9389   0.0000   0.0000   0.0000   0.3936
  17.000   1.2188   0.28557   0.28333  -0.2033  0.0229  1.0000  -1.9508   0.0000   0.0000   0.0000   0.3938
  17.100   1.2162   0.28736   0.28514  -0.2032  0.0222  1.0000  -1.9730   0.0000   0.0000   0.0000   0.3939
  17.200   1.2137   0.28874   0.28653  -0.2028  0.0215  1.0000  -2.0148   0.0000   0.0000   0.0000   0.3936
  17.300   1.2134   0.28897   0.28677  -0.2013  0.0205  1.0000  -2.1311   0.0000   0.0000   0.0000   0.3922
  17.400   1.1320   0.28396   0.28187  -0.1949  0.0233  1.0000  -1.6777   0.0000   0.0000   0.0000   0.3988
  17.500   1.1225   0.28385   0.28177  -0.1941  0.0229  1.0000  -1.6605   0.0000   0.0000   0.0000   0.3994
  17.600   1.1151   0.28387   0.28181  -0.1934  0.0225  1.0000  -1.6549   0.0000   0.0000   0.0000   0.3998
  17.700   1.1091   0.28391   0.28185  -0.1928  0.0220  1.0000  -1.6611   0.0000   0.0000   0.0000   0.4000


