xflr5 v6.61

 Calculated polar for: E61  (5.64%)

 1 1 Reynolds number fixed          Mach number fixed         

 xtrf =   1.000 (top)        1.000 (bottom)
 Mach =   0.000     Re =     0.130 e 6     Ncrit =   9.000

  alpha     CL        CD       CDp       Cm    Top Xtr Bot Xtr   Cpmin    Chinge    XCp    
 ------- -------- --------- --------- -------- ------- ------- -------- --------- ---------
 -10.000  -0.3247   0.13922   0.13469  -0.0254  1.0000  0.0229  -1.0970   0.0000   0.0000   0.0000   0.1668
  -9.900  -0.3241   0.13841   0.13390  -0.0253  1.0000  0.0231  -1.0998   0.0000   0.0000   0.0000   0.1671
  -9.800  -0.3235   0.13762   0.13312  -0.0251  1.0000  0.0232  -1.1029   0.0000   0.0000   0.0000   0.1675
  -9.700  -0.3229   0.13684   0.13236  -0.0250  1.0000  0.0233  -1.1062   0.0000   0.0000   0.0000   0.1679
  -9.600  -0.3224   0.13608   0.13162  -0.0248  1.0000  0.0235  -1.1097   0.0000   0.0000   0.0000   0.1684
  -9.500  -0.3220   0.13534   0.13089  -0.0246  1.0000  0.0236  -1.1134   0.0000   0.0000   0.0000   0.1690
  -9.400  -0.3217   0.13462   0.13018  -0.0244  1.0000  0.0237  -1.1174   0.0000   0.0000   0.0000   0.1696
  -9.300  -0.3214   0.13392   0.12950  -0.0242  1.0000  0.0239  -1.1217   0.0000   0.0000   0.0000   0.1702
  -9.200  -0.3213   0.13324   0.12885  -0.0240  1.0000  0.0240  -1.1263   0.0000   0.0000   0.0000   0.1709
  -9.100  -0.3212   0.13260   0.12822  -0.0238  1.0000  0.0241  -1.1313   0.0000   0.0000   0.0000   0.1717
  -9.000  -0.3213   0.13198   0.12762  -0.0235  1.0000  0.0242  -1.1366   0.0000   0.0000   0.0000   0.1725
  -8.900  -0.3215   0.13139   0.12706  -0.0233  1.0000  0.0244  -1.1423   0.0000   0.0000   0.0000   0.1734
  -8.800  -0.3218   0.13084   0.12652  -0.0230  1.0000  0.0245  -1.1483   0.0000   0.0000   0.0000   0.1743
  -8.700  -0.3222   0.13033   0.12603  -0.0227  1.0000  0.0246  -1.1548   0.0000   0.0000   0.0000   0.1753
  -8.600  -0.3228   0.12985   0.12557  -0.0225  1.0000  0.0247  -1.1616   0.0000   0.0000   0.0000   0.1764
  -8.500  -0.3236   0.12943   0.12517  -0.0222  1.0000  0.0248  -1.1691   0.0000   0.0000   0.0000   0.1776
  -8.400  -0.3247   0.12909   0.12486  -0.0219  1.0000  0.0249  -1.1775   0.0000   0.0000   0.0000   0.1788
  -8.200  -0.3292   0.12934   0.12506  -0.0213  1.0000  0.0253  -1.2057   0.0000   0.0000   0.0000   0.1817
  -8.100  -0.3305   0.12890   0.12464  -0.0209  1.0000  0.0254  -1.2125   0.0000   0.0000   0.0000   0.1832
  -8.000  -0.3320   0.12847   0.12423  -0.0205  1.0000  0.0254  -1.2193   0.0000   0.0000   0.0000   0.1849
  -7.900  -0.3336   0.12804   0.12382  -0.0201  1.0000  0.0254  -1.2262   0.0000   0.0000   0.0000   0.1866
  -7.800  -0.3354   0.12762   0.12342  -0.0196  1.0000  0.0255  -1.2330   0.0000   0.0000   0.0000   0.1883
  -7.700  -0.3373   0.12720   0.12303  -0.0191  1.0000  0.0255  -1.2400   0.0000   0.0000   0.0000   0.1902
  -7.600  -0.3393   0.12679   0.12264  -0.0186  1.0000  0.0256  -1.2470   0.0000   0.0000   0.0000   0.1921
  -7.500  -0.3415   0.12639   0.12227  -0.0181  1.0000  0.0256  -1.2540   0.0000   0.0000   0.0000   0.1942
  -7.400  -0.3439   0.12600   0.12190  -0.0175  1.0000  0.0256  -1.2611   0.0000   0.0000   0.0000   0.1963
  -7.300  -0.3464   0.12562   0.12154  -0.0169  1.0000  0.0256  -1.2683   0.0000   0.0000   0.0000   0.1985
  -7.200  -0.3491   0.12524   0.12119  -0.0162  1.0000  0.0257  -1.2755   0.0000   0.0000   0.0000   0.2008
  -7.100  -0.3520   0.12487   0.12084  -0.0155  1.0000  0.0257  -1.2827   0.0000   0.0000   0.0000   0.2033
  -7.000  -0.3550   0.12451   0.12051  -0.0148  1.0000  0.0257  -1.2900   0.0000   0.0000   0.0000   0.2058
  -6.900  -0.3582   0.12415   0.12017  -0.0140  1.0000  0.0257  -1.2973   0.0000   0.0000   0.0000   0.2084
  -6.800  -0.3615   0.12379   0.11983  -0.0133  1.0000  0.0257  -1.3044   0.0000   0.0000   0.0000   0.2109
  -6.700  -0.3645   0.12339   0.11945  -0.0125  1.0000  0.0258  -1.3112   0.0000   0.0000   0.0000   0.2133
  -6.600  -0.3671   0.12293   0.11902  -0.0119  1.0000  0.0258  -1.3176   0.0000   0.0000   0.0000   0.2153
  -6.500  -0.3686   0.12236   0.11847  -0.0116  1.0000  0.0258  -1.3235   0.0000   0.0000   0.0000   0.2164
  -6.400  -0.3696   0.12173   0.11786  -0.0114  1.0000  0.0258  -1.3291   0.0000   0.0000   0.0000   0.2170
  -6.300  -0.3702   0.12105   0.11720  -0.0113  1.0000  0.0259  -1.3341   0.0000   0.0000   0.0000   0.2174
  -6.200  -0.3705   0.12032   0.11649  -0.0112  1.0000  0.0259  -1.3381   0.0000   0.0000   0.0000   0.2177
  -6.100  -0.3707   0.11957   0.11576  -0.0112  1.0000  0.0259  -1.3420   0.0000   0.0000   0.0000   0.2177
  -6.000  -0.3706   0.11880   0.11500  -0.0112  1.0000  0.0259  -1.3458   0.0000   0.0000   0.0000   0.2177
  -5.900  -0.3703   0.11799   0.11421  -0.0113  1.0000  0.0260  -1.3494   0.0000   0.0000   0.0000   0.2174
  -5.800  -0.3620   0.11661   0.11283  -0.0135  0.9986  0.0260  -1.3491   0.0000   0.0000   0.0000   0.2107
  -5.700  -0.3503   0.11497   0.11118  -0.0165  0.9964  0.0260  -1.3471   0.0000   0.0000   0.0000   0.2006
  -5.600  -0.3398   0.11336   0.10957  -0.0192  0.9940  0.0261  -1.3455   0.0000   0.0000   0.0000   0.1910
  -5.500  -0.3294   0.11178   0.10799  -0.0219  0.9919  0.0261  -1.3441   0.0000   0.0000   0.0000   0.1811
  -5.400  -0.3182   0.11015   0.10635  -0.0247  0.9900  0.0262  -1.3423   0.0000   0.0000   0.0000   0.1696
  -5.300  -0.3066   0.10848   0.10467  -0.0276  0.9878  0.0262  -1.3403   0.0000   0.0000   0.0000   0.1571
  -5.200  -0.2980   0.10694   0.10314  -0.0297  0.9851  0.0262  -1.3397   0.0000   0.0000   0.0000   0.1474
  -5.100  -0.2885   0.10538   0.10158  -0.0320  0.9828  0.0262  -1.3388   0.0000   0.0000   0.0000   0.1360
  -5.000  -0.2779   0.10375   0.09994  -0.0346  0.9807  0.0263  -1.3374   0.0000   0.0000   0.0000   0.1223
  -4.900  -0.2660   0.10205   0.09823  -0.0374  0.9788  0.0263  -1.3355   0.0000   0.0000   0.0000   0.1058
  -4.800  -0.2527   0.10027   0.09645  -0.0406  0.9772  0.0263  -1.3329   0.0000   0.0000   0.0000   0.0855
  -4.700  -0.2411   0.09857   0.09474  -0.0433  0.9749  0.0263  -1.3312   0.0000   0.0000   0.0000   0.0663
  -4.600  -0.2333   0.09705   0.09321  -0.0450  0.9716  0.0264  -1.3313   0.0000   0.0000   0.0000   0.0529
  -4.500  -0.2276   0.09403   0.09025  -0.0469  0.9691  0.0266  -1.3698   0.0000   0.0000   0.0000   0.0397
  -4.400  -0.2237   0.09058   0.08681  -0.0484  0.9671  0.0272  -1.4045   0.0000   0.0000   0.0000   0.0295
  -4.300  -0.2187   0.08804   0.08427  -0.0490  0.9652  0.0277  -1.3916   0.0000   0.0000   0.0000   0.0217
  -4.200  -0.2129   0.08600   0.08223  -0.0491  0.9636  0.0282  -1.3538   0.0000   0.0000   0.0000   0.0146
  -4.100  -0.2053   0.08418   0.08042  -0.0496  0.9622  0.0288  -1.3087   0.0000   0.0000   0.0000   0.0039
  -4.000  -0.1953   0.08248   0.07871  -0.0507  0.9609  0.0294  -1.2645   0.0000   0.0000   0.0000  -0.0149
  -3.900  -0.1827   0.08084   0.07707  -0.0528  0.9598  0.0302  -1.2237   0.0000   0.0000   0.0000  -0.0443
  -3.800  -0.1831   0.07984   0.07609  -0.0521  0.9555  0.0306  -1.2148   0.0000   0.0000   0.0000  -0.0399
  -3.700  -0.1760   0.07855   0.07480  -0.0532  0.9529  0.0312  -1.1933   0.0000   0.0000   0.0000  -0.0578
  -3.600  -0.1665   0.07716   0.07341  -0.0549  0.9507  0.0320  -1.1709   0.0000   0.0000   0.0000  -0.0859
  -3.500  -0.1548   0.07570   0.07193  -0.0572  0.9486  0.0329  -1.1488   0.0000   0.0000   0.0000  -0.1259
  -3.400  -0.1410   0.07415   0.07037  -0.0600  0.9468  0.0340  -1.1275   0.0000   0.0000   0.0000  -0.1826
  -3.300  -0.1250   0.07251   0.06872  -0.0634  0.9453  0.0354  -1.1075   0.0000   0.0000   0.0000  -0.2651
  -3.200  -0.1065   0.07080   0.06698  -0.0675  0.9439  0.0372  -1.0896   0.0000   0.0000   0.0000  -0.3922
  -3.100  -0.0847   0.06900   0.06515  -0.0723  0.9428  0.0394  -1.0758   0.0000   0.0000   0.0000  -0.6152
  -3.000  -0.0474   0.06724   0.06331  -0.0814  0.9418  0.0435  -1.0831   0.0000   0.0000   0.0000  -1.4892
  -2.900   0.0107   0.06668   0.06257  -0.0947  0.9410  0.0464  -1.0995   0.0000   0.0000   0.0000   9.1901
  -2.700   0.0583   0.05874   0.05454  -0.1071  0.9405  0.0487  -1.1563   0.0000   0.0000   0.0000   2.1022
  -2.600   0.0608   0.05713   0.05300  -0.1059  0.9398  0.0509  -1.0743   0.0000   0.0000   0.0000   2.0092
  -2.500   0.0576   0.05648   0.05239  -0.1038  0.9360  0.0522  -1.0383   0.0000   0.0000   0.0000   2.0678
  -2.400   0.0615   0.05569   0.05161  -0.1031  0.9332  0.0552  -0.9811   0.0000   0.0000   0.0000   1.9395
  -2.200   0.1021   0.05272   0.04839  -0.1102  0.9298  0.0839  -0.8929   0.0000   0.0000   0.0000   1.3388
  -2.100   0.1201   0.05158   0.04720  -0.1128  0.9280  0.0873  -0.8139   0.0000   0.0000   0.0000   1.1966
  -2.000   0.1437   0.05037   0.04592  -0.1168  0.9266  0.0922  -0.7779   0.0000   0.0000   0.0000   1.0686
  -1.900   0.1897   0.05199   0.04721  -0.1242  0.9243  0.1035  -0.7649   0.0000   0.0000   0.0000   0.9090
  -1.800   0.2247   0.04674   0.04183  -0.1334  0.9257  0.1087  -0.7795   0.0000   0.0000   0.0000   0.8471
  -1.700   0.2358   0.04531   0.04046  -0.1341  0.9244  0.1114  -0.7363   0.0000   0.0000   0.0000   0.8221
  -1.600   0.2492   0.04435   0.03952  -0.1352  0.9230  0.1148  -0.6936   0.0000   0.0000   0.0000   0.7953
  -1.500   0.2653   0.04354   0.03870  -0.1367  0.9219  0.1196  -0.6545   0.0000   0.0000   0.0000   0.7681
  -1.400   0.2860   0.04280   0.03789  -0.1393  0.9209  0.1270  -0.6221   0.0000   0.0000   0.0000   0.7395
  -1.300   0.3272   0.04195   0.03668  -0.1470  0.9208  0.1460  -0.6143   0.0000   0.0000   0.0000   0.7013
  -1.200   0.3409   0.04037   0.03518  -0.1484  0.9202  0.1503  -0.5761   0.0000   0.0000   0.0000   0.6870
  -1.100   0.3559   0.03955   0.03439  -0.1496  0.9194  0.1555  -0.5374   0.0000   0.0000   0.0000   0.6719
  -1.000   0.3739   0.03896   0.03377  -0.1513  0.9186  0.1635  -0.5021   0.0000   0.0000   0.0000   0.6561
  -0.600   0.5108   0.03221   0.02538  -0.1701  0.9194  0.0756  -0.6688   0.0000   0.0000   0.0000   0.5835
  -0.500   0.5335   0.03102   0.02405  -0.1726  0.9191  0.0656  -0.6658   0.0000   0.0000   0.0000   0.5737
  -0.400   0.5585   0.02982   0.02254  -0.1752  0.9190  0.0584  -0.6809   0.0000   0.0000   0.0000   0.5639
  -0.300   0.5815   0.02896   0.02135  -0.1772  0.9187  0.0525  -0.7006   0.0000   0.0000   0.0000   0.5548
  -0.200   0.6006   0.02868   0.02090  -0.1785  0.9178  0.0494  -0.6780   0.0000   0.0000   0.0000   0.5471
  -0.100   0.6186   0.02859   0.02075  -0.1796  0.9168  0.0476  -0.6316   0.0000   0.0000   0.0000   0.5401
   0.000   0.6382   0.02820   0.02026  -0.1812  0.9161  0.0463  -0.6058   0.0000   0.0000   0.0000   0.5336
   0.100   0.6590   0.02752   0.01948  -0.1831  0.9157  0.0454  -0.6177   0.0000   0.0000   0.0000   0.5274
   0.200   0.6787   0.02705   0.01894  -0.1847  0.9152  0.0446  -0.6297   0.0000   0.0000   0.0000   0.5216
   0.400   0.6821   0.02714   0.01901  -0.1817  0.9042  0.0442  -0.6332   0.0000   0.0000   0.0000   0.5156
   0.500   0.6970   0.02692   0.01874  -0.1824  0.9020  0.0439  -0.6427   0.0000   0.0000   0.0000   0.5109
   0.600   0.7128   0.02672   0.01848  -0.1834  0.8999  0.0439  -0.6529   0.0000   0.0000   0.0000   0.5063
   0.700   0.7292   0.02653   0.01822  -0.1844  0.8980  0.0441  -0.6646   0.0000   0.0000   0.0000   0.5017
   0.800   0.7463   0.02636   0.01797  -0.1854  0.8963  0.0448  -0.6767   0.0000   0.0000   0.0000   0.4973
   0.900   0.7636   0.02620   0.01772  -0.1866  0.8947  0.0459  -0.6891   0.0000   0.0000   0.0000   0.4930
   1.000   0.7814   0.02603   0.01749  -0.1877  0.8933  0.0497  -0.7019   0.0000   0.0000   0.0000   0.4888
   1.100   0.7998   0.02583   0.01733  -0.1891  0.8921  0.0683  -0.7157   0.0000   0.0000   0.0000   0.4849
   1.200   0.8220   0.02505   0.01751  -0.1918  0.8918  0.4467  -0.7327   0.0000   0.0000   0.0000   0.4818
   1.400   0.8468   0.02400   0.01724  -0.1917  0.8890  1.0000  -0.7558   0.0000   0.0000   0.0000   0.4745
   1.500   0.8647   0.02391   0.01708  -0.1928  0.8879  1.0000  -0.7718   0.0000   0.0000   0.0000   0.4710
   1.600   0.8830   0.02382   0.01707  -0.1940  0.8868  1.0000  -0.7886   0.0000   0.0000   0.0000   0.4677
   1.800   0.8807   0.02456   0.01781  -0.1899  0.8725  1.0000  -0.7944   0.0000   0.0000   0.0000   0.4634
   1.900   0.8940   0.02454   0.01777  -0.1903  0.8696  1.0000  -0.8078   0.0000   0.0000   0.0000   0.4605
   2.000   0.9086   0.02447   0.01768  -0.1909  0.8672  1.0000  -0.8226   0.0000   0.0000   0.0000   0.4576
   2.100   0.9242   0.02435   0.01755  -0.1917  0.8650  1.0000  -0.8399   0.0000   0.0000   0.0000   0.4548
   2.200   0.9404   0.02420   0.01738  -0.1925  0.8631  1.0000  -0.8578   0.0000   0.0000   0.0000   0.4519
   2.300   0.9575   0.02400   0.01718  -0.1934  0.8614  1.0000  -0.8764   0.0000   0.0000   0.0000   0.4492
   2.400   0.9753   0.02376   0.01693  -0.1945  0.8598  1.0000  -0.8983   0.0000   0.0000   0.0000   0.4464
   2.500   0.9936   0.02349   0.01666  -0.1956  0.8585  1.0000  -0.9210   0.0000   0.0000   0.0000   0.4438
   2.600   1.0121   0.02322   0.01639  -0.1968  0.8573  1.0000  -0.9439   0.0000   0.0000   0.0000   0.4412
   2.700   1.0310   0.02291   0.01609  -0.1980  0.8562  1.0000  -0.9673   0.0000   0.0000   0.0000   0.4387
   2.800   1.0506   0.02256   0.01574  -0.1993  0.8552  1.0000  -0.9945   0.0000   0.0000   0.0000   0.4362
   2.900   1.0692   0.02223   0.01542  -0.2004  0.8540  1.0000  -1.0218   0.0000   0.0000   0.0000   0.4339
   3.100   1.0608   0.02339   0.01662  -0.1952  0.8359  1.0000  -1.0295   0.0000   0.0000   0.0000   0.4302
   3.200   1.0764   0.02313   0.01637  -0.1958  0.8333  1.0000  -1.0582   0.0000   0.0000   0.0000   0.4280
   3.300   1.0936   0.02275   0.01602  -0.1965  0.8312  1.0000  -1.0891   0.0000   0.0000   0.0000   0.4257
   3.400   1.1119   0.02230   0.01559  -0.1974  0.8293  1.0000  -1.1217   0.0000   0.0000   0.0000   0.4234
   3.500   1.1310   0.02181   0.01513  -0.1985  0.8276  1.0000  -1.1553   0.0000   0.0000   0.0000   0.4213
   3.600   1.1504   0.02133   0.01469  -0.1996  0.8260  1.0000  -1.1896   0.0000   0.0000   0.0000   0.4192
   3.700   1.1709   0.02082   0.01421  -0.2010  0.8245  1.0000  -1.2330   0.0000   0.0000   0.0000   0.4171
   3.800   1.1930   0.02026   0.01369  -0.2026  0.8230  1.0000  -1.2901   0.0000   0.0000   0.0000   0.4152
   3.900   1.2160   0.01972   0.01320  -0.2044  0.8214  1.0000  -1.3490   0.0000   0.0000   0.0000   0.4134
   4.000   1.2401   0.01918   0.01270  -0.2065  0.8196  1.0000  -1.4104   0.0000   0.0000   0.0000   0.4117
   4.100   1.2293   0.01990   0.01345  -0.2024  0.8099  1.0000  -1.4093   0.0000   0.0000   0.0000   0.4097
   4.200   1.2356   0.01993   0.01352  -0.2013  0.8032  1.0000  -1.4391   0.0000   0.0000   0.0000   0.4078
   4.300   1.2515   0.01956   0.01321  -0.2018  0.7985  1.0000  -1.4866   0.0000   0.0000   0.0000   0.4060
   4.400   1.2710   0.01910   0.01279  -0.2029  0.7946  1.0000  -1.5406   0.0000   0.0000   0.0000   0.4043
   4.500   1.2926   0.01858   0.01233  -0.2045  0.7909  1.0000  -1.6214   0.0000   0.0000   0.0000   0.4027
   4.700   1.3200   0.01620   0.00837  -0.1974  0.4769  1.0000  -2.3464   0.0000   0.0000   0.0000   0.3936
   4.800   1.3178   0.01700   0.00875  -0.1947  0.4169  1.0000  -2.3996   0.0000   0.0000   0.0000   0.3917
   4.900   1.3168   0.01779   0.00919  -0.1924  0.3616  1.0000  -2.4506   0.0000   0.0000   0.0000   0.3899
   5.000   1.3123   0.01889   0.00975  -0.1896  0.2866  1.0000  -2.4821   0.0000   0.0000   0.0000   0.3881
   5.100   1.3073   0.02015   0.01041  -0.1869  0.2053  1.0000  -2.5092   0.0000   0.0000   0.0000   0.3865
   5.200   1.3062   0.02118   0.01101  -0.1849  0.1441  1.0000  -2.5490   0.0000   0.0000   0.0000   0.3850
   5.400   1.3020   0.02352   0.01245  -0.1805  0.0298  1.0000  -2.6149   0.0000   0.0000   0.0000   0.3819
   5.500   1.3074   0.02400   0.01288  -0.1794  0.0243  1.0000  -2.6748   0.0000   0.0000   0.0000   0.3803
   5.600   1.3136   0.02441   0.01331  -0.1784  0.0212  1.0000  -2.7337   0.0000   0.0000   0.0000   0.3787
   5.700   1.3200   0.02481   0.01376  -0.1774  0.0194  1.0000  -2.7907   0.0000   0.0000   0.0000   0.3772
   5.800   1.3264   0.02520   0.01420  -0.1765  0.0184  1.0000  -2.8512   0.0000   0.0000   0.0000   0.3757
   5.900   1.3330   0.02556   0.01463  -0.1756  0.0179  1.0000  -2.9221   0.0000   0.0000   0.0000   0.3742
   6.000   1.3394   0.02594   0.01509  -0.1746  0.0175  1.0000  -2.9919   0.0000   0.0000   0.0000   0.3727
   6.100   1.3456   0.02634   0.01557  -0.1737  0.0171  1.0000  -3.0605   0.0000   0.0000   0.0000   0.3713
   6.200   1.3515   0.02677   0.01607  -0.1727  0.0168  1.0000  -3.1280   0.0000   0.0000   0.0000   0.3698
   6.300   1.3572   0.02721   0.01660  -0.1716  0.0166  1.0000  -3.1940   0.0000   0.0000   0.0000   0.3684
   6.400   1.3626   0.02769   0.01716  -0.1705  0.0163  1.0000  -3.2581   0.0000   0.0000   0.0000   0.3670
   6.500   1.3675   0.02820   0.01775  -0.1694  0.0162  1.0000  -3.3199   0.0000   0.0000   0.0000   0.3655
   6.600   1.3720   0.02873   0.01837  -0.1681  0.0160  1.0000  -3.3792   0.0000   0.0000   0.0000   0.3641
   6.700   1.3761   0.02930   0.01902  -0.1669  0.0159  1.0000  -3.4363   0.0000   0.0000   0.0000   0.3626
   6.800   1.3797   0.02991   0.01971  -0.1655  0.0159  1.0000  -3.4908   0.0000   0.0000   0.0000   0.3612
   6.900   1.3829   0.03055   0.02043  -0.1641  0.0158  1.0000  -3.5426   0.0000   0.0000   0.0000   0.3598
   7.000   1.3859   0.03122   0.02118  -0.1627  0.0158  1.0000  -3.5927   0.0000   0.0000   0.0000   0.3584
   7.100   1.3887   0.03194   0.02197  -0.1612  0.0158  1.0000  -3.6406   0.0000   0.0000   0.0000   0.3569
   7.200   1.3915   0.03269   0.02279  -0.1598  0.0158  1.0000  -3.6877   0.0000   0.0000   0.0000   0.3555
   7.300   1.3944   0.03348   0.02365  -0.1584  0.0159  1.0000  -3.7334   0.0000   0.0000   0.0000   0.3541
   7.400   1.3976   0.03431   0.02455  -0.1571  0.0160  1.0000  -3.7790   0.0000   0.0000   0.0000   0.3528
   7.500   1.4016   0.03519   0.02548  -0.1558  0.0161  1.0000  -3.8255   0.0000   0.0000   0.0000   0.3514
   7.600   1.4065   0.03613   0.02648  -0.1547  0.0162  1.0000  -3.8727   0.0000   0.0000   0.0000   0.3501
   7.700   1.4130   0.03714   0.02755  -0.1538  0.0164  1.0000  -3.9225   0.0000   0.0000   0.0000   0.3488
   7.800   1.4217   0.03827   0.02874  -0.1532  0.0167  1.0000  -3.9750   0.0000   0.0000   0.0000   0.3476
   7.900   1.4340   0.03962   0.03015  -0.1531  0.0170  1.0000  -4.0321   0.0000   0.0000   0.0000   0.3464
   8.000   1.4526   0.04149   0.03211  -0.1540  0.0175  1.0000  -4.0939   0.0000   0.0000   0.0000   0.3455
   8.100   1.4969   0.04612   0.03696  -0.1591  0.0188  1.0000  -4.1652   0.0000   0.0000   0.0000   0.3456
   8.200   1.5030   0.04624   0.03711  -0.1580  0.0192  1.0000  -4.2543   0.0000   0.0000   0.0000   0.3442
   8.300   1.5090   0.04644   0.03737  -0.1568  0.0198  1.0000  -4.3338   0.0000   0.0000   0.0000   0.3429
   8.400   1.5169   0.04687   0.03793  -0.1557  0.0207  1.0000  -4.3947   0.0000   0.0000   0.0000   0.3415
   8.500   1.5374   0.04920   0.04070  -0.1560  0.0233  1.0000  -4.3564   0.0000   0.0000   0.0000   0.3401
   8.600   1.5492   0.05243   0.04436  -0.1552  0.0259  1.0000  -4.2774   0.0000   0.0000   0.0000   0.3387
   8.700   1.5545   0.05514   0.04735  -0.1539  0.0277  1.0000  -4.2386   0.0000   0.0000   0.0000   0.3374
   8.800   1.5568   0.05777   0.05021  -0.1525  0.0292  1.0000  -4.2113   0.0000   0.0000   0.0000   0.3362
   8.900   1.5569   0.06057   0.05322  -0.1510  0.0304  1.0000  -4.1830   0.0000   0.0000   0.0000   0.3351
   9.000   1.5547   0.06421   0.05706  -0.1496  0.0317  1.0000  -4.1344   0.0000   0.0000   0.0000   0.3342
   9.100   1.5669   0.06580   0.05931  -0.1466  0.0424  1.0000  -3.9473   0.0000   0.0000   0.0000   0.3314
   9.200   1.5619   0.06887   0.06261  -0.1445  0.0452  1.0000  -3.8824   0.0000   0.0000   0.0000   0.3303
   9.300   1.5562   0.07195   0.06585  -0.1426  0.0474  1.0000  -3.8394   0.0000   0.0000   0.0000   0.3293
   9.400   1.5483   0.07584   0.06987  -0.1411  0.0492  1.0000  -3.7880   0.0000   0.0000   0.0000   0.3287
  12.900   1.2483   0.17051   0.16713  -0.1577  0.0648  1.0000  -2.3676   0.0000   0.0000   0.0000   0.3598
  13.100   1.2583   0.17535   0.17203  -0.1567  0.0776  1.0000  -2.3659   0.0000   0.0000   0.0000   0.3577
  13.200   1.2581   0.17802   0.17469  -0.1575  0.0773  1.0000  -2.3607   0.0000   0.0000   0.0000   0.3582
  13.300   1.2582   0.18065   0.17732  -0.1581  0.0769  1.0000  -2.3589   0.0000   0.0000   0.0000   0.3585
  13.400   1.2587   0.18326   0.17993  -0.1586  0.0765  1.0000  -2.3606   0.0000   0.0000   0.0000   0.3587
  13.500   1.2595   0.18592   0.18259  -0.1590  0.0761  1.0000  -2.3654   0.0000   0.0000   0.0000   0.3588
  13.600   1.2579   0.18917   0.18584  -0.1595  0.0754  1.0000  -2.3597   0.0000   0.0000   0.0000   0.3592
  13.800   1.2391   0.20155   0.19815  -0.1638  0.0733  1.0000  -2.2069   0.0000   0.0000   0.0000   0.3645
  13.900   1.2377   0.20451   0.20110  -0.1654  0.0732  1.0000  -2.1810   0.0000   0.0000   0.0000   0.3658
  14.000   1.2365   0.20736   0.20395  -0.1670  0.0731  1.0000  -2.1558   0.0000   0.0000   0.0000   0.3671
  14.100   1.2354   0.21008   0.20667  -0.1686  0.0729  1.0000  -2.1309   0.0000   0.0000   0.0000   0.3684
  14.200   1.2343   0.21252   0.20910  -0.1705  0.0726  1.0000  -2.1048   0.0000   0.0000   0.0000   0.3699
  14.300   1.2292   0.21359   0.21015  -0.1763  0.0683  1.0000  -2.0113   0.0000   0.0000   0.0000   0.3751
  14.400   1.2279   0.21642   0.21297  -0.1779  0.0672  1.0000  -1.9850   0.0000   0.0000   0.0000   0.3764
  14.500   1.2269   0.21922   0.21577  -0.1792  0.0663  1.0000  -1.9635   0.0000   0.0000   0.0000   0.3775
  14.600   1.2261   0.22198   0.21853  -0.1805  0.0655  1.0000  -1.9453   0.0000   0.0000   0.0000   0.3785
  14.700   1.2255   0.22471   0.22126  -0.1816  0.0647  1.0000  -1.9295   0.0000   0.0000   0.0000   0.3793
  14.800   1.2250   0.22741   0.22396  -0.1827  0.0640  1.0000  -1.9154   0.0000   0.0000   0.0000   0.3801
  14.900   1.2245   0.23008   0.22662  -0.1837  0.0633  1.0000  -1.9032   0.0000   0.0000   0.0000   0.3808
  15.000   1.2242   0.23272   0.22926  -0.1846  0.0625  1.0000  -1.8927   0.0000   0.0000   0.0000   0.3815
  15.100   1.2239   0.23532   0.23187  -0.1855  0.0618  1.0000  -1.8839   0.0000   0.0000   0.0000   0.3821
  15.200   1.2237   0.23790   0.23445  -0.1863  0.0611  1.0000  -1.8767   0.0000   0.0000   0.0000   0.3826
  15.300   1.2235   0.24045   0.23700  -0.1870  0.0604  1.0000  -1.8711   0.0000   0.0000   0.0000   0.3831
  15.400   1.2234   0.24297   0.23952  -0.1877  0.0597  1.0000  -1.8671   0.0000   0.0000   0.0000   0.3835
  15.500   1.2234   0.24546   0.24201  -0.1884  0.0591  1.0000  -1.8649   0.0000   0.0000   0.0000   0.3839
  15.600   1.2235   0.24793   0.24448  -0.1889  0.0585  1.0000  -1.8644   0.0000   0.0000   0.0000   0.3842
  15.700   1.2236   0.25037   0.24693  -0.1894  0.0578  1.0000  -1.8657   0.0000   0.0000   0.0000   0.3844
  15.800   1.2239   0.25280   0.24936  -0.1898  0.0573  1.0000  -1.8690   0.0000   0.0000   0.0000   0.3845
  15.900   1.2242   0.25520   0.25177  -0.1902  0.0567  1.0000  -1.8744   0.0000   0.0000   0.0000   0.3846
  16.000   1.2247   0.25759   0.25416  -0.1905  0.0561  1.0000  -1.8822   0.0000   0.0000   0.0000   0.3846
  16.100   1.2253   0.25996   0.25654  -0.1906  0.0556  1.0000  -1.8924   0.0000   0.0000   0.0000   0.3844
  16.200   1.2260   0.26232   0.25890  -0.1907  0.0551  1.0000  -1.9051   0.0000   0.0000   0.0000   0.3842
  16.300   1.2269   0.26468   0.26127  -0.1906  0.0546  1.0000  -1.9210   0.0000   0.0000   0.0000   0.3839
  16.400   1.2277   0.26706   0.26366  -0.1905  0.0541  1.0000  -1.9390   0.0000   0.0000   0.0000   0.3834
  16.500   1.2287   0.26951   0.26612  -0.1901  0.0537  1.0000  -1.9604   0.0000   0.0000   0.0000   0.3829
  16.600   1.2292   0.27214   0.26876  -0.1897  0.0532  1.0000  -1.9816   0.0000   0.0000   0.0000   0.3823
  16.700   1.2297   0.27525   0.27188  -0.1889  0.0526  1.0000  -2.0069   0.0000   0.0000   0.0000   0.3813
  16.800   1.2156   0.28412   0.28072  -0.1887  0.0512  1.0000  -1.9122   0.0000   0.0000   0.0000   0.3829
  16.900   1.2129   0.28663   0.28324  -0.1893  0.0511  1.0000  -1.8924   0.0000   0.0000   0.0000   0.3836
  17.000   1.2097   0.28906   0.28568  -0.1898  0.0511  1.0000  -1.8720   0.0000   0.0000   0.0000   0.3843
  17.100   1.2061   0.29137   0.28800  -0.1903  0.0511  1.0000  -1.8506   0.0000   0.0000   0.0000   0.3850
  17.200   1.2017   0.29353   0.29017  -0.1906  0.0510  1.0000  -1.8280   0.0000   0.0000   0.0000   0.3857
  17.300   1.1963   0.29548   0.29214  -0.1908  0.0510  1.0000  -1.8034   0.0000   0.0000   0.0000   0.3864
  17.400   1.1865   0.29671   0.29339  -0.1904  0.0509  1.0000  -1.7697   0.0000   0.0000   0.0000   0.3872
  17.500   1.1315   0.28889   0.28569  -0.1837  0.0509  1.0000  -1.6434   0.0000   0.0000   0.0000   0.3892
  17.600   1.1209   0.28863   0.28546  -0.1830  0.0509  1.0000  -1.6094   0.0000   0.0000   0.0000   0.3900
  17.700   1.1124   0.28867   0.28551  -0.1827  0.0508  1.0000  -1.5800   0.0000   0.0000   0.0000   0.3908
  17.800   1.1051   0.28882   0.28568  -0.1824  0.0508  1.0000  -1.5531   0.0000   0.0000   0.0000   0.3915
  17.900   1.0987   0.28905   0.28593  -0.1823  0.0507  1.0000  -1.5280   0.0000   0.0000   0.0000   0.3923
  18.000   1.0928   0.28930   0.28619  -0.1823  0.0506  1.0000  -1.5040   0.0000   0.0000   0.0000   0.3930
  18.100   1.0867   0.28945   0.28635  -0.1825  0.0504  1.0000  -1.4767   0.0000   0.0000   0.0000   0.3939
  18.200   1.0803   0.28949   0.28641  -0.1827  0.0503  1.0000  -1.4464   0.0000   0.0000   0.0000   0.3950
  18.300   1.0740   0.28949   0.28642  -0.1830  0.0500  1.0000  -1.4150   0.0000   0.0000   0.0000   0.3961
  18.400   1.0670   0.28929   0.28623  -0.1835  0.0498  1.0000  -1.3783   0.0000   0.0000   0.0000   0.3976
  18.500   1.0605   0.28925   0.28620  -0.1842  0.0494  1.0000  -1.3412   0.0000   0.0000   0.0000   0.3991
  18.600   1.0553   0.28950   0.28647  -0.1849  0.0488  1.0000  -1.3062   0.0000   0.0000   0.0000   0.4005
  18.700   1.0512   0.29004   0.28701  -0.1856  0.0481  1.0000  -1.2765   0.0000   0.0000   0.0000   0.4016
  18.800   1.0478   0.29072   0.28770  -0.1861  0.0474  1.0000  -1.2527   0.0000   0.0000   0.0000   0.4025


