xflr5 v6.61

 Calculated polar for: E64  (8.45%)

 1 1 Reynolds number fixed          Mach number fixed         

 xtrf =   1.000 (top)        1.000 (bottom)
 Mach =   0.000     Re =     0.450 e 6     Ncrit =   9.000

  alpha     CL        CD       CDp       Cm    Top Xtr Bot Xtr   Cpmin    Chinge    XCp    
 ------- -------- --------- --------- -------- ------- ------- -------- --------- ---------
 -10.000  -0.3765   0.11329   0.11064  -0.0287  1.0000  0.0106  -1.6255   0.0000   0.0000   0.0000   0.1670
  -9.900  -0.3755   0.11214   0.10950  -0.0288  1.0000  0.0107  -1.6260   0.0000   0.0000   0.0000   0.1665
  -9.800  -0.3745   0.11099   0.10835  -0.0290  1.0000  0.0109  -1.6270   0.0000   0.0000   0.0000   0.1659
  -9.700  -0.3737   0.10984   0.10721  -0.0291  1.0000  0.0110  -1.6285   0.0000   0.0000   0.0000   0.1655
  -9.600  -0.3729   0.10869   0.10607  -0.0293  1.0000  0.0111  -1.6305   0.0000   0.0000   0.0000   0.1650
  -9.500  -0.3722   0.10755   0.10494  -0.0294  1.0000  0.0113  -1.6330   0.0000   0.0000   0.0000   0.1646
  -9.400  -0.3716   0.10641   0.10381  -0.0295  1.0000  0.0114  -1.6360   0.0000   0.0000   0.0000   0.1643
  -9.300  -0.3711   0.10528   0.10269  -0.0296  1.0000  0.0116  -1.6395   0.0000   0.0000   0.0000   0.1641
  -9.200  -0.3707   0.10415   0.10157  -0.0297  1.0000  0.0117  -1.6436   0.0000   0.0000   0.0000   0.1639
  -9.100  -0.3704   0.10303   0.10046  -0.0297  1.0000  0.0119  -1.6481   0.0000   0.0000   0.0000   0.1637
  -9.000  -0.3702   0.10192   0.09936  -0.0298  1.0000  0.0120  -1.6532   0.0000   0.0000   0.0000   0.1637
  -8.900  -0.3702   0.10082   0.09827  -0.0298  1.0000  0.0121  -1.6589   0.0000   0.0000   0.0000   0.1637
  -8.800  -0.3704   0.09973   0.09719  -0.0298  1.0000  0.0123  -1.6651   0.0000   0.0000   0.0000   0.1639
  -8.700  -0.3707   0.09865   0.09612  -0.0297  1.0000  0.0124  -1.6719   0.0000   0.0000   0.0000   0.1642
  -8.600  -0.3712   0.09759   0.09508  -0.0297  1.0000  0.0126  -1.6793   0.0000   0.0000   0.0000   0.1646
  -8.500  -0.3719   0.09654   0.09404  -0.0295  1.0000  0.0127  -1.6872   0.0000   0.0000   0.0000   0.1652
  -8.400  -0.3728   0.09551   0.09302  -0.0294  1.0000  0.0129  -1.6957   0.0000   0.0000   0.0000   0.1659
  -8.300  -0.3740   0.09449   0.09202  -0.0292  1.0000  0.0130  -1.7048   0.0000   0.0000   0.0000   0.1668
  -8.200  -0.3754   0.09349   0.09103  -0.0289  1.0000  0.0131  -1.7145   0.0000   0.0000   0.0000   0.1679
  -8.100  -0.3772   0.09252   0.09008  -0.0286  1.0000  0.0133  -1.7248   0.0000   0.0000   0.0000   0.1692
  -8.000  -0.3793   0.09158   0.08915  -0.0282  1.0000  0.0134  -1.7357   0.0000   0.0000   0.0000   0.1708
  -7.900  -0.3817   0.09066   0.08825  -0.0278  1.0000  0.0135  -1.7472   0.0000   0.0000   0.0000   0.1725
  -7.800  -0.3845   0.08979   0.08739  -0.0273  1.0000  0.0136  -1.7593   0.0000   0.0000   0.0000   0.1746
  -7.700  -0.3878   0.08895   0.08657  -0.0266  1.0000  0.0137  -1.7720   0.0000   0.0000   0.0000   0.1769
  -7.600  -0.3914   0.08814   0.08578  -0.0260  1.0000  0.0138  -1.7853   0.0000   0.0000   0.0000   0.1794
  -7.500  -0.3956   0.08738   0.08504  -0.0252  1.0000  0.0139  -1.7992   0.0000   0.0000   0.0000   0.1822
  -7.400  -0.4003   0.08667   0.08435  -0.0243  1.0000  0.0139  -1.8136   0.0000   0.0000   0.0000   0.1853
  -7.300  -0.4056   0.08601   0.08371  -0.0233  1.0000  0.0140  -1.8285   0.0000   0.0000   0.0000   0.1886
  -7.200  -0.4087   0.08512   0.08284  -0.0230  0.9997  0.0141  -1.8434   0.0000   0.0000   0.0000   0.1899
  -7.100  -0.4030   0.08329   0.08101  -0.0255  0.9983  0.0143  -1.8582   0.0000   0.0000   0.0000   0.1829
  -7.000  -0.3967   0.08141   0.07913  -0.0283  0.9969  0.0146  -1.8746   0.0000   0.0000   0.0000   0.1749
  -6.900  -0.3895   0.07937   0.07709  -0.0313  0.9950  0.0150  -1.8927   0.0000   0.0000   0.0000   0.1659
  -6.800  -0.3794   0.07703   0.07475  -0.0352  0.9930  0.0154  -1.9114   0.0000   0.0000   0.0000   0.1536
  -6.700  -0.3674   0.07455   0.07226  -0.0396  0.9911  0.0159  -1.9318   0.0000   0.0000   0.0000   0.1384
  -6.600  -0.3540   0.07231   0.07001  -0.0439  0.9897  0.0164  -1.9392   0.0000   0.0000   0.0000   0.1220
  -6.500  -0.3386   0.07048   0.06817  -0.0482  0.9886  0.0171  -1.9258   0.0000   0.0000   0.0000   0.1036
  -6.400  -0.3218   0.06851   0.06617  -0.0531  0.9877  0.0176  -1.9122   0.0000   0.0000   0.0000   0.0808
  -6.300  -0.3121   0.06637   0.06401  -0.0567  0.9848  0.0177  -1.9248   0.0000   0.0000   0.0000   0.0643
  -6.200  -0.3004   0.06381   0.06143  -0.0610  0.9824  0.0178  -1.9470   0.0000   0.0000   0.0000   0.0429
  -6.100  -0.2878   0.06102   0.05859  -0.0654  0.9804  0.0179  -1.9769   0.0000   0.0000   0.0000   0.0184
  -6.000  -0.2748   0.05814   0.05565  -0.0697  0.9787  0.0179  -2.0116   0.0000   0.0000   0.0000  -0.0082
  -5.900  -0.2617   0.05532   0.05275  -0.0737  0.9773  0.0179  -2.0469   0.0000   0.0000   0.0000  -0.0363
  -5.800  -0.2486   0.05263   0.04996  -0.0774  0.9761  0.0180  -2.0783   0.0000   0.0000   0.0000  -0.0660
  -5.700  -0.2382   0.04968   0.04680  -0.0803  0.9751  0.0179  -2.1123   0.0000   0.0000   0.0000  -0.0922
  -5.600  -0.2232   0.04739   0.04438  -0.0838  0.9742  0.0180  -2.1294   0.0000   0.0000   0.0000  -0.1305
  -5.200  -0.1960   0.03491   0.03148  -0.0933  0.9636  0.0222  -2.2508   0.0000   0.0000   0.0000  -0.2320
  -5.100  -0.1840   0.03462   0.03120  -0.0943  0.9624  0.0240  -2.1169   0.0000   0.0000   0.0000  -0.2681
  -5.000  -0.1708   0.03386   0.03039  -0.0955  0.9613  0.0262  -2.0277   0.0000   0.0000   0.0000  -0.3153
  -4.900  -0.1562   0.03299   0.02944  -0.0967  0.9603  0.0292  -1.9652   0.0000   0.0000   0.0000  -0.3756
  -4.800  -0.1361   0.03621   0.03265  -0.0956  0.9598  0.0341  -1.7895   0.0000   0.0000   0.0000  -0.4601
  -4.700  -0.1208   0.03563   0.03194  -0.0969  0.9589  0.0345  -1.7460   0.0000   0.0000   0.0000  -0.5604
  -4.600  -0.1105   0.02861   0.02445  -0.1013  0.9577  0.0365  -1.9313   0.0000   0.0000   0.0000  -0.6764
  -4.500  -0.0989   0.02659   0.02243  -0.1030  0.9571  0.0394  -1.8647   0.0000   0.0000   0.0000  -0.8012
  -4.400  -0.0859   0.02625   0.02217  -0.1039  0.9566  0.0420  -1.7436   0.0000   0.0000   0.0000  -0.9707
  -4.300  -0.0717   0.02588   0.02181  -0.1050  0.9560  0.0456  -1.6454   0.0000   0.0000   0.0000  -1.2263
  -4.200  -0.0559   0.02575   0.02163  -0.1058  0.9556  0.0509  -1.5651   0.0000   0.0000   0.0000  -1.6579
  -4.100  -0.0363   0.02896   0.02486  -0.1052  0.9552  0.0559  -1.4167   0.0000   0.0000   0.0000  -2.6674
  -4.000  -0.0247   0.02281   0.01831  -0.1089  0.9546  0.0611  -1.5038   0.0000   0.0000   0.0000  -4.2008
  -3.900  -0.0193   0.02210   0.01759  -0.1080  0.9509  0.0629  -1.4634   0.0000   0.0000   0.0000  -5.3915
  -3.800  -0.0110   0.02145   0.01695  -0.1076  0.9478  0.0645  -1.4167   0.0000   0.0000   0.0000  -9.6450
  -3.700   0.0011   0.02074   0.01622  -0.1079  0.9459  0.0665  -1.3677   0.0000   0.0000   0.0000  103.1741
  -3.600   0.0141   0.02003   0.01546  -0.1083  0.9445  0.0687  -1.3213   0.0000   0.0000   0.0000   7.9740
  -3.500   0.0278   0.01935   0.01471  -0.1088  0.9433  0.0711  -1.2776   0.0000   0.0000   0.0000   4.1848
  -3.400   0.0421   0.01866   0.01394  -0.1094  0.9422  0.0735  -1.2371   0.0000   0.0000   0.0000   2.8618
  -3.200   0.0778   0.01363   0.00794  -0.1088  0.9411  0.0278  -1.5795   0.0000   0.0000   0.0000   1.6591
  -3.100   0.0932   0.01245   0.00649  -0.1089  0.9404  0.0206  -1.6648   0.0000   0.0000   0.0000   1.4256
  -3.000   0.1085   0.01257   0.00662  -0.1094  0.9394  0.0188  -1.5686   0.0000   0.0000   0.0000   1.2656
  -2.900   0.1232   0.01192   0.00591  -0.1100  0.9385  0.0173  -1.5436   0.0000   0.0000   0.0000   1.1482
  -2.800   0.1378   0.01119   0.00509  -0.1105  0.9376  0.0164  -1.5272   0.0000   0.0000   0.0000   1.0568
  -2.700   0.1527   0.01071   0.00454  -0.1112  0.9366  0.0156  -1.4879   0.0000   0.0000   0.0000   0.9822
  -2.600   0.1677   0.01034   0.00410  -0.1118  0.9356  0.0151  -1.4378   0.0000   0.0000   0.0000   0.9206
  -2.500   0.1826   0.01004   0.00374  -0.1125  0.9346  0.0147  -1.3801   0.0000   0.0000   0.0000   0.8693
  -2.400   0.1973   0.00981   0.00344  -0.1131  0.9335  0.0144  -1.3170   0.0000   0.0000   0.0000   0.8260
  -2.300   0.2120   0.00961   0.00319  -0.1137  0.9324  0.0142  -1.2499   0.0000   0.0000   0.0000   0.7887
  -2.200   0.2270   0.00946   0.00298  -0.1144  0.9312  0.0141  -1.1788   0.0000   0.0000   0.0000   0.7560
  -2.100   0.2402   0.00934   0.00283  -0.1147  0.9294  0.0141  -1.1098   0.0000   0.0000   0.0000   0.7293
  -2.000   0.2483   0.00928   0.00274  -0.1139  0.9257  0.0143  -1.0537   0.0000   0.0000   0.0000   0.7105
  -1.900   0.2589   0.00920   0.00264  -0.1137  0.9227  0.0146  -0.9874   0.0000   0.0000   0.0000   0.6906
  -1.800   0.2706   0.00912   0.00253  -0.1137  0.9201  0.0151  -0.9140   0.0000   0.0000   0.0000   0.6714
  -1.700   0.2829   0.00904   0.00243  -0.1138  0.9177  0.0159  -0.8331   0.0000   0.0000   0.0000   0.6535
  -1.600   0.2955   0.00896   0.00234  -0.1140  0.9154  0.0178  -0.7391   0.0000   0.0000   0.0000   0.6368
  -1.500   0.3080   0.00803   0.00224  -0.1149  0.9131  0.2310  -0.6192   0.0000   0.0000   0.0000   0.6239
  -1.400   0.3197   0.00719   0.00235  -0.1157  0.9109  0.4854  -0.5250   0.0000   0.0000   0.0000   0.6126
  -1.300   0.3317   0.00684   0.00238  -0.1159  0.9086  0.5944  -0.4754   0.0000   0.0000   0.0000   0.6000
  -1.200   0.3438   0.00661   0.00239  -0.1160  0.9063  0.6681  -0.4633   0.0000   0.0000   0.0000   0.5880
  -1.100   0.3568   0.00651   0.00236  -0.1163  0.9038  0.6995  -0.4719   0.0000   0.0000   0.0000   0.5763
  -1.000   0.3684   0.00643   0.00235  -0.1163  0.9009  0.7223  -0.4797   0.0000   0.0000   0.0000   0.5659
  -0.900   0.3770   0.00638   0.00236  -0.1157  0.8973  0.7456  -0.4861   0.0000   0.0000   0.0000   0.5569
  -0.800   0.3861   0.00632   0.00236  -0.1151  0.8935  0.7675  -0.4928   0.0000   0.0000   0.0000   0.5481
  -0.700   0.3957   0.00626   0.00235  -0.1146  0.8895  0.7907  -0.4999   0.0000   0.0000   0.0000   0.5396
  -0.600   0.4056   0.00620   0.00233  -0.1142  0.8856  0.8102  -0.5079   0.0000   0.0000   0.0000   0.5313
  -0.500   0.4157   0.00613   0.00230  -0.1138  0.8818  0.8326  -0.5160   0.0000   0.0000   0.0000   0.5234
  -0.400   0.4262   0.00607   0.00226  -0.1134  0.8782  0.8527  -0.5245   0.0000   0.0000   0.0000   0.5158
  -0.300   0.4363   0.00602   0.00223  -0.1130  0.8747  0.8746  -0.5338   0.0000   0.0000   0.0000   0.5085
  -0.200   0.4466   0.00598   0.00220  -0.1126  0.8711  0.8938  -0.5432   0.0000   0.0000   0.0000   0.5015
  -0.100   0.4553   0.00595   0.00219  -0.1119  0.8674  0.9137  -0.5517   0.0000   0.0000   0.0000   0.4951
   0.000   0.4636   0.00590   0.00217  -0.1111  0.8634  0.9334  -0.5600   0.0000   0.0000   0.0000   0.4889
   0.100   0.4752   0.00585   0.00213  -0.1110  0.8592  0.9567  -0.5700   0.0000   0.0000   0.0000   0.4829
   0.200   0.4925   0.00579   0.00206  -0.1123  0.8549  0.9932  -0.5834   0.0000   0.0000   0.0000   0.4772
   0.300   0.5044   0.00578   0.00202  -0.1124  0.8498  1.0000  -0.5951   0.0000   0.0000   0.0000   0.4720
   0.400   0.5163   0.00578   0.00198  -0.1125  0.8447  1.0000  -0.6069   0.0000   0.0000   0.0000   0.4670
   0.500   0.5284   0.00579   0.00195  -0.1127  0.8398  1.0000  -0.6188   0.0000   0.0000   0.0000   0.4622
   0.600   0.5408   0.00581   0.00192  -0.1129  0.8344  1.0000  -0.6319   0.0000   0.0000   0.0000   0.4576
   0.700   0.5514   0.00583   0.00193  -0.1128  0.8301  1.0000  -0.6446   0.0000   0.0000   0.0000   0.4533
   0.800   0.5618   0.00584   0.00193  -0.1126  0.8255  1.0000  -0.6572   0.0000   0.0000   0.0000   0.4492
   0.900   0.5726   0.00586   0.00193  -0.1126  0.8204  1.0000  -0.6701   0.0000   0.0000   0.0000   0.4452
   1.000   0.5836   0.00587   0.00193  -0.1125  0.8149  1.0000  -0.6833   0.0000   0.0000   0.0000   0.4413
   1.100   0.5949   0.00589   0.00191  -0.1125  0.8090  1.0000  -0.6967   0.0000   0.0000   0.0000   0.4375
   1.200   0.6062   0.00592   0.00190  -0.1125  0.8028  1.0000  -0.7123   0.0000   0.0000   0.0000   0.4339
   1.300   0.6177   0.00596   0.00189  -0.1125  0.7961  1.0000  -0.7282   0.0000   0.0000   0.0000   0.4304
   1.400   0.6284   0.00598   0.00190  -0.1124  0.7908  1.0000  -0.7435   0.0000   0.0000   0.0000   0.4271
   1.500   0.6389   0.00600   0.00192  -0.1122  0.7851  1.0000  -0.7587   0.0000   0.0000   0.0000   0.4238
   1.600   0.6495   0.00603   0.00192  -0.1121  0.7785  1.0000  -0.7743   0.0000   0.0000   0.0000   0.4207
   1.700   0.6603   0.00606   0.00193  -0.1120  0.7712  1.0000  -0.7927   0.0000   0.0000   0.0000   0.4176
   1.800   0.6711   0.00610   0.00192  -0.1119  0.7637  1.0000  -0.8111   0.0000   0.0000   0.0000   0.4146
   1.900   0.6820   0.00616   0.00192  -0.1118  0.7559  1.0000  -0.8297   0.0000   0.0000   0.0000   0.4117
   2.000   0.6908   0.00620   0.00191  -0.1111  0.7335  1.0000  -0.8468   0.0000   0.0000   0.0000   0.4086
   2.100   0.6976   0.00638   0.00184  -0.1100  0.6907  1.0000  -0.8624   0.0000   0.0000   0.0000   0.4054
   2.200   0.7044   0.00659   0.00182  -0.1090  0.6508  1.0000  -0.8778   0.0000   0.0000   0.0000   0.4023
   2.300   0.7112   0.00684   0.00184  -0.1080  0.6128  1.0000  -0.8931   0.0000   0.0000   0.0000   0.3994
   2.400   0.7198   0.00700   0.00187  -0.1075  0.5832  1.0000  -0.9135   0.0000   0.0000   0.0000   0.3968
   2.500   0.7281   0.00719   0.00192  -0.1070  0.5596  1.0000  -0.9337   0.0000   0.0000   0.0000   0.3942
   2.600   0.7381   0.00729   0.00196  -0.1067  0.5444  1.0000  -0.9560   0.0000   0.0000   0.0000   0.3919
   2.700   0.7476   0.00742   0.00200  -0.1064  0.5289  1.0000  -0.9797   0.0000   0.0000   0.0000   0.3896
   2.800   0.7568   0.00757   0.00206  -0.1061  0.5142  1.0000  -1.0063   0.0000   0.0000   0.0000   0.3873
   2.900   0.7670   0.00766   0.00211  -0.1060  0.5018  1.0000  -1.0343   0.0000   0.0000   0.0000   0.3852
   3.000   0.7764   0.00780   0.00217  -0.1057  0.4839  1.0000  -1.0615   0.0000   0.0000   0.0000   0.3830
   3.100   0.7852   0.00799   0.00224  -0.1053  0.4646  1.0000  -1.0878   0.0000   0.0000   0.0000   0.3809
   3.200   0.7951   0.00811   0.00230  -0.1051  0.4496  1.0000  -1.1159   0.0000   0.0000   0.0000   0.3789
   3.300   0.8043   0.00828   0.00238  -0.1047  0.4307  1.0000  -1.1430   0.0000   0.0000   0.0000   0.3769
   3.400   0.8135   0.00845   0.00246  -0.1044  0.4137  1.0000  -1.1704   0.0000   0.0000   0.0000   0.3750
   3.500   0.8232   0.00859   0.00253  -0.1042  0.3974  1.0000  -1.1986   0.0000   0.0000   0.0000   0.3731
   3.600   0.8318   0.00882   0.00262  -0.1038  0.3743  1.0000  -1.2253   0.0000   0.0000   0.0000   0.3712
   3.700   0.8412   0.00899   0.00272  -0.1036  0.3560  1.0000  -1.2533   0.0000   0.0000   0.0000   0.3694
   3.800   0.8499   0.00923   0.00282  -0.1032  0.3325  1.0000  -1.3057   0.0000   0.0000   0.0000   0.3676
   3.900   0.8591   0.00942   0.00292  -0.1029  0.3134  1.0000  -1.3888   0.0000   0.0000   0.0000   0.3659
   4.000   0.8682   0.00963   0.00303  -0.1026  0.2933  1.0000  -1.4723   0.0000   0.0000   0.0000   0.3643
   4.100   0.8772   0.00984   0.00313  -0.1023  0.2738  1.0000  -1.5567   0.0000   0.0000   0.0000   0.3626
   4.200   0.8865   0.01004   0.00324  -0.1021  0.2558  1.0000  -1.6433   0.0000   0.0000   0.0000   0.3610
   4.300   0.8951   0.01031   0.00337  -0.1017  0.2333  1.0000  -1.7276   0.0000   0.0000   0.0000   0.3594
   4.400   0.9039   0.01055   0.00350  -0.1014  0.2109  1.0000  -1.8137   0.0000   0.0000   0.0000   0.3579
   4.500   0.9121   0.01087   0.00365  -0.1010  0.1838  1.0000  -1.8972   0.0000   0.0000   0.0000   0.3563
   4.600   0.9198   0.01125   0.00384  -0.1005  0.1527  1.0000  -1.9778   0.0000   0.0000   0.0000   0.3548
   4.700   0.9272   0.01167   0.00404  -0.1000  0.1196  1.0000  -2.0558   0.0000   0.0000   0.0000   0.3533
   4.800   0.9343   0.01212   0.00427  -0.0995  0.0856  1.0000  -2.1293   0.0000   0.0000   0.0000   0.3518
   4.900   0.9408   0.01266   0.00458  -0.0988  0.0510  1.0000  -2.1948   0.0000   0.0000   0.0000   0.3503
   5.000   0.9467   0.01328   0.00497  -0.0980  0.0146  1.0000  -2.2539   0.0000   0.0000   0.0000   0.3486
   5.100   0.9566   0.01343   0.00512  -0.0978  0.0136  1.0000  -2.3319   0.0000   0.0000   0.0000   0.3472
   5.200   0.9665   0.01358   0.00528  -0.0976  0.0129  1.0000  -2.4114   0.0000   0.0000   0.0000   0.3459
   5.300   0.9765   0.01371   0.00545  -0.0973  0.0124  1.0000  -2.4922   0.0000   0.0000   0.0000   0.3445
   5.400   0.9864   0.01385   0.00563  -0.0971  0.0121  1.0000  -2.5737   0.0000   0.0000   0.0000   0.3432
   5.500   0.9963   0.01400   0.00582  -0.0969  0.0119  1.0000  -2.6550   0.0000   0.0000   0.0000   0.3418
   5.600   1.0061   0.01416   0.00602  -0.0966  0.0117  1.0000  -2.7357   0.0000   0.0000   0.0000   0.3405
   5.700   1.0159   0.01433   0.00624  -0.0963  0.0117  1.0000  -2.8153   0.0000   0.0000   0.0000   0.3392
   5.800   1.0254   0.01451   0.00647  -0.0960  0.0116  1.0000  -2.8932   0.0000   0.0000   0.0000   0.3379
   5.900   1.0349   0.01472   0.00672  -0.0957  0.0116  1.0000  -2.9695   0.0000   0.0000   0.0000   0.3366
   6.000   1.0442   0.01494   0.00698  -0.0953  0.0116  1.0000  -3.0444   0.0000   0.0000   0.0000   0.3353
   6.100   1.0548   0.01496   0.00739  -0.0953  0.0127  1.0000  -3.2505   0.0000   0.0000   0.0000   0.3343
   6.200   1.0640   0.01519   0.00770  -0.0949  0.0128  1.0000  -3.3408   0.0000   0.0000   0.0000   0.3330
   6.300   1.0729   0.01546   0.00805  -0.0944  0.0129  1.0000  -3.4187   0.0000   0.0000   0.0000   0.3317
   6.400   1.0814   0.01577   0.00844  -0.0939  0.0129  1.0000  -3.4901   0.0000   0.0000   0.0000   0.3304
   6.500   1.0896   0.01611   0.00886  -0.0933  0.0129  1.0000  -3.5570   0.0000   0.0000   0.0000   0.3291
   6.600   1.0974   0.01650   0.00932  -0.0927  0.0130  1.0000  -3.6197   0.0000   0.0000   0.0000   0.3278
   6.700   1.1048   0.01692   0.00982  -0.0919  0.0131  1.0000  -3.6785   0.0000   0.0000   0.0000   0.3265
   6.800   1.1119   0.01738   0.01036  -0.0911  0.0131  1.0000  -3.7334   0.0000   0.0000   0.0000   0.3251
   6.900   1.1185   0.01789   0.01094  -0.0903  0.0132  1.0000  -3.7847   0.0000   0.0000   0.0000   0.3238
   7.000   1.1250   0.01844   0.01157  -0.0894  0.0133  1.0000  -3.8324   0.0000   0.0000   0.0000   0.3224
   7.100   1.1311   0.01904   0.01225  -0.0885  0.0134  1.0000  -3.8766   0.0000   0.0000   0.0000   0.3210
   7.200   1.1371   0.01970   0.01299  -0.0875  0.0136  1.0000  -3.9173   0.0000   0.0000   0.0000   0.3197
   7.300   1.1431   0.02044   0.01380  -0.0866  0.0137  1.0000  -3.9540   0.0000   0.0000   0.0000   0.3183
   7.400   1.1491   0.02127   0.01472  -0.0856  0.0139  1.0000  -3.9858   0.0000   0.0000   0.0000   0.3170
   7.500   1.1553   0.02226   0.01579  -0.0847  0.0141  1.0000  -4.0105   0.0000   0.0000   0.0000   0.3157
   7.600   1.1618   0.02353   0.01716  -0.0839  0.0143  1.0000  -4.0203   0.0000   0.0000   0.0000   0.3144
   7.700   1.1691   0.02592   0.01969  -0.0831  0.0150  1.0000  -3.9642   0.0000   0.0000   0.0000   0.3132
   7.800   1.1784   0.02598   0.01977  -0.0828  0.0153  1.0000  -4.0598   0.0000   0.0000   0.0000   0.3122
   7.900   1.1876   0.02608   0.01989  -0.0824  0.0156  1.0000  -4.1538   0.0000   0.0000   0.0000   0.3112
   8.000   1.1968   0.02622   0.02005  -0.0820  0.0160  1.0000  -4.2449   0.0000   0.0000   0.0000   0.3102
   8.100   1.2060   0.02643   0.02029  -0.0815  0.0165  1.0000  -4.3293   0.0000   0.0000   0.0000   0.3092
   8.200   1.2156   0.02684   0.02079  -0.0811  0.0174  1.0000  -4.3911   0.0000   0.0000   0.0000   0.3082
  11.400   1.1625   0.07500   0.07249  -0.0472  0.0228  1.0000  -4.2012   0.0000   0.0000   0.0000   0.2784
  13.700   0.9683   0.16313   0.16116  -0.0979  0.0284  1.0000  -2.3406   0.0000   0.0000   0.0000   0.3374
  13.800   0.9684   0.16563   0.16366  -0.0992  0.0283  1.0000  -2.3124   0.0000   0.0000   0.0000   0.3387
  13.900   0.9686   0.16810   0.16613  -0.1004  0.0283  1.0000  -2.2861   0.0000   0.0000   0.0000   0.3398
  14.000   0.9690   0.17053   0.16855  -0.1017  0.0283  1.0000  -2.2615   0.0000   0.0000   0.0000   0.3410
  14.100   0.9695   0.17293   0.17095  -0.1029  0.0283  1.0000  -2.2384   0.0000   0.0000   0.0000   0.3421
  14.200   0.9701   0.17529   0.17330  -0.1041  0.0283  1.0000  -2.2169   0.0000   0.0000   0.0000   0.3431
  14.300   0.9709   0.17761   0.17562  -0.1052  0.0282  1.0000  -2.1969   0.0000   0.0000   0.0000   0.3441
  14.400   0.9719   0.17989   0.17790  -0.1064  0.0282  1.0000  -2.1785   0.0000   0.0000   0.0000   0.3451
  14.500   0.9729   0.18212   0.18013  -0.1075  0.0281  1.0000  -2.1620   0.0000   0.0000   0.0000   0.3460
  14.600   0.9742   0.18428   0.18228  -0.1086  0.0281  1.0000  -2.1480   0.0000   0.0000   0.0000   0.3469
  14.700   0.9759   0.18630   0.18431  -0.1097  0.0279  1.0000  -2.1379   0.0000   0.0000   0.0000   0.3478
  14.800   0.9784   0.18802   0.18603  -0.1108  0.0277  1.0000  -2.1373   0.0000   0.0000   0.0000   0.3485
  14.900   0.9846   0.18859   0.18660  -0.1118  0.0266  1.0000  -2.1719   0.0000   0.0000   0.0000   0.3486
  15.000   0.9877   0.19044   0.18845  -0.1131  0.0254  1.0000  -2.1623   0.0000   0.0000   0.0000   0.3495
  15.100   0.9891   0.19268   0.19069  -0.1144  0.0245  1.0000  -2.1421   0.0000   0.0000   0.0000   0.3505
  15.200   0.9903   0.19492   0.19293  -0.1156  0.0236  1.0000  -2.1259   0.0000   0.0000   0.0000   0.3515
  15.300   0.9915   0.19707   0.19508  -0.1167  0.0227  1.0000  -2.1168   0.0000   0.0000   0.0000   0.3524
  15.400   0.9928   0.19908   0.19708  -0.1177  0.0218  1.0000  -2.1165   0.0000   0.0000   0.0000   0.3531
  15.500   0.9944   0.20090   0.19890  -0.1186  0.0209  1.0000  -2.1285   0.0000   0.0000   0.0000   0.3537
  15.600   0.9966   0.20240   0.20041  -0.1193  0.0199  1.0000  -2.1600   0.0000   0.0000   0.0000   0.3540
  15.700   0.9997   0.20332   0.20133  -0.1197  0.0189  1.0000  -2.2271   0.0000   0.0000   0.0000   0.3538
  15.800   1.0044   0.20322   0.20125  -0.1196  0.0178  1.0000  -2.3553   0.0000   0.0000   0.0000   0.3528
  15.900   1.0093   0.20280   0.20084  -0.1193  0.0170  1.0000  -2.5045   0.0000   0.0000   0.0000   0.3516
  16.000   1.0117   0.20392   0.20197  -0.1197  0.0165  1.0000  -2.5655   0.0000   0.0000   0.0000   0.3516
  16.100   1.0128   0.20578   0.20383  -0.1204  0.0163  1.0000  -2.5839   0.0000   0.0000   0.0000   0.3520
  16.200   1.0133   0.20793   0.20598  -0.1213  0.0160  1.0000  -2.5886   0.0000   0.0000   0.0000   0.3526
  16.300   1.0123   0.21081   0.20886  -0.1223  0.0156  1.0000  -2.5590   0.0000   0.0000   0.0000   0.3536
  16.400   0.9976   0.22077   0.21876  -0.1254  0.0148  1.0000  -2.1942   0.0000   0.0000   0.0000   0.3587
  16.500   0.9989   0.22318   0.22117  -0.1263  0.0148  1.0000  -2.1785   0.0000   0.0000   0.0000   0.3593
  16.600   1.0002   0.22559   0.22358  -0.1272  0.0148  1.0000  -2.1631   0.0000   0.0000   0.0000   0.3599
  16.700   1.0015   0.22800   0.22598  -0.1281  0.0147  1.0000  -2.1482   0.0000   0.0000   0.0000   0.3606
  16.800   1.0028   0.23040   0.22839  -0.1290  0.0147  1.0000  -2.1337   0.0000   0.0000   0.0000   0.3612
  16.900   1.0041   0.23280   0.23079  -0.1299  0.0147  1.0000  -2.1196   0.0000   0.0000   0.0000   0.3618
  17.000   1.0054   0.23520   0.23319  -0.1308  0.0147  1.0000  -2.1058   0.0000   0.0000   0.0000   0.3623
  17.100   1.0067   0.23760   0.23559  -0.1317  0.0147  1.0000  -2.0923   0.0000   0.0000   0.0000   0.3629
  17.200   1.0079   0.24000   0.23800  -0.1326  0.0147  1.0000  -2.0792   0.0000   0.0000   0.0000   0.3635
  17.300   1.0092   0.24240   0.24040  -0.1334  0.0147  1.0000  -2.0664   0.0000   0.0000   0.0000   0.3640
  17.400   1.0105   0.24480   0.24280  -0.1343  0.0147  1.0000  -2.0539   0.0000   0.0000   0.0000   0.3646
  17.500   1.0117   0.24720   0.24520  -0.1351  0.0147  1.0000  -2.0416   0.0000   0.0000   0.0000   0.3651
  17.600   1.0129   0.24960   0.24759  -0.1360  0.0147  1.0000  -2.0297   0.0000   0.0000   0.0000   0.3657
  17.700   1.0141   0.25199   0.24999  -0.1368  0.0146  1.0000  -2.0180   0.0000   0.0000   0.0000   0.3662
  17.800   1.0152   0.25438   0.25239  -0.1376  0.0146  1.0000  -2.0065   0.0000   0.0000   0.0000   0.3667
  17.900   1.0163   0.25677   0.25478  -0.1385  0.0146  1.0000  -1.9954   0.0000   0.0000   0.0000   0.3673
  18.000   1.0174   0.25916   0.25717  -0.1393  0.0146  1.0000  -1.9845   0.0000   0.0000   0.0000   0.3678
  18.100   1.0185   0.26154   0.25955  -0.1401  0.0146  1.0000  -1.9740   0.0000   0.0000   0.0000   0.3683
  18.200   1.0195   0.26391   0.26192  -0.1409  0.0145  1.0000  -1.9637   0.0000   0.0000   0.0000   0.3688
  18.300   1.0205   0.26628   0.26429  -0.1417  0.0145  1.0000  -1.9538   0.0000   0.0000   0.0000   0.3693
  18.400   1.0215   0.26863   0.26664  -0.1425  0.0145  1.0000  -1.9444   0.0000   0.0000   0.0000   0.3698
  18.500   1.0224   0.27096   0.26898  -0.1433  0.0145  1.0000  -1.9356   0.0000   0.0000   0.0000   0.3703
  18.600   1.0233   0.27327   0.27129  -0.1440  0.0144  1.0000  -1.9275   0.0000   0.0000   0.0000   0.3708
  18.700   1.0237   0.27584   0.27392  -0.1446  0.0145  1.0000  -1.9074   0.0000   0.0000   0.0000   0.3712
  18.800   1.0243   0.27817   0.27626  -0.1454  0.0145  1.0000  -1.8977   0.0000   0.0000   0.0000   0.3717
  18.900   1.0250   0.28048   0.27857  -0.1461  0.0144  1.0000  -1.8889   0.0000   0.0000   0.0000   0.3722
  19.000   1.0256   0.28275   0.28084  -0.1469  0.0144  1.0000  -1.8813   0.0000   0.0000   0.0000   0.3726
  19.100   1.0263   0.28494   0.28303  -0.1476  0.0143  1.0000  -1.8755   0.0000   0.0000   0.0000   0.3731
  19.200   1.0272   0.28698   0.28507  -0.1484  0.0142  1.0000  -1.8733   0.0000   0.0000   0.0000   0.3736
  19.300   1.0294   0.28848   0.28658  -0.1493  0.0137  1.0000  -1.8807   0.0000   0.0000   0.0000   0.3741
  19.400   1.0325   0.29031   0.28840  -0.1510  0.0114  1.0000  -1.8563   0.0000   0.0000   0.0000   0.3752
  19.500   1.0331   0.29236   0.29046  -0.1517  0.0101  1.0000  -1.8743   0.0000   0.0000   0.0000   0.3756
  19.600   1.0337   0.29417   0.29228  -0.1523  0.0091  1.0000  -1.9101   0.0000   0.0000   0.0000   0.3759
  19.700   1.0343   0.29575   0.29387  -0.1528  0.0083  1.0000  -1.9611   0.0000   0.0000   0.0000   0.3761
  19.800   1.0351   0.29709   0.29522  -0.1533  0.0077  1.0000  -2.0283   0.0000   0.0000   0.0000   0.3762
  19.900   1.0361   0.29816   0.29629  -0.1536  0.0073  1.0000  -2.1142   0.0000   0.0000   0.0000   0.3762
  20.000   1.0374   0.29891   0.29706  -0.1538  0.0068  1.0000  -2.2226   0.0000   0.0000   0.0000   0.3759
  20.100   1.0387   0.29953   0.29769  -0.1539  0.0065  1.0000  -2.3450   0.0000   0.0000   0.0000   0.3756
  20.200   1.0370   0.30110   0.29928  -0.1542  0.0060  1.0000  -2.4069   0.0000   0.0000   0.0000   0.3758
  21.000   0.9306   0.30109   0.29938  -0.1482  0.0051  1.0000  -1.7253   0.0000   0.0000   0.0000   0.3868
  21.100   0.9273   0.30157   0.29987  -0.1482  0.0051  1.0000  -1.7075   0.0000   0.0000   0.0000   0.3873
  21.200   0.9240   0.30207   0.30038  -0.1483  0.0051  1.0000  -1.6850   0.0000   0.0000   0.0000   0.3879
  21.300   0.9206   0.30260   0.30092  -0.1483  0.0051  1.0000  -1.6583   0.0000   0.0000   0.0000   0.3884
  21.400   0.9172   0.30316   0.30148  -0.1484  0.0051  1.0000  -1.6289   0.0000   0.0000   0.0000   0.3890
  21.500   0.9139   0.30373   0.30206  -0.1484  0.0051  1.0000  -1.5993   0.0000   0.0000   0.0000   0.3895
  21.600   0.9109   0.30432   0.30266  -0.1485  0.0051  1.0000  -1.5711   0.0000   0.0000   0.0000   0.3901
  21.700   0.9081   0.30493   0.30328  -0.1486  0.0051  1.0000  -1.5452   0.0000   0.0000   0.0000   0.3905
  21.800   0.9056   0.30555   0.30391  -0.1487  0.0052  1.0000  -1.5215   0.0000   0.0000   0.0000   0.3910
  21.900   0.9033   0.30619   0.30455  -0.1488  0.0052  1.0000  -1.4997   0.0000   0.0000   0.0000   0.3915
  22.000   0.9011   0.30684   0.30520  -0.1490  0.0052  1.0000  -1.4794   0.0000   0.0000   0.0000   0.3919
  22.100   0.8992   0.30749   0.30586  -0.1491  0.0052  1.0000  -1.4605   0.0000   0.0000   0.0000   0.3923
  22.200   0.8973   0.30816   0.30653  -0.1493  0.0052  1.0000  -1.4427   0.0000   0.0000   0.0000   0.3927
  22.300   0.8956   0.30883   0.30721  -0.1495  0.0052  1.0000  -1.4258   0.0000   0.0000   0.0000   0.3931
  22.400   0.8940   0.30951   0.30790  -0.1496  0.0052  1.0000  -1.4098   0.0000   0.0000   0.0000   0.3935
  22.500   0.8925   0.31020   0.30859  -0.1498  0.0052  1.0000  -1.3945   0.0000   0.0000   0.0000   0.3939
  22.600   0.8910   0.31089   0.30929  -0.1500  0.0052  1.0000  -1.3798   0.0000   0.0000   0.0000   0.3943
  22.700   0.8897   0.31159   0.30999  -0.1503  0.0052  1.0000  -1.3658   0.0000   0.0000   0.0000   0.3947
  22.800   0.8884   0.31230   0.31070  -0.1505  0.0052  1.0000  -1.3523   0.0000   0.0000   0.0000   0.3950
  22.900   0.8872   0.31301   0.31141  -0.1507  0.0052  1.0000  -1.3392   0.0000   0.0000   0.0000   0.3954
  23.000   0.8861   0.31372   0.31213  -0.1509  0.0053  1.0000  -1.3267   0.0000   0.0000   0.0000   0.3957
  23.100   0.8850   0.31444   0.31285  -0.1512  0.0053  1.0000  -1.3145   0.0000   0.0000   0.0000   0.3961
  23.200   0.8840   0.31516   0.31358  -0.1514  0.0053  1.0000  -1.3027   0.0000   0.0000   0.0000   0.3964
  23.300   0.8830   0.31589   0.31431  -0.1517  0.0053  1.0000  -1.2913   0.0000   0.0000   0.0000   0.3967
  23.400   0.8821   0.31661   0.31505  -0.1519  0.0053  1.0000  -1.2802   0.0000   0.0000   0.0000   0.3971
  23.500   0.8812   0.31735   0.31578  -0.1522  0.0053  1.0000  -1.2695   0.0000   0.0000   0.0000   0.3974
  23.600   0.8803   0.31808   0.31652  -0.1525  0.0053  1.0000  -1.2590   0.0000   0.0000   0.0000   0.3977
  23.700   0.8795   0.31882   0.31726  -0.1527  0.0053  1.0000  -1.2488   0.0000   0.0000   0.0000   0.3980


