xflr5 v6.61

 Calculated polar for: E64  (8.45%)

 1 1 Reynolds number fixed          Mach number fixed         

 xtrf =   1.000 (top)        1.000 (bottom)
 Mach =   0.000     Re =     0.160 e 6     Ncrit =   9.000

  alpha     CL        CD       CDp       Cm    Top Xtr Bot Xtr   Cpmin    Chinge    XCp    
 ------- -------- --------- --------- -------- ------- ------- -------- --------- ---------
 -10.000  -0.3707   0.11825   0.11390  -0.0293  1.0000  0.0430  -1.2534   0.0000   0.0000   0.0000   0.1643
  -9.900  -0.3694   0.11713   0.11279  -0.0295  1.0000  0.0435  -1.2516   0.0000   0.0000   0.0000   0.1636
  -9.800  -0.3681   0.11602   0.11169  -0.0297  1.0000  0.0440  -1.2505   0.0000   0.0000   0.0000   0.1630
  -9.700  -0.3669   0.11490   0.11059  -0.0298  1.0000  0.0445  -1.2502   0.0000   0.0000   0.0000   0.1624
  -9.600  -0.3658   0.11380   0.10949  -0.0300  1.0000  0.0450  -1.2506   0.0000   0.0000   0.0000   0.1618
  -9.500  -0.3648   0.11269   0.10840  -0.0301  1.0000  0.0456  -1.2518   0.0000   0.0000   0.0000   0.1612
  -9.400  -0.3639   0.11160   0.10732  -0.0303  1.0000  0.0462  -1.2536   0.0000   0.0000   0.0000   0.1607
  -9.300  -0.3631   0.11051   0.10624  -0.0305  1.0000  0.0467  -1.2562   0.0000   0.0000   0.0000   0.1601
  -9.200  -0.3624   0.10943   0.10518  -0.0306  1.0000  0.0473  -1.2595   0.0000   0.0000   0.0000   0.1596
  -9.100  -0.3619   0.10836   0.10412  -0.0308  1.0000  0.0479  -1.2637   0.0000   0.0000   0.0000   0.1591
  -9.000  -0.3614   0.10730   0.10308  -0.0309  1.0000  0.0485  -1.2687   0.0000   0.0000   0.0000   0.1586
  -8.900  -0.3612   0.10627   0.10207  -0.0311  1.0000  0.0491  -1.2748   0.0000   0.0000   0.0000   0.1582
  -8.800  -0.3611   0.10526   0.10107  -0.0313  1.0000  0.0497  -1.2820   0.0000   0.0000   0.0000   0.1578
  -8.700  -0.3613   0.10428   0.10012  -0.0315  1.0000  0.0503  -1.2906   0.0000   0.0000   0.0000   0.1575
  -8.600  -0.3616   0.10334   0.09920  -0.0317  1.0000  0.0509  -1.3006   0.0000   0.0000   0.0000   0.1571
  -8.500  -0.3623   0.10247   0.09834  -0.0319  1.0000  0.0515  -1.3125   0.0000   0.0000   0.0000   0.1568
  -8.400  -0.3633   0.10165   0.09755  -0.0321  1.0000  0.0521  -1.3262   0.0000   0.0000   0.0000   0.1565
  -8.300  -0.3646   0.10091   0.09684  -0.0323  1.0000  0.0527  -1.3420   0.0000   0.0000   0.0000   0.1563
  -8.200  -0.3664   0.10028   0.09624  -0.0326  1.0000  0.0532  -1.3595   0.0000   0.0000   0.0000   0.1563
  -8.100  -0.3685   0.09976   0.09574  -0.0328  1.0000  0.0538  -1.3774   0.0000   0.0000   0.0000   0.1564
  -8.000  -0.3710   0.09933   0.09534  -0.0329  1.0000  0.0542  -1.3952   0.0000   0.0000   0.0000   0.1569
  -7.900  -0.3742   0.09893   0.09497  -0.0328  1.0000  0.0546  -1.4129   0.0000   0.0000   0.0000   0.1579
  -7.800  -0.3777   0.09854   0.09462  -0.0326  1.0000  0.0548  -1.4284   0.0000   0.0000   0.0000   0.1595
  -7.700  -0.3810   0.09814   0.09425  -0.0322  1.0000  0.0551  -1.4398   0.0000   0.0000   0.0000   0.1614
  -7.600  -0.3849   0.09772   0.09386  -0.0316  1.0000  0.0552  -1.4515   0.0000   0.0000   0.0000   0.1639
  -7.500  -0.3893   0.09728   0.09345  -0.0310  1.0000  0.0553  -1.4634   0.0000   0.0000   0.0000   0.1667
  -7.400  -0.3940   0.09680   0.09300  -0.0303  1.0000  0.0554  -1.4756   0.0000   0.0000   0.0000   0.1695
  -7.300  -0.3979   0.09620   0.09244  -0.0299  1.0000  0.0555  -1.4878   0.0000   0.0000   0.0000   0.1714
  -7.200  -0.4002   0.09541   0.09167  -0.0300  1.0000  0.0556  -1.5000   0.0000   0.0000   0.0000   0.1716
  -7.100  -0.4022   0.09454   0.09082  -0.0303  1.0000  0.0557  -1.5125   0.0000   0.0000   0.0000   0.1714
  -7.000  -0.4040   0.09360   0.08990  -0.0307  1.0000  0.0558  -1.5254   0.0000   0.0000   0.0000   0.1709
  -6.900  -0.4055   0.09259   0.08891  -0.0312  1.0000  0.0559  -1.5389   0.0000   0.0000   0.0000   0.1701
  -6.800  -0.4067   0.09152   0.08785  -0.0318  1.0000  0.0559  -1.5530   0.0000   0.0000   0.0000   0.1689
  -6.700  -0.4076   0.09038   0.08673  -0.0325  1.0000  0.0560  -1.5676   0.0000   0.0000   0.0000   0.1675
  -6.600  -0.4082   0.08919   0.08555  -0.0332  1.0000  0.0560  -1.5825   0.0000   0.0000   0.0000   0.1659
  -6.500  -0.4084   0.08796   0.08431  -0.0339  1.0000  0.0561  -1.5978   0.0000   0.0000   0.0000   0.1642
  -6.400  -0.4084   0.08668   0.08303  -0.0347  1.0000  0.0561  -1.6130   0.0000   0.0000   0.0000   0.1625
  -6.300  -0.4082   0.08537   0.08171  -0.0354  1.0000  0.0562  -1.6280   0.0000   0.0000   0.0000   0.1607
  -6.200  -0.4077   0.08405   0.08038  -0.0361  1.0000  0.0562  -1.6425   0.0000   0.0000   0.0000   0.1590
  -6.100  -0.4173   0.07907   0.07546  -0.0377  1.0000  0.0571  -1.7403   0.0000   0.0000   0.0000   0.1573
  -6.000  -0.4233   0.07563   0.07205  -0.0378  1.0000  0.0580  -1.7747   0.0000   0.0000   0.0000   0.1583
  -5.900  -0.4249   0.07373   0.07016  -0.0373  1.0000  0.0587  -1.7692   0.0000   0.0000   0.0000   0.1598
  -5.800  -0.4246   0.07259   0.06905  -0.0359  1.0000  0.0594  -1.7353   0.0000   0.0000   0.0000   0.1632
  -5.700  -0.4238   0.07157   0.06804  -0.0347  1.0000  0.0600  -1.7043   0.0000   0.0000   0.0000   0.1659
  -5.600  -0.4228   0.07058   0.06707  -0.0338  1.0000  0.0607  -1.6764   0.0000   0.0000   0.0000   0.1678
  -5.500  -0.4214   0.06959   0.06608  -0.0332  1.0000  0.0614  -1.6516   0.0000   0.0000   0.0000   0.1691
  -5.400  -0.4196   0.06860   0.06510  -0.0327  1.0000  0.0622  -1.6280   0.0000   0.0000   0.0000   0.1700
  -5.300  -0.4175   0.06763   0.06412  -0.0323  1.0000  0.0630  -1.6050   0.0000   0.0000   0.0000   0.1706
  -5.200  -0.4159   0.06717   0.06343  -0.0310  1.0000  0.0652  -1.5597   0.0000   0.0000   0.0000   0.1737
  -5.100  -0.4127   0.06590   0.06216  -0.0315  1.0000  0.0662  -1.5508   0.0000   0.0000   0.0000   0.1718
  -5.000  -0.4090   0.06458   0.06082  -0.0323  1.0000  0.0674  -1.5437   0.0000   0.0000   0.0000   0.1693
  -4.900  -0.4045   0.06317   0.05940  -0.0333  1.0000  0.0687  -1.5385   0.0000   0.0000   0.0000   0.1660
  -4.800  -0.3992   0.06170   0.05791  -0.0345  1.0000  0.0702  -1.5354   0.0000   0.0000   0.0000   0.1620
  -4.700  -0.3828   0.05947   0.05560  -0.0385  0.9984  0.0730  -1.5298   0.0000   0.0000   0.0000   0.1476
  -4.600  -0.3601   0.05722   0.05319  -0.0442  0.9966  0.0777  -1.5415   0.0000   0.0000   0.0000   0.1254
  -4.500  -0.3273   0.05872   0.05435  -0.0495  0.9938  0.0824  -1.5259   0.0000   0.0000   0.0000   0.0968
  -4.400  -0.3190   0.05152   0.04696  -0.0554  0.9926  0.0850  -1.6165   0.0000   0.0000   0.0000   0.0742
  -4.300  -0.3109   0.04833   0.04381  -0.0570  0.9914  0.0873  -1.5919   0.0000   0.0000   0.0000   0.0644
  -4.200  -0.3000   0.04689   0.04243  -0.0577  0.9902  0.0891  -1.5409   0.0000   0.0000   0.0000   0.0554
  -4.100  -0.2875   0.04564   0.04118  -0.0588  0.9889  0.0911  -1.4922   0.0000   0.0000   0.0000   0.0434
  -4.000  -0.2734   0.04438   0.03991  -0.0603  0.9878  0.0935  -1.4485   0.0000   0.0000   0.0000   0.0273
  -3.900  -0.2602   0.04313   0.03860  -0.0616  0.9859  0.0964  -1.4151   0.0000   0.0000   0.0000   0.0109
  -3.800  -0.2455   0.04183   0.03723  -0.0633  0.9838  0.1000  -1.3869   0.0000   0.0000   0.0000  -0.0100
  -3.700  -0.2285   0.04067   0.03593  -0.0652  0.9817  0.1048  -1.3621   0.0000   0.0000   0.0000  -0.0380
  -3.600  -0.2059   0.03923   0.03409  -0.0691  0.9797  0.1175  -1.3597   0.0000   0.0000   0.0000  -0.0884
  -3.500  -0.1933   0.03682   0.03170  -0.0707  0.9785  0.1209  -1.3274   0.0000   0.0000   0.0000  -0.1189
  -3.400  -0.1784   0.03546   0.03035  -0.0720  0.9771  0.1233  -1.2871   0.0000   0.0000   0.0000  -0.1566
  -3.300  -0.1430   0.02887   0.02256  -0.0744  0.9787  0.0516  -1.6641   0.0000   0.0000   0.0000  -0.2750
  -3.200  -0.1220   0.02519   0.01821  -0.0759  0.9794  0.0399  -1.8260   0.0000   0.0000   0.0000  -0.3778
  -3.100  -0.1036   0.02555   0.01839  -0.0763  0.9771  0.0355  -1.7919   0.0000   0.0000   0.0000  -0.4932
  -3.000  -0.0870   0.02411   0.01679  -0.0774  0.9764  0.0329  -1.7849   0.0000   0.0000   0.0000  -0.6474
  -2.900  -0.0699   0.02263   0.01508  -0.0785  0.9759  0.0312  -1.7857   0.0000   0.0000   0.0000  -0.8824
  -2.800  -0.0530   0.02156   0.01383  -0.0795  0.9751  0.0297  -1.7720   0.0000   0.0000   0.0000  -1.2627
  -2.700  -0.0363   0.02068   0.01281  -0.0803  0.9744  0.0285  -1.7521   0.0000   0.0000   0.0000  -1.9828
  -2.600  -0.0197   0.01994   0.01195  -0.0812  0.9737  0.0274  -1.7265   0.0000   0.0000   0.0000  -3.9123
  -2.500  -0.0047   0.01933   0.01124  -0.0818  0.9725  0.0265  -1.6965   0.0000   0.0000   0.0000  -17.3167
  -2.400   0.0074   0.01882   0.01067  -0.0819  0.9702  0.0259  -1.6648   0.0000   0.0000   0.0000  11.4213
  -2.300   0.0209   0.01836   0.01015  -0.0822  0.9680  0.0254  -1.6260   0.0000   0.0000   0.0000   4.2084
  -2.200   0.0355   0.01797   0.00970  -0.0828  0.9659  0.0251  -1.5805   0.0000   0.0000   0.0000   2.6006
  -2.100   0.0509   0.01764   0.00931  -0.0836  0.9638  0.0249  -1.5285   0.0000   0.0000   0.0000   1.9029
  -2.000   0.0671   0.01738   0.00897  -0.0846  0.9618  0.0250  -1.4706   0.0000   0.0000   0.0000   1.5172
  -1.900   0.0841   0.01716   0.00868  -0.0857  0.9599  0.0253  -1.4080   0.0000   0.0000   0.0000   1.2746
  -1.800   0.1015   0.01698   0.00843  -0.0868  0.9582  0.0259  -1.3417   0.0000   0.0000   0.0000   1.1098
  -1.700   0.1194   0.01684   0.00821  -0.0881  0.9566  0.0270  -1.2728   0.0000   0.0000   0.0000   0.9911
  -1.600   0.1376   0.01672   0.00804  -0.0894  0.9553  0.0287  -1.2026   0.0000   0.0000   0.0000   0.9025
  -1.500   0.1558   0.01664   0.00791  -0.0907  0.9541  0.0317  -1.1336   0.0000   0.0000   0.0000   0.8345
  -1.400   0.1622   0.01653   0.00779  -0.0898  0.9494  0.0354  -1.0956   0.0000   0.0000   0.0000   0.8054
  -1.300   0.1761   0.01584   0.00770  -0.0908  0.9472  0.1635  -1.0405   0.0000   0.0000   0.0000   0.7673
  -1.200   0.1900   0.01547   0.00768  -0.0916  0.9446  0.2571  -0.9751   0.0000   0.0000   0.0000   0.7337
  -1.100   0.2040   0.01473   0.00784  -0.0927  0.9428  0.4758  -0.8985   0.0000   0.0000   0.0000   0.7055
  -1.000   0.2176   0.01445   0.00790  -0.0931  0.9404  0.5652  -0.8181   0.0000   0.0000   0.0000   0.6788
  -0.900   0.2300   0.01415   0.00799  -0.0931  0.9381  0.6697  -0.7328   0.0000   0.0000   0.0000   0.6552
  -0.800   0.2330   0.01342   0.00806  -0.0897  0.9354  1.0000  -0.6443   0.0000   0.0000   0.0000   0.6354
  -0.700   0.2511   0.01344   0.00801  -0.0910  0.9336  1.0000  -0.5359   0.0000   0.0000   0.0000   0.6129
  -0.600   0.2695   0.01346   0.00796  -0.0925  0.9321  1.0000  -0.4725   0.0000   0.0000   0.0000   0.5934
  -0.500   0.2879   0.01348   0.00793  -0.0940  0.9308  1.0000  -0.4425   0.0000   0.0000   0.0000   0.5765
  -0.400   0.2951   0.01353   0.00793  -0.0933  0.9262  1.0000  -0.4483   0.0000   0.0000   0.0000   0.5661
  -0.300   0.3045   0.01355   0.00792  -0.0931  0.9216  1.0000  -0.4555   0.0000   0.0000   0.0000   0.5554
  -0.200   0.3178   0.01356   0.00788  -0.0935  0.9181  1.0000  -0.4648   0.0000   0.0000   0.0000   0.5440
  -0.100   0.3327   0.01355   0.00783  -0.0943  0.9150  1.0000  -0.4751   0.0000   0.0000   0.0000   0.5329
   0.000   0.3489   0.01351   0.00776  -0.0953  0.9123  1.0000  -0.4869   0.0000   0.0000   0.0000   0.5224
   0.100   0.3660   0.01346   0.00767  -0.0964  0.9100  1.0000  -0.4998   0.0000   0.0000   0.0000   0.5126
   0.200   0.3838   0.01341   0.00758  -0.0976  0.9081  1.0000  -0.5131   0.0000   0.0000   0.0000   0.5036
   0.300   0.4019   0.01334   0.00748  -0.0989  0.9064  1.0000  -0.5267   0.0000   0.0000   0.0000   0.4953
   0.400   0.4206   0.01326   0.00738  -0.1003  0.9050  1.0000  -0.5407   0.0000   0.0000   0.0000   0.4876
   0.500   0.4396   0.01318   0.00728  -0.1018  0.9037  1.0000  -0.5556   0.0000   0.0000   0.0000   0.4806
   0.600   0.4591   0.01309   0.00717  -0.1034  0.9025  1.0000  -0.5719   0.0000   0.0000   0.0000   0.4740
   0.700   0.4599   0.01321   0.00728  -0.1014  0.8949  1.0000  -0.5764   0.0000   0.0000   0.0000   0.4693
   0.800   0.4701   0.01320   0.00726  -0.1012  0.8898  1.0000  -0.5869   0.0000   0.0000   0.0000   0.4639
   0.900   0.4845   0.01314   0.00718  -0.1017  0.8863  1.0000  -0.6004   0.0000   0.0000   0.0000   0.4586
   1.000   0.5002   0.01305   0.00709  -0.1025  0.8834  1.0000  -0.6165   0.0000   0.0000   0.0000   0.4535
   1.100   0.5164   0.01296   0.00698  -0.1034  0.8809  1.0000  -0.6331   0.0000   0.0000   0.0000   0.4486
   1.200   0.5330   0.01284   0.00687  -0.1043  0.8785  1.0000  -0.6501   0.0000   0.0000   0.0000   0.4440
   1.300   0.5500   0.01271   0.00673  -0.1052  0.8763  1.0000  -0.6674   0.0000   0.0000   0.0000   0.4397
   1.400   0.5676   0.01257   0.00658  -0.1063  0.8742  1.0000  -0.6864   0.0000   0.0000   0.0000   0.4355
   1.500   0.5856   0.01241   0.00643  -0.1074  0.8721  1.0000  -0.7074   0.0000   0.0000   0.0000   0.4316
   1.600   0.6036   0.01227   0.00628  -0.1085  0.8699  1.0000  -0.7286   0.0000   0.0000   0.0000   0.4279
   1.700   0.6072   0.01237   0.00639  -0.1070  0.8625  1.0000  -0.7380   0.0000   0.0000   0.0000   0.4243
   1.800   0.6164   0.01236   0.00638  -0.1065  0.8564  1.0000  -0.7521   0.0000   0.0000   0.0000   0.4208
   1.900   0.6291   0.01228   0.00630  -0.1066  0.8517  1.0000  -0.7706   0.0000   0.0000   0.0000   0.4174
   2.000   0.6435   0.01216   0.00619  -0.1071  0.8475  1.0000  -0.7924   0.0000   0.0000   0.0000   0.4142
   2.100   0.6588   0.01203   0.00605  -0.1076  0.8438  1.0000  -0.8151   0.0000   0.0000   0.0000   0.4111
   2.200   0.6740   0.01189   0.00597  -0.1082  0.8405  1.0000  -0.8379   0.0000   0.0000   0.0000   0.4082
   2.300   0.6898   0.01176   0.00583  -0.1088  0.8372  1.0000  -0.8613   0.0000   0.0000   0.0000   0.4054
   2.400   0.7066   0.01165   0.00570  -0.1097  0.8336  1.0000  -0.8859   0.0000   0.0000   0.0000   0.4027
   2.500   0.7126   0.01172   0.00578  -0.1086  0.8265  1.0000  -0.9028   0.0000   0.0000   0.0000   0.3999
   2.600   0.7218   0.01171   0.00578  -0.1081  0.8194  1.0000  -0.9241   0.0000   0.0000   0.0000   0.3972
   2.700   0.7334   0.01164   0.00571  -0.1080  0.8129  1.0000  -0.9484   0.0000   0.0000   0.0000   0.3945
   2.800   0.7463   0.01155   0.00561  -0.1081  0.8069  1.0000  -0.9767   0.0000   0.0000   0.0000   0.3920
   2.900   0.7608   0.01144   0.00548  -0.1084  0.8015  1.0000  -1.0106   0.0000   0.0000   0.0000   0.3897
   3.000   0.7764   0.01135   0.00536  -0.1090  0.7960  1.0000  -1.0463   0.0000   0.0000   0.0000   0.3875
   3.100   0.7860   0.01138   0.00540  -0.1086  0.7890  1.0000  -1.0736   0.0000   0.0000   0.0000   0.3851
   3.200   0.7944   0.01140   0.00545  -0.1080  0.7808  1.0000  -1.0995   0.0000   0.0000   0.0000   0.3828
   3.300   0.8047   0.01139   0.00544  -0.1076  0.7728  1.0000  -1.1282   0.0000   0.0000   0.0000   0.3806
   3.400   0.8169   0.01134   0.00538  -0.1076  0.7652  1.0000  -1.1599   0.0000   0.0000   0.0000   0.3784
   3.500   0.8305   0.01129   0.00529  -0.1078  0.7577  1.0000  -1.1939   0.0000   0.0000   0.0000   0.3764
   3.600   0.8430   0.01130   0.00527  -0.1079  0.7498  1.0000  -1.2355   0.0000   0.0000   0.0000   0.3745
   3.700   0.8509   0.01134   0.00535  -0.1071  0.7404  1.0000  -1.2830   0.0000   0.0000   0.0000   0.3724
   3.800   0.8605   0.01132   0.00532  -0.1066  0.7282  1.0000  -1.3362   0.0000   0.0000   0.0000   0.3702
   3.900   0.8726   0.01127   0.00516  -0.1064  0.7137  1.0000  -1.3978   0.0000   0.0000   0.0000   0.3681
   4.000   0.8817   0.01128   0.00513  -0.1057  0.6976  1.0000  -1.4520   0.0000   0.0000   0.0000   0.3660
   4.100   0.8904   0.01128   0.00506  -0.1049  0.6768  1.0000  -1.5272   0.0000   0.0000   0.0000   0.3638
   4.200   0.8997   0.01133   0.00497  -0.1042  0.6543  1.0000  -1.6160   0.0000   0.0000   0.0000   0.3617
   4.300   0.9075   0.01142   0.00493  -0.1032  0.6278  1.0000  -1.6988   0.0000   0.0000   0.0000   0.3596
   4.400   0.9155   0.01155   0.00491  -0.1024  0.6005  1.0000  -1.7838   0.0000   0.0000   0.0000   0.3576
   4.500   0.9229   0.01174   0.00491  -0.1015  0.5702  1.0000  -1.8668   0.0000   0.0000   0.0000   0.3556
   4.600   0.9307   0.01192   0.00497  -0.1007  0.5436  1.0000  -1.9517   0.0000   0.0000   0.0000   0.3538
   4.700   0.9382   0.01214   0.00503  -0.0999  0.5197  1.0000  -2.0363   0.0000   0.0000   0.0000   0.3520
   4.800   0.9470   0.01231   0.00514  -0.0995  0.5013  1.0000  -2.1264   0.0000   0.0000   0.0000   0.3504
   4.900   0.9550   0.01251   0.00525  -0.0989  0.4795  1.0000  -2.2140   0.0000   0.0000   0.0000   0.3487
   5.000   0.9627   0.01275   0.00537  -0.0982  0.4597  1.0000  -2.3009   0.0000   0.0000   0.0000   0.3471
   5.100   0.9710   0.01295   0.00550  -0.0977  0.4386  1.0000  -2.3906   0.0000   0.0000   0.0000   0.3456
   5.300   0.9865   0.01344   0.00579  -0.0965  0.3964  1.0000  -2.5648   0.0000   0.0000   0.0000   0.3426
   5.400   0.9930   0.01377   0.00596  -0.0957  0.3723  1.0000  -2.6462   0.0000   0.0000   0.0000   0.3410
   5.500   1.0009   0.01402   0.00613  -0.0951  0.3492  1.0000  -2.7323   0.0000   0.0000   0.0000   0.3396
   5.600   1.0071   0.01440   0.00634  -0.0943  0.3238  1.0000  -2.8093   0.0000   0.0000   0.0000   0.3381
   5.700   1.0139   0.01476   0.00655  -0.0936  0.2925  1.0000  -2.8866   0.0000   0.0000   0.0000   0.3367
   5.800   1.0174   0.01538   0.00683  -0.0925  0.2445  1.0000  -2.9482   0.0000   0.0000   0.0000   0.3352
   5.900   1.0213   0.01604   0.00716  -0.0915  0.1981  1.0000  -3.0076   0.0000   0.0000   0.0000   0.3338
   6.000   1.0271   0.01658   0.00749  -0.0908  0.1633  1.0000  -3.0684   0.0000   0.0000   0.0000   0.3324
   6.100   1.0311   0.01733   0.00791  -0.0898  0.1158  1.0000  -3.1149   0.0000   0.0000   0.0000   0.3311
   6.200   1.0602   0.01570   0.00835  -0.0920  0.2627  1.0000  -3.5783   0.0000   0.0000   0.0000   0.3307
   6.300   1.0670   0.01607   0.00865  -0.0914  0.2434  1.0000  -3.6841   0.0000   0.0000   0.0000   0.3294
   6.400   1.0745   0.01639   0.00894  -0.0908  0.2270  1.0000  -3.7882   0.0000   0.0000   0.0000   0.3282
   6.500   1.0815   0.01676   0.00923  -0.0902  0.2067  1.0000  -3.8854   0.0000   0.0000   0.0000   0.3269
   6.600   1.0878   0.01720   0.00954  -0.0896  0.1825  1.0000  -3.9730   0.0000   0.0000   0.0000   0.3257
   6.700   1.0931   0.01773   0.00989  -0.0888  0.1550  1.0000  -4.0424   0.0000   0.0000   0.0000   0.3245
   6.800   1.0938   0.01884   0.01050  -0.0874  0.0902  1.0000  -4.0187   0.0000   0.0000   0.0000   0.3230
   6.900   1.0886   0.02090   0.01199  -0.0846  0.0333  1.0000  -3.8185   0.0000   0.0000   0.0000   0.3208
   7.000   1.0905   0.02198   0.01322  -0.0828  0.0289  1.0000  -3.7657   0.0000   0.0000   0.0000   0.3189
   7.100   1.0954   0.02265   0.01396  -0.0817  0.0280  1.0000  -3.7848   0.0000   0.0000   0.0000   0.3174
   7.200   1.1013   0.02323   0.01463  -0.0807  0.0274  1.0000  -3.8202   0.0000   0.0000   0.0000   0.3160
   7.300   1.1069   0.02386   0.01534  -0.0797  0.0269  1.0000  -3.8545   0.0000   0.0000   0.0000   0.3147
   7.400   1.1127   0.02453   0.01608  -0.0788  0.0266  1.0000  -3.8890   0.0000   0.0000   0.0000   0.3133
   7.500   1.1186   0.02524   0.01687  -0.0779  0.0263  1.0000  -3.9235   0.0000   0.0000   0.0000   0.3120
   7.600   1.1249   0.02601   0.01771  -0.0770  0.0260  1.0000  -3.9585   0.0000   0.0000   0.0000   0.3107
   7.700   1.1318   0.02683   0.01860  -0.0762  0.0258  1.0000  -3.9939   0.0000   0.0000   0.0000   0.3095
   7.800   1.1393   0.02771   0.01956  -0.0756  0.0257  1.0000  -4.0296   0.0000   0.0000   0.0000   0.3084
   7.900   1.1475   0.02867   0.02060  -0.0750  0.0257  1.0000  -4.0653   0.0000   0.0000   0.0000   0.3073
   8.000   1.1562   0.02972   0.02173  -0.0745  0.0257  1.0000  -4.1005   0.0000   0.0000   0.0000   0.3062
   8.100   1.1653   0.03084   0.02295  -0.0741  0.0257  1.0000  -4.1341   0.0000   0.0000   0.0000   0.3053
   8.200   1.1745   0.03205   0.02428  -0.0737  0.0258  1.0000  -4.1654   0.0000   0.0000   0.0000   0.3043
   8.300   1.1834   0.03334   0.02570  -0.0733  0.0260  1.0000  -4.1935   0.0000   0.0000   0.0000   0.3033
   8.400   1.1917   0.03471   0.02721  -0.0728  0.0262  1.0000  -4.2176   0.0000   0.0000   0.0000   0.3024
   8.500   1.1995   0.03618   0.02883  -0.0722  0.0264  1.0000  -4.2374   0.0000   0.0000   0.0000   0.3014
   8.600   1.2064   0.03774   0.03054  -0.0716  0.0267  1.0000  -4.2523   0.0000   0.0000   0.0000   0.3004
   8.700   1.2123   0.03941   0.03238  -0.0708  0.0269  1.0000  -4.2612   0.0000   0.0000   0.0000   0.2994
   8.800   1.2170   0.04123   0.03437  -0.0700  0.0272  1.0000  -4.2628   0.0000   0.0000   0.0000   0.2984
   8.900   1.2204   0.04325   0.03657  -0.0691  0.0276  1.0000  -4.2543   0.0000   0.0000   0.0000   0.2974
   9.000   1.2219   0.04574   0.03925  -0.0680  0.0279  1.0000  -4.2254   0.0000   0.0000   0.0000   0.2964
   9.100   1.2254   0.04841   0.04210  -0.0673  0.0287  1.0000  -4.2007   0.0000   0.0000   0.0000   0.2955
   9.200   1.2336   0.04854   0.04227  -0.0667  0.0291  1.0000  -4.2746   0.0000   0.0000   0.0000   0.2946
   9.300   1.2412   0.04872   0.04251  -0.0660  0.0296  1.0000  -4.3424   0.0000   0.0000   0.0000   0.2935
   9.400   1.2480   0.04900   0.04288  -0.0652  0.0302  1.0000  -4.3975   0.0000   0.0000   0.0000   0.2925
   9.500   1.2527   0.04959   0.04362  -0.0641  0.0311  1.0000  -4.4215   0.0000   0.0000   0.0000   0.2912
   9.600   1.2522   0.05152   0.04591  -0.0621  0.0330  1.0000  -4.3376   0.0000   0.0000   0.0000   0.2896
   9.700   1.2434   0.05478   0.04957  -0.0597  0.0354  1.0000  -4.1841   0.0000   0.0000   0.0000   0.2880
   9.800   1.2351   0.05735   0.05239  -0.0577  0.0369  1.0000  -4.0956   0.0000   0.0000   0.0000   0.2866
   9.900   1.2274   0.05961   0.05485  -0.0560  0.0381  1.0000  -4.0340   0.0000   0.0000   0.0000   0.2854
  10.000   1.2196   0.06160   0.05697  -0.0543  0.0390  1.0000  -3.9875   0.0000   0.0000   0.0000   0.2842
  10.100   1.2115   0.06343   0.05892  -0.0526  0.0398  1.0000  -3.9493   0.0000   0.0000   0.0000   0.2831
  10.200   1.2031   0.06519   0.06078  -0.0511  0.0405  1.0000  -3.9159   0.0000   0.0000   0.0000   0.2820
  10.300   1.1944   0.06692   0.06261  -0.0497  0.0410  1.0000  -3.8851   0.0000   0.0000   0.0000   0.2811
  10.400   1.1854   0.06867   0.06444  -0.0485  0.0415  1.0000  -3.8554   0.0000   0.0000   0.0000   0.2803
  10.500   1.1762   0.07042   0.06628  -0.0474  0.0419  1.0000  -3.8266   0.0000   0.0000   0.0000   0.2796
  10.600   1.1668   0.07221   0.06815  -0.0466  0.0422  1.0000  -3.7977   0.0000   0.0000   0.0000   0.2791
  10.700   1.1573   0.07408   0.07010  -0.0460  0.0426  1.0000  -3.7684   0.0000   0.0000   0.0000   0.2787
  10.800   1.1477   0.07602   0.07211  -0.0456  0.0428  1.0000  -3.7383   0.0000   0.0000   0.0000   0.2786
  10.900   1.1380   0.07803   0.07419  -0.0454  0.0430  1.0000  -3.7077   0.0000   0.0000   0.0000   0.2787
  11.000   1.1282   0.08007   0.07630  -0.0454  0.0432  1.0000  -3.6766   0.0000   0.0000   0.0000   0.2790
  11.100   1.1183   0.08213   0.07842  -0.0457  0.0433  1.0000  -3.6453   0.0000   0.0000   0.0000   0.2794
  11.200   1.1084   0.08428   0.08064  -0.0462  0.0434  1.0000  -3.6131   0.0000   0.0000   0.0000   0.2801
  11.300   1.0987   0.08656   0.08298  -0.0469  0.0434  1.0000  -3.5791   0.0000   0.0000   0.0000   0.2810
  11.400   1.0890   0.08897   0.08545  -0.0479  0.0434  1.0000  -3.5435   0.0000   0.0000   0.0000   0.2822
  11.500   1.0793   0.09151   0.08805  -0.0493  0.0434  1.0000  -3.5060   0.0000   0.0000   0.0000   0.2837
  11.600   1.0697   0.09421   0.09080  -0.0509  0.0433  1.0000  -3.4654   0.0000   0.0000   0.0000   0.2855
  11.700   1.0602   0.09710   0.09374  -0.0528  0.0432  1.0000  -3.4212   0.0000   0.0000   0.0000   0.2876
  11.800   1.0506   0.10022   0.09692  -0.0550  0.0431  1.0000  -3.3720   0.0000   0.0000   0.0000   0.2901
  11.900   1.0409   0.10364   0.10038  -0.0576  0.0429  1.0000  -3.3157   0.0000   0.0000   0.0000   0.2929
  12.000   1.0313   0.10744   0.10421  -0.0606  0.0427  1.0000  -3.2500   0.0000   0.0000   0.0000   0.2962
  12.100   1.0218   0.11164   0.10845  -0.0638  0.0426  1.0000  -3.1728   0.0000   0.0000   0.0000   0.2998
  12.200   1.0125   0.11623   0.11305  -0.0671  0.0427  1.0000  -3.0840   0.0000   0.0000   0.0000   0.3037
  12.300   1.0037   0.12105   0.11788  -0.0704  0.0430  1.0000  -2.9867   0.0000   0.0000   0.0000   0.3075
  12.400   0.9958   0.12566   0.12248  -0.0730  0.0438  1.0000  -2.8935   0.0000   0.0000   0.0000   0.3108
  13.000   0.9651   0.15744   0.15418  -0.0842  0.0685  1.0000  -2.2094   0.0000   0.0000   0.0000   0.3248
  13.100   0.9643   0.15988   0.15661  -0.0856  0.0685  1.0000  -2.1831   0.0000   0.0000   0.0000   0.3262
  13.200   0.9637   0.16225   0.15898  -0.0870  0.0684  1.0000  -2.1581   0.0000   0.0000   0.0000   0.3276
  13.300   0.9632   0.16457   0.16129  -0.0883  0.0684  1.0000  -2.1343   0.0000   0.0000   0.0000   0.3290
  13.400   0.9629   0.16684   0.16356  -0.0896  0.0683  1.0000  -2.1116   0.0000   0.0000   0.0000   0.3303
  13.500   0.9628   0.16905   0.16576  -0.0910  0.0683  1.0000  -2.0899   0.0000   0.0000   0.0000   0.3316
  13.600   0.9627   0.17120   0.16791  -0.0923  0.0682  1.0000  -2.0690   0.0000   0.0000   0.0000   0.3328
  13.700   0.9628   0.17328   0.16998  -0.0936  0.0681  1.0000  -2.0488   0.0000   0.0000   0.0000   0.3341
  13.800   0.9630   0.17525   0.17194  -0.0949  0.0680  1.0000  -2.0293   0.0000   0.0000   0.0000   0.3354
  13.900   0.9633   0.17706   0.17375  -0.0963  0.0677  1.0000  -2.0102   0.0000   0.0000   0.0000   0.3367
  14.000   0.9638   0.17849   0.17516  -0.0979  0.0673  1.0000  -1.9905   0.0000   0.0000   0.0000   0.3382
  14.100   0.9632   0.17923   0.17589  -0.1006  0.0655  1.0000  -1.9503   0.0000   0.0000   0.0000   0.3409
  14.200   0.9622   0.18104   0.17769  -0.1028  0.0639  1.0000  -1.9102   0.0000   0.0000   0.0000   0.3433
  14.300   0.9618   0.18307   0.17970  -0.1043  0.0626  1.0000  -1.8833   0.0000   0.0000   0.0000   0.3448
  14.400   0.9620   0.18510   0.18173  -0.1057  0.0616  1.0000  -1.8636   0.0000   0.0000   0.0000   0.3461
  14.500   0.9625   0.18712   0.18375  -0.1068  0.0606  1.0000  -1.8480   0.0000   0.0000   0.0000   0.3472
  14.600   0.9632   0.18911   0.18574  -0.1079  0.0598  1.0000  -1.8353   0.0000   0.0000   0.0000   0.3481
  14.700   0.9639   0.19108   0.18770  -0.1089  0.0589  1.0000  -1.8249   0.0000   0.0000   0.0000   0.3489
  14.800   0.9649   0.19303   0.18965  -0.1099  0.0581  1.0000  -1.8165   0.0000   0.0000   0.0000   0.3497
  14.900   0.9660   0.19497   0.19159  -0.1108  0.0574  1.0000  -1.8102   0.0000   0.0000   0.0000   0.3504
  15.000   0.9673   0.19689   0.19351  -0.1117  0.0566  1.0000  -1.8057   0.0000   0.0000   0.0000   0.3510
  15.100   0.9688   0.19880   0.19542  -0.1125  0.0559  1.0000  -1.8030   0.0000   0.0000   0.0000   0.3515
  15.200   0.9703   0.20070   0.19732  -0.1132  0.0552  1.0000  -1.8021   0.0000   0.0000   0.0000   0.3520
  15.300   0.9720   0.20258   0.19920  -0.1140  0.0545  1.0000  -1.8031   0.0000   0.0000   0.0000   0.3524
  15.400   0.9739   0.20444   0.20106  -0.1146  0.0539  1.0000  -1.8062   0.0000   0.0000   0.0000   0.3527
  15.500   0.9758   0.20628   0.20291  -0.1153  0.0533  1.0000  -1.8114   0.0000   0.0000   0.0000   0.3530
  15.600   0.9780   0.20811   0.20474  -0.1158  0.0526  1.0000  -1.8192   0.0000   0.0000   0.0000   0.3532
  15.700   0.9804   0.20992   0.20656  -0.1163  0.0521  1.0000  -1.8297   0.0000   0.0000   0.0000   0.3533
  15.800   0.9829   0.21172   0.20836  -0.1168  0.0515  1.0000  -1.8435   0.0000   0.0000   0.0000   0.3532
  15.900   0.9859   0.21351   0.21016  -0.1171  0.0509  1.0000  -1.8614   0.0000   0.0000   0.0000   0.3530
  16.000   0.9892   0.21530   0.21196  -0.1172  0.0504  1.0000  -1.8843   0.0000   0.0000   0.0000   0.3527
  16.100   0.9929   0.21712   0.21378  -0.1173  0.0498  1.0000  -1.9125   0.0000   0.0000   0.0000   0.3521
  16.200   0.9967   0.21896   0.21564  -0.1172  0.0493  1.0000  -1.9438   0.0000   0.0000   0.0000   0.3514
  16.300   1.0004   0.22093   0.21762  -0.1171  0.0488  1.0000  -1.9771   0.0000   0.0000   0.0000   0.3507
  16.400   1.0042   0.22321   0.21992  -0.1168  0.0482  1.0000  -2.0130   0.0000   0.0000   0.0000   0.3498
  16.500   1.0045   0.22731   0.22403  -0.1168  0.0473  1.0000  -2.0156   0.0000   0.0000   0.0000   0.3496
  16.600   0.9970   0.23530   0.23196  -0.1185  0.0464  1.0000  -1.9032   0.0000   0.0000   0.0000   0.3521
  16.700   0.9982   0.23755   0.23421  -0.1194  0.0463  1.0000  -1.8913   0.0000   0.0000   0.0000   0.3528
  16.800   0.9993   0.23979   0.23644  -0.1203  0.0463  1.0000  -1.8796   0.0000   0.0000   0.0000   0.3535
  16.900   1.0005   0.24200   0.23866  -0.1213  0.0463  1.0000  -1.8681   0.0000   0.0000   0.0000   0.3542
  17.000   1.0016   0.24420   0.24085  -0.1222  0.0462  1.0000  -1.8567   0.0000   0.0000   0.0000   0.3548
  17.100   1.0027   0.24637   0.24303  -0.1231  0.0462  1.0000  -1.8455   0.0000   0.0000   0.0000   0.3555
  17.200   1.0038   0.24852   0.24518  -0.1241  0.0461  1.0000  -1.8344   0.0000   0.0000   0.0000   0.3562
  17.300   1.0048   0.25063   0.24729  -0.1250  0.0461  1.0000  -1.8234   0.0000   0.0000   0.0000   0.3568
  17.400   1.0059   0.25271   0.24937  -0.1259  0.0460  1.0000  -1.8124   0.0000   0.0000   0.0000   0.3575
  17.500   1.0069   0.25475   0.25141  -0.1269  0.0459  1.0000  -1.8016   0.0000   0.0000   0.0000   0.3582
  17.600   1.0079   0.25672   0.25338  -0.1278  0.0458  1.0000  -1.7907   0.0000   0.0000   0.0000   0.3588
  17.700   1.0089   0.25862   0.25528  -0.1288  0.0457  1.0000  -1.7796   0.0000   0.0000   0.0000   0.3595
  17.800   1.0098   0.26042   0.25708  -0.1298  0.0456  1.0000  -1.7682   0.0000   0.0000   0.0000   0.3603
  17.900   1.0100   0.26209   0.25875  -0.1309  0.0454  1.0000  -1.7507   0.0000   0.0000   0.0000   0.3612
  18.000   1.0096   0.26357   0.26023  -0.1323  0.0450  1.0000  -1.7270   0.0000   0.0000   0.0000   0.3625
  18.100   1.0082   0.26494   0.26159  -0.1339  0.0446  1.0000  -1.6952   0.0000   0.0000   0.0000   0.3641
  18.200   1.0072   0.26640   0.26305  -0.1355  0.0440  1.0000  -1.6621   0.0000   0.0000   0.0000   0.3657
  18.300   1.0069   0.26813   0.26478  -0.1369  0.0431  1.0000  -1.6328   0.0000   0.0000   0.0000   0.3671
  18.400   1.0072   0.27011   0.26676  -0.1382  0.0420  1.0000  -1.6110   0.0000   0.0000   0.0000   0.3681
  18.500   1.0077   0.27220   0.26885  -0.1392  0.0408  1.0000  -1.5966   0.0000   0.0000   0.0000   0.3689
  18.600   1.0084   0.27430   0.27095  -0.1400  0.0395  1.0000  -1.5888   0.0000   0.0000   0.0000   0.3695
  18.700   1.0091   0.27632   0.27298  -0.1407  0.0379  1.0000  -1.5888   0.0000   0.0000   0.0000   0.3700
  18.800   1.0101   0.27817   0.27483  -0.1413  0.0362  1.0000  -1.6004   0.0000   0.0000   0.0000   0.3702
  18.900   1.0117   0.27963   0.27631  -0.1416  0.0341  1.0000  -1.6356   0.0000   0.0000   0.0000   0.3701
  19.300   1.0172   0.28660   0.28342  -0.1423  0.0312  1.0000  -1.7335   0.0000   0.0000   0.0000   0.3693
  19.800   1.0134   0.30313   0.29997  -0.1418  0.0283  1.0000  -1.7459   0.0000   0.0000   0.0000   0.3687
  19.900   1.0118   0.30506   0.30191  -0.1423  0.0282  1.0000  -1.7297   0.0000   0.0000   0.0000   0.3693
  20.000   1.0097   0.30689   0.30374  -0.1428  0.0282  1.0000  -1.7124   0.0000   0.0000   0.0000   0.3700
  20.100   1.0071   0.30858   0.30544  -0.1433  0.0281  1.0000  -1.6941   0.0000   0.0000   0.0000   0.3707
  20.200   1.0037   0.31007   0.30695  -0.1436  0.0281  1.0000  -1.6740   0.0000   0.0000   0.0000   0.3714
  20.300   0.9993   0.31129   0.30818  -0.1438  0.0280  1.0000  -1.6513   0.0000   0.0000   0.0000   0.3721
  20.400   0.9560   0.30378   0.30078  -0.1390  0.0280  1.0000  -1.5427   0.0000   0.0000   0.0000   0.3740
  20.500   0.9463   0.30281   0.29984  -0.1385  0.0280  1.0000  -1.5089   0.0000   0.0000   0.0000   0.3749
  20.600   0.9391   0.30228   0.29933  -0.1383  0.0279  1.0000  -1.4804   0.0000   0.0000   0.0000   0.3758
  20.700   0.9324   0.30183   0.29890  -0.1384  0.0278  1.0000  -1.4494   0.0000   0.0000   0.0000   0.3769
  20.800   0.9260   0.30142   0.29850  -0.1386  0.0276  1.0000  -1.4148   0.0000   0.0000   0.0000   0.3781
  20.900   0.9206   0.30118   0.29826  -0.1391  0.0274  1.0000  -1.3799   0.0000   0.0000   0.0000   0.3794
  21.000   0.9163   0.30117   0.29826  -0.1398  0.0270  1.0000  -1.3430   0.0000   0.0000   0.0000   0.3808
  21.100   0.9134   0.30155   0.29865  -0.1407  0.0262  1.0000  -1.3039   0.0000   0.0000   0.0000   0.3822
  21.200   0.9112   0.30223   0.29934  -0.1413  0.0252  1.0000  -1.2730   0.0000   0.0000   0.0000   0.3832
  21.300   0.9088   0.30287   0.29999  -0.1417  0.0242  1.0000  -1.2533   0.0000   0.0000   0.0000   0.3839
  21.400   0.9064   0.30344   0.30057  -0.1419  0.0233  1.0000  -1.2395   0.0000   0.0000   0.0000   0.3845
  21.500   0.9041   0.30398   0.30112  -0.1421  0.0225  1.0000  -1.2290   0.0000   0.0000   0.0000   0.3850
  21.600   0.9019   0.30451   0.30166  -0.1423  0.0218  1.0000  -1.2209   0.0000   0.0000   0.0000   0.3855
  21.700   0.8998   0.30502   0.30219  -0.1425  0.0212  1.0000  -1.2146   0.0000   0.0000   0.0000   0.3859
  21.800   0.8979   0.30554   0.30272  -0.1426  0.0206  1.0000  -1.2099   0.0000   0.0000   0.0000   0.3863
  21.900   0.8961   0.30605   0.30324  -0.1428  0.0201  1.0000  -1.2066   0.0000   0.0000   0.0000   0.3867
  22.000   0.8944   0.30656   0.30376  -0.1429  0.0196  1.0000  -1.2046   0.0000   0.0000   0.0000   0.3870
  22.100   0.8928   0.30706   0.30427  -0.1431  0.0192  1.0000  -1.2039   0.0000   0.0000   0.0000   0.3873
  22.200   0.8914   0.30756   0.30478  -0.1433  0.0188  1.0000  -1.2046   0.0000   0.0000   0.0000   0.3876
  22.300   0.8900   0.30805   0.30529  -0.1434  0.0184  1.0000  -1.2066   0.0000   0.0000   0.0000   0.3879
  22.400   0.8887   0.30854   0.30578  -0.1436  0.0180  1.0000  -1.2099   0.0000   0.0000   0.0000   0.3882
  22.500   0.8875   0.30901   0.30627  -0.1437  0.0177  1.0000  -1.2148   0.0000   0.0000   0.0000   0.3884
  22.600   0.8864   0.30948   0.30674  -0.1438  0.0174  1.0000  -1.2214   0.0000   0.0000   0.0000   0.3886
  22.700   0.8854   0.30993   0.30721  -0.1439  0.0171  1.0000  -1.2297   0.0000   0.0000   0.0000   0.3888
  22.800   0.8844   0.31037   0.30766  -0.1440  0.0168  1.0000  -1.2400   0.0000   0.0000   0.0000   0.3889
  22.900   0.8836   0.31081   0.30810  -0.1441  0.0165  1.0000  -1.2526   0.0000   0.0000   0.0000   0.3889
  23.000   0.8828   0.31124   0.30855  -0.1441  0.0163  1.0000  -1.2679   0.0000   0.0000   0.0000   0.3889
  23.100   0.8821   0.31169   0.30902  -0.1440  0.0160  1.0000  -1.2862   0.0000   0.0000   0.0000   0.3888
  23.200   0.8816   0.31222   0.30956  -0.1438  0.0158  1.0000  -1.3087   0.0000   0.0000   0.0000   0.3885
  23.300   0.8815   0.31299   0.31034  -0.1435  0.0155  1.0000  -1.3361   0.0000   0.0000   0.0000   0.3880
  23.400   0.8805   0.31484   0.31220  -0.1429  0.0151  1.0000  -1.3425   0.0000   0.0000   0.0000   0.3873
  23.500   0.8764   0.31755   0.31487  -0.1428  0.0148  1.0000  -1.2689   0.0000   0.0000   0.0000   0.3880
  23.600   0.8755   0.31825   0.31558  -0.1431  0.0148  1.0000  -1.2586   0.0000   0.0000   0.0000   0.3884
  23.700   0.8746   0.31894   0.31628  -0.1434  0.0147  1.0000  -1.2485   0.0000   0.0000   0.0000   0.3888
  23.800   0.8738   0.31964   0.31699  -0.1437  0.0147  1.0000  -1.2386   0.0000   0.0000   0.0000   0.3892
  23.900   0.8730   0.32034   0.31769  -0.1441  0.0147  1.0000  -1.2289   0.0000   0.0000   0.0000   0.3896
  24.000   0.8722   0.32104   0.31840  -0.1444  0.0147  1.0000  -1.2195   0.0000   0.0000   0.0000   0.3900
  24.100   0.8715   0.32173   0.31910  -0.1447  0.0147  1.0000  -1.2101   0.0000   0.0000   0.0000   0.3904
  24.200   0.8707   0.32243   0.31980  -0.1451  0.0147  1.0000  -1.2009   0.0000   0.0000   0.0000   0.3907
  24.300   0.8700   0.32311   0.32049  -0.1454  0.0147  1.0000  -1.1916   0.0000   0.0000   0.0000   0.3911
  24.400   0.8693   0.32379   0.32118  -0.1458  0.0147  1.0000  -1.1825   0.0000   0.0000   0.0000   0.3915
  24.500   0.8687   0.32447   0.32186  -0.1461  0.0147  1.0000  -1.1735   0.0000   0.0000   0.0000   0.3919
  24.600   0.8680   0.32514   0.32255  -0.1465  0.0147  1.0000  -1.1647   0.0000   0.0000   0.0000   0.3923
  24.700   0.8674   0.32582   0.32323  -0.1469  0.0146  1.0000  -1.1560   0.0000   0.0000   0.0000   0.3927
  24.800   0.8668   0.32649   0.32391  -0.1472  0.0146  1.0000  -1.1474   0.0000   0.0000   0.0000   0.3930
  24.900   0.8662   0.32716   0.32459  -0.1476  0.0146  1.0000  -1.1390   0.0000   0.0000   0.0000   0.3934
  25.000   0.8657   0.32783   0.32526  -0.1480  0.0146  1.0000  -1.1306   0.0000   0.0000   0.0000   0.3938
  25.100   0.8651   0.32848   0.32592  -0.1483  0.0146  1.0000  -1.1219   0.0000   0.0000   0.0000   0.3942
  25.200   0.8646   0.32913   0.32658  -0.1487  0.0146  1.0000  -1.1132   0.0000   0.0000   0.0000   0.3946
  25.300   0.8640   0.32978   0.32723  -0.1491  0.0145  1.0000  -1.1046   0.0000   0.0000   0.0000   0.3950
  25.400   0.8635   0.33042   0.32788  -0.1495  0.0145  1.0000  -1.0961   0.0000   0.0000   0.0000   0.3954
  25.500   0.8630   0.33106   0.32852  -0.1499  0.0145  1.0000  -1.0875   0.0000   0.0000   0.0000   0.3958
  25.600   0.8624   0.33166   0.32914  -0.1504  0.0145  1.0000  -1.0771   0.0000   0.0000   0.0000   0.3962
  25.700   0.8618   0.33228   0.32975  -0.1508  0.0144  1.0000  -1.0668   0.0000   0.0000   0.0000   0.3967
  25.800   0.8613   0.33288   0.33037  -0.1513  0.0144  1.0000  -1.0565   0.0000   0.0000   0.0000   0.3972
  25.900   0.8607   0.33350   0.33099  -0.1517  0.0144  1.0000  -1.0462   0.0000   0.0000   0.0000   0.3976
  26.000   0.8603   0.33412   0.33162  -0.1522  0.0143  1.0000  -1.0360   0.0000   0.0000   0.0000   0.3981
  26.100   0.8598   0.33476   0.33226  -0.1527  0.0143  1.0000  -1.0257   0.0000   0.0000   0.0000   0.3985
  26.200   0.8595   0.33540   0.33291  -0.1532  0.0143  1.0000  -1.0153   0.0000   0.0000   0.0000   0.3990
  26.300   0.8591   0.33606   0.33357  -0.1537  0.0142  1.0000  -1.0049   0.0000   0.0000   0.0000   0.3995
  26.400   0.8589   0.33673   0.33425  -0.1542  0.0141  1.0000  -0.9943   0.0000   0.0000   0.0000   0.3999
  26.500   0.8587   0.33743   0.33496  -0.1547  0.0141  1.0000  -0.9834   0.0000   0.0000   0.0000   0.4004
  26.600   0.8586   0.33817   0.33570  -0.1552  0.0140  1.0000  -0.9724   0.0000   0.0000   0.0000   0.4009
  26.700   0.8586   0.33893   0.33647  -0.1558  0.0138  1.0000  -0.9611   0.0000   0.0000   0.0000   0.4013
  26.800   0.8587   0.33974   0.33729  -0.1563  0.0137  1.0000  -0.9498   0.0000   0.0000   0.0000   0.4017
  26.900   0.8588   0.34059   0.33814  -0.1569  0.0136  1.0000  -0.9386   0.0000   0.0000   0.0000   0.4021
  27.000   0.8590   0.34145   0.33901  -0.1574  0.0134  1.0000  -0.9280   0.0000   0.0000   0.0000   0.4025
  27.100   0.8592   0.34232   0.33989  -0.1579  0.0132  1.0000  -0.9183   0.0000   0.0000   0.0000   0.4028
  27.200   0.8593   0.34318   0.34075  -0.1583  0.0130  1.0000  -0.9096   0.0000   0.0000   0.0000   0.4032
  27.300   0.8594   0.34403   0.34161  -0.1587  0.0128  1.0000  -0.9019   0.0000   0.0000   0.0000   0.4034
  27.400   0.8595   0.34487   0.34245  -0.1592  0.0126  1.0000  -0.8950   0.0000   0.0000   0.0000   0.4037
  27.500   0.8595   0.34569   0.34328  -0.1596  0.0124  1.0000  -0.8889   0.0000   0.0000   0.0000   0.4040
  27.600   0.8595   0.34650   0.34410  -0.1599  0.0122  1.0000  -0.8834   0.0000   0.0000   0.0000   0.4042
  27.700   0.8595   0.34731   0.34491  -0.1603  0.0120  1.0000  -0.8784   0.0000   0.0000   0.0000   0.4045
  27.800   0.8594   0.34810   0.34572  -0.1607  0.0118  1.0000  -0.8738   0.0000   0.0000   0.0000   0.4047
  27.900   0.8594   0.34888   0.34656  -0.1611  0.0116  1.0000  -0.8700   0.0000   0.0000   0.0000   0.4050
  28.000   0.8593   0.34967   0.34736  -0.1614  0.0115  1.0000  -0.8661   0.0000   0.0000   0.0000   0.4052
  28.100   0.8593   0.35045   0.34815  -0.1618  0.0113  1.0000  -0.8625   0.0000   0.0000   0.0000   0.4054
  28.200   0.8592   0.35123   0.34893  -0.1622  0.0111  1.0000  -0.8590   0.0000   0.0000   0.0000   0.4057
  28.300   0.8591   0.35200   0.34972  -0.1625  0.0110  1.0000  -0.8557   0.0000   0.0000   0.0000   0.4059
  28.400   0.8590   0.35277   0.35050  -0.1629  0.0108  1.0000  -0.8526   0.0000   0.0000   0.0000   0.4061


