xflr5 v6.61

 Calculated polar for: E64  (8.45%)

 1 1 Reynolds number fixed          Mach number fixed         

 xtrf =   1.000 (top)        1.000 (bottom)
 Mach =   0.000     Re =     0.719 e 6     Ncrit =   9.000

  alpha     CL        CD       CDp       Cm    Top Xtr Bot Xtr   Cpmin    Chinge    XCp    
 ------- -------- --------- --------- -------- ------- ------- -------- --------- ---------
 -10.000  -0.3676   0.11482   0.11269  -0.0282  1.0000  0.0065  -1.6372   0.0000   0.0000   0.0000   0.1662
  -9.900  -0.3666   0.11361   0.11149  -0.0284  1.0000  0.0065  -1.6448   0.0000   0.0000   0.0000   0.1657
  -9.800  -0.3657   0.11241   0.11029  -0.0285  1.0000  0.0065  -1.6527   0.0000   0.0000   0.0000   0.1653
  -9.700  -0.3648   0.11120   0.10909  -0.0286  1.0000  0.0065  -1.6607   0.0000   0.0000   0.0000   0.1649
  -9.600  -0.3640   0.11001   0.10790  -0.0287  1.0000  0.0065  -1.6689   0.0000   0.0000   0.0000   0.1645
  -9.500  -0.3633   0.10881   0.10671  -0.0288  1.0000  0.0065  -1.6774   0.0000   0.0000   0.0000   0.1642
  -9.400  -0.3627   0.10763   0.10554  -0.0289  1.0000  0.0065  -1.6861   0.0000   0.0000   0.0000   0.1639
  -9.300  -0.3622   0.10645   0.10437  -0.0289  1.0000  0.0065  -1.6950   0.0000   0.0000   0.0000   0.1638
  -9.200  -0.3618   0.10529   0.10321  -0.0289  1.0000  0.0065  -1.7041   0.0000   0.0000   0.0000   0.1637
  -9.100  -0.3616   0.10414   0.10207  -0.0289  1.0000  0.0065  -1.7135   0.0000   0.0000   0.0000   0.1638
  -9.000  -0.3615   0.10300   0.10094  -0.0289  1.0000  0.0065  -1.7232   0.0000   0.0000   0.0000   0.1639
  -8.900  -0.3616   0.10187   0.09982  -0.0289  1.0000  0.0065  -1.7331   0.0000   0.0000   0.0000   0.1642
  -8.800  -0.3618   0.10077   0.09873  -0.0288  1.0000  0.0065  -1.7433   0.0000   0.0000   0.0000   0.1646
  -8.700  -0.3623   0.09968   0.09764  -0.0286  1.0000  0.0065  -1.7538   0.0000   0.0000   0.0000   0.1652
  -8.600  -0.3629   0.09861   0.09658  -0.0285  1.0000  0.0065  -1.7645   0.0000   0.0000   0.0000   0.1659
  -8.500  -0.3637   0.09756   0.09555  -0.0283  1.0000  0.0065  -1.7756   0.0000   0.0000   0.0000   0.1668
  -8.400  -0.3649   0.09654   0.09454  -0.0280  1.0000  0.0065  -1.7869   0.0000   0.0000   0.0000   0.1679
  -8.300  -0.3662   0.09554   0.09355  -0.0277  1.0000  0.0065  -1.7985   0.0000   0.0000   0.0000   0.1692
  -8.200  -0.3679   0.09456   0.09259  -0.0273  1.0000  0.0065  -1.8104   0.0000   0.0000   0.0000   0.1707
  -8.100  -0.3699   0.09362   0.09165  -0.0268  1.0000  0.0065  -1.8226   0.0000   0.0000   0.0000   0.1724
  -8.000  -0.3722   0.09271   0.09076  -0.0263  1.0000  0.0065  -1.8351   0.0000   0.0000   0.0000   0.1744
  -7.900  -0.3749   0.09183   0.08989  -0.0257  1.0000  0.0065  -1.8478   0.0000   0.0000   0.0000   0.1766
  -7.800  -0.3705   0.09016   0.08822  -0.0272  0.9995  0.0065  -1.8602   0.0000   0.0000   0.0000   0.1717
  -7.700  -0.3651   0.08837   0.08643  -0.0291  0.9988  0.0065  -1.8732   0.0000   0.0000   0.0000   0.1654
  -7.600  -0.3598   0.08658   0.08464  -0.0311  0.9980  0.0065  -1.8868   0.0000   0.0000   0.0000   0.1588
  -7.500  -0.3543   0.08478   0.08284  -0.0331  0.9973  0.0065  -1.9011   0.0000   0.0000   0.0000   0.1517
  -7.400  -0.3487   0.08296   0.08102  -0.0352  0.9964  0.0065  -1.9163   0.0000   0.0000   0.0000   0.1443
  -6.300  -0.2544   0.04916   0.04708  -0.0836  0.9769  0.0069  -2.7099   0.0000   0.0000   0.0000  -0.0840
  -6.200  -0.2422   0.04151   0.03922  -0.0920  0.9752  0.0072  -3.0794   0.0000   0.0000   0.0000  -0.1359
  -6.100  -0.2304   0.03641   0.03389  -0.0974  0.9742  0.0075  -3.2854   0.0000   0.0000   0.0000  -0.1793
  -6.000  -0.2179   0.03355   0.03088  -0.1006  0.9735  0.0079  -3.3192   0.0000   0.0000   0.0000  -0.2186
  -5.900  -0.2155   0.03233   0.02958  -0.1000  0.9693  0.0080  -3.3042   0.0000   0.0000   0.0000  -0.2212
  -5.800  -0.2065   0.03099   0.02815  -0.1009  0.9669  0.0083  -3.2509   0.0000   0.0000   0.0000  -0.2460
  -5.700  -0.1955   0.02978   0.02685  -0.1021  0.9653  0.0086  -3.1761   0.0000   0.0000   0.0000  -0.2795
  -5.600  -0.1836   0.02866   0.02564  -0.1033  0.9639  0.0089  -3.0943   0.0000   0.0000   0.0000  -0.3201
  -5.500  -0.1711   0.02755   0.02444  -0.1045  0.9628  0.0092  -3.0142   0.0000   0.0000   0.0000  -0.3686
  -5.400  -0.1582   0.02648   0.02327  -0.1056  0.9618  0.0095  -2.9367   0.0000   0.0000   0.0000  -0.4261
  -5.200  -0.1310   0.02315   0.01947  -0.1079  0.9601  0.0095  -2.9525   0.0000   0.0000   0.0000  -0.5841
  -5.100  -0.1176   0.02251   0.01877  -0.1089  0.9595  0.0099  -2.8341   0.0000   0.0000   0.0000  -0.6868
  -5.000  -0.1041   0.02188   0.01807  -0.1099  0.9589  0.0105  -2.7200   0.0000   0.0000   0.0000  -0.8172
  -4.900  -0.0903   0.02122   0.01735  -0.1108  0.9584  0.0112  -2.6139   0.0000   0.0000   0.0000  -0.9906
  -4.800  -0.0763   0.02055   0.01661  -0.1117  0.9579  0.0120  -2.5153   0.0000   0.0000   0.0000  -1.2310
  -4.700  -0.0621   0.01991   0.01589  -0.1126  0.9573  0.0130  -2.4225   0.0000   0.0000   0.0000  -1.5817
  -4.600  -0.0480   0.01936   0.01527  -0.1134  0.9567  0.0141  -2.3310   0.0000   0.0000   0.0000  -2.1376
  -4.500  -0.0336   0.01905   0.01492  -0.1140  0.9561  0.0156  -2.2297   0.0000   0.0000   0.0000  -3.1726
  -4.400  -0.0188   0.01983   0.01575  -0.1143  0.9556  0.0173  -2.0643   0.0000   0.0000   0.0000  -5.8903
  -4.300  -0.0067   0.01673   0.01230  -0.1160  0.9546  0.0215  -2.0983   0.0000   0.0000   0.0000  -17.2420
  -4.200   0.0032   0.01685   0.01251  -0.1162  0.9529  0.0242  -1.9349   0.0000   0.0000   0.0000  36.5928
  -4.100   0.0108   0.01708   0.01280  -0.1156  0.9500  0.0274  -1.8069   0.0000   0.0000   0.0000  11.0216
  -4.000   0.0223   0.01821   0.01404  -0.1153  0.9481  0.0326  -1.6511   0.0000   0.0000   0.0000   5.4676
  -3.900   0.0362   0.02059   0.01650  -0.1147  0.9466  0.0346  -1.4820   0.0000   0.0000   0.0000   3.4411
  -3.800   0.0439   0.01572   0.01131  -0.1162  0.9441  0.0410  -1.5580   0.0000   0.0000   0.0000   2.9187
  -3.700   0.0556   0.01569   0.01136  -0.1166  0.9424  0.0454  -1.4460   0.0000   0.0000   0.0000   2.3615
  -3.600   0.0684   0.01596   0.01167  -0.1169  0.9408  0.0515  -1.3460   0.0000   0.0000   0.0000   1.9715
  -3.400   0.0931   0.01423   0.00980  -0.1179  0.9374  0.0641  -1.2382   0.0000   0.0000   0.0000   1.5249
  -3.300   0.1066   0.01365   0.00918  -0.1184  0.9359  0.0664  -1.1862   0.0000   0.0000   0.0000   1.3673
  -3.100   0.1381   0.01074   0.00571  -0.1176  0.9331  0.0311  -1.3682   0.0000   0.0000   0.0000   1.1067
  -3.000   0.1527   0.00973   0.00446  -0.1174  0.9315  0.0193  -1.4572   0.0000   0.0000   0.0000   1.0232
  -2.900   0.1649   0.00916   0.00382  -0.1173  0.9293  0.0165  -1.4609   0.0000   0.0000   0.0000   0.9656
  -2.800   0.1746   0.00869   0.00326  -0.1168  0.9263  0.0151  -1.4556   0.0000   0.0000   0.0000   0.9229
  -2.700   0.1852   0.00837   0.00286  -0.1165  0.9232  0.0140  -1.4297   0.0000   0.0000   0.0000   0.8824
  -2.600   0.1964   0.00813   0.00255  -0.1163  0.9202  0.0131  -1.3917   0.0000   0.0000   0.0000   0.8453
  -2.500   0.2080   0.00795   0.00230  -0.1162  0.9173  0.0125  -1.3445   0.0000   0.0000   0.0000   0.8117
  -2.400   0.2201   0.00781   0.00211  -0.1163  0.9148  0.0120  -1.2874   0.0000   0.0000   0.0000   0.7809
  -2.300   0.2325   0.00771   0.00195  -0.1165  0.9123  0.0117  -1.2202   0.0000   0.0000   0.0000   0.7531
  -2.200   0.2450   0.00762   0.00181  -0.1166  0.9098  0.0114  -1.1467   0.0000   0.0000   0.0000   0.7280
  -2.100   0.2577   0.00754   0.00169  -0.1169  0.9072  0.0113  -1.0698   0.0000   0.0000   0.0000   0.7053
  -2.000   0.2705   0.00748   0.00158  -0.1172  0.9042  0.0113  -0.9907   0.0000   0.0000   0.0000   0.6846
  -1.900   0.2826   0.00743   0.00149  -0.1173  0.9011  0.0114  -0.9125   0.0000   0.0000   0.0000   0.6663
  -1.800   0.2928   0.00739   0.00143  -0.1170  0.8982  0.0117  -0.8375   0.0000   0.0000   0.0000   0.6507
  -1.700   0.3034   0.00735   0.00136  -0.1168  0.8948  0.0125  -0.7534   0.0000   0.0000   0.0000   0.6359
  -1.600   0.3143   0.00727   0.00134  -0.1166  0.8912  0.0165  -0.6336   0.0000   0.0000   0.0000   0.6219
  -1.500   0.3249   0.00639   0.00129  -0.1171  0.8874  0.2344  -0.5268   0.0000   0.0000   0.0000   0.6113
  -1.400   0.3362   0.00623   0.00128  -0.1172  0.8837  0.2768  -0.4797   0.0000   0.0000   0.0000   0.5994
  -1.300   0.3477   0.00608   0.00126  -0.1174  0.8798  0.3243  -0.4639   0.0000   0.0000   0.0000   0.5882
  -1.200   0.3590   0.00581   0.00126  -0.1176  0.8758  0.4130  -0.4715   0.0000   0.0000   0.0000   0.5780
  -1.100   0.3703   0.00554   0.00128  -0.1178  0.8714  0.5123  -0.4792   0.0000   0.0000   0.0000   0.5685
  -1.000   0.3808   0.00535   0.00132  -0.1178  0.8679  0.5897  -0.4865   0.0000   0.0000   0.0000   0.5594
  -0.900   0.3909   0.00523   0.00135  -0.1175  0.8650  0.6346  -0.4936   0.0000   0.0000   0.0000   0.5508
  -0.800   0.4016   0.00521   0.00135  -0.1174  0.8616  0.6508  -0.5010   0.0000   0.0000   0.0000   0.5423
  -0.700   0.4122   0.00515   0.00135  -0.1173  0.8576  0.6728  -0.5089   0.0000   0.0000   0.0000   0.5344
  -0.600   0.4229   0.00510   0.00135  -0.1171  0.8532  0.6949  -0.5173   0.0000   0.0000   0.0000   0.5267
  -0.500   0.4336   0.00506   0.00135  -0.1170  0.8484  0.7166  -0.5257   0.0000   0.0000   0.0000   0.5194
  -0.400   0.4443   0.00502   0.00135  -0.1168  0.8433  0.7403  -0.5349   0.0000   0.0000   0.0000   0.5124
  -0.300   0.4551   0.00502   0.00134  -0.1166  0.8375  0.7576  -0.5446   0.0000   0.0000   0.0000   0.5058
  -0.200   0.4654   0.00498   0.00135  -0.1163  0.8323  0.7803  -0.5539   0.0000   0.0000   0.0000   0.4994
  -0.100   0.4756   0.00495   0.00136  -0.1161  0.8286  0.7991  -0.5632   0.0000   0.0000   0.0000   0.4934
   0.000   0.4851   0.00490   0.00138  -0.1156  0.8240  0.8202  -0.5722   0.0000   0.0000   0.0000   0.4876
   0.100   0.4951   0.00489   0.00138  -0.1153  0.8188  0.8385  -0.5815   0.0000   0.0000   0.0000   0.4821
   0.200   0.5048   0.00487   0.00138  -0.1149  0.8133  0.8541  -0.5912   0.0000   0.0000   0.0000   0.4767
   0.300   0.5144   0.00486   0.00138  -0.1144  0.8077  0.8703  -0.6016   0.0000   0.0000   0.0000   0.4715
   0.400   0.5241   0.00487   0.00138  -0.1140  0.8020  0.8852  -0.6121   0.0000   0.0000   0.0000   0.4665
   0.500   0.5326   0.00486   0.00138  -0.1133  0.7953  0.9044  -0.6219   0.0000   0.0000   0.0000   0.4616
   0.600   0.5413   0.00484   0.00138  -0.1126  0.7913  0.9233  -0.6330   0.0000   0.0000   0.0000   0.4569
   0.700   0.5503   0.00480   0.00138  -0.1120  0.7868  0.9451  -0.6447   0.0000   0.0000   0.0000   0.4523
   0.800   0.5625   0.00477   0.00135  -0.1122  0.7810  0.9681  -0.6586   0.0000   0.0000   0.0000   0.4481
   0.900   0.5780   0.00477   0.00132  -0.1131  0.7742  1.0000  -0.6747   0.0000   0.0000   0.0000   0.4443
   1.000   0.5887   0.00481   0.00132  -0.1130  0.7667  1.0000  -0.6877   0.0000   0.0000   0.0000   0.4405
   1.100   0.5993   0.00487   0.00132  -0.1129  0.7585  1.0000  -0.7010   0.0000   0.0000   0.0000   0.4368
   1.200   0.6100   0.00492   0.00133  -0.1128  0.7508  1.0000  -0.7162   0.0000   0.0000   0.0000   0.4332
   1.300   0.6210   0.00494   0.00134  -0.1128  0.7458  1.0000  -0.7317   0.0000   0.0000   0.0000   0.4299
   1.400   0.6319   0.00497   0.00136  -0.1127  0.7395  1.0000  -0.7472   0.0000   0.0000   0.0000   0.4266
   1.500   0.6428   0.00500   0.00137  -0.1126  0.7327  1.0000  -0.7627   0.0000   0.0000   0.0000   0.4234
   1.600   0.6534   0.00506   0.00138  -0.1125  0.7249  1.0000  -0.7790   0.0000   0.0000   0.0000   0.4203
   1.700   0.6636   0.00513   0.00139  -0.1123  0.7155  1.0000  -0.7968   0.0000   0.0000   0.0000   0.4172
   1.800   0.6739   0.00519   0.00141  -0.1121  0.7063  1.0000  -0.8148   0.0000   0.0000   0.0000   0.4143
   1.900   0.6849   0.00522   0.00142  -0.1121  0.7003  1.0000  -0.8335   0.0000   0.0000   0.0000   0.4115
   2.000   0.6810   0.00603   0.00149  -0.1089  0.5509  1.0000  -0.8395   0.0000   0.0000   0.0000   0.4076
   2.100   0.6871   0.00641   0.00157  -0.1080  0.4928  1.0000  -0.8539   0.0000   0.0000   0.0000   0.4048
   2.200   0.6954   0.00666   0.00163  -0.1075  0.4596  1.0000  -0.8702   0.0000   0.0000   0.0000   0.4021
   2.300   0.7048   0.00683   0.00169  -0.1072  0.4367  1.0000  -0.8877   0.0000   0.0000   0.0000   0.3996
   2.400   0.7142   0.00701   0.00175  -0.1069  0.4146  1.0000  -0.9081   0.0000   0.0000   0.0000   0.3971
   2.500   0.7242   0.00713   0.00180  -0.1068  0.3978  1.0000  -0.9302   0.0000   0.0000   0.0000   0.3948
   2.600   0.7332   0.00735   0.00189  -0.1064  0.3730  1.0000  -0.9511   0.0000   0.0000   0.0000   0.3924
   2.700   0.7432   0.00748   0.00194  -0.1063  0.3567  1.0000  -0.9739   0.0000   0.0000   0.0000   0.3902
   2.800   0.7525   0.00768   0.00202  -0.1060  0.3348  1.0000  -1.0004   0.0000   0.0000   0.0000   0.3880
   2.900   0.7623   0.00783   0.00209  -0.1058  0.3168  1.0000  -1.0278   0.0000   0.0000   0.0000   0.3858
   3.000   0.7722   0.00798   0.00215  -0.1057  0.3009  1.0000  -1.0554   0.0000   0.0000   0.0000   0.3838
   3.100   0.7813   0.00820   0.00225  -0.1054  0.2776  1.0000  -1.0822   0.0000   0.0000   0.0000   0.3817
   3.200   0.7912   0.00834   0.00232  -0.1052  0.2625  1.0000  -1.1102   0.0000   0.0000   0.0000   0.3797
   3.300   0.8003   0.00858   0.00242  -0.1049  0.2402  1.0000  -1.1370   0.0000   0.0000   0.0000   0.3778
   3.400   0.8103   0.00871   0.00250  -0.1048  0.2262  1.0000  -1.1655   0.0000   0.0000   0.0000   0.3759
   3.500   0.8199   0.00889   0.00258  -0.1046  0.2106  1.0000  -1.1934   0.0000   0.0000   0.0000   0.3741
   3.600   0.8295   0.00907   0.00268  -0.1044  0.1936  1.0000  -1.2213   0.0000   0.0000   0.0000   0.3723
   3.800   0.8486   0.00944   0.00287  -0.1040  0.1634  1.0000  -1.3160   0.0000   0.0000   0.0000   0.3688
   3.900   0.8585   0.00959   0.00296  -0.1038  0.1506  1.0000  -1.4019   0.0000   0.0000   0.0000   0.3671
   4.000   0.8676   0.00983   0.00308  -0.1035  0.1329  1.0000  -1.4850   0.0000   0.0000   0.0000   0.3654
   4.100   0.8770   0.01002   0.00319  -0.1033  0.1156  1.0000  -1.5709   0.0000   0.0000   0.0000   0.3638
   4.200   0.8853   0.01035   0.00335  -0.1029  0.0900  1.0000  -1.6521   0.0000   0.0000   0.0000   0.3621
   4.400   0.8988   0.01139   0.00392  -0.1016  0.0146  1.0000  -1.7970   0.0000   0.0000   0.0000   0.3587
   4.500   0.9089   0.01152   0.00399  -0.1014  0.0131  1.0000  -1.8836   0.0000   0.0000   0.0000   0.3572
   4.600   0.9192   0.01163   0.00406  -0.1012  0.0111  1.0000  -1.9612   0.0000   0.0000   0.0000   0.3557
   4.700   0.9294   0.01176   0.00420  -0.1011  0.0097  1.0000  -2.0327   0.0000   0.0000   0.0000   0.3542
   4.800   0.9396   0.01187   0.00433  -0.1009  0.0091  1.0000  -2.1100   0.0000   0.0000   0.0000   0.3527
   4.900   0.9498   0.01199   0.00447  -0.1007  0.0089  1.0000  -2.1913   0.0000   0.0000   0.0000   0.3513
   5.000   0.9601   0.01210   0.00461  -0.1006  0.0088  1.0000  -2.2751   0.0000   0.0000   0.0000   0.3499
   5.100   0.9703   0.01221   0.00476  -0.1004  0.0087  1.0000  -2.3604   0.0000   0.0000   0.0000   0.3485
   5.200   0.9804   0.01233   0.00491  -0.1002  0.0087  1.0000  -2.4468   0.0000   0.0000   0.0000   0.3471
   5.300   0.9905   0.01246   0.00506  -0.1000  0.0087  1.0000  -2.5338   0.0000   0.0000   0.0000   0.3458
   5.400   1.0005   0.01259   0.00523  -0.0998  0.0088  1.0000  -2.6213   0.0000   0.0000   0.0000   0.3445
   5.500   1.0105   0.01274   0.00541  -0.0996  0.0089  1.0000  -2.7088   0.0000   0.0000   0.0000   0.3432
   5.600   1.0203   0.01289   0.00561  -0.0993  0.0090  1.0000  -2.7960   0.0000   0.0000   0.0000   0.3419
   5.700   1.0300   0.01307   0.00582  -0.0991  0.0091  1.0000  -2.8826   0.0000   0.0000   0.0000   0.3406
   5.800   1.0397   0.01325   0.00604  -0.0988  0.0092  1.0000  -2.9683   0.0000   0.0000   0.0000   0.3393
   5.900   1.0492   0.01344   0.00627  -0.0985  0.0094  1.0000  -3.0523   0.0000   0.0000   0.0000   0.3380
   6.000   1.0597   0.01348   0.00661  -0.0984  0.0098  1.0000  -3.2381   0.0000   0.0000   0.0000   0.3369
   6.100   1.0693   0.01366   0.00686  -0.0982  0.0100  1.0000  -3.3385   0.0000   0.0000   0.0000   0.3357
   6.200   1.0786   0.01387   0.00713  -0.0978  0.0102  1.0000  -3.4248   0.0000   0.0000   0.0000   0.3345
   6.300   1.0877   0.01412   0.00745  -0.0974  0.0104  1.0000  -3.5019   0.0000   0.0000   0.0000   0.3332
   6.400   1.0965   0.01441   0.00780  -0.0969  0.0105  1.0000  -3.5716   0.0000   0.0000   0.0000   0.3319
   6.500   1.1049   0.01474   0.00820  -0.0963  0.0107  1.0000  -3.6356   0.0000   0.0000   0.0000   0.3306
   6.600   1.1129   0.01511   0.00865  -0.0956  0.0109  1.0000  -3.6947   0.0000   0.0000   0.0000   0.3293
   6.700   1.1205   0.01553   0.00915  -0.0949  0.0112  1.0000  -3.7489   0.0000   0.0000   0.0000   0.3279
   6.800   1.1277   0.01600   0.00970  -0.0941  0.0114  1.0000  -3.7979   0.0000   0.0000   0.0000   0.3265
   6.900   1.1344   0.01652   0.01031  -0.0932  0.0117  1.0000  -3.8417   0.0000   0.0000   0.0000   0.3251
   7.000   1.1407   0.01712   0.01098  -0.0922  0.0121  1.0000  -3.8792   0.0000   0.0000   0.0000   0.3237
   7.100   1.1467   0.01779   0.01175  -0.0912  0.0124  1.0000  -3.9102   0.0000   0.0000   0.0000   0.3223
   7.200   1.1526   0.01858   0.01262  -0.0901  0.0128  1.0000  -3.9337   0.0000   0.0000   0.0000   0.3208
   7.300   1.1583   0.01954   0.01367  -0.0890  0.0133  1.0000  -3.9459   0.0000   0.0000   0.0000   0.3194
   7.400   1.1638   0.02093   0.01517  -0.0879  0.0139  1.0000  -3.9310   0.0000   0.0000   0.0000   0.3180
   7.500   1.1725   0.02217   0.01645  -0.0871  0.0159  1.0000  -3.9072   0.0000   0.0000   0.0000   0.3166
   7.600   1.1825   0.02213   0.01643  -0.0868  0.0165  1.0000  -4.0046   0.0000   0.0000   0.0000   0.3156
   8.200   1.2247   0.03582   0.03137  -0.0809  0.0274  1.0000  -3.7309   0.0000   0.0000   0.0000   0.3076
   8.500   1.2570   0.03288   0.02826  -0.0808  0.0215  1.0000  -4.2020   0.0000   0.0000   0.0000   0.3054
   8.600   1.2639   0.03320   0.02860  -0.0804  0.0205  1.0000  -4.3050   0.0000   0.0000   0.0000   0.3046
   8.700   1.2703   0.03376   0.02919  -0.0798  0.0199  1.0000  -4.3923   0.0000   0.0000   0.0000   0.3037
   8.800   1.2763   0.03450   0.02999  -0.0792  0.0195  1.0000  -4.4658   0.0000   0.0000   0.0000   0.3028
   8.900   1.2817   0.03524   0.03078  -0.0785  0.0191  1.0000  -4.5391   0.0000   0.0000   0.0000   0.3019
   9.000   1.2866   0.03598   0.03158  -0.0777  0.0187  1.0000  -4.6113   0.0000   0.0000   0.0000   0.3009
   9.100   1.2910   0.03673   0.03239  -0.0769  0.0183  1.0000  -4.6834   0.0000   0.0000   0.0000   0.3000
   9.200   1.2951   0.03752   0.03323  -0.0761  0.0180  1.0000  -4.7550   0.0000   0.0000   0.0000   0.2990
   9.300   1.2990   0.03837   0.03413  -0.0753  0.0176  1.0000  -4.8259   0.0000   0.0000   0.0000   0.2981
   9.400   1.3024   0.03934   0.03516  -0.0745  0.0172  1.0000  -4.8918   0.0000   0.0000   0.0000   0.2972
   9.500   1.3048   0.04060   0.03647  -0.0736  0.0167  1.0000  -4.9438   0.0000   0.0000   0.0000   0.2963
   9.600   1.3037   0.04260   0.03857  -0.0724  0.0162  1.0000  -4.9530   0.0000   0.0000   0.0000   0.2954
   9.700   1.2891   0.04700   0.04321  -0.0700  0.0155  1.0000  -4.8074   0.0000   0.0000   0.0000   0.2941
   9.800   1.2401   0.05585   0.05258  -0.0647  0.0148  1.0000  -4.3367   0.0000   0.0000   0.0000   0.2920


