xflr5 v6.61

 Calculated polar for: E64  (8.45%)

 1 1 Reynolds number fixed          Mach number fixed         

 xtrf =   1.000 (top)        1.000 (bottom)
 Mach =   0.000     Re =     0.300 e 6     Ncrit =   9.000

  alpha     CL        CD       CDp       Cm    Top Xtr Bot Xtr   Cpmin    Chinge    XCp    
 ------- -------- --------- --------- -------- ------- ------- -------- --------- ---------
 -10.000  -0.3838   0.11397   0.11078  -0.0327  1.0000  0.0194  -1.7497   0.0000   0.0000   0.0000   0.1581
  -9.900  -0.3818   0.11272   0.10953  -0.0323  1.0000  0.0197  -1.7154   0.0000   0.0000   0.0000   0.1587
  -9.800  -0.3796   0.11160   0.10842  -0.0320  1.0000  0.0200  -1.6781   0.0000   0.0000   0.0000   0.1591
  -9.700  -0.3770   0.11054   0.10736  -0.0317  1.0000  0.0204  -1.6381   0.0000   0.0000   0.0000   0.1596
  -9.600  -0.3747   0.10950   0.10633  -0.0314  1.0000  0.0207  -1.6052   0.0000   0.0000   0.0000   0.1598
  -9.500  -0.3728   0.10847   0.10531  -0.0312  1.0000  0.0210  -1.5790   0.0000   0.0000   0.0000   0.1600
  -9.400  -0.3712   0.10744   0.10430  -0.0311  1.0000  0.0214  -1.5579   0.0000   0.0000   0.0000   0.1600
  -9.300  -0.3699   0.10642   0.10329  -0.0310  1.0000  0.0217  -1.5407   0.0000   0.0000   0.0000   0.1601
  -9.200  -0.3688   0.10540   0.10228  -0.0309  1.0000  0.0220  -1.5267   0.0000   0.0000   0.0000   0.1601
  -9.100  -0.3678   0.10438   0.10127  -0.0309  1.0000  0.0224  -1.5154   0.0000   0.0000   0.0000   0.1601
  -9.000  -0.3671   0.10336   0.10026  -0.0308  1.0000  0.0227  -1.5065   0.0000   0.0000   0.0000   0.1602
  -8.900  -0.3665   0.10234   0.09925  -0.0308  1.0000  0.0230  -1.4996   0.0000   0.0000   0.0000   0.1603
  -8.800  -0.3661   0.10133   0.09825  -0.0307  1.0000  0.0234  -1.4945   0.0000   0.0000   0.0000   0.1604
  -8.700  -0.3659   0.10032   0.09725  -0.0307  1.0000  0.0237  -1.4909   0.0000   0.0000   0.0000   0.1607
  -8.600  -0.3659   0.09931   0.09626  -0.0306  1.0000  0.0241  -1.4887   0.0000   0.0000   0.0000   0.1610
  -8.500  -0.3661   0.09832   0.09528  -0.0305  1.0000  0.0245  -1.4879   0.0000   0.0000   0.0000   0.1614
  -8.400  -0.3664   0.09733   0.09431  -0.0304  1.0000  0.0248  -1.4882   0.0000   0.0000   0.0000   0.1619
  -8.300  -0.3670   0.09635   0.09334  -0.0302  1.0000  0.0252  -1.4897   0.0000   0.0000   0.0000   0.1626
  -8.200  -0.3678   0.09538   0.09239  -0.0300  1.0000  0.0255  -1.4922   0.0000   0.0000   0.0000   0.1634
  -8.100  -0.3689   0.09442   0.09145  -0.0298  1.0000  0.0259  -1.4959   0.0000   0.0000   0.0000   0.1643
  -8.000  -0.3703   0.09348   0.09053  -0.0295  1.0000  0.0262  -1.5006   0.0000   0.0000   0.0000   0.1655
  -7.900  -0.3719   0.09257   0.08963  -0.0292  1.0000  0.0266  -1.5062   0.0000   0.0000   0.0000   0.1668
  -7.800  -0.3740   0.09168   0.08876  -0.0288  1.0000  0.0269  -1.5128   0.0000   0.0000   0.0000   0.1684
  -7.700  -0.3764   0.09082   0.08792  -0.0284  1.0000  0.0272  -1.5204   0.0000   0.0000   0.0000   0.1702
  -7.600  -0.3792   0.08999   0.08712  -0.0278  1.0000  0.0276  -1.5290   0.0000   0.0000   0.0000   0.1723
  -7.500  -0.3825   0.08921   0.08635  -0.0272  1.0000  0.0278  -1.5385   0.0000   0.0000   0.0000   0.1746
  -7.400  -0.3863   0.08846   0.08562  -0.0265  1.0000  0.0281  -1.5488   0.0000   0.0000   0.0000   0.1773
  -7.300  -0.3906   0.08775   0.08494  -0.0257  1.0000  0.0283  -1.5599   0.0000   0.0000   0.0000   0.1802
  -7.200  -0.3955   0.08710   0.08431  -0.0248  1.0000  0.0285  -1.5718   0.0000   0.0000   0.0000   0.1835
  -7.100  -0.4012   0.08650   0.08374  -0.0238  1.0000  0.0287  -1.5844   0.0000   0.0000   0.0000   0.1871
  -7.000  -0.4074   0.08596   0.08323  -0.0226  1.0000  0.0288  -1.5978   0.0000   0.0000   0.0000   0.1910
  -6.900  -0.4142   0.08545   0.08275  -0.0214  1.0000  0.0289  -1.6117   0.0000   0.0000   0.0000   0.1951
  -6.800  -0.4208   0.08490   0.08222  -0.0202  1.0000  0.0290  -1.6258   0.0000   0.0000   0.0000   0.1987
  -6.700  -0.4254   0.08413   0.08147  -0.0197  1.0000  0.0292  -1.6394   0.0000   0.0000   0.0000   0.2005
  -6.600  -0.4290   0.08322   0.08058  -0.0196  1.0000  0.0294  -1.6531   0.0000   0.0000   0.0000   0.2014
  -6.500  -0.4234   0.08145   0.07881  -0.0222  0.9990  0.0302  -1.6680   0.0000   0.0000   0.0000   0.1945
  -6.400  -0.4082   0.07891   0.07626  -0.0281  0.9970  0.0316  -1.6905   0.0000   0.0000   0.0000   0.1783
  -6.300  -0.3893   0.07687   0.07419  -0.0346  0.9945  0.0331  -1.7088   0.0000   0.0000   0.0000   0.1580
  -6.200  -0.3708   0.07513   0.07242  -0.0405  0.9923  0.0339  -1.7098   0.0000   0.0000   0.0000   0.1378
  -6.100  -0.3555   0.07273   0.06997  -0.0458  0.9905  0.0342  -1.7254   0.0000   0.0000   0.0000   0.1180
  -6.000  -0.3409   0.07010   0.06729  -0.0508  0.9889  0.0343  -1.7470   0.0000   0.0000   0.0000   0.0977
  -5.900  -0.3264   0.06743   0.06455  -0.0555  0.9877  0.0344  -1.7705   0.0000   0.0000   0.0000   0.0767
  -5.800  -0.3171   0.06523   0.06228  -0.0583  0.9852  0.0345  -1.7910   0.0000   0.0000   0.0000   0.0627
  -5.700  -0.3068   0.06301   0.05997  -0.0612  0.9828  0.0346  -1.8096   0.0000   0.0000   0.0000   0.0470
  -5.600  -0.3053   0.05487   0.05174  -0.0681  0.9798  0.0357  -2.0265   0.0000   0.0000   0.0000   0.0234
  -5.500  -0.2996   0.05099   0.04782  -0.0711  0.9781  0.0371  -2.0446   0.0000   0.0000   0.0000   0.0091
  -5.400  -0.2904   0.04975   0.04658  -0.0720  0.9770  0.0383  -1.9659   0.0000   0.0000   0.0000  -0.0016
  -5.300  -0.2795   0.04873   0.04539  -0.0731  0.9760  0.0394  -1.8884   0.0000   0.0000   0.0000  -0.0149
  -5.200  -0.2679   0.04799   0.04466  -0.0741  0.9751  0.0411  -1.7978   0.0000   0.0000   0.0000  -0.0302
  -5.100  -0.2544   0.04684   0.04348  -0.0759  0.9743  0.0433  -1.7322   0.0000   0.0000   0.0000  -0.0521
  -5.000  -0.2390   0.04527   0.04184  -0.0785  0.9735  0.0460  -1.6917   0.0000   0.0000   0.0000  -0.0821
  -4.900  -0.2304   0.04390   0.04040  -0.0793  0.9702  0.0483  -1.6790   0.0000   0.0000   0.0000  -0.0981
  -4.800  -0.2163   0.04279   0.03916  -0.0808  0.9675  0.0520  -1.6685   0.0000   0.0000   0.0000  -0.1276
  -4.700  -0.1961   0.04436   0.04058  -0.0812  0.9654  0.0555  -1.6036   0.0000   0.0000   0.0000  -0.1685
  -4.600  -0.1807   0.04389   0.03996  -0.0826  0.9636  0.0560  -1.5733   0.0000   0.0000   0.0000  -0.2114
  -4.500  -0.1730   0.03622   0.03195  -0.0878  0.9618  0.0588  -1.7142   0.0000   0.0000   0.0000  -0.2628
  -4.400  -0.1619   0.03399   0.02971  -0.0894  0.9608  0.0610  -1.6762   0.0000   0.0000   0.0000  -0.3076
  -4.300  -0.1494   0.03286   0.02860  -0.0903  0.9598  0.0626  -1.6155   0.0000   0.0000   0.0000  -0.3604
  -4.200  -0.1359   0.03183   0.02755  -0.0914  0.9589  0.0643  -1.5597   0.0000   0.0000   0.0000  -0.4284
  -4.100  -0.1215   0.03080   0.02647  -0.0926  0.9580  0.0664  -1.5093   0.0000   0.0000   0.0000  -0.5185
  -4.000  -0.1062   0.02976   0.02537  -0.0938  0.9572  0.0689  -1.4639   0.0000   0.0000   0.0000  -0.6409
  -3.900  -0.0901   0.02877   0.02428  -0.0951  0.9564  0.0721  -1.4226   0.0000   0.0000   0.0000  -0.8145
  -3.800  -0.0732   0.02798   0.02337  -0.0964  0.9557  0.0756  -1.3825   0.0000   0.0000   0.0000  -1.0768
  -3.700  -0.0555   0.02768   0.02296  -0.0973  0.9550  0.0791  -1.3358   0.0000   0.0000   0.0000  -1.5165
  -3.600  -0.0359   0.02939   0.02463  -0.0975  0.9544  0.0824  -1.2498   0.0000   0.0000   0.0000  -2.4824
  -3.300   0.0032   0.01948   0.01346  -0.0981  0.9486  0.0332  -1.6255   0.0000   0.0000   0.0000  30.9054
  -3.200   0.0176   0.01724   0.01093  -0.0986  0.9479  0.0284  -1.6977   0.0000   0.0000   0.0000   5.8889
  -3.100   0.0317   0.01592   0.00938  -0.0987  0.9468  0.0243  -1.7507   0.0000   0.0000   0.0000   3.3854
  -3.000   0.0454   0.01516   0.00845  -0.0987  0.9454  0.0214  -1.7676   0.0000   0.0000   0.0000   2.4398
  -2.900   0.0589   0.01492   0.00815  -0.0989  0.9437  0.0200  -1.7125   0.0000   0.0000   0.0000   1.9421
  -2.800   0.0729   0.01478   0.00800  -0.0993  0.9421  0.0190  -1.6362   0.0000   0.0000   0.0000   1.6221
  -2.700   0.0874   0.01466   0.00788  -0.0998  0.9406  0.0183  -1.5543   0.0000   0.0000   0.0000   1.3995
  -2.600   0.1024   0.01403   0.00718  -0.1005  0.9395  0.0177  -1.5184   0.0000   0.0000   0.0000   1.2373
  -2.500   0.1179   0.01342   0.00650  -0.1013  0.9385  0.0173  -1.4820   0.0000   0.0000   0.0000   1.1142
  -2.400   0.1338   0.01297   0.00600  -0.1022  0.9375  0.0170  -1.4311   0.0000   0.0000   0.0000   1.0181
  -2.300   0.1499   0.01262   0.00558  -0.1031  0.9365  0.0168  -1.3718   0.0000   0.0000   0.0000   0.9414
  -2.200   0.1661   0.01234   0.00523  -0.1040  0.9356  0.0167  -1.3067   0.0000   0.0000   0.0000   0.8793
  -2.100   0.1824   0.01211   0.00493  -0.1049  0.9347  0.0167  -1.2372   0.0000   0.0000   0.0000   0.8281
  -2.000   0.1987   0.01192   0.00468  -0.1059  0.9339  0.0169  -1.1641   0.0000   0.0000   0.0000   0.7851
  -1.900   0.2153   0.01176   0.00446  -0.1069  0.9332  0.0171  -1.0881   0.0000   0.0000   0.0000   0.7485
  -1.800   0.2320   0.01161   0.00426  -0.1079  0.9325  0.0176  -1.0094   0.0000   0.0000   0.0000   0.7168
  -1.700   0.2488   0.01146   0.00409  -0.1089  0.9317  0.0190  -0.9345   0.0000   0.0000   0.0000   0.6892
  -1.600   0.2653   0.01130   0.00394  -0.1099  0.9309  0.0267  -0.8561   0.0000   0.0000   0.0000   0.6654
  -1.500   0.2812   0.01047   0.00381  -0.1114  0.9301  0.1993  -0.7654   0.0000   0.0000   0.0000   0.6473
  -1.300   0.2891   0.00891   0.00430  -0.1090  0.9221  0.7130  -0.5772   0.0000   0.0000   0.0000   0.6278
  -1.200   0.2987   0.00877   0.00430  -0.1084  0.9193  0.7580  -0.5312   0.0000   0.0000   0.0000   0.6136
  -1.100   0.3094   0.00866   0.00427  -0.1081  0.9169  0.7858  -0.4841   0.0000   0.0000   0.0000   0.5998
  -1.000   0.3207   0.00854   0.00421  -0.1079  0.9146  0.8123  -0.4548   0.0000   0.0000   0.0000   0.5867
  -0.900   0.3322   0.00843   0.00414  -0.1077  0.9125  0.8402  -0.4627   0.0000   0.0000   0.0000   0.5743
  -0.800   0.3433   0.00830   0.00406  -0.1073  0.9104  0.8658  -0.4704   0.0000   0.0000   0.0000   0.5626
  -0.700   0.3549   0.00817   0.00396  -0.1070  0.9084  0.8919  -0.4783   0.0000   0.0000   0.0000   0.5516
  -0.600   0.3671   0.00805   0.00385  -0.1069  0.9066  0.9203  -0.4870   0.0000   0.0000   0.0000   0.5412
  -0.500   0.3834   0.00792   0.00373  -0.1077  0.9051  0.9524  -0.4982   0.0000   0.0000   0.0000   0.5308
  -0.400   0.4050   0.00779   0.00358  -0.1098  0.9039  1.0000  -0.5121   0.0000   0.0000   0.0000   0.5210
  -0.300   0.4208   0.00775   0.00350  -0.1108  0.9020  1.0000  -0.5237   0.0000   0.0000   0.0000   0.5129
  -0.200   0.4282   0.00776   0.00350  -0.1100  0.8974  1.0000  -0.5313   0.0000   0.0000   0.0000   0.5065
  -0.100   0.4380   0.00776   0.00347  -0.1097  0.8930  1.0000  -0.5403   0.0000   0.0000   0.0000   0.4999
   0.000   0.4496   0.00773   0.00341  -0.1098  0.8891  1.0000  -0.5503   0.0000   0.0000   0.0000   0.4935
   0.100   0.4621   0.00769   0.00335  -0.1100  0.8855  1.0000  -0.5608   0.0000   0.0000   0.0000   0.4873
   0.200   0.4750   0.00765   0.00329  -0.1103  0.8822  1.0000  -0.5717   0.0000   0.0000   0.0000   0.4813
   0.300   0.4881   0.00761   0.00322  -0.1106  0.8792  1.0000  -0.5834   0.0000   0.0000   0.0000   0.4757
   0.400   0.5020   0.00756   0.00314  -0.1111  0.8762  1.0000  -0.5964   0.0000   0.0000   0.0000   0.4703
   0.500   0.5163   0.00752   0.00307  -0.1117  0.8731  1.0000  -0.6097   0.0000   0.0000   0.0000   0.4652
   0.600   0.5310   0.00749   0.00301  -0.1123  0.8697  1.0000  -0.6234   0.0000   0.0000   0.0000   0.4604
   0.700   0.5397   0.00751   0.00302  -0.1118  0.8649  1.0000  -0.6348   0.0000   0.0000   0.0000   0.4559
   0.800   0.5493   0.00751   0.00301  -0.1114  0.8596  1.0000  -0.6469   0.0000   0.0000   0.0000   0.4515
   0.900   0.5600   0.00750   0.00299  -0.1113  0.8544  1.0000  -0.6597   0.0000   0.0000   0.0000   0.4473
   1.000   0.5715   0.00748   0.00295  -0.1112  0.8495  1.0000  -0.6732   0.0000   0.0000   0.0000   0.4432
   1.100   0.5839   0.00745   0.00290  -0.1114  0.8448  1.0000  -0.6874   0.0000   0.0000   0.0000   0.4392
   1.200   0.5969   0.00743   0.00284  -0.1117  0.8402  1.0000  -0.7032   0.0000   0.0000   0.0000   0.4355
   1.300   0.6102   0.00743   0.00280  -0.1120  0.8357  1.0000  -0.7205   0.0000   0.0000   0.0000   0.4319
   1.400   0.6214   0.00744   0.00281  -0.1120  0.8310  1.0000  -0.7362   0.0000   0.0000   0.0000   0.4285
   1.500   0.6309   0.00746   0.00283  -0.1116  0.8257  1.0000  -0.7505   0.0000   0.0000   0.0000   0.4251
   1.600   0.6410   0.00747   0.00284  -0.1114  0.8197  1.0000  -0.7654   0.0000   0.0000   0.0000   0.4218
   1.700   0.6520   0.00748   0.00282  -0.1112  0.8135  1.0000  -0.7829   0.0000   0.0000   0.0000   0.4187
   1.800   0.6636   0.00748   0.00279  -0.1112  0.8072  1.0000  -0.8021   0.0000   0.0000   0.0000   0.4156
   1.900   0.6757   0.00748   0.00275  -0.1113  0.8009  1.0000  -0.8218   0.0000   0.0000   0.0000   0.4126
   2.000   0.6881   0.00750   0.00276  -0.1115  0.7951  1.0000  -0.8419   0.0000   0.0000   0.0000   0.4098
   2.100   0.6981   0.00753   0.00279  -0.1112  0.7895  1.0000  -0.8597   0.0000   0.0000   0.0000   0.4071
   2.200   0.7079   0.00755   0.00280  -0.1109  0.7826  1.0000  -0.8776   0.0000   0.0000   0.0000   0.4043
   2.300   0.7180   0.00755   0.00277  -0.1106  0.7715  1.0000  -0.8961   0.0000   0.0000   0.0000   0.4015
   2.400   0.7290   0.00757   0.00268  -0.1103  0.7577  1.0000  -0.9197   0.0000   0.0000   0.0000   0.3988
   2.500   0.7387   0.00761   0.00267  -0.1099  0.7443  1.0000  -0.9417   0.0000   0.0000   0.0000   0.3961
   2.600   0.7480   0.00765   0.00264  -0.1094  0.7277  1.0000  -0.9636   0.0000   0.0000   0.0000   0.3935
   2.800   0.7668   0.00780   0.00260  -0.1084  0.6898  1.0000  -1.0167   0.0000   0.0000   0.0000   0.3885
   2.900   0.7755   0.00794   0.00257  -0.1077  0.6663  1.0000  -1.0431   0.0000   0.0000   0.0000   0.3860
   3.000   0.7845   0.00804   0.00259  -0.1072  0.6452  1.0000  -1.0699   0.0000   0.0000   0.0000   0.3836
   3.100   0.7927   0.00821   0.00260  -0.1065  0.6198  1.0000  -1.0959   0.0000   0.0000   0.0000   0.3813
   3.200   0.8015   0.00835   0.00264  -0.1060  0.5981  1.0000  -1.1227   0.0000   0.0000   0.0000   0.3791
   3.300   0.8096   0.00854   0.00268  -0.1054  0.5732  1.0000  -1.1486   0.0000   0.0000   0.0000   0.3769
   3.400   0.8186   0.00869   0.00274  -0.1050  0.5543  1.0000  -1.1757   0.0000   0.0000   0.0000   0.3748
   3.500   0.8279   0.00882   0.00280  -0.1046  0.5370  1.0000  -1.2034   0.0000   0.0000   0.0000   0.3729
   3.600   0.8363   0.00901   0.00287  -0.1041  0.5189  1.0000  -1.2300   0.0000   0.0000   0.0000   0.3709
   3.700   0.8459   0.00913   0.00294  -0.1038  0.5045  1.0000  -1.2713   0.0000   0.0000   0.0000   0.3691
   3.800   0.8551   0.00927   0.00302  -0.1035  0.4869  1.0000  -1.3232   0.0000   0.0000   0.0000   0.3672
   3.900   0.8631   0.00950   0.00311  -0.1029  0.4673  1.0000  -1.3835   0.0000   0.0000   0.0000   0.3654
   4.000   0.8726   0.00964   0.00319  -0.1026  0.4499  1.0000  -1.4685   0.0000   0.0000   0.0000   0.3637
   4.100   0.8807   0.00986   0.00330  -0.1021  0.4274  1.0000  -1.5495   0.0000   0.0000   0.0000   0.3619
   4.200   0.8893   0.01007   0.00340  -0.1017  0.4076  1.0000  -1.6332   0.0000   0.0000   0.0000   0.3602
   4.300   0.8978   0.01028   0.00350  -0.1013  0.3850  1.0000  -1.7179   0.0000   0.0000   0.0000   0.3586
   4.400   0.9059   0.01053   0.00363  -0.1008  0.3643  1.0000  -1.8015   0.0000   0.0000   0.0000   0.3569
   4.500   0.9149   0.01072   0.00374  -0.1004  0.3443  1.0000  -1.8898   0.0000   0.0000   0.0000   0.3554
   4.600   0.9227   0.01101   0.00388  -0.0999  0.3212  1.0000  -1.9733   0.0000   0.0000   0.0000   0.3538
   4.700   0.9314   0.01124   0.00401  -0.0996  0.2981  1.0000  -2.0611   0.0000   0.0000   0.0000   0.3523
   4.800   0.9389   0.01157   0.00417  -0.0990  0.2711  1.0000  -2.1441   0.0000   0.0000   0.0000   0.3508
   4.900   0.9464   0.01193   0.00435  -0.0985  0.2410  1.0000  -2.2259   0.0000   0.0000   0.0000   0.3493
   5.000   0.9541   0.01227   0.00453  -0.0981  0.2122  1.0000  -2.3078   0.0000   0.0000   0.0000   0.3479
   5.100   0.9615   0.01266   0.00473  -0.0975  0.1813  1.0000  -2.3851   0.0000   0.0000   0.0000   0.3464
   5.200   0.9678   0.01318   0.00500  -0.0969  0.1423  1.0000  -2.4544   0.0000   0.0000   0.0000   0.3450
   5.300   0.9717   0.01398   0.00539  -0.0959  0.0849  1.0000  -2.5104   0.0000   0.0000   0.0000   0.3435
   5.400   0.9770   0.01465   0.00579  -0.0951  0.0466  1.0000  -2.5683   0.0000   0.0000   0.0000   0.3421
   5.500   0.9838   0.01515   0.00615  -0.0944  0.0234  1.0000  -2.6288   0.0000   0.0000   0.0000   0.3406
   5.600   0.9926   0.01543   0.00641  -0.0940  0.0182  1.0000  -2.6925   0.0000   0.0000   0.0000   0.3392
   5.700   1.0020   0.01566   0.00667  -0.0936  0.0156  1.0000  -2.7464   0.0000   0.0000   0.0000   0.3378
   5.800   1.0112   0.01591   0.00697  -0.0931  0.0147  1.0000  -2.8025   0.0000   0.0000   0.0000   0.3364
   5.900   1.0205   0.01613   0.00726  -0.0928  0.0145  1.0000  -2.8732   0.0000   0.0000   0.0000   0.3351
   6.000   1.0296   0.01638   0.00757  -0.0924  0.0144  1.0000  -2.9437   0.0000   0.0000   0.0000   0.3338
   6.100   1.0385   0.01665   0.00792  -0.0919  0.0143  1.0000  -3.0130   0.0000   0.0000   0.0000   0.3325
   6.200   1.0502   0.01644   0.00811  -0.0923  0.0180  1.0000  -3.3214   0.0000   0.0000   0.0000   0.3318
   6.300   1.0591   0.01671   0.00848  -0.0918  0.0173  1.0000  -3.3947   0.0000   0.0000   0.0000   0.3304
   6.400   1.0675   0.01706   0.00894  -0.0912  0.0166  1.0000  -3.4507   0.0000   0.0000   0.0000   0.3291
   6.500   1.0754   0.01745   0.00944  -0.0906  0.0162  1.0000  -3.5026   0.0000   0.0000   0.0000   0.3277
   6.600   1.0828   0.01789   0.00999  -0.0898  0.0159  1.0000  -3.5522   0.0000   0.0000   0.0000   0.3264
   6.700   1.0897   0.01837   0.01057  -0.0890  0.0157  1.0000  -3.6006   0.0000   0.0000   0.0000   0.3250
   6.800   1.0963   0.01889   0.01117  -0.0882  0.0156  1.0000  -3.6485   0.0000   0.0000   0.0000   0.3236
   6.900   1.1025   0.01943   0.01180  -0.0873  0.0155  1.0000  -3.6961   0.0000   0.0000   0.0000   0.3222
   7.000   1.1087   0.01999   0.01243  -0.0864  0.0155  1.0000  -3.7445   0.0000   0.0000   0.0000   0.3209
   7.100   1.1149   0.02056   0.01307  -0.0855  0.0156  1.0000  -3.7939   0.0000   0.0000   0.0000   0.3195
   7.200   1.1212   0.02114   0.01371  -0.0847  0.0156  1.0000  -3.8450   0.0000   0.0000   0.0000   0.3182
   7.300   1.1277   0.02172   0.01435  -0.0839  0.0157  1.0000  -3.8980   0.0000   0.0000   0.0000   0.3169
   7.400   1.1345   0.02230   0.01499  -0.0831  0.0158  1.0000  -3.9530   0.0000   0.0000   0.0000   0.3157
   7.500   1.1415   0.02289   0.01563  -0.0824  0.0159  1.0000  -4.0100   0.0000   0.0000   0.0000   0.3145
   7.600   1.1488   0.02347   0.01626  -0.0817  0.0160  1.0000  -4.0690   0.0000   0.0000   0.0000   0.3133
   7.700   1.1564   0.02405   0.01690  -0.0811  0.0162  1.0000  -4.1295   0.0000   0.0000   0.0000   0.3122
   7.800   1.1641   0.02463   0.01754  -0.0805  0.0164  1.0000  -4.1910   0.0000   0.0000   0.0000   0.3111
   7.900   1.1721   0.02523   0.01820  -0.0799  0.0166  1.0000  -4.2525   0.0000   0.0000   0.0000   0.3100
   8.000   1.1803   0.02585   0.01889  -0.0794  0.0169  1.0000  -4.3127   0.0000   0.0000   0.0000   0.3090
   8.100   1.1886   0.02652   0.01963  -0.0788  0.0172  1.0000  -4.3696   0.0000   0.0000   0.0000   0.3079
   8.200   1.1973   0.02729   0.02049  -0.0783  0.0176  1.0000  -4.4187   0.0000   0.0000   0.0000   0.3069
   8.300   1.2064   0.02825   0.02157  -0.0778  0.0182  1.0000  -4.4509   0.0000   0.0000   0.0000   0.3058
   8.400   1.2162   0.02967   0.02318  -0.0772  0.0191  1.0000  -4.4475   0.0000   0.0000   0.0000   0.3048
   8.500   1.2262   0.03174   0.02548  -0.0766  0.0204  1.0000  -4.4045   0.0000   0.0000   0.0000   0.3036
   8.600   1.2341   0.03415   0.02816  -0.0758  0.0220  1.0000  -4.3420   0.0000   0.0000   0.0000   0.3024
   8.700   1.2395   0.03655   0.03080  -0.0747  0.0235  1.0000  -4.2896   0.0000   0.0000   0.0000   0.3012
   8.800   1.2425   0.03900   0.03347  -0.0735  0.0249  1.0000  -4.2417   0.0000   0.0000   0.0000   0.3000
   8.900   1.2424   0.04182   0.03652  -0.0720  0.0262  1.0000  -4.1813   0.0000   0.0000   0.0000   0.2988
  12.700   0.9699   0.14348   0.14112  -0.0840  0.0460  1.0000  -2.3921   0.0000   0.0000   0.0000   0.3241
  12.800   0.9691   0.14596   0.14359  -0.0858  0.0458  1.0000  -2.3599   0.0000   0.0000   0.0000   0.3260
  12.900   0.9747   0.14699   0.14462  -0.0878  0.0442  1.0000  -2.3681   0.0000   0.0000   0.0000   0.3274
  13.000   0.9760   0.14903   0.14666  -0.0894  0.0431  1.0000  -2.3475   0.0000   0.0000   0.0000   0.3288
  13.100   0.9758   0.15131   0.14894  -0.0909  0.0423  1.0000  -2.3197   0.0000   0.0000   0.0000   0.3303
  13.200   0.9750   0.15370   0.15132  -0.0925  0.0416  1.0000  -2.2876   0.0000   0.0000   0.0000   0.3319
  13.300   0.9741   0.15608   0.15369  -0.0940  0.0409  1.0000  -2.2568   0.0000   0.0000   0.0000   0.3335
  13.400   0.9735   0.15840   0.15601  -0.0954  0.0402  1.0000  -2.2298   0.0000   0.0000   0.0000   0.3349
  13.500   0.9730   0.16066   0.15826  -0.0967  0.0396  1.0000  -2.2061   0.0000   0.0000   0.0000   0.3362
  13.600   0.9728   0.16288   0.16047  -0.0980  0.0390  1.0000  -2.1855   0.0000   0.0000   0.0000   0.3375
  13.700   0.9728   0.16504   0.16263  -0.0992  0.0384  1.0000  -2.1678   0.0000   0.0000   0.0000   0.3386
  13.800   0.9730   0.16717   0.16475  -0.1003  0.0378  1.0000  -2.1527   0.0000   0.0000   0.0000   0.3397
  13.900   0.9734   0.16925   0.16683  -0.1014  0.0373  1.0000  -2.1401   0.0000   0.0000   0.0000   0.3406
  14.000   0.9740   0.17130   0.16888  -0.1025  0.0368  1.0000  -2.1297   0.0000   0.0000   0.0000   0.3416
  14.100   0.9746   0.17331   0.17089  -0.1035  0.0363  1.0000  -2.1216   0.0000   0.0000   0.0000   0.3424
  14.200   0.9755   0.17529   0.17286  -0.1045  0.0358  1.0000  -2.1157   0.0000   0.0000   0.0000   0.3432
  14.300   0.9765   0.17723   0.17481  -0.1054  0.0353  1.0000  -2.1119   0.0000   0.0000   0.0000   0.3439
  14.400   0.9776   0.17914   0.17671  -0.1063  0.0349  1.0000  -2.1104   0.0000   0.0000   0.0000   0.3446
  14.500   0.9789   0.18101   0.17859  -0.1071  0.0344  1.0000  -2.1111   0.0000   0.0000   0.0000   0.3452
  14.600   0.9803   0.18286   0.18043  -0.1079  0.0340  1.0000  -2.1140   0.0000   0.0000   0.0000   0.3457
  14.700   0.9818   0.18467   0.18224  -0.1087  0.0336  1.0000  -2.1192   0.0000   0.0000   0.0000   0.3462
  14.800   0.9835   0.18644   0.18402  -0.1094  0.0333  1.0000  -2.1268   0.0000   0.0000   0.0000   0.3466
  14.900   0.9853   0.18819   0.18576  -0.1101  0.0329  1.0000  -2.1369   0.0000   0.0000   0.0000   0.3469
  15.000   0.9872   0.18990   0.18748  -0.1107  0.0325  1.0000  -2.1496   0.0000   0.0000   0.0000   0.3472
  15.100   0.9893   0.19158   0.18916  -0.1113  0.0322  1.0000  -2.1651   0.0000   0.0000   0.0000   0.3474
  15.200   0.9914   0.19326   0.19085  -0.1119  0.0319  1.0000  -2.1810   0.0000   0.0000   0.0000   0.3476
  15.300   0.9935   0.19493   0.19252  -0.1124  0.0316  1.0000  -2.1992   0.0000   0.0000   0.0000   0.3477
  15.400   0.9958   0.19658   0.19417  -0.1129  0.0313  1.0000  -2.2199   0.0000   0.0000   0.0000   0.3478
  15.500   0.9983   0.19815   0.19575  -0.1132  0.0309  1.0000  -2.2476   0.0000   0.0000   0.0000   0.3477
  15.600   1.0010   0.19960   0.19721  -0.1134  0.0305  1.0000  -2.2869   0.0000   0.0000   0.0000   0.3473
  15.700   1.0017   0.20173   0.19934  -0.1139  0.0300  1.0000  -2.2989   0.0000   0.0000   0.0000   0.3476
  15.800   0.9992   0.20535   0.20295  -0.1148  0.0293  1.0000  -2.2642   0.0000   0.0000   0.0000   0.3487
  16.000   0.9887   0.21644   0.21398  -0.1184  0.0284  1.0000  -2.0301   0.0000   0.0000   0.0000   0.3536
  16.100   0.9900   0.21878   0.21632  -0.1194  0.0284  1.0000  -2.0161   0.0000   0.0000   0.0000   0.3543
  16.200   0.9913   0.22110   0.21864  -0.1204  0.0284  1.0000  -2.0023   0.0000   0.0000   0.0000   0.3550
  16.300   0.9926   0.22339   0.22094  -0.1213  0.0284  1.0000  -1.9889   0.0000   0.0000   0.0000   0.3557
  16.400   0.9939   0.22567   0.22321  -0.1223  0.0283  1.0000  -1.9758   0.0000   0.0000   0.0000   0.3564
  16.500   0.9952   0.22791   0.22545  -0.1233  0.0283  1.0000  -1.9632   0.0000   0.0000   0.0000   0.3571
  16.600   0.9965   0.23010   0.22764  -0.1243  0.0282  1.0000  -1.9512   0.0000   0.0000   0.0000   0.3578
  16.700   0.9979   0.23223   0.22977  -0.1253  0.0282  1.0000  -1.9401   0.0000   0.0000   0.0000   0.3585
  16.800   0.9994   0.23426   0.23181  -0.1263  0.0281  1.0000  -1.9303   0.0000   0.0000   0.0000   0.3592
  16.900   1.0011   0.23614   0.23368  -0.1274  0.0279  1.0000  -1.9226   0.0000   0.0000   0.0000   0.3599
  17.000   1.0033   0.23765   0.23519  -0.1285  0.0276  1.0000  -1.9195   0.0000   0.0000   0.0000   0.3606
  17.100   1.0063   0.23856   0.23610  -0.1301  0.0267  1.0000  -1.9109   0.0000   0.0000   0.0000   0.3617
  17.200   1.0070   0.24051   0.23805  -0.1319  0.0255  1.0000  -1.8722   0.0000   0.0000   0.0000   0.3633
  17.300   1.0082   0.24270   0.24024  -0.1332  0.0240  1.0000  -1.8495   0.0000   0.0000   0.0000   0.3643
  17.400   1.0097   0.24481   0.24235  -0.1342  0.0226  1.0000  -1.8463   0.0000   0.0000   0.0000   0.3650
  17.500   1.0112   0.24676   0.24431  -0.1351  0.0214  1.0000  -1.8562   0.0000   0.0000   0.0000   0.3654
  17.600   1.0129   0.24863   0.24618  -0.1358  0.0204  1.0000  -1.8732   0.0000   0.0000   0.0000   0.3658
  17.700   1.0145   0.25055   0.24810  -0.1365  0.0197  1.0000  -1.8880   0.0000   0.0000   0.0000   0.3661
  17.800   1.0160   0.25251   0.25007  -0.1372  0.0192  1.0000  -1.9008   0.0000   0.0000   0.0000   0.3664
  17.900   1.0175   0.25441   0.25197  -0.1378  0.0187  1.0000  -1.9182   0.0000   0.0000   0.0000   0.3666
  18.000   1.0192   0.25623   0.25379  -0.1384  0.0183  1.0000  -1.9411   0.0000   0.0000   0.0000   0.3668
  18.100   1.0210   0.25793   0.25550  -0.1388  0.0178  1.0000  -1.9717   0.0000   0.0000   0.0000   0.3668
  18.200   1.0231   0.25950   0.25708  -0.1392  0.0174  1.0000  -2.0118   0.0000   0.0000   0.0000   0.3668
  18.300   1.0254   0.26090   0.25849  -0.1395  0.0170  1.0000  -2.0656   0.0000   0.0000   0.0000   0.3665
  18.600   1.0274   0.26816   0.26583  -0.1418  0.0170  1.0000  -2.0130   0.0000   0.0000   0.0000   0.3681
  18.700   1.0292   0.26981   0.26749  -0.1421  0.0167  1.0000  -2.0513   0.0000   0.0000   0.0000   0.3679
  18.800   1.0318   0.27116   0.26885  -0.1421  0.0163  1.0000  -2.1178   0.0000   0.0000   0.0000   0.3673
  18.900   1.0334   0.27284   0.27054  -0.1421  0.0159  1.0000  -2.1756   0.0000   0.0000   0.0000   0.3669
  19.000   1.0304   0.27657   0.27428  -0.1425  0.0153  1.0000  -2.1485   0.0000   0.0000   0.0000   0.3676
  19.800   1.0169   0.30056   0.29825  -0.1482  0.0146  1.0000  -1.8317   0.0000   0.0000   0.0000   0.3741
  19.900   1.0153   0.30274   0.30044  -0.1487  0.0146  1.0000  -1.8148   0.0000   0.0000   0.0000   0.3747
  20.000   1.0132   0.30485   0.30255  -0.1491  0.0145  1.0000  -1.7970   0.0000   0.0000   0.0000   0.3753
  20.100   1.0106   0.30682   0.30454  -0.1495  0.0145  1.0000  -1.7782   0.0000   0.0000   0.0000   0.3760
  20.200   1.0071   0.30861   0.30633  -0.1497  0.0145  1.0000  -1.7576   0.0000   0.0000   0.0000   0.3766
  20.400   0.9488   0.29994   0.29777  -0.1439  0.0145  1.0000  -1.5924   0.0000   0.0000   0.0000   0.3801
  20.500   0.9421   0.29983   0.29768  -0.1436  0.0144  1.0000  -1.5654   0.0000   0.0000   0.0000   0.3808
  20.600   0.9368   0.29994   0.29781  -0.1436  0.0144  1.0000  -1.5420   0.0000   0.0000   0.0000   0.3815
  20.700   0.9322   0.30016   0.29804  -0.1436  0.0143  1.0000  -1.5206   0.0000   0.0000   0.0000   0.3822
  20.800   0.9284   0.30047   0.29836  -0.1437  0.0142  1.0000  -1.5015   0.0000   0.0000   0.0000   0.3829
  20.900   0.9253   0.30085   0.29875  -0.1439  0.0141  1.0000  -1.4838   0.0000   0.0000   0.0000   0.3836
  21.000   0.9225   0.30133   0.29924  -0.1444  0.0139  1.0000  -1.4602   0.0000   0.0000   0.0000   0.3845
  21.100   0.9218   0.30232   0.30023  -0.1455  0.0132  1.0000  -1.4228   0.0000   0.0000   0.0000   0.3856
  21.200   0.9209   0.30341   0.30133  -0.1461  0.0119  1.0000  -1.3905   0.0000   0.0000   0.0000   0.3865
  21.300   0.9186   0.30403   0.30196  -0.1464  0.0111  1.0000  -1.3775   0.0000   0.0000   0.0000   0.3870
  21.400   0.9162   0.30457   0.30250  -0.1465  0.0104  1.0000  -1.3700   0.0000   0.0000   0.0000   0.3875
  21.500   0.9139   0.30508   0.30302  -0.1467  0.0099  1.0000  -1.3655   0.0000   0.0000   0.0000   0.3880
  21.600   0.9117   0.30558   0.30354  -0.1469  0.0095  1.0000  -1.3628   0.0000   0.0000   0.0000   0.3884
  21.700   0.9097   0.30609   0.30405  -0.1470  0.0091  1.0000  -1.3616   0.0000   0.0000   0.0000   0.3888
  21.800   0.9078   0.30659   0.30456  -0.1472  0.0088  1.0000  -1.3616   0.0000   0.0000   0.0000   0.3892
  21.900   0.9061   0.30710   0.30508  -0.1474  0.0085  1.0000  -1.3626   0.0000   0.0000   0.0000   0.3896
  22.000   0.9044   0.30761   0.30560  -0.1476  0.0083  1.0000  -1.3645   0.0000   0.0000   0.0000   0.3900
  22.100   0.9029   0.30812   0.30611  -0.1478  0.0080  1.0000  -1.3671   0.0000   0.0000   0.0000   0.3903
  22.200   0.9014   0.30863   0.30663  -0.1480  0.0078  1.0000  -1.3706   0.0000   0.0000   0.0000   0.3907
  22.300   0.9000   0.30915   0.30716  -0.1481  0.0076  1.0000  -1.3747   0.0000   0.0000   0.0000   0.3910
  22.400   0.8987   0.30966   0.30768  -0.1484  0.0075  1.0000  -1.3794   0.0000   0.0000   0.0000   0.3913
  22.500   0.8974   0.31017   0.30820  -0.1486  0.0073  1.0000  -1.3849   0.0000   0.0000   0.0000   0.3916
  22.600   0.8962   0.31068   0.30872  -0.1488  0.0072  1.0000  -1.3909   0.0000   0.0000   0.0000   0.3919
  22.700   0.8951   0.31119   0.30924  -0.1490  0.0070  1.0000  -1.3975   0.0000   0.0000   0.0000   0.3922
  22.800   0.8940   0.31170   0.30975  -0.1492  0.0069  1.0000  -1.4047   0.0000   0.0000   0.0000   0.3925
  22.900   0.8930   0.31221   0.31027  -0.1494  0.0068  1.0000  -1.4124   0.0000   0.0000   0.0000   0.3927
  23.000   0.8920   0.31271   0.31078  -0.1496  0.0067  1.0000  -1.4208   0.0000   0.0000   0.0000   0.3930
  23.100   0.8911   0.31321   0.31129  -0.1497  0.0066  1.0000  -1.4297   0.0000   0.0000   0.0000   0.3932
  23.200   0.8902   0.31371   0.31179  -0.1499  0.0065  1.0000  -1.4390   0.0000   0.0000   0.0000   0.3934
  23.300   0.8893   0.31421   0.31230  -0.1501  0.0064  1.0000  -1.4486   0.0000   0.0000   0.0000   0.3936
  23.400   0.8884   0.31471   0.31281  -0.1503  0.0063  1.0000  -1.4584   0.0000   0.0000   0.0000   0.3938
  23.500   0.8876   0.31522   0.31332  -0.1504  0.0062  1.0000  -1.4681   0.0000   0.0000   0.0000   0.3940
  23.600   0.8868   0.31573   0.31384  -0.1506  0.0062  1.0000  -1.4773   0.0000   0.0000   0.0000   0.3941
  23.700   0.8859   0.31625   0.31437  -0.1507  0.0061  1.0000  -1.4858   0.0000   0.0000   0.0000   0.3943
  23.800   0.8850   0.31684   0.31496  -0.1508  0.0060  1.0000  -1.4885   0.0000   0.0000   0.0000   0.3944
  23.900   0.8838   0.31749   0.31562  -0.1510  0.0059  1.0000  -1.4832   0.0000   0.0000   0.0000   0.3947
  24.000   0.8825   0.31820   0.31633  -0.1512  0.0058  1.0000  -1.4733   0.0000   0.0000   0.0000   0.3950
  24.100   0.8810   0.31898   0.31712  -0.1513  0.0058  1.0000  -1.4549   0.0000   0.0000   0.0000   0.3953
  24.200   0.8791   0.31987   0.31801  -0.1515  0.0057  1.0000  -1.4242   0.0000   0.0000   0.0000   0.3957
  24.300   0.8764   0.32101   0.31916  -0.1515  0.0056  1.0000  -1.3670   0.0000   0.0000   0.0000   0.3963
  24.400   0.8725   0.32270   0.32082  -0.1515  0.0054  1.0000  -1.2596   0.0000   0.0000   0.0000   0.3970
  24.500   0.8719   0.32347   0.32159  -0.1518  0.0054  1.0000  -1.2507   0.0000   0.0000   0.0000   0.3973
  24.600   0.8714   0.32424   0.32236  -0.1521  0.0054  1.0000  -1.2418   0.0000   0.0000   0.0000   0.3976
  24.700   0.8709   0.32501   0.32314  -0.1524  0.0054  1.0000  -1.2330   0.0000   0.0000   0.0000   0.3979
  24.800   0.8704   0.32578   0.32391  -0.1527  0.0054  1.0000  -1.2245   0.0000   0.0000   0.0000   0.3982
  24.900   0.8699   0.32655   0.32469  -0.1530  0.0054  1.0000  -1.2161   0.0000   0.0000   0.0000   0.3985
  25.000   0.8695   0.32732   0.32547  -0.1534  0.0054  1.0000  -1.2078   0.0000   0.0000   0.0000   0.3988
  25.100   0.8690   0.32810   0.32624  -0.1537  0.0054  1.0000  -1.1997   0.0000   0.0000   0.0000   0.3991
  25.200   0.8686   0.32887   0.32703  -0.1540  0.0054  1.0000  -1.1918   0.0000   0.0000   0.0000   0.3994
  25.300   0.8682   0.32965   0.32781  -0.1543  0.0054  1.0000  -1.1840   0.0000   0.0000   0.0000   0.3997


