xflr5 v6.61

 Calculated polar for: E64  (8.45%)

 1 1 Reynolds number fixed          Mach number fixed         

 xtrf =   1.000 (top)        1.000 (bottom)
 Mach =   0.000     Re =     1.000 e 6     Ncrit =   9.000

  alpha     CL        CD       CDp       Cm    Top Xtr Bot Xtr   Cpmin    Chinge    XCp    
 ------- -------- --------- --------- -------- ------- ------- -------- --------- ---------
 -10.000  -0.3696   0.11476   0.11296  -0.0269  1.0000  0.0063  -1.5812   0.0000   0.0000   0.0000   0.1704
  -9.900  -0.3686   0.11356   0.11177  -0.0270  1.0000  0.0063  -1.5880   0.0000   0.0000   0.0000   0.1699
  -9.800  -0.3677   0.11237   0.11058  -0.0271  1.0000  0.0063  -1.5949   0.0000   0.0000   0.0000   0.1695
  -9.700  -0.3669   0.11119   0.10940  -0.0272  1.0000  0.0063  -1.6021   0.0000   0.0000   0.0000   0.1692
  -9.600  -0.3662   0.11001   0.10822  -0.0273  1.0000  0.0063  -1.6094   0.0000   0.0000   0.0000   0.1689
  -9.500  -0.3656   0.10883   0.10706  -0.0274  1.0000  0.0063  -1.6169   0.0000   0.0000   0.0000   0.1687
  -9.400  -0.3651   0.10767   0.10590  -0.0274  1.0000  0.0064  -1.6245   0.0000   0.0000   0.0000   0.1686
  -9.300  -0.3647   0.10651   0.10475  -0.0274  1.0000  0.0064  -1.6323   0.0000   0.0000   0.0000   0.1686
  -9.200  -0.3645   0.10537   0.10362  -0.0274  1.0000  0.0064  -1.6404   0.0000   0.0000   0.0000   0.1687
  -9.100  -0.3643   0.10425   0.10250  -0.0273  1.0000  0.0064  -1.6490   0.0000   0.0000   0.0000   0.1689
  -9.000  -0.3644   0.10313   0.10139  -0.0272  1.0000  0.0064  -1.6578   0.0000   0.0000   0.0000   0.1692
  -8.900  -0.3646   0.10203   0.10030  -0.0271  1.0000  0.0064  -1.6669   0.0000   0.0000   0.0000   0.1697
  -8.800  -0.3649   0.10095   0.09923  -0.0270  1.0000  0.0064  -1.6763   0.0000   0.0000   0.0000   0.1702
  -8.700  -0.3656   0.09990   0.09818  -0.0268  1.0000  0.0064  -1.6859   0.0000   0.0000   0.0000   0.1710
  -8.600  -0.3664   0.09887   0.09716  -0.0266  1.0000  0.0064  -1.6959   0.0000   0.0000   0.0000   0.1720
  -8.500  -0.3675   0.09786   0.09617  -0.0263  1.0000  0.0064  -1.7061   0.0000   0.0000   0.0000   0.1731
  -8.400  -0.3689   0.09688   0.09520  -0.0259  1.0000  0.0064  -1.7166   0.0000   0.0000   0.0000   0.1744
  -8.300  -0.3686   0.09571   0.09403  -0.0261  0.9999  0.0064  -1.7269   0.0000   0.0000   0.0000   0.1739
  -8.200  -0.3634   0.09398   0.09230  -0.0278  0.9995  0.0064  -1.7363   0.0000   0.0000   0.0000   0.1683
  -8.100  -0.3582   0.09224   0.09056  -0.0295  0.9990  0.0064  -1.7462   0.0000   0.0000   0.0000   0.1625
  -8.000  -0.3530   0.09051   0.08883  -0.0312  0.9984  0.0064  -1.7565   0.0000   0.0000   0.0000   0.1564
  -7.900  -0.3478   0.08878   0.08710  -0.0330  0.9979  0.0064  -1.7673   0.0000   0.0000   0.0000   0.1500
  -7.800  -0.3425   0.08703   0.08535  -0.0348  0.9973  0.0064  -1.7786   0.0000   0.0000   0.0000   0.1432
  -7.700  -0.3370   0.08528   0.08360  -0.0367  0.9968  0.0064  -1.7906   0.0000   0.0000   0.0000   0.1358
  -7.600  -0.3322   0.08357   0.08189  -0.0384  0.9960  0.0064  -1.8031   0.0000   0.0000   0.0000   0.1292
  -7.500  -0.3271   0.08182   0.08014  -0.0403  0.9950  0.0064  -1.8162   0.0000   0.0000   0.0000   0.1216
  -7.400  -0.3216   0.08002   0.07834  -0.0423  0.9939  0.0064  -1.8301   0.0000   0.0000   0.0000   0.1132
  -7.300  -0.3158   0.07819   0.07652  -0.0445  0.9927  0.0064  -1.8449   0.0000   0.0000   0.0000   0.1039
  -7.200  -0.3097   0.07632   0.07464  -0.0469  0.9915  0.0064  -1.8606   0.0000   0.0000   0.0000   0.0934
  -7.100  -0.3031   0.07437   0.07269  -0.0495  0.9902  0.0064  -1.8776   0.0000   0.0000   0.0000   0.0813
  -7.000  -0.2953   0.07227   0.07059  -0.0526  0.9891  0.0064  -1.8960   0.0000   0.0000   0.0000   0.0665
  -6.900  -0.2850   0.06981   0.06813  -0.0566  0.9883  0.0064  -1.9160   0.0000   0.0000   0.0000   0.0458
  -6.800  -0.2741   0.06728   0.06559  -0.0610  0.9876  0.0064  -1.9387   0.0000   0.0000   0.0000   0.0219
  -6.700  -0.2703   0.06539   0.06370  -0.0632  0.9843  0.0064  -1.9620   0.0000   0.0000   0.0000   0.0109
  -6.600  -0.2617   0.06297   0.06127  -0.0670  0.9821  0.0064  -1.9894   0.0000   0.0000   0.0000  -0.0117
  -6.500  -0.2511   0.06025   0.05854  -0.0717  0.9803  0.0065  -2.0215   0.0000   0.0000   0.0000  -0.0410
  -6.400  -0.2390   0.05728   0.05555  -0.0768  0.9788  0.0065  -2.0591   0.0000   0.0000   0.0000  -0.0771
  -6.300  -0.2258   0.05411   0.05234  -0.0822  0.9775  0.0065  -2.1022   0.0000   0.0000   0.0000  -0.1197
  -6.200  -0.2126   0.05103   0.04911  -0.0870  0.9765  0.0064  -2.1351   0.0000   0.0000   0.0000  -0.1656
  -6.100  -0.1983   0.04770   0.04573  -0.0919  0.9756  0.0064  -2.1889   0.0000   0.0000   0.0000  -0.2199
  -6.000  -0.1841   0.04448   0.04243  -0.0962  0.9748  0.0065  -2.2436   0.0000   0.0000   0.0000  -0.2797
  -5.900  -0.1700   0.04142   0.03929  -0.1000  0.9742  0.0065  -2.2961   0.0000   0.0000   0.0000  -0.3463
  -5.800  -0.1559   0.03857   0.03634  -0.1034  0.9736  0.0065  -2.3440   0.0000   0.0000   0.0000  -0.4218
  -5.700  -0.1516   0.03685   0.03454  -0.1036  0.9697  0.0065  -2.3748   0.0000   0.0000   0.0000  -0.4421
  -5.600  -0.1426   0.03481   0.03241  -0.1049  0.9671  0.0065  -2.4054   0.0000   0.0000   0.0000  -0.4946
  -5.500  -0.1315   0.03274   0.03023  -0.1066  0.9653  0.0065  -2.4309   0.0000   0.0000   0.0000  -0.5702
  -5.400  -0.1196   0.03079   0.02815  -0.1083  0.9638  0.0065  -2.4478   0.0000   0.0000   0.0000  -0.6659
  -5.300  -0.1073   0.02896   0.02620  -0.1098  0.9625  0.0065  -2.4571   0.0000   0.0000   0.0000  -0.7848
  -5.200  -0.0949   0.02730   0.02440  -0.1111  0.9612  0.0065  -2.4575   0.0000   0.0000   0.0000  -0.9333
  -5.100  -0.0824   0.02575   0.02272  -0.1123  0.9599  0.0065  -2.4503   0.0000   0.0000   0.0000  -1.1270
  -5.000  -0.0699   0.02433   0.02117  -0.1133  0.9587  0.0065  -2.4366   0.0000   0.0000   0.0000  -1.3880
  -4.900  -0.0573   0.02301   0.01972  -0.1143  0.9575  0.0065  -2.4169   0.0000   0.0000   0.0000  -1.7645
  -4.800  -0.0442   0.02177   0.01834  -0.1152  0.9564  0.0066  -2.3909   0.0000   0.0000   0.0000  -2.3825
  -4.700  -0.0338   0.01481   0.01062  -0.1174  0.9544  0.0082  -2.8879   0.0000   0.0000   0.0000  -3.2558
  -4.600  -0.0250   0.01431   0.01008  -0.1171  0.9520  0.0088  -2.7952   0.0000   0.0000   0.0000  -4.4866
  -4.500  -0.0157   0.01399   0.00974  -0.1169  0.9496  0.0093  -2.6833   0.0000   0.0000   0.0000  -7.2861
  -4.400  -0.0053   0.01372   0.00944  -0.1169  0.9475  0.0099  -2.5622   0.0000   0.0000   0.0000  -22.1259
  -4.300   0.0056   0.01348   0.00917  -0.1169  0.9454  0.0106  -2.4408   0.0000   0.0000   0.0000  21.1913
  -4.200   0.0168   0.01325   0.00893  -0.1170  0.9433  0.0114  -2.3193   0.0000   0.0000   0.0000   7.2773
  -4.100   0.0284   0.01302   0.00868  -0.1172  0.9413  0.0124  -2.2021   0.0000   0.0000   0.0000   4.4093
  -4.000   0.0408   0.01281   0.00845  -0.1175  0.9395  0.0137  -2.0870   0.0000   0.0000   0.0000   3.1570
  -3.900   0.0535   0.01271   0.00834  -0.1179  0.9376  0.0154  -1.9694   0.0000   0.0000   0.0000   2.4711
  -3.700   0.0780   0.01171   0.00726  -0.1190  0.9336  0.0236  -1.7393   0.0000   0.0000   0.0000   1.7861
  -3.600   0.0907   0.01218   0.00782  -0.1196  0.9312  0.0290  -1.5598   0.0000   0.0000   0.0000   1.5790
  -3.500   0.1038   0.01508   0.01095  -0.1194  0.9291  0.0345  -1.3250   0.0000   0.0000   0.0000   1.4077
  -3.400   0.1106   0.01165   0.00731  -0.1197  0.9261  0.0421  -1.3662   0.0000   0.0000   0.0000   1.3395
  -3.300   0.1206   0.01176   0.00748  -0.1197  0.9231  0.0476  -1.2631   0.0000   0.0000   0.0000   1.2484
  -3.200   0.1320   0.01251   0.00831  -0.1195  0.9200  0.0543  -1.1562   0.0000   0.0000   0.0000   1.1608
  -3.100   0.1422   0.01105   0.00675  -0.1198  0.9169  0.0636  -1.1237   0.0000   0.0000   0.0000   1.0972
  -3.000   0.1540   0.01058   0.00627  -0.1198  0.9139  0.0658  -1.0760   0.0000   0.0000   0.0000   1.0324
  -2.900   0.1692   0.00814   0.00324  -0.1180  0.9113  0.0224  -1.3935   0.0000   0.0000   0.0000   0.9514
  -2.800   0.1818   0.00807   0.00313  -0.1179  0.9085  0.0170  -1.3612   0.0000   0.0000   0.0000   0.9022
  -2.700   0.1941   0.00748   0.00237  -0.1179  0.9055  0.0143  -1.3861   0.0000   0.0000   0.0000   0.8605
  -2.600   0.2067   0.00722   0.00199  -0.1180  0.9021  0.0126  -1.3660   0.0000   0.0000   0.0000   0.8235
  -2.500   0.2177   0.00707   0.00178  -0.1177  0.8999  0.0115  -1.3265   0.0000   0.0000   0.0000   0.7935
  -2.400   0.2285   0.00696   0.00163  -0.1176  0.8972  0.0109  -1.2654   0.0000   0.0000   0.0000   0.7668
  -2.300   0.2394   0.00688   0.00151  -0.1174  0.8941  0.0104  -1.1955   0.0000   0.0000   0.0000   0.7425
  -2.200   0.2506   0.00681   0.00141  -0.1173  0.8905  0.0100  -1.1224   0.0000   0.0000   0.0000   0.7201
  -2.100   0.2619   0.00675   0.00131  -0.1173  0.8868  0.0098  -1.0481   0.0000   0.0000   0.0000   0.6995
  -2.000   0.2733   0.00670   0.00122  -0.1173  0.8828  0.0096  -0.9731   0.0000   0.0000   0.0000   0.6805
  -1.900   0.2848   0.00666   0.00114  -0.1173  0.8788  0.0096  -0.8968   0.0000   0.0000   0.0000   0.6630
  -1.800   0.2963   0.00663   0.00107  -0.1172  0.8745  0.0097  -0.8178   0.0000   0.0000   0.0000   0.6468
  -1.700   0.3080   0.00661   0.00100  -0.1173  0.8696  0.0102  -0.7288   0.0000   0.0000   0.0000   0.6317
  -1.500   0.3297   0.00597   0.00093  -0.1174  0.8640  0.1493  -0.5097   0.0000   0.0000   0.0000   0.6068
  -1.400   0.3406   0.00585   0.00092  -0.1174  0.8604  0.1818  -0.4643   0.0000   0.0000   0.0000   0.5953
  -1.300   0.3516   0.00574   0.00090  -0.1174  0.8566  0.2149  -0.4661   0.0000   0.0000   0.0000   0.5845
  -1.200   0.3626   0.00564   0.00088  -0.1175  0.8526  0.2482  -0.4736   0.0000   0.0000   0.0000   0.5744
  -1.100   0.3736   0.00553   0.00087  -0.1175  0.8483  0.2859  -0.4811   0.0000   0.0000   0.0000   0.5648
  -1.000   0.3843   0.00528   0.00087  -0.1176  0.8433  0.3701  -0.4885   0.0000   0.0000   0.0000   0.5562
  -0.900   0.3949   0.00505   0.00089  -0.1177  0.8376  0.4630  -0.4958   0.0000   0.0000   0.0000   0.5480
  -0.800   0.4056   0.00488   0.00092  -0.1177  0.8325  0.5383  -0.5032   0.0000   0.0000   0.0000   0.5401
  -0.700   0.4163   0.00476   0.00094  -0.1176  0.8294  0.5854  -0.5112   0.0000   0.0000   0.0000   0.5325
  -0.600   0.4272   0.00472   0.00095  -0.1176  0.8250  0.6072  -0.5196   0.0000   0.0000   0.0000   0.5250
  -0.500   0.4379   0.00466   0.00096  -0.1175  0.8199  0.6337  -0.5280   0.0000   0.0000   0.0000   0.5180
  -0.400   0.4487   0.00465   0.00096  -0.1174  0.8143  0.6499  -0.5375   0.0000   0.0000   0.0000   0.5112
  -0.300   0.4593   0.00461   0.00096  -0.1172  0.8080  0.6751  -0.5470   0.0000   0.0000   0.0000   0.5047
  -0.200   0.4697   0.00460   0.00097  -0.1170  0.8012  0.6966  -0.5564   0.0000   0.0000   0.0000   0.4986
  -0.100   0.4802   0.00460   0.00098  -0.1169  0.7941  0.7161  -0.5659   0.0000   0.0000   0.0000   0.4927
   0.000   0.4909   0.00455   0.00100  -0.1167  0.7915  0.7392  -0.5755   0.0000   0.0000   0.0000   0.4871
   0.100   0.5018   0.00453   0.00101  -0.1167  0.7879  0.7560  -0.5852   0.0000   0.0000   0.0000   0.4817
   0.200   0.5121   0.00449   0.00103  -0.1164  0.7830  0.7795  -0.5956   0.0000   0.0000   0.0000   0.4765
   0.300   0.5225   0.00448   0.00104  -0.1162  0.7769  0.7964  -0.6065   0.0000   0.0000   0.0000   0.4715
   0.400   0.5326   0.00448   0.00106  -0.1160  0.7697  0.8121  -0.6172   0.0000   0.0000   0.0000   0.4666
   0.500   0.5423   0.00450   0.00107  -0.1156  0.7615  0.8282  -0.6280   0.0000   0.0000   0.0000   0.4620
   0.600   0.5522   0.00454   0.00108  -0.1153  0.7521  0.8414  -0.6402   0.0000   0.0000   0.0000   0.4575
   0.700   0.5621   0.00451   0.00110  -0.1149  0.7483  0.8586  -0.6526   0.0000   0.0000   0.0000   0.4532
   0.800   0.5719   0.00449   0.00112  -0.1145  0.7430  0.8772  -0.6649   0.0000   0.0000   0.0000   0.4489
   0.900   0.5809   0.00448   0.00113  -0.1140  0.7360  0.8949  -0.6767   0.0000   0.0000   0.0000   0.4448
   1.000   0.5897   0.00449   0.00114  -0.1134  0.7278  0.9132  -0.6884   0.0000   0.0000   0.0000   0.4408
   1.100   0.5978   0.00451   0.00114  -0.1126  0.7191  0.9305  -0.7001   0.0000   0.0000   0.0000   0.4368
   1.200   0.6064   0.00453   0.00114  -0.1120  0.7099  0.9498  -0.7137   0.0000   0.0000   0.0000   0.4330
   1.300   0.6192   0.00451   0.00113  -0.1123  0.7048  0.9751  -0.7306   0.0000   0.0000   0.0000   0.4296
   1.400   0.6330   0.00452   0.00113  -0.1129  0.6990  1.0000  -0.7483   0.0000   0.0000   0.0000   0.4265
   1.500   0.6438   0.00457   0.00115  -0.1128  0.6909  1.0000  -0.7637   0.0000   0.0000   0.0000   0.4234
   1.600   0.6542   0.00463   0.00116  -0.1127  0.6807  1.0000  -0.7801   0.0000   0.0000   0.0000   0.4203
   1.700   0.6641   0.00472   0.00118  -0.1124  0.6688  1.0000  -0.7976   0.0000   0.0000   0.0000   0.4173
   1.800   0.6745   0.00479   0.00120  -0.1123  0.6585  1.0000  -0.8157   0.0000   0.0000   0.0000   0.4144
   1.900   0.6849   0.00485   0.00122  -0.1121  0.6447  1.0000  -0.8339   0.0000   0.0000   0.0000   0.4115
   2.000   0.6787   0.00606   0.00145  -0.1088  0.4445  1.0000  -0.8373   0.0000   0.0000   0.0000   0.4080
   2.100   0.6850   0.00652   0.00158  -0.1080  0.3788  1.0000  -0.8515   0.0000   0.0000   0.0000   0.4053
   2.200   0.6937   0.00678   0.00167  -0.1077  0.3419  1.0000  -0.8681   0.0000   0.0000   0.0000   0.4028
   2.300   0.7028   0.00701   0.00174  -0.1074  0.3115  1.0000  -0.8852   0.0000   0.0000   0.0000   0.4003
   2.400   0.7116   0.00728   0.00184  -0.1070  0.2789  1.0000  -0.9050   0.0000   0.0000   0.0000   0.3978
   2.500   0.7213   0.00745   0.00191  -0.1068  0.2578  1.0000  -0.9265   0.0000   0.0000   0.0000   0.3954
   2.600   0.7305   0.00768   0.00200  -0.1066  0.2312  1.0000  -0.9476   0.0000   0.0000   0.0000   0.3931
   2.700   0.7400   0.00788   0.00208  -0.1063  0.2103  1.0000  -0.9692   0.0000   0.0000   0.0000   0.3909
   2.800   0.7496   0.00807   0.00217  -0.1061  0.1890  1.0000  -0.9951   0.0000   0.0000   0.0000   0.3887
   2.900   0.7588   0.00829   0.00227  -0.1059  0.1675  1.0000  -1.0215   0.0000   0.0000   0.0000   0.3865
   3.000   0.7688   0.00844   0.00234  -0.1057  0.1512  1.0000  -1.0492   0.0000   0.0000   0.0000   0.3844
   3.100   0.7782   0.00866   0.00244  -0.1055  0.1324  1.0000  -1.0761   0.0000   0.0000   0.0000   0.3824
   3.200   0.7883   0.00879   0.00252  -0.1053  0.1197  1.0000  -1.1043   0.0000   0.0000   0.0000   0.3804
   3.300   0.7980   0.00897   0.00261  -0.1051  0.1067  1.0000  -1.1321   0.0000   0.0000   0.0000   0.3785
   3.400   0.8079   0.00913   0.00269  -0.1050  0.0924  1.0000  -1.1603   0.0000   0.0000   0.0000   0.3766
   3.500   0.8179   0.00927   0.00278  -0.1048  0.0829  1.0000  -1.1889   0.0000   0.0000   0.0000   0.3747
   3.600   0.8275   0.00946   0.00288  -0.1046  0.0685  1.0000  -1.2169   0.0000   0.0000   0.0000   0.3729
   3.800   0.8465   0.00987   0.00312  -0.1041  0.0399  1.0000  -1.3114   0.0000   0.0000   0.0000   0.3693
   3.900   0.8561   0.01006   0.00324  -0.1039  0.0277  1.0000  -1.3951   0.0000   0.0000   0.0000   0.3676
   4.000   0.8652   0.01031   0.00340  -0.1036  0.0143  1.0000  -1.4773   0.0000   0.0000   0.0000   0.3658
   4.100   0.8757   0.01041   0.00346  -0.1035  0.0134  1.0000  -1.5671   0.0000   0.0000   0.0000   0.3642
   4.200   0.8862   0.01048   0.00351  -0.1034  0.0123  1.0000  -1.6575   0.0000   0.0000   0.0000   0.3626
   4.300   0.8967   0.01057   0.00356  -0.1033  0.0103  1.0000  -1.7433   0.0000   0.0000   0.0000   0.3610
   4.400   0.9071   0.01068   0.00366  -0.1032  0.0081  1.0000  -1.8094   0.0000   0.0000   0.0000   0.3595
   4.500   0.9175   0.01078   0.00378  -0.1030  0.0075  1.0000  -1.8810   0.0000   0.0000   0.0000   0.3579
   4.600   0.9279   0.01087   0.00389  -0.1029  0.0073  1.0000  -1.9602   0.0000   0.0000   0.0000   0.3564
   4.700   0.9383   0.01097   0.00401  -0.1028  0.0072  1.0000  -2.0425   0.0000   0.0000   0.0000   0.3549
   4.800   0.9487   0.01107   0.00413  -0.1026  0.0072  1.0000  -2.1265   0.0000   0.0000   0.0000   0.3535
   4.900   0.9590   0.01118   0.00426  -0.1025  0.0072  1.0000  -2.2119   0.0000   0.0000   0.0000   0.3521
   5.000   0.9693   0.01129   0.00440  -0.1023  0.0073  1.0000  -2.2981   0.0000   0.0000   0.0000   0.3507
   5.100   0.9795   0.01140   0.00454  -0.1022  0.0074  1.0000  -2.3850   0.0000   0.0000   0.0000   0.3493
   5.200   0.9897   0.01153   0.00469  -0.1020  0.0074  1.0000  -2.4724   0.0000   0.0000   0.0000   0.3479
   5.300   0.9998   0.01166   0.00485  -0.1018  0.0076  1.0000  -2.5603   0.0000   0.0000   0.0000   0.3466
   5.400   1.0098   0.01180   0.00501  -0.1016  0.0077  1.0000  -2.6485   0.0000   0.0000   0.0000   0.3453
   5.500   1.0197   0.01195   0.00519  -0.1013  0.0079  1.0000  -2.7367   0.0000   0.0000   0.0000   0.3440
   5.600   1.0295   0.01211   0.00538  -0.1011  0.0081  1.0000  -2.8250   0.0000   0.0000   0.0000   0.3427
   5.700   1.0393   0.01228   0.00559  -0.1008  0.0083  1.0000  -2.9129   0.0000   0.0000   0.0000   0.3414
   5.800   1.0489   0.01246   0.00581  -0.1005  0.0085  1.0000  -2.9999   0.0000   0.0000   0.0000   0.3401
   5.900   1.0590   0.01257   0.00615  -0.1004  0.0086  1.0000  -3.1449   0.0000   0.0000   0.0000   0.3389
   6.000   1.0688   0.01271   0.00635  -0.1002  0.0088  1.0000  -3.2665   0.0000   0.0000   0.0000   0.3377
   6.100   1.0784   0.01291   0.00660  -0.0999  0.0090  1.0000  -3.3626   0.0000   0.0000   0.0000   0.3365
   6.200   1.0877   0.01313   0.00687  -0.0995  0.0092  1.0000  -3.4501   0.0000   0.0000   0.0000   0.3353
   6.300   1.0967   0.01338   0.00719  -0.0991  0.0095  1.0000  -3.5286   0.0000   0.0000   0.0000   0.3340
   6.400   1.1055   0.01368   0.00756  -0.0985  0.0098  1.0000  -3.5949   0.0000   0.0000   0.0000   0.3327
   6.500   1.1137   0.01404   0.00800  -0.0979  0.0102  1.0000  -3.6470   0.0000   0.0000   0.0000   0.3313
   6.600   1.1213   0.01448   0.00852  -0.0971  0.0107  1.0000  -3.6877   0.0000   0.0000   0.0000   0.3299
   6.700   1.1283   0.01500   0.00915  -0.0961  0.0113  1.0000  -3.7186   0.0000   0.0000   0.0000   0.3284
   6.800   1.1344   0.01564   0.00989  -0.0950  0.0119  1.0000  -3.7384   0.0000   0.0000   0.0000   0.3269
   6.900   1.1400   0.01639   0.01074  -0.0938  0.0125  1.0000  -3.7504   0.0000   0.0000   0.0000   0.3253
   7.000   1.1451   0.01733   0.01178  -0.0926  0.0132  1.0000  -3.7524   0.0000   0.0000   0.0000   0.3237
   7.100   1.1510   0.01863   0.01315  -0.0911  0.0164  1.0000  -3.6765   0.0000   0.0000   0.0000   0.3219
   7.200   1.1614   0.01871   0.01327  -0.0908  0.0176  1.0000  -3.7597   0.0000   0.0000   0.0000   0.3208
  11.300   1.2976   0.05275   0.05001  -0.0531  0.0085  1.0000  -6.0506   0.0000   0.0000   0.0000   0.2785
  11.400   1.2942   0.05370   0.05101  -0.0523  0.0084  1.0000  -6.0950   0.0000   0.0000   0.0000   0.2778
  11.500   1.2897   0.05479   0.05214  -0.0515  0.0083  1.0000  -6.1271   0.0000   0.0000   0.0000   0.2772
  11.600   1.2854   0.05591   0.05332  -0.0508  0.0082  1.0000  -6.1606   0.0000   0.0000   0.0000   0.2766
  11.700   1.2803   0.05715   0.05461  -0.0502  0.0081  1.0000  -6.1846   0.0000   0.0000   0.0000   0.2761
  11.800   1.2753   0.05843   0.05595  -0.0497  0.0080  1.0000  -6.2085   0.0000   0.0000   0.0000   0.2757
  11.900   1.2690   0.05983   0.05740  -0.0493  0.0080  1.0000  -6.2184   0.0000   0.0000   0.0000   0.2754
  12.000   1.2626   0.06132   0.05894  -0.0490  0.0079  1.0000  -6.2250   0.0000   0.0000   0.0000   0.2752
  12.100   1.2563   0.06292   0.06060  -0.0489  0.0079  1.0000  -6.2300   0.0000   0.0000   0.0000   0.2752
  12.200   1.2494   0.06469   0.06242  -0.0489  0.0078  1.0000  -6.2264   0.0000   0.0000   0.0000   0.2753
  12.300   1.2430   0.06652   0.06431  -0.0491  0.0078  1.0000  -6.2249   0.0000   0.0000   0.0000   0.2755
  12.400   1.2353   0.06861   0.06646  -0.0495  0.0078  1.0000  -6.2059   0.0000   0.0000   0.0000   0.2759
  12.500   1.2284   0.07073   0.06864  -0.0501  0.0078  1.0000  -6.1917   0.0000   0.0000   0.0000   0.2764
  12.600   1.2197   0.07322   0.07120  -0.0510  0.0078  1.0000  -6.1522   0.0000   0.0000   0.0000   0.2772
  12.700   1.2117   0.07573   0.07377  -0.0519  0.0078  1.0000  -6.1177   0.0000   0.0000   0.0000   0.2781
  12.800   1.2014   0.07877   0.07688  -0.0533  0.0079  1.0000  -6.0483   0.0000   0.0000   0.0000   0.2795
  12.900   1.1914   0.08194   0.08012  -0.0549  0.0079  1.0000  -5.9752   0.0000   0.0000   0.0000   0.2810
  13.000   1.1788   0.08578   0.08405  -0.0570  0.0080  1.0000  -5.8598   0.0000   0.0000   0.0000   0.2832
  13.100   1.1634   0.09047   0.08883  -0.0598  0.0082  1.0000  -5.6946   0.0000   0.0000   0.0000   0.2861
  13.200   1.1281   0.10054   0.09909  -0.0664  0.0090  1.0000  -5.1958   0.0000   0.0000   0.0000   0.2935
  13.300   1.0833   0.11529   0.11401  -0.0767  0.0104  1.0000  -4.5156   0.0000   0.0000   0.0000   0.3057


