xflr5 v6.61

 Calculated polar for: E64  (8.45%)

 1 1 Reynolds number fixed          Mach number fixed         

 xtrf =   1.000 (top)        1.000 (bottom)
 Mach =   0.000     Re =     0.625 e 6     Ncrit =   9.000

  alpha     CL        CD       CDp       Cm    Top Xtr Bot Xtr   Cpmin    Chinge    XCp    
 ------- -------- --------- --------- -------- ------- ------- -------- --------- ---------
 -10.000  -0.3674   0.11483   0.11255  -0.0289  1.0000  0.0065  -1.6747   0.0000   0.0000   0.0000   0.1644
  -9.900  -0.3664   0.11362   0.11133  -0.0290  1.0000  0.0065  -1.6828   0.0000   0.0000   0.0000   0.1638
  -9.800  -0.3654   0.11240   0.11013  -0.0292  1.0000  0.0065  -1.6911   0.0000   0.0000   0.0000   0.1633
  -9.700  -0.3645   0.11119   0.10892  -0.0293  1.0000  0.0065  -1.6996   0.0000   0.0000   0.0000   0.1629
  -9.600  -0.3638   0.10998   0.10772  -0.0294  1.0000  0.0065  -1.7084   0.0000   0.0000   0.0000   0.1625
  -9.500  -0.3630   0.10878   0.10653  -0.0295  1.0000  0.0065  -1.7174   0.0000   0.0000   0.0000   0.1621
  -9.400  -0.3624   0.10759   0.10534  -0.0296  1.0000  0.0065  -1.7266   0.0000   0.0000   0.0000   0.1618
  -9.300  -0.3619   0.10640   0.10417  -0.0297  1.0000  0.0065  -1.7360   0.0000   0.0000   0.0000   0.1616
  -9.200  -0.3615   0.10523   0.10300  -0.0297  1.0000  0.0065  -1.7457   0.0000   0.0000   0.0000   0.1615
  -9.100  -0.3612   0.10406   0.10184  -0.0297  1.0000  0.0065  -1.7556   0.0000   0.0000   0.0000   0.1615
  -9.000  -0.3611   0.10291   0.10070  -0.0297  1.0000  0.0065  -1.7659   0.0000   0.0000   0.0000   0.1616
  -8.900  -0.3611   0.10178   0.09958  -0.0297  1.0000  0.0065  -1.7764   0.0000   0.0000   0.0000   0.1618
  -8.800  -0.3614   0.10066   0.09847  -0.0296  1.0000  0.0065  -1.7871   0.0000   0.0000   0.0000   0.1622
  -8.700  -0.3617   0.09956   0.09737  -0.0295  1.0000  0.0065  -1.7982   0.0000   0.0000   0.0000   0.1626
  -8.600  -0.3623   0.09847   0.09630  -0.0294  1.0000  0.0066  -1.8096   0.0000   0.0000   0.0000   0.1633
  -8.500  -0.3631   0.09741   0.09525  -0.0292  1.0000  0.0066  -1.8212   0.0000   0.0000   0.0000   0.1641
  -8.400  -0.3641   0.09636   0.09422  -0.0289  1.0000  0.0066  -1.8332   0.0000   0.0000   0.0000   0.1651
  -8.300  -0.3654   0.09534   0.09321  -0.0286  1.0000  0.0066  -1.8454   0.0000   0.0000   0.0000   0.1663
  -8.200  -0.3670   0.09435   0.09222  -0.0283  1.0000  0.0066  -1.8579   0.0000   0.0000   0.0000   0.1677
  -8.100  -0.3689   0.09338   0.09127  -0.0278  1.0000  0.0066  -1.8707   0.0000   0.0000   0.0000   0.1694
  -8.000  -0.3711   0.09245   0.09035  -0.0274  1.0000  0.0066  -1.8839   0.0000   0.0000   0.0000   0.1713
  -7.800  -0.3804   0.08998   0.08795  -0.0263  1.0000  0.0066  -1.9896   0.0000   0.0000   0.0000   0.1762
  -7.700  -0.3894   0.08684   0.08482  -0.0272  0.9996  0.0068  -2.2073   0.0000   0.0000   0.0000   0.1754
  -7.600  -0.3898   0.08336   0.08134  -0.0304  0.9984  0.0070  -2.3772   0.0000   0.0000   0.0000   0.1674
  -7.500  -0.3876   0.08059   0.07858  -0.0333  0.9971  0.0072  -2.4743   0.0000   0.0000   0.0000   0.1593
  -7.400  -0.3849   0.07826   0.07625  -0.0359  0.9956  0.0073  -2.5352   0.0000   0.0000   0.0000   0.1521
  -7.300  -0.3814   0.07603   0.07403  -0.0386  0.9936  0.0074  -2.5786   0.0000   0.0000   0.0000   0.1442
  -7.200  -0.3745   0.07351   0.07150  -0.0423  0.9918  0.0076  -2.6092   0.0000   0.0000   0.0000   0.1325
  -7.100  -0.3651   0.07084   0.06884  -0.0466  0.9902  0.0077  -2.6252   0.0000   0.0000   0.0000   0.1178
  -7.000  -0.3549   0.06824   0.06623  -0.0511  0.9891  0.0079  -2.6331   0.0000   0.0000   0.0000   0.1013
  -6.900  -0.3439   0.06560   0.06358  -0.0560  0.9881  0.0080  -2.6379   0.0000   0.0000   0.0000   0.0825
  -6.800  -0.3352   0.06311   0.06108  -0.0601  0.9861  0.0082  -2.6480   0.0000   0.0000   0.0000   0.0660
  -6.700  -0.3267   0.06057   0.05852  -0.0641  0.9834  0.0083  -2.6625   0.0000   0.0000   0.0000   0.0491
  -6.600  -0.3160   0.05774   0.05567  -0.0688  0.9812  0.0084  -2.6785   0.0000   0.0000   0.0000   0.0276
  -6.500  -0.3040   0.05477   0.05266  -0.0736  0.9794  0.0086  -2.6970   0.0000   0.0000   0.0000   0.0030
  -6.400  -0.2914   0.05183   0.04967  -0.0782  0.9779  0.0087  -2.7113   0.0000   0.0000   0.0000  -0.0233
  -6.300  -0.2789   0.04930   0.04709  -0.0820  0.9768  0.0089  -2.7007   0.0000   0.0000   0.0000  -0.0491
  -6.200  -0.2661   0.04686   0.04458  -0.0856  0.9759  0.0092  -2.6875   0.0000   0.0000   0.0000  -0.0766
  -6.100  -0.2531   0.04451   0.04217  -0.0889  0.9751  0.0094  -2.6714   0.0000   0.0000   0.0000  -0.1063
  -6.000  -0.2398   0.04225   0.03983  -0.0919  0.9744  0.0097  -2.6531   0.0000   0.0000   0.0000  -0.1388
  -5.900  -0.2262   0.04008   0.03757  -0.0948  0.9738  0.0100  -2.6328   0.0000   0.0000   0.0000  -0.1747
  -5.800  -0.2123   0.03798   0.03537  -0.0974  0.9733  0.0103  -2.6122   0.0000   0.0000   0.0000  -0.2150
  -5.700  -0.2114   0.03683   0.03416  -0.0964  0.9680  0.0105  -2.6105   0.0000   0.0000   0.0000  -0.2119
  -5.600  -0.2007   0.03507   0.03230  -0.0978  0.9659  0.0108  -2.5954   0.0000   0.0000   0.0000  -0.2435
  -5.500  -0.1886   0.03326   0.03036  -0.0994  0.9642  0.0111  -2.5838   0.0000   0.0000   0.0000  -0.2833
  -5.300  -0.1622   0.02875   0.02538  -0.1027  0.9616  0.0109  -2.6650   0.0000   0.0000   0.0000  -0.3906
  -5.200  -0.1487   0.02756   0.02409  -0.1039  0.9607  0.0115  -2.6025   0.0000   0.0000   0.0000  -0.4568
  -5.100  -0.1350   0.02640   0.02283  -0.1051  0.9599  0.0122  -2.5430   0.0000   0.0000   0.0000  -0.5371
  -5.000  -0.1211   0.02532   0.02165  -0.1061  0.9592  0.0130  -2.4844   0.0000   0.0000   0.0000  -0.6359
  -4.900  -0.1071   0.02438   0.02061  -0.1071  0.9586  0.0141  -2.4227   0.0000   0.0000   0.0000  -0.7611
  -4.800  -0.0926   0.02371   0.01985  -0.1079  0.9581  0.0153  -2.3488   0.0000   0.0000   0.0000  -0.9278
  -4.700  -0.0775   0.02385   0.01997  -0.1084  0.9576  0.0168  -2.2299   0.0000   0.0000   0.0000  -1.1637
  -4.600  -0.0629   0.02126   0.01701  -0.1102  0.9570  0.0194  -2.2760   0.0000   0.0000   0.0000  -1.5195
  -4.500  -0.0502   0.02003   0.01576  -0.1118  0.9565  0.0223  -2.1515   0.0000   0.0000   0.0000  -1.9980
  -4.400  -0.0366   0.02022   0.01605  -0.1128  0.9560  0.0252  -1.9685   0.0000   0.0000   0.0000  -2.8632
  -4.300  -0.0221   0.02047   0.01632  -0.1135  0.9555  0.0296  -1.8254   0.0000   0.0000   0.0000  -4.9259
  -4.200  -0.0047   0.02411   0.02014  -0.1129  0.9552  0.0344  -1.5880   0.0000   0.0000   0.0000  -24.0710
  -4.100   0.0065   0.01852   0.01409  -0.1155  0.9543  0.0383  -1.7130   0.0000   0.0000   0.0000  18.0652
  -3.100   0.1279   0.01038   0.00493  -0.1151  0.9364  0.0216  -1.5663   0.0000   0.0000   0.0000   1.1556
  -3.000   0.1423   0.01059   0.00516  -0.1154  0.9350  0.0188  -1.4720   0.0000   0.0000   0.0000   1.0661
  -2.900   0.1562   0.00971   0.00417  -0.1158  0.9336  0.0164  -1.4923   0.0000   0.0000   0.0000   0.9957
  -2.800   0.1703   0.00918   0.00354  -0.1162  0.9322  0.0151  -1.4724   0.0000   0.0000   0.0000   0.9362
  -2.700   0.1847   0.00882   0.00310  -0.1167  0.9305  0.0141  -1.4335   0.0000   0.0000   0.0000   0.8856
  -2.600   0.1945   0.00861   0.00282  -0.1163  0.9277  0.0135  -1.3930   0.0000   0.0000   0.0000   0.8510
  -2.500   0.2047   0.00844   0.00260  -0.1159  0.9246  0.0130  -1.3461   0.0000   0.0000   0.0000   0.8192
  -2.400   0.2157   0.00829   0.00241  -0.1157  0.9216  0.0126  -1.2920   0.0000   0.0000   0.0000   0.7892
  -2.300   0.2272   0.00818   0.00225  -0.1157  0.9188  0.0124  -1.2315   0.0000   0.0000   0.0000   0.7615
  -2.200   0.2389   0.00808   0.00210  -0.1157  0.9162  0.0122  -1.1643   0.0000   0.0000   0.0000   0.7363
  -2.100   0.2511   0.00800   0.00198  -0.1158  0.9138  0.0121  -1.0917   0.0000   0.0000   0.0000   0.7130
  -2.000   0.2637   0.00792   0.00186  -0.1160  0.9114  0.0121  -1.0150   0.0000   0.0000   0.0000   0.6915
  -1.900   0.2766   0.00785   0.00175  -0.1163  0.9089  0.0123  -0.9353   0.0000   0.0000   0.0000   0.6718
  -1.800   0.2896   0.00779   0.00164  -0.1166  0.9062  0.0128  -0.8511   0.0000   0.0000   0.0000   0.6538
  -1.700   0.3028   0.00773   0.00155  -0.1169  0.9033  0.0139  -0.7567   0.0000   0.0000   0.0000   0.6372
  -1.600   0.3142   0.00765   0.00153  -0.1169  0.9002  0.0193  -0.6375   0.0000   0.0000   0.0000   0.6229
  -1.500   0.3235   0.00660   0.00151  -0.1173  0.8970  0.2864  -0.5330   0.0000   0.0000   0.0000   0.6134
  -1.400   0.3338   0.00646   0.00150  -0.1172  0.8934  0.3286  -0.4877   0.0000   0.0000   0.0000   0.6018
  -1.300   0.3442   0.00621   0.00151  -0.1172  0.8897  0.4043  -0.4620   0.0000   0.0000   0.0000   0.5910
  -1.200   0.3549   0.00593   0.00154  -0.1173  0.8860  0.5026  -0.4693   0.0000   0.0000   0.0000   0.5809
  -1.100   0.3657   0.00568   0.00157  -0.1173  0.8822  0.5905  -0.4768   0.0000   0.0000   0.0000   0.5710
  -1.000   0.3767   0.00554   0.00158  -0.1172  0.8783  0.6446  -0.4844   0.0000   0.0000   0.0000   0.5613
  -0.900   0.3884   0.00549   0.00156  -0.1172  0.8744  0.6654  -0.4923   0.0000   0.0000   0.0000   0.5519
  -0.800   0.4002   0.00545   0.00155  -0.1173  0.8701  0.6874  -0.5002   0.0000   0.0000   0.0000   0.5432
  -0.700   0.4106   0.00542   0.00155  -0.1171  0.8671  0.7066  -0.5080   0.0000   0.0000   0.0000   0.5351
  -0.600   0.4204   0.00535   0.00157  -0.1168  0.8639  0.7321  -0.5159   0.0000   0.0000   0.0000   0.5276
  -0.500   0.4307   0.00532   0.00158  -0.1165  0.8600  0.7520  -0.5241   0.0000   0.0000   0.0000   0.5203
  -0.400   0.4406   0.00526   0.00158  -0.1162  0.8555  0.7732  -0.5328   0.0000   0.0000   0.0000   0.5133
  -0.300   0.4510   0.00523   0.00158  -0.1159  0.8507  0.7938  -0.5422   0.0000   0.0000   0.0000   0.5065
  -0.200   0.4611   0.00519   0.00157  -0.1155  0.8457  0.8136  -0.5515   0.0000   0.0000   0.0000   0.5000
  -0.100   0.4712   0.00516   0.00156  -0.1152  0.8403  0.8348  -0.5608   0.0000   0.0000   0.0000   0.4938
   0.000   0.4814   0.00516   0.00156  -0.1148  0.8343  0.8520  -0.5701   0.0000   0.0000   0.0000   0.4878
   0.100   0.4904   0.00513   0.00157  -0.1143  0.8305  0.8701  -0.5788   0.0000   0.0000   0.0000   0.4822
   0.300   0.5082   0.00507   0.00157  -0.1130  0.8211  0.9027  -0.5979   0.0000   0.0000   0.0000   0.4715
   0.400   0.5171   0.00505   0.00156  -0.1124  0.8158  0.9214  -0.6078   0.0000   0.0000   0.0000   0.4663
   0.500   0.5261   0.00502   0.00153  -0.1118  0.8105  0.9437  -0.6180   0.0000   0.0000   0.0000   0.4613
   0.600   0.5390   0.00500   0.00149  -0.1120  0.8052  0.9678  -0.6314   0.0000   0.0000   0.0000   0.4567
   0.700   0.5549   0.00500   0.00145  -0.1131  0.7989  1.0000  -0.6477   0.0000   0.0000   0.0000   0.4525
   0.800   0.5661   0.00503   0.00145  -0.1131  0.7929  1.0000  -0.6608   0.0000   0.0000   0.0000   0.4484
   0.900   0.5770   0.00505   0.00146  -0.1130  0.7885  1.0000  -0.6738   0.0000   0.0000   0.0000   0.4445
   1.000   0.5879   0.00507   0.00147  -0.1129  0.7829  1.0000  -0.6869   0.0000   0.0000   0.0000   0.4407
   1.100   0.5987   0.00510   0.00147  -0.1129  0.7762  1.0000  -0.7003   0.0000   0.0000   0.0000   0.4370
   1.200   0.6095   0.00513   0.00147  -0.1128  0.7690  1.0000  -0.7156   0.0000   0.0000   0.0000   0.4334
   1.300   0.6202   0.00519   0.00147  -0.1126  0.7611  1.0000  -0.7309   0.0000   0.0000   0.0000   0.4299
   1.400   0.6308   0.00525   0.00147  -0.1125  0.7521  1.0000  -0.7461   0.0000   0.0000   0.0000   0.4266
   1.500   0.6417   0.00527   0.00149  -0.1125  0.7475  1.0000  -0.7616   0.0000   0.0000   0.0000   0.4234
   1.600   0.6526   0.00530   0.00151  -0.1124  0.7417  1.0000  -0.7780   0.0000   0.0000   0.0000   0.4203
   1.700   0.6634   0.00533   0.00152  -0.1123  0.7350  1.0000  -0.7964   0.0000   0.0000   0.0000   0.4173
   1.800   0.6740   0.00538   0.00153  -0.1122  0.7271  1.0000  -0.8146   0.0000   0.0000   0.0000   0.4144
   1.900   0.6842   0.00545   0.00154  -0.1120  0.7177  1.0000  -0.8327   0.0000   0.0000   0.0000   0.4115
   2.000   0.6838   0.00600   0.00153  -0.1094  0.6096  1.0000  -0.8419   0.0000   0.0000   0.0000   0.4077
   2.100   0.6885   0.00642   0.00159  -0.1081  0.5393  1.0000  -0.8551   0.0000   0.0000   0.0000   0.4046
   2.200   0.6966   0.00664   0.00165  -0.1075  0.5088  1.0000  -0.8714   0.0000   0.0000   0.0000   0.4019
   2.300   0.7059   0.00681   0.00170  -0.1072  0.4850  1.0000  -0.8887   0.0000   0.0000   0.0000   0.3994
   2.400   0.7150   0.00699   0.00176  -0.1069  0.4640  1.0000  -0.9090   0.0000   0.0000   0.0000   0.3969
   2.500   0.7252   0.00709   0.00180  -0.1067  0.4503  1.0000  -0.9313   0.0000   0.0000   0.0000   0.3945
   2.600   0.7346   0.00726   0.00187  -0.1065  0.4307  1.0000  -0.9528   0.0000   0.0000   0.0000   0.3922
   2.700   0.7442   0.00741   0.00193  -0.1062  0.4124  1.0000  -0.9755   0.0000   0.0000   0.0000   0.3899
   2.800   0.7540   0.00755   0.00199  -0.1060  0.3949  1.0000  -1.0028   0.0000   0.0000   0.0000   0.3877
   2.900   0.7630   0.00776   0.00207  -0.1057  0.3720  1.0000  -1.0291   0.0000   0.0000   0.0000   0.3855
   3.000   0.7731   0.00788   0.00213  -0.1056  0.3574  1.0000  -1.0570   0.0000   0.0000   0.0000   0.3835
   3.100   0.7826   0.00806   0.00220  -0.1053  0.3388  1.0000  -1.0843   0.0000   0.0000   0.0000   0.3814
   3.200   0.7921   0.00824   0.00229  -0.1051  0.3194  1.0000  -1.1116   0.0000   0.0000   0.0000   0.3794
   3.300   0.8017   0.00840   0.00237  -0.1049  0.3020  1.0000  -1.1395   0.0000   0.0000   0.0000   0.3775
   3.400   0.8107   0.00864   0.00247  -0.1046  0.2778  1.0000  -1.1663   0.0000   0.0000   0.0000   0.3756
   3.500   0.8205   0.00879   0.00255  -0.1044  0.2623  1.0000  -1.1946   0.0000   0.0000   0.0000   0.3737
   3.600   0.8295   0.00902   0.00265  -0.1041  0.2415  1.0000  -1.2218   0.0000   0.0000   0.0000   0.3719
   3.700   0.8395   0.00916   0.00274  -0.1040  0.2282  1.0000  -1.2505   0.0000   0.0000   0.0000   0.3702
   3.800   0.8491   0.00934   0.00283  -0.1038  0.2130  1.0000  -1.3142   0.0000   0.0000   0.0000   0.3684
   3.900   0.8583   0.00955   0.00293  -0.1035  0.1935  1.0000  -1.3970   0.0000   0.0000   0.0000   0.3667
   4.000   0.8679   0.00972   0.00304  -0.1033  0.1792  1.0000  -1.4830   0.0000   0.0000   0.0000   0.3651
   4.100   0.8768   0.00998   0.00316  -0.1030  0.1578  1.0000  -1.5663   0.0000   0.0000   0.0000   0.3634
   4.200   0.8859   0.01021   0.00329  -0.1027  0.1391  1.0000  -1.6517   0.0000   0.0000   0.0000   0.3618
   4.300   0.8943   0.01052   0.00343  -0.1023  0.1136  1.0000  -1.7343   0.0000   0.0000   0.0000   0.3602
   4.400   0.9020   0.01091   0.00363  -0.1019  0.0832  1.0000  -1.8133   0.0000   0.0000   0.0000   0.3586
   4.500   0.9091   0.01139   0.00389  -0.1013  0.0498  1.0000  -1.8872   0.0000   0.0000   0.0000   0.3570
   4.600   0.9155   0.01195   0.00421  -0.1005  0.0141  1.0000  -1.9552   0.0000   0.0000   0.0000   0.3553
   4.700   0.9255   0.01209   0.00430  -0.1003  0.0124  1.0000  -2.0344   0.0000   0.0000   0.0000   0.3538
   4.800   0.9356   0.01223   0.00442  -0.1001  0.0110  1.0000  -2.1090   0.0000   0.0000   0.0000   0.3524
   4.900   0.9458   0.01235   0.00456  -0.1000  0.0102  1.0000  -2.1865   0.0000   0.0000   0.0000   0.3509
   5.000   0.9560   0.01247   0.00470  -0.0998  0.0099  1.0000  -2.2678   0.0000   0.0000   0.0000   0.3495
   5.100   0.9661   0.01258   0.00485  -0.0996  0.0097  1.0000  -2.3513   0.0000   0.0000   0.0000   0.3481
   5.200   0.9763   0.01271   0.00501  -0.0994  0.0096  1.0000  -2.4362   0.0000   0.0000   0.0000   0.3468
   5.300   0.9863   0.01283   0.00517  -0.0992  0.0095  1.0000  -2.5221   0.0000   0.0000   0.0000   0.3454
   5.400   0.9963   0.01297   0.00534  -0.0990  0.0095  1.0000  -2.6086   0.0000   0.0000   0.0000   0.3441
   5.500   1.0063   0.01311   0.00553  -0.0988  0.0096  1.0000  -2.6952   0.0000   0.0000   0.0000   0.3428
   5.600   1.0161   0.01326   0.00572  -0.0986  0.0096  1.0000  -2.7815   0.0000   0.0000   0.0000   0.3415
   5.700   1.0259   0.01342   0.00593  -0.0983  0.0097  1.0000  -2.8672   0.0000   0.0000   0.0000   0.3402
   5.800   1.0356   0.01360   0.00615  -0.0980  0.0098  1.0000  -2.9516   0.0000   0.0000   0.0000   0.3389
   5.900   1.0451   0.01379   0.00639  -0.0977  0.0099  1.0000  -3.0336   0.0000   0.0000   0.0000   0.3376
   6.000   1.0556   0.01383   0.00675  -0.0976  0.0105  1.0000  -3.2153   0.0000   0.0000   0.0000   0.3366
   6.100   1.0653   0.01401   0.00700  -0.0974  0.0107  1.0000  -3.3186   0.0000   0.0000   0.0000   0.3353
   6.200   1.0745   0.01423   0.00728  -0.0970  0.0109  1.0000  -3.4033   0.0000   0.0000   0.0000   0.3341
   6.300   1.0835   0.01449   0.00761  -0.0965  0.0110  1.0000  -3.4794   0.0000   0.0000   0.0000   0.3328
   6.400   1.0922   0.01478   0.00797  -0.0960  0.0111  1.0000  -3.5499   0.0000   0.0000   0.0000   0.3315
   6.500   1.1006   0.01511   0.00837  -0.0954  0.0112  1.0000  -3.6160   0.0000   0.0000   0.0000   0.3302
   6.600   1.1086   0.01548   0.00881  -0.0948  0.0114  1.0000  -3.6777   0.0000   0.0000   0.0000   0.3289
   6.700   1.1162   0.01589   0.00929  -0.0941  0.0116  1.0000  -3.7352   0.0000   0.0000   0.0000   0.3275
   6.800   1.1235   0.01634   0.00982  -0.0933  0.0118  1.0000  -3.7884   0.0000   0.0000   0.0000   0.3262
   6.900   1.1303   0.01684   0.01040  -0.0925  0.0120  1.0000  -3.8374   0.0000   0.0000   0.0000   0.3248
   7.000   1.1368   0.01740   0.01104  -0.0915  0.0122  1.0000  -3.8814   0.0000   0.0000   0.0000   0.3234
   7.100   1.1430   0.01802   0.01174  -0.0906  0.0125  1.0000  -3.9203   0.0000   0.0000   0.0000   0.3220
   7.200   1.1490   0.01872   0.01252  -0.0896  0.0128  1.0000  -3.9540   0.0000   0.0000   0.0000   0.3206
   7.300   1.1550   0.01952   0.01341  -0.0886  0.0131  1.0000  -3.9815   0.0000   0.0000   0.0000   0.3192
   7.400   1.1610   0.02047   0.01445  -0.0876  0.0134  1.0000  -4.0002   0.0000   0.0000   0.0000   0.3179
   7.500   1.1672   0.02175   0.01583  -0.0866  0.0139  1.0000  -4.0004   0.0000   0.0000   0.0000   0.3165
   7.600   1.1749   0.02376   0.01794  -0.0857  0.0155  1.0000  -3.9388   0.0000   0.0000   0.0000   0.3152
   7.700   1.1849   0.02354   0.01771  -0.0854  0.0160  1.0000  -4.0472   0.0000   0.0000   0.0000   0.3142
   7.800   1.1947   0.02355   0.01774  -0.0851  0.0168  1.0000  -4.1399   0.0000   0.0000   0.0000   0.3132
   8.400   1.2150   0.04487   0.04064  -0.0774  0.0284  1.0000  -3.5593   0.0000   0.0000   0.0000   0.3052
   8.500   1.2183   0.04599   0.04187  -0.0764  0.0284  1.0000  -3.5889   0.0000   0.0000   0.0000   0.3041
   8.600   1.2215   0.04699   0.04296  -0.0754  0.0284  1.0000  -3.6216   0.0000   0.0000   0.0000   0.3030
   8.700   1.2250   0.04769   0.04375  -0.0744  0.0283  1.0000  -3.6635   0.0000   0.0000   0.0000   0.3018
   8.800   1.2663   0.03757   0.03318  -0.0770  0.0227  1.0000  -4.2297   0.0000   0.0000   0.0000   0.3016
   8.900   1.2731   0.03771   0.03333  -0.0766  0.0214  1.0000  -4.3406   0.0000   0.0000   0.0000   0.3008
   9.000   1.2792   0.03805   0.03369  -0.0760  0.0205  1.0000  -4.4416   0.0000   0.0000   0.0000   0.3000
   9.100   1.2844   0.03868   0.03435  -0.0754  0.0199  1.0000  -4.5228   0.0000   0.0000   0.0000   0.2991
   9.200   1.2888   0.03953   0.03526  -0.0746  0.0196  1.0000  -4.5857   0.0000   0.0000   0.0000   0.2982
   9.300   1.2930   0.04037   0.03616  -0.0738  0.0192  1.0000  -4.6504   0.0000   0.0000   0.0000   0.2973
   9.400   1.2968   0.04121   0.03705  -0.0730  0.0189  1.0000  -4.7155   0.0000   0.0000   0.0000   0.2964
   9.500   1.2997   0.04206   0.03796  -0.0721  0.0186  1.0000  -4.7764   0.0000   0.0000   0.0000   0.2954
   9.600   1.3022   0.04292   0.03889  -0.0711  0.0182  1.0000  -4.8365   0.0000   0.0000   0.0000   0.2944
   9.700   1.3041   0.04381   0.03984  -0.0701  0.0180  1.0000  -4.8946   0.0000   0.0000   0.0000   0.2935
  13.200   1.0650   0.11549   0.11375  -0.0732  0.0156  1.0000  -4.2256   0.0000   0.0000   0.0000   0.3039
  13.300   1.0607   0.11880   0.11709  -0.0757  0.0157  1.0000  -4.1831   0.0000   0.0000   0.0000   0.3064
  13.400   1.0561   0.12231   0.12063  -0.0783  0.0158  1.0000  -4.1290   0.0000   0.0000   0.0000   0.3091
  13.500   1.0513   0.12602   0.12438  -0.0811  0.0159  1.0000  -4.0612   0.0000   0.0000   0.0000   0.3120
  13.600   1.0458   0.13016   0.12855  -0.0840  0.0160  1.0000  -3.9691   0.0000   0.0000   0.0000   0.3152
  13.700   1.0394   0.13494   0.13335  -0.0871  0.0161  1.0000  -3.8422   0.0000   0.0000   0.0000   0.3188
  13.800   1.0324   0.14008   0.13851  -0.0902  0.0162  1.0000  -3.6907   0.0000   0.0000   0.0000   0.3223
  13.900   1.0263   0.14480   0.14323  -0.0928  0.0161  1.0000  -3.5514   0.0000   0.0000   0.0000   0.3254
  14.000   1.0211   0.14890   0.14732  -0.0949  0.0160  1.0000  -3.4391   0.0000   0.0000   0.0000   0.3280
  14.100   1.0156   0.15299   0.15140  -0.0971  0.0158  1.0000  -3.3255   0.0000   0.0000   0.0000   0.3306
  14.200   1.0086   0.15767   0.15606  -0.0995  0.0155  1.0000  -3.1794   0.0000   0.0000   0.0000   0.3336
  14.300   0.9984   0.16369   0.16207  -0.1025  0.0152  1.0000  -2.9603   0.0000   0.0000   0.0000   0.3377
  14.400   0.9901   0.16938   0.16774  -0.1052  0.0150  1.0000  -2.7610   0.0000   0.0000   0.0000   0.3413
  14.500   0.9824   0.17514   0.17348  -0.1077  0.0148  1.0000  -2.5614   0.0000   0.0000   0.0000   0.3448
  19.700   1.0369   0.29443   0.29284  -0.1544  0.0050  1.0000  -2.2515   0.0000   0.0000   0.0000   0.3770
  19.800   1.0388   0.29588   0.29429  -0.1550  0.0048  1.0000  -2.3117   0.0000   0.0000   0.0000   0.3771
  19.900   1.0401   0.29756   0.29598  -0.1556  0.0046  1.0000  -2.3555   0.0000   0.0000   0.0000   0.3773
  20.000   1.0408   0.29946   0.29788  -0.1561  0.0044  1.0000  -2.3830   0.0000   0.0000   0.0000   0.3776
  20.100   1.0408   0.30161   0.30004  -0.1567  0.0042  1.0000  -2.3911   0.0000   0.0000   0.0000   0.3780
  20.200   1.0400   0.30395   0.30238  -0.1572  0.0039  1.0000  -2.3822   0.0000   0.0000   0.0000   0.3785
  20.300   1.0382   0.30645   0.30489  -0.1577  0.0037  1.0000  -2.3552   0.0000   0.0000   0.0000   0.3791
  20.400   1.0355   0.30891   0.30735  -0.1581  0.0035  1.0000  -2.3212   0.0000   0.0000   0.0000   0.3798
  20.500   1.0318   0.31121   0.30966  -0.1584  0.0034  1.0000  -2.2818   0.0000   0.0000   0.0000   0.3805
  21.200   0.9370   0.30355   0.30214  -0.1511  0.0033  1.0000  -1.8117   0.0000   0.0000   0.0000   0.3885
  21.300   0.9331   0.30407   0.30266  -0.1512  0.0034  1.0000  -1.7749   0.0000   0.0000   0.0000   0.3891
  21.400   0.9295   0.30462   0.30322  -0.1512  0.0034  1.0000  -1.7394   0.0000   0.0000   0.0000   0.3897
  21.500   0.9261   0.30519   0.30379  -0.1513  0.0035  1.0000  -1.7051   0.0000   0.0000   0.0000   0.3903
  21.600   0.9230   0.30578   0.30439  -0.1514  0.0036  1.0000  -1.6722   0.0000   0.0000   0.0000   0.3909
  21.700   0.9200   0.30638   0.30499  -0.1515  0.0037  1.0000  -1.6405   0.0000   0.0000   0.0000   0.3914
  21.800   0.9171   0.30698   0.30560  -0.1516  0.0038  1.0000  -1.6098   0.0000   0.0000   0.0000   0.3920
  21.900   0.9142   0.30758   0.30620  -0.1517  0.0040  1.0000  -1.5799   0.0000   0.0000   0.0000   0.3925
  22.000   0.9113   0.30818   0.30680  -0.1518  0.0042  1.0000  -1.5496   0.0000   0.0000   0.0000   0.3930
  22.100   0.9081   0.30875   0.30737  -0.1519  0.0044  1.0000  -1.5163   0.0000   0.0000   0.0000   0.3936
  22.200   0.9043   0.30929   0.30792  -0.1518  0.0047  1.0000  -1.4742   0.0000   0.0000   0.0000   0.3942
  22.300   0.9006   0.30995   0.30859  -0.1518  0.0049  1.0000  -1.4263   0.0000   0.0000   0.0000   0.3948
  22.400   0.8981   0.31063   0.30927  -0.1519  0.0050  1.0000  -1.3952   0.0000   0.0000   0.0000   0.3952
  22.500   0.8961   0.31132   0.30996  -0.1521  0.0050  1.0000  -1.3717   0.0000   0.0000   0.0000   0.3957
  22.600   0.8944   0.31201   0.31066  -0.1522  0.0050  1.0000  -1.3519   0.0000   0.0000   0.0000   0.3961
  22.700   0.8928   0.31271   0.31137  -0.1524  0.0051  1.0000  -1.3344   0.0000   0.0000   0.0000   0.3964


