xflr5 v6.61

 Calculated polar for: E64  (8.45%)

 1 1 Reynolds number fixed          Mach number fixed         

 xtrf =   1.000 (top)        1.000 (bottom)
 Mach =   0.000     Re =     0.200 e 6     Ncrit =   9.000

  alpha     CL        CD       CDp       Cm    Top Xtr Bot Xtr   Cpmin    Chinge    XCp    
 ------- -------- --------- --------- -------- ------- ------- -------- --------- ---------
 -10.000  -0.3755   0.12341   0.11951  -0.0337  1.0000  0.0344  -1.4295   0.0000   0.0000   0.0000   0.1540
  -9.900  -0.3746   0.12230   0.11842  -0.0340  1.0000  0.0345  -1.4366   0.0000   0.0000   0.0000   0.1531
  -9.300  -0.3807   0.11088   0.10713  -0.0358  1.0000  0.0356  -1.5979   0.0000   0.0000   0.0000   0.1501
  -9.200  -0.3815   0.10845   0.10471  -0.0355  1.0000  0.0363  -1.5992   0.0000   0.0000   0.0000   0.1513
  -9.100  -0.3780   0.10672   0.10298  -0.0345  1.0000  0.0370  -1.5506   0.0000   0.0000   0.0000   0.1531
  -9.000  -0.3756   0.10543   0.10170  -0.0340  1.0000  0.0374  -1.5227   0.0000   0.0000   0.0000   0.1540
  -8.900  -0.3734   0.10425   0.10053  -0.0335  1.0000  0.0379  -1.4972   0.0000   0.0000   0.0000   0.1547
  -8.800  -0.3713   0.10312   0.09941  -0.0331  1.0000  0.0383  -1.4746   0.0000   0.0000   0.0000   0.1554
  -8.700  -0.3697   0.10204   0.09834  -0.0327  1.0000  0.0387  -1.4561   0.0000   0.0000   0.0000   0.1561
  -8.600  -0.3684   0.10099   0.09730  -0.0324  1.0000  0.0391  -1.4407   0.0000   0.0000   0.0000   0.1568
  -8.500  -0.3675   0.09996   0.09628  -0.0321  1.0000  0.0396  -1.4283   0.0000   0.0000   0.0000   0.1574
  -8.400  -0.3669   0.09895   0.09529  -0.0318  1.0000  0.0400  -1.4186   0.0000   0.0000   0.0000   0.1581
  -8.300  -0.3665   0.09796   0.09431  -0.0316  1.0000  0.0404  -1.4110   0.0000   0.0000   0.0000   0.1588
  -8.200  -0.3665   0.09698   0.09335  -0.0313  1.0000  0.0408  -1.4053   0.0000   0.0000   0.0000   0.1596
  -8.100  -0.3667   0.09602   0.09240  -0.0310  1.0000  0.0412  -1.4014   0.0000   0.0000   0.0000   0.1606
  -8.000  -0.3672   0.09507   0.09148  -0.0307  1.0000  0.0417  -1.3989   0.0000   0.0000   0.0000   0.1616
  -7.900  -0.3681   0.09415   0.09057  -0.0304  1.0000  0.0421  -1.3979   0.0000   0.0000   0.0000   0.1628
  -7.800  -0.3693   0.09324   0.08969  -0.0300  1.0000  0.0425  -1.3982   0.0000   0.0000   0.0000   0.1642
  -7.700  -0.3708   0.09236   0.08883  -0.0296  1.0000  0.0429  -1.3997   0.0000   0.0000   0.0000   0.1657
  -7.600  -0.3728   0.09150   0.08799  -0.0292  1.0000  0.0433  -1.4023   0.0000   0.0000   0.0000   0.1675
  -7.500  -0.3751   0.09068   0.08719  -0.0286  1.0000  0.0437  -1.4060   0.0000   0.0000   0.0000   0.1695
  -7.400  -0.3779   0.08988   0.08642  -0.0280  1.0000  0.0440  -1.4108   0.0000   0.0000   0.0000   0.1718
  -7.300  -0.3812   0.08912   0.08569  -0.0274  1.0000  0.0444  -1.4167   0.0000   0.0000   0.0000   0.1743
  -7.200  -0.3851   0.08841   0.08500  -0.0266  1.0000  0.0447  -1.4236   0.0000   0.0000   0.0000   0.1772
  -7.100  -0.3895   0.08774   0.08435  -0.0257  1.0000  0.0450  -1.4315   0.0000   0.0000   0.0000   0.1803
  -7.000  -0.3946   0.08712   0.08376  -0.0247  1.0000  0.0452  -1.4405   0.0000   0.0000   0.0000   0.1838
  -6.900  -0.4004   0.08654   0.08322  -0.0237  1.0000  0.0455  -1.4503   0.0000   0.0000   0.0000   0.1876
  -6.800  -0.4063   0.08597   0.08268  -0.0226  1.0000  0.0457  -1.4608   0.0000   0.0000   0.0000   0.1913
  -6.700  -0.4116   0.08531   0.08204  -0.0217  1.0000  0.0459  -1.4710   0.0000   0.0000   0.0000   0.1941
  -6.600  -0.4152   0.08446   0.08121  -0.0214  1.0000  0.0462  -1.4802   0.0000   0.0000   0.0000   0.1956
  -6.500  -0.4185   0.08355   0.08033  -0.0212  1.0000  0.0466  -1.4897   0.0000   0.0000   0.0000   0.1965
  -6.400  -0.4213   0.08259   0.07939  -0.0211  1.0000  0.0470  -1.4994   0.0000   0.0000   0.0000   0.1971
  -6.300  -0.4238   0.08158   0.07840  -0.0212  1.0000  0.0474  -1.5095   0.0000   0.0000   0.0000   0.1973
  -6.200  -0.4259   0.08051   0.07735  -0.0215  1.0000  0.0478  -1.5200   0.0000   0.0000   0.0000   0.1970
  -6.100  -0.4276   0.07939   0.07625  -0.0219  1.0000  0.0483  -1.5313   0.0000   0.0000   0.0000   0.1963
  -6.000  -0.4287   0.07821   0.07507  -0.0225  1.0000  0.0488  -1.5433   0.0000   0.0000   0.0000   0.1951
  -5.900  -0.4292   0.07695   0.07383  -0.0234  1.0000  0.0494  -1.5564   0.0000   0.0000   0.0000   0.1933
  -5.800  -0.4289   0.07562   0.07250  -0.0245  1.0000  0.0500  -1.5711   0.0000   0.0000   0.0000   0.1907
  -5.700  -0.4277   0.07421   0.07109  -0.0259  1.0000  0.0507  -1.5877   0.0000   0.0000   0.0000   0.1873
  -5.600  -0.4251   0.07274   0.06961  -0.0276  1.0000  0.0516  -1.6064   0.0000   0.0000   0.0000   0.1830
  -5.500  -0.4018   0.07022   0.06699  -0.0359  0.9980  0.0541  -1.6488   0.0000   0.0000   0.0000   0.1584
  -5.400  -0.3761   0.06906   0.06566  -0.0425  0.9958  0.0557  -1.6595   0.0000   0.0000   0.0000   0.1346
  -5.300  -0.3582   0.06739   0.06363  -0.0473  0.9933  0.0561  -1.6747   0.0000   0.0000   0.0000   0.1156
  -5.200  -0.3440   0.06527   0.06140  -0.0506  0.9913  0.0562  -1.6794   0.0000   0.0000   0.0000   0.1005
  -5.100  -0.3424   0.05675   0.05301  -0.0565  0.9897  0.0580  -1.8187   0.0000   0.0000   0.0000   0.0823
  -5.000  -0.3378   0.05416   0.05033  -0.0570  0.9887  0.0605  -1.7559   0.0000   0.0000   0.0000   0.0789
  -4.900  -0.3262   0.05283   0.04901  -0.0581  0.9877  0.0617  -1.6966   0.0000   0.0000   0.0000   0.0695
  -4.800  -0.3166   0.05157   0.04774  -0.0589  0.9854  0.0630  -1.6519   0.0000   0.0000   0.0000   0.0615
  -4.700  -0.3053   0.05021   0.04636  -0.0602  0.9833  0.0645  -1.6122   0.0000   0.0000   0.0000   0.0503
  -4.600  -0.2928   0.04876   0.04487  -0.0619  0.9813  0.0664  -1.5773   0.0000   0.0000   0.0000   0.0361
  -4.500  -0.2790   0.04720   0.04324  -0.0639  0.9796  0.0686  -1.5488   0.0000   0.0000   0.0000   0.0184
  -4.400  -0.2637   0.04554   0.04150  -0.0663  0.9780  0.0715  -1.5272   0.0000   0.0000   0.0000  -0.0039
  -4.300  -0.2462   0.04397   0.03979  -0.0689  0.9767  0.0754  -1.5126   0.0000   0.0000   0.0000  -0.0329
  -4.200  -0.2210   0.04559   0.04117  -0.0705  0.9752  0.0817  -1.4617   0.0000   0.0000   0.0000  -0.0722
  -4.100  -0.2058   0.04059   0.03584  -0.0755  0.9743  0.0851  -1.5225   0.0000   0.0000   0.0000  -0.1204
  -4.000  -0.1947   0.03745   0.03269  -0.0777  0.9737  0.0883  -1.4979   0.0000   0.0000   0.0000  -0.1524
  -3.900  -0.1832   0.03623   0.03150  -0.0783  0.9723  0.0902  -1.4514   0.0000   0.0000   0.0000  -0.1812
  -3.800  -0.1738   0.03522   0.03049  -0.0785  0.9696  0.0920  -1.4133   0.0000   0.0000   0.0000  -0.2055
  -3.700  -0.1614   0.03419   0.02942  -0.0792  0.9674  0.0943  -1.3745   0.0000   0.0000   0.0000  -0.2446
  -3.600  -0.1473   0.03313   0.02830  -0.0803  0.9654  0.0972  -1.3383   0.0000   0.0000   0.0000  -0.2991
  -3.500  -0.1317   0.03208   0.02715  -0.0815  0.9636  0.1005  -1.3054   0.0000   0.0000   0.0000  -0.3733
  -3.300  -0.0814   0.02316   0.01655  -0.0847  0.9646  0.0396  -1.7748   0.0000   0.0000   0.0000  -0.8001
  -3.200  -0.0648   0.02428   0.01763  -0.0845  0.9618  0.0351  -1.7022   0.0000   0.0000   0.0000  -1.0661
  -3.100  -0.0487   0.02145   0.01451  -0.0857  0.9620  0.0308  -1.7698   0.0000   0.0000   0.0000  -1.5274
  -3.000  -0.0324   0.02021   0.01306  -0.0865  0.9613  0.0286  -1.7730   0.0000   0.0000   0.0000  -2.4408
  -2.900  -0.0164   0.01919   0.01187  -0.0872  0.9605  0.0266  -1.7711   0.0000   0.0000   0.0000  -5.1207
  -2.800  -0.0006   0.01835   0.01087  -0.0878  0.9598  0.0250  -1.7624   0.0000   0.0000   0.0000  -153.9003
  -2.700   0.0152   0.01766   0.01006  -0.0884  0.9589  0.0236  -1.7435   0.0000   0.0000   0.0000   6.1234
  -2.600   0.0311   0.01712   0.00944  -0.0892  0.9580  0.0225  -1.7106   0.0000   0.0000   0.0000   3.1414
  -2.500   0.0472   0.01671   0.00897  -0.0900  0.9571  0.0218  -1.6615   0.0000   0.0000   0.0000   2.1697
  -2.400   0.0638   0.01638   0.00859  -0.0910  0.9561  0.0212  -1.6011   0.0000   0.0000   0.0000   1.6858
  -2.300   0.0809   0.01609   0.00825  -0.0921  0.9551  0.0209  -1.5346   0.0000   0.0000   0.0000   1.3965
  -2.200   0.0984   0.01583   0.00793  -0.0934  0.9542  0.0207  -1.4652   0.0000   0.0000   0.0000   1.2042
  -2.100   0.1056   0.01564   0.00770  -0.0925  0.9500  0.0207  -1.4212   0.0000   0.0000   0.0000   1.1308
  -2.000   0.1178   0.01543   0.00743  -0.0927  0.9468  0.0208  -1.3648   0.0000   0.0000   0.0000   1.0407
  -1.900   0.1318   0.01524   0.00717  -0.0932  0.9442  0.0212  -1.3036   0.0000   0.0000   0.0000   0.9602
  -1.800   0.1468   0.01507   0.00693  -0.0938  0.9420  0.0218  -1.2399   0.0000   0.0000   0.0000   0.8922
  -1.700   0.1621   0.01493   0.00671  -0.0946  0.9400  0.0230  -1.1748   0.0000   0.0000   0.0000   0.8357
  -1.600   0.1777   0.01480   0.00654  -0.0954  0.9382  0.0250  -1.1085   0.0000   0.0000   0.0000   0.7886
  -1.500   0.1938   0.01465   0.00640  -0.0963  0.9366  0.0291  -1.0397   0.0000   0.0000   0.0000   0.7484
  -1.400   0.2106   0.01418   0.00627  -0.0976  0.9354  0.1022  -0.9679   0.0000   0.0000   0.0000   0.7148
  -1.300   0.2275   0.01361   0.00620  -0.0991  0.9344  0.2323  -0.8868   0.0000   0.0000   0.0000   0.6869
  -1.200   0.2439   0.01291   0.00627  -0.1007  0.9335  0.4257  -0.7949   0.0000   0.0000   0.0000   0.6638
  -1.100   0.2593   0.01246   0.00636  -0.1016  0.9324  0.5579  -0.6906   0.0000   0.0000   0.0000   0.6424
  -1.000   0.2548   0.01148   0.00670  -0.0962  0.9311  0.9523  -0.5900   0.0000   0.0000   0.0000   0.6280
  -0.900   0.2763   0.01139   0.00657  -0.0983  0.9302  1.0000  -0.5183   0.0000   0.0000   0.0000   0.6061
  -0.800   0.2772   0.01144   0.00658  -0.0963  0.9233  1.0000  -0.4934   0.0000   0.0000   0.0000   0.5979
  -0.700   0.2892   0.01144   0.00653  -0.0966  0.9198  1.0000  -0.4452   0.0000   0.0000   0.0000   0.5841
  -0.600   0.3031   0.01143   0.00647  -0.0971  0.9171  1.0000  -0.4508   0.0000   0.0000   0.0000   0.5706
  -0.500   0.3181   0.01139   0.00639  -0.0979  0.9147  1.0000  -0.4604   0.0000   0.0000   0.0000   0.5578
  -0.400   0.3341   0.01134   0.00630  -0.0989  0.9126  1.0000  -0.4713   0.0000   0.0000   0.0000   0.5457
  -0.300   0.3508   0.01127   0.00619  -0.1000  0.9108  1.0000  -0.4826   0.0000   0.0000   0.0000   0.5346
  -0.200   0.3682   0.01119   0.00607  -0.1011  0.9092  1.0000  -0.4943   0.0000   0.0000   0.0000   0.5242
  -0.100   0.3859   0.01111   0.00595  -0.1024  0.9078  1.0000  -0.5074   0.0000   0.0000   0.0000   0.5148
   0.000   0.4036   0.01102   0.00583  -0.1036  0.9064  1.0000  -0.5208   0.0000   0.0000   0.0000   0.5061
   0.100   0.4210   0.01094   0.00571  -0.1048  0.9051  1.0000  -0.5340   0.0000   0.0000   0.0000   0.4982
   0.200   0.4384   0.01085   0.00561  -0.1060  0.9038  1.0000  -0.5473   0.0000   0.0000   0.0000   0.4909
   0.300   0.4560   0.01077   0.00550  -0.1072  0.9024  1.0000  -0.5608   0.0000   0.0000   0.0000   0.4841
   0.400   0.4604   0.01084   0.00555  -0.1058  0.8963  1.0000  -0.5671   0.0000   0.0000   0.0000   0.4789
   0.500   0.4698   0.01083   0.00553  -0.1054  0.8913  1.0000  -0.5771   0.0000   0.0000   0.0000   0.4733
   0.600   0.4825   0.01078   0.00546  -0.1056  0.8875  1.0000  -0.5893   0.0000   0.0000   0.0000   0.4678
   0.700   0.4963   0.01071   0.00538  -0.1061  0.8844  1.0000  -0.6022   0.0000   0.0000   0.0000   0.4625
   0.800   0.5110   0.01063   0.00528  -0.1066  0.8817  1.0000  -0.6167   0.0000   0.0000   0.0000   0.4574
   0.900   0.5263   0.01053   0.00518  -0.1074  0.8791  1.0000  -0.6327   0.0000   0.0000   0.0000   0.4526
   1.000   0.5421   0.01043   0.00506  -0.1081  0.8766  1.0000  -0.6491   0.0000   0.0000   0.0000   0.4480
   1.100   0.5580   0.01032   0.00494  -0.1089  0.8742  1.0000  -0.6657   0.0000   0.0000   0.0000   0.4437
   1.200   0.5741   0.01021   0.00482  -0.1097  0.8716  1.0000  -0.6824   0.0000   0.0000   0.0000   0.4395
   1.300   0.5884   0.01016   0.00475  -0.1102  0.8683  1.0000  -0.6996   0.0000   0.0000   0.0000   0.4357
   1.400   0.5945   0.01020   0.00480  -0.1092  0.8618  1.0000  -0.7111   0.0000   0.0000   0.0000   0.4319
   1.500   0.6047   0.01018   0.00478  -0.1089  0.8563  1.0000  -0.7260   0.0000   0.0000   0.0000   0.4282
   1.600   0.6169   0.01012   0.00471  -0.1089  0.8515  1.0000  -0.7425   0.0000   0.0000   0.0000   0.4247
   1.700   0.6300   0.01005   0.00463  -0.1092  0.8470  1.0000  -0.7599   0.0000   0.0000   0.0000   0.4213
   1.800   0.6437   0.00997   0.00454  -0.1095  0.8429  1.0000  -0.7796   0.0000   0.0000   0.0000   0.4181
   1.900   0.6582   0.00989   0.00445  -0.1100  0.8390  1.0000  -0.8016   0.0000   0.0000   0.0000   0.4150
   2.000   0.6734   0.00982   0.00436  -0.1106  0.8351  1.0000  -0.8242   0.0000   0.0000   0.0000   0.4121
   2.100   0.6841   0.00983   0.00441  -0.1104  0.8303  1.0000  -0.8426   0.0000   0.0000   0.0000   0.4092
   2.200   0.6925   0.00985   0.00443  -0.1098  0.8238  1.0000  -0.8589   0.0000   0.0000   0.0000   0.4062
   2.300   0.7027   0.00984   0.00442  -0.1095  0.8172  1.0000  -0.8771   0.0000   0.0000   0.0000   0.4034
   2.400   0.7140   0.00980   0.00437  -0.1094  0.8108  1.0000  -0.8977   0.0000   0.0000   0.0000   0.4007
   2.500   0.7269   0.00975   0.00429  -0.1095  0.8049  1.0000  -0.9231   0.0000   0.0000   0.0000   0.3981
   2.600   0.7406   0.00970   0.00421  -0.1098  0.7992  1.0000  -0.9497   0.0000   0.0000   0.0000   0.3956
   2.700   0.7537   0.00970   0.00417  -0.1101  0.7931  1.0000  -0.9779   0.0000   0.0000   0.0000   0.3933
   2.800   0.7620   0.00974   0.00423  -0.1095  0.7860  1.0000  -1.0029   0.0000   0.0000   0.0000   0.3908
   2.900   0.7715   0.00975   0.00426  -0.1090  0.7782  1.0000  -1.0299   0.0000   0.0000   0.0000   0.3884
   3.000   0.7825   0.00975   0.00424  -0.1089  0.7705  1.0000  -1.0592   0.0000   0.0000   0.0000   0.3862
   3.100   0.7944   0.00974   0.00420  -0.1088  0.7629  1.0000  -1.0901   0.0000   0.0000   0.0000   0.3840
   3.200   0.8074   0.00974   0.00412  -0.1090  0.7536  1.0000  -1.1228   0.0000   0.0000   0.0000   0.3818
   3.300   0.8159   0.00976   0.00415  -0.1083  0.7427  1.0000  -1.1492   0.0000   0.0000   0.0000   0.3795
   3.400   0.8252   0.00976   0.00412  -0.1077  0.7286  1.0000  -1.1772   0.0000   0.0000   0.0000   0.3772
   3.500   0.8363   0.00977   0.00400  -0.1074  0.7119  1.0000  -1.2081   0.0000   0.0000   0.0000   0.3750
   3.600   0.8450   0.00981   0.00400  -0.1067  0.6954  1.0000  -1.2429   0.0000   0.0000   0.0000   0.3728
   3.700   0.8539   0.00987   0.00394  -0.1060  0.6736  1.0000  -1.2944   0.0000   0.0000   0.0000   0.3705
   3.800   0.8628   0.00997   0.00392  -0.1053  0.6511  1.0000  -1.3465   0.0000   0.0000   0.0000   0.3684
   3.900   0.8708   0.01010   0.00390  -0.1045  0.6238  1.0000  -1.3973   0.0000   0.0000   0.0000   0.3662
   4.000   0.8789   0.01025   0.00392  -0.1038  0.5977  1.0000  -1.4617   0.0000   0.0000   0.0000   0.3642
   4.100   0.8864   0.01046   0.00394  -0.1030  0.5690  1.0000  -1.5407   0.0000   0.0000   0.0000   0.3622
   4.200   0.8948   0.01062   0.00401  -0.1024  0.5459  1.0000  -1.6240   0.0000   0.0000   0.0000   0.3603
   4.300   0.9031   0.01080   0.00408  -0.1018  0.5258  1.0000  -1.7080   0.0000   0.0000   0.0000   0.3586
   4.400   0.9117   0.01098   0.00417  -0.1013  0.5085  1.0000  -1.7936   0.0000   0.0000   0.0000   0.3568
   4.500   0.9204   0.01115   0.00427  -0.1008  0.4882  1.0000  -1.8810   0.0000   0.0000   0.0000   0.3552
   4.700   0.9366   0.01157   0.00448  -0.0997  0.4470  1.0000  -2.0532   0.0000   0.0000   0.0000   0.3519
   4.800   0.9441   0.01183   0.00461  -0.0991  0.4248  1.0000  -2.1376   0.0000   0.0000   0.0000   0.3503
   4.900   0.9525   0.01204   0.00473  -0.0986  0.4058  1.0000  -2.2261   0.0000   0.0000   0.0000   0.3487
   5.000   0.9603   0.01229   0.00487  -0.0980  0.3828  1.0000  -2.3127   0.0000   0.0000   0.0000   0.3472
   5.100   0.9677   0.01257   0.00502  -0.0974  0.3606  1.0000  -2.3973   0.0000   0.0000   0.0000   0.3457
   5.200   0.9752   0.01286   0.00518  -0.0968  0.3347  1.0000  -2.4817   0.0000   0.0000   0.0000   0.3442
   5.300   0.9824   0.01317   0.00536  -0.0962  0.3102  1.0000  -2.5638   0.0000   0.0000   0.0000   0.3427
   5.400   0.9892   0.01354   0.00556  -0.0955  0.2818  1.0000  -2.6422   0.0000   0.0000   0.0000   0.3413
   5.500   0.9960   0.01393   0.00578  -0.0949  0.2506  1.0000  -2.7181   0.0000   0.0000   0.0000   0.3399
   5.600   0.9998   0.01461   0.00609  -0.0939  0.1991  1.0000  -2.7790   0.0000   0.0000   0.0000   0.3384
   5.700   1.0045   0.01525   0.00643  -0.0930  0.1527  1.0000  -2.8402   0.0000   0.0000   0.0000   0.3370
   5.800   1.0104   0.01581   0.00677  -0.0923  0.1180  1.0000  -2.9002   0.0000   0.0000   0.0000   0.3356
   5.900   1.0150   0.01654   0.00720  -0.0914  0.0740  1.0000  -2.9480   0.0000   0.0000   0.0000   0.3343
   6.000   1.0186   0.01742   0.00775  -0.0903  0.0332  1.0000  -2.9851   0.0000   0.0000   0.0000   0.3328
   6.100   1.0262   0.01784   0.00814  -0.0897  0.0253  1.0000  -3.0302   0.0000   0.0000   0.0000   0.3314
   6.200   1.0609   0.01520   0.00778  -0.0929  0.2051  1.0000  -3.5982   0.0000   0.0000   0.0000   0.3314
   6.300   1.0686   0.01552   0.00805  -0.0924  0.1888  1.0000  -3.7058   0.0000   0.0000   0.0000   0.3302
   6.400   1.0750   0.01597   0.00835  -0.0917  0.1641  1.0000  -3.7963   0.0000   0.0000   0.0000   0.3289
   6.500   1.0808   0.01651   0.00870  -0.0910  0.1322  1.0000  -3.8596   0.0000   0.0000   0.0000   0.3277
   6.600   1.0761   0.01833   0.00971  -0.0887  0.0390  1.0000  -3.7497   0.0000   0.0000   0.0000   0.3259
   6.700   1.0800   0.01928   0.01064  -0.0872  0.0265  1.0000  -3.6803   0.0000   0.0000   0.0000   0.3240
   6.800   1.0872   0.01975   0.01122  -0.0864  0.0249  1.0000  -3.7136   0.0000   0.0000   0.0000   0.3226
   6.900   1.0941   0.02023   0.01179  -0.0856  0.0239  1.0000  -3.7523   0.0000   0.0000   0.0000   0.3213
   7.000   1.1006   0.02073   0.01239  -0.0847  0.0232  1.0000  -3.7931   0.0000   0.0000   0.0000   0.3199
   7.100   1.1069   0.02126   0.01300  -0.0838  0.0227  1.0000  -3.8349   0.0000   0.0000   0.0000   0.3185
   7.200   1.1128   0.02183   0.01364  -0.0829  0.0223  1.0000  -3.8763   0.0000   0.0000   0.0000   0.3172
   7.300   1.1187   0.02242   0.01431  -0.0819  0.0221  1.0000  -3.9173   0.0000   0.0000   0.0000   0.3158
   7.400   1.1246   0.02304   0.01500  -0.0810  0.0219  1.0000  -3.9578   0.0000   0.0000   0.0000   0.3145
   7.500   1.1305   0.02371   0.01574  -0.0800  0.0218  1.0000  -3.9973   0.0000   0.0000   0.0000   0.3132
   7.600   1.1366   0.02442   0.01652  -0.0792  0.0217  1.0000  -4.0364   0.0000   0.0000   0.0000   0.3119
   7.700   1.1431   0.02518   0.01735  -0.0783  0.0217  1.0000  -4.0746   0.0000   0.0000   0.0000   0.3106
   7.800   1.1502   0.02600   0.01824  -0.0776  0.0217  1.0000  -4.1122   0.0000   0.0000   0.0000   0.3094
   7.900   1.1578   0.02688   0.01921  -0.0769  0.0218  1.0000  -4.1488   0.0000   0.0000   0.0000   0.3083
   8.000   1.1660   0.02785   0.02027  -0.0763  0.0220  1.0000  -4.1841   0.0000   0.0000   0.0000   0.3072
   8.100   1.1747   0.02890   0.02142  -0.0758  0.0222  1.0000  -4.2175   0.0000   0.0000   0.0000   0.3062
   8.200   1.1836   0.03005   0.02269  -0.0753  0.0225  1.0000  -4.2476   0.0000   0.0000   0.0000   0.3052
   8.300   1.1926   0.03130   0.02407  -0.0749  0.0228  1.0000  -4.2729   0.0000   0.0000   0.0000   0.3042
   8.400   1.2013   0.03265   0.02557  -0.0743  0.0232  1.0000  -4.2936   0.0000   0.0000   0.0000   0.3032
   8.500   1.2094   0.03409   0.02716  -0.0738  0.0236  1.0000  -4.3096   0.0000   0.0000   0.0000   0.3022
   8.600   1.2167   0.03561   0.02884  -0.0731  0.0241  1.0000  -4.3210   0.0000   0.0000   0.0000   0.3011
   8.700   1.2231   0.03721   0.03061  -0.0724  0.0245  1.0000  -4.3283   0.0000   0.0000   0.0000   0.3001
   8.800   1.2285   0.03890   0.03247  -0.0715  0.0250  1.0000  -4.3309   0.0000   0.0000   0.0000   0.2991
   8.900   1.2326   0.04067   0.03441  -0.0706  0.0255  1.0000  -4.3281   0.0000   0.0000   0.0000   0.2980
   9.000   1.2355   0.04256   0.03648  -0.0695  0.0261  1.0000  -4.3192   0.0000   0.0000   0.0000   0.2969
   9.100   1.2368   0.04461   0.03870  -0.0683  0.0266  1.0000  -4.3021   0.0000   0.0000   0.0000   0.2958
   9.200   1.2363   0.04693   0.04121  -0.0671  0.0271  1.0000  -4.2717   0.0000   0.0000   0.0000   0.2947
   9.400   1.2542   0.04919   0.04358  -0.0662  0.0302  1.0000  -4.3396   0.0000   0.0000   0.0000   0.2930
   9.600   1.2359   0.05632   0.05172  -0.0602  0.0395  1.0000  -3.9221   0.0000   0.0000   0.0000   0.2889
   9.700   1.2283   0.05907   0.05464  -0.0586  0.0414  1.0000  -3.8579   0.0000   0.0000   0.0000   0.2878
   9.800   1.2198   0.06169   0.05739  -0.0571  0.0428  1.0000  -3.8062   0.0000   0.0000   0.0000   0.2868
   9.900   1.2090   0.06451   0.06032  -0.0556  0.0440  1.0000  -3.7493   0.0000   0.0000   0.0000   0.2859
  11.200   1.0535   0.09662   0.09372  -0.0530  0.0645  1.0000  -2.9433   0.0000   0.0000   0.0000   0.2891
  11.300   1.0433   0.09953   0.09668  -0.0554  0.0638  1.0000  -2.8981   0.0000   0.0000   0.0000   0.2917
  11.400   1.0326   0.10299   0.10018  -0.0583  0.0628  1.0000  -2.8424   0.0000   0.0000   0.0000   0.2950
  11.500   1.0219   0.10714   0.10435  -0.0619  0.0617  1.0000  -2.7741   0.0000   0.0000   0.0000   0.2991
  11.600   1.0117   0.11210   0.10933  -0.0661  0.0604  1.0000  -2.6911   0.0000   0.0000   0.0000   0.3038
  11.700   1.0036   0.11682   0.11404  -0.0696  0.0596  1.0000  -2.6137   0.0000   0.0000   0.0000   0.3078
  11.800   0.9971   0.12084   0.11804  -0.0722  0.0594  1.0000  -2.5499   0.0000   0.0000   0.0000   0.3109
  11.900   0.9916   0.12449   0.12167  -0.0745  0.0594  1.0000  -2.4936   0.0000   0.0000   0.0000   0.3136
  12.000   0.9869   0.12787   0.12504  -0.0766  0.0594  1.0000  -2.4433   0.0000   0.0000   0.0000   0.3159
  12.100   0.9828   0.13105   0.12821  -0.0784  0.0593  1.0000  -2.3978   0.0000   0.0000   0.0000   0.3181
  12.200   0.9791   0.13409   0.13123  -0.0802  0.0591  1.0000  -2.3555   0.0000   0.0000   0.0000   0.3202
  12.300   0.9759   0.13697   0.13410  -0.0819  0.0589  1.0000  -2.3176   0.0000   0.0000   0.0000   0.3221
  12.400   0.9733   0.13970   0.13682  -0.0834  0.0586  1.0000  -2.2835   0.0000   0.0000   0.0000   0.3238
  12.500   0.9710   0.14231   0.13942  -0.0849  0.0583  1.0000  -2.2529   0.0000   0.0000   0.0000   0.3255
  12.600   0.9692   0.14481   0.14191  -0.0863  0.0579  1.0000  -2.2255   0.0000   0.0000   0.0000   0.3270
  12.700   0.9677   0.14718   0.14428  -0.0876  0.0575  1.0000  -2.2012   0.0000   0.0000   0.0000   0.3284
  12.800   0.9666   0.14938   0.14647  -0.0889  0.0570  1.0000  -2.1798   0.0000   0.0000   0.0000   0.3297
  12.900   0.9657   0.15147   0.14855  -0.0900  0.0565  1.0000  -2.1611   0.0000   0.0000   0.0000   0.3309
  13.000   0.9652   0.15350   0.15057  -0.0912  0.0560  1.0000  -2.1450   0.0000   0.0000   0.0000   0.3320
  13.100   0.9649   0.15548   0.15255  -0.0922  0.0556  1.0000  -2.1312   0.0000   0.0000   0.0000   0.3331
  13.200   0.9649   0.15742   0.15449  -0.0932  0.0551  1.0000  -2.1197   0.0000   0.0000   0.0000   0.3340
  13.300   0.9651   0.15933   0.15639  -0.0942  0.0546  1.0000  -2.1105   0.0000   0.0000   0.0000   0.3349
  13.400   0.9656   0.16121   0.15827  -0.0951  0.0541  1.0000  -2.1037   0.0000   0.0000   0.0000   0.3357
  13.500   0.9663   0.16306   0.16011  -0.0960  0.0536  1.0000  -2.0991   0.0000   0.0000   0.0000   0.3364
  13.600   0.9672   0.16487   0.16193  -0.0968  0.0531  1.0000  -2.0970   0.0000   0.0000   0.0000   0.3370
  13.700   0.9684   0.16665   0.16370  -0.0975  0.0527  1.0000  -2.0976   0.0000   0.0000   0.0000   0.3375
  13.800   0.9698   0.16839   0.16544  -0.0982  0.0522  1.0000  -2.1009   0.0000   0.0000   0.0000   0.3379
  13.900   0.9715   0.17009   0.16714  -0.0988  0.0517  1.0000  -2.1073   0.0000   0.0000   0.0000   0.3383
  14.000   0.9734   0.17176   0.16882  -0.0994  0.0513  1.0000  -2.1165   0.0000   0.0000   0.0000   0.3385
  14.100   0.9753   0.17342   0.17047  -0.0999  0.0508  1.0000  -2.1273   0.0000   0.0000   0.0000   0.3387
  14.200   0.9775   0.17504   0.17210  -0.1003  0.0504  1.0000  -2.1415   0.0000   0.0000   0.0000   0.3387
  14.300   0.9799   0.17664   0.17371  -0.1006  0.0500  1.0000  -2.1594   0.0000   0.0000   0.0000   0.3387
  14.400   0.9826   0.17823   0.17530  -0.1009  0.0495  1.0000  -2.1813   0.0000   0.0000   0.0000   0.3385
  14.500   0.9856   0.17982   0.17691  -0.1009  0.0491  1.0000  -2.2075   0.0000   0.0000   0.0000   0.3381
  14.600   0.9880   0.18166   0.17874  -0.1011  0.0485  1.0000  -2.2296   0.0000   0.0000   0.0000   0.3378
  14.700   0.9876   0.18434   0.18143  -0.1016  0.0479  1.0000  -2.2267   0.0000   0.0000   0.0000   0.3383
  14.800   0.9732   0.19341   0.19043  -0.1042  0.0464  1.0000  -2.0532   0.0000   0.0000   0.0000   0.3425
  14.900   0.9742   0.19571   0.19272  -0.1053  0.0463  1.0000  -2.0369   0.0000   0.0000   0.0000   0.3434
  15.000   0.9752   0.19798   0.19499  -0.1064  0.0463  1.0000  -2.0211   0.0000   0.0000   0.0000   0.3443
  15.100   0.9762   0.20024   0.19724  -0.1074  0.0463  1.0000  -2.0058   0.0000   0.0000   0.0000   0.3452
  15.200   0.9773   0.20247   0.19947  -0.1085  0.0462  1.0000  -1.9910   0.0000   0.0000   0.0000   0.3460
  15.300   0.9784   0.20467   0.20167  -0.1096  0.0462  1.0000  -1.9767   0.0000   0.0000   0.0000   0.3469
  15.400   0.9796   0.20685   0.20385  -0.1106  0.0462  1.0000  -1.9628   0.0000   0.0000   0.0000   0.3477
  15.500   0.9808   0.20899   0.20599  -0.1117  0.0461  1.0000  -1.9493   0.0000   0.0000   0.0000   0.3485
  15.600   0.9820   0.21110   0.20809  -0.1127  0.0460  1.0000  -1.9362   0.0000   0.0000   0.0000   0.3493
  15.700   0.9833   0.21315   0.21015  -0.1138  0.0459  1.0000  -1.9236   0.0000   0.0000   0.0000   0.3502
  15.800   0.9846   0.21514   0.21213  -0.1149  0.0458  1.0000  -1.9115   0.0000   0.0000   0.0000   0.3510
  15.900   0.9860   0.21703   0.21402  -0.1160  0.0457  1.0000  -1.8998   0.0000   0.0000   0.0000   0.3518
  16.000   0.9876   0.21877   0.21576  -0.1171  0.0455  1.0000  -1.8883   0.0000   0.0000   0.0000   0.3527
  16.100   0.9894   0.22030   0.21729  -0.1183  0.0451  1.0000  -1.8766   0.0000   0.0000   0.0000   0.3536
  16.200   0.9900   0.22180   0.21879  -0.1200  0.0444  1.0000  -1.8497   0.0000   0.0000   0.0000   0.3551
  16.300   0.9900   0.22349   0.22047  -0.1218  0.0436  1.0000  -1.8162   0.0000   0.0000   0.0000   0.3567
  16.400   0.9900   0.22541   0.22239  -0.1234  0.0428  1.0000  -1.7868   0.0000   0.0000   0.0000   0.3582
  16.500   0.9907   0.22749   0.22446  -0.1246  0.0420  1.0000  -1.7653   0.0000   0.0000   0.0000   0.3593
  16.600   0.9916   0.22962   0.22659  -0.1258  0.0412  1.0000  -1.7493   0.0000   0.0000   0.0000   0.3602
  16.700   0.9927   0.23176   0.22873  -0.1268  0.0405  1.0000  -1.7371   0.0000   0.0000   0.0000   0.3610
  16.800   0.9939   0.23392   0.23089  -0.1277  0.0398  1.0000  -1.7274   0.0000   0.0000   0.0000   0.3616
  16.900   0.9951   0.23607   0.23304  -0.1286  0.0392  1.0000  -1.7197   0.0000   0.0000   0.0000   0.3622
  17.000   0.9964   0.23821   0.23519  -0.1295  0.0386  1.0000  -1.7135   0.0000   0.0000   0.0000   0.3628
  17.100   0.9977   0.24035   0.23733  -0.1303  0.0380  1.0000  -1.7085   0.0000   0.0000   0.0000   0.3633
  17.200   0.9991   0.24249   0.23946  -0.1311  0.0374  1.0000  -1.7048   0.0000   0.0000   0.0000   0.3638
  17.300   1.0004   0.24461   0.24160  -0.1319  0.0369  1.0000  -1.7021   0.0000   0.0000   0.0000   0.3642
  17.400   1.0017   0.24673   0.24372  -0.1326  0.0364  1.0000  -1.7004   0.0000   0.0000   0.0000   0.3646
  17.500   1.0031   0.24883   0.24582  -0.1333  0.0358  1.0000  -1.7006   0.0000   0.0000   0.0000   0.3650
  17.600   1.0046   0.25087   0.24786  -0.1340  0.0352  1.0000  -1.7044   0.0000   0.0000   0.0000   0.3654
  17.700   1.0062   0.25282   0.24981  -0.1346  0.0345  1.0000  -1.7137   0.0000   0.0000   0.0000   0.3656
  17.800   1.0080   0.25460   0.25160  -0.1351  0.0337  1.0000  -1.7333   0.0000   0.0000   0.0000   0.3656
  17.900   1.0108   0.25601   0.25302  -0.1352  0.0325  1.0000  -1.7780   0.0000   0.0000   0.0000   0.3652
  18.000   1.0185   0.25833   0.25539  -0.1312  0.0289  1.0000  -2.0157   0.0000   0.0000   0.0000   0.3599
  18.100   1.0127   0.26498   0.26199  -0.1325  0.0284  1.0000  -1.8975   0.0000   0.0000   0.0000   0.3619
  18.200   1.0132   0.26714   0.26415  -0.1335  0.0284  1.0000  -1.8827   0.0000   0.0000   0.0000   0.3626
  18.300   1.0138   0.26926   0.26627  -0.1344  0.0283  1.0000  -1.8685   0.0000   0.0000   0.0000   0.3634
  18.400   1.0143   0.27134   0.26836  -0.1353  0.0283  1.0000  -1.8552   0.0000   0.0000   0.0000   0.3641
  18.500   1.0148   0.27342   0.27044  -0.1362  0.0282  1.0000  -1.8426   0.0000   0.0000   0.0000   0.3648
  18.600   1.0154   0.27554   0.27256  -0.1371  0.0281  1.0000  -1.8309   0.0000   0.0000   0.0000   0.3654
  18.700   1.0159   0.27770   0.27472  -0.1379  0.0281  1.0000  -1.8196   0.0000   0.0000   0.0000   0.3660
  18.800   1.0164   0.27980   0.27683  -0.1387  0.0280  1.0000  -1.8083   0.0000   0.0000   0.0000   0.3666
  19.200   1.0176   0.28853   0.28566  -0.1415  0.0278  1.0000  -1.7615   0.0000   0.0000   0.0000   0.3686
  19.300   1.0176   0.29033   0.28747  -0.1423  0.0276  1.0000  -1.7490   0.0000   0.0000   0.0000   0.3693
  19.400   1.0165   0.29201   0.28916  -0.1435  0.0274  1.0000  -1.7238   0.0000   0.0000   0.0000   0.3704
  19.500   1.0150   0.29361   0.29075  -0.1449  0.0269  1.0000  -1.6878   0.0000   0.0000   0.0000   0.3719
  19.600   1.0141   0.29535   0.29249  -0.1464  0.0259  1.0000  -1.6462   0.0000   0.0000   0.0000   0.3734
  19.700   1.0137   0.29742   0.29457  -0.1475  0.0247  1.0000  -1.6179   0.0000   0.0000   0.0000   0.3744
  19.800   1.0131   0.29954   0.29669  -0.1482  0.0236  1.0000  -1.6033   0.0000   0.0000   0.0000   0.3750
  19.900   1.0121   0.30157   0.29873  -0.1487  0.0225  1.0000  -1.5958   0.0000   0.0000   0.0000   0.3756
  20.000   1.0107   0.30350   0.30066  -0.1491  0.0216  1.0000  -1.5929   0.0000   0.0000   0.0000   0.3760
  20.100   1.0090   0.30529   0.30247  -0.1494  0.0207  1.0000  -1.5934   0.0000   0.0000   0.0000   0.3765
  20.200   1.0069   0.30694   0.30413  -0.1497  0.0199  1.0000  -1.5966   0.0000   0.0000   0.0000   0.3769
  20.300   1.0041   0.30838   0.30559  -0.1498  0.0192  1.0000  -1.6022   0.0000   0.0000   0.0000   0.3772
  20.400   0.9633   0.30255   0.29985  -0.1454  0.0195  1.0000  -1.4858   0.0000   0.0000   0.0000   0.3794
  20.500   0.9528   0.30152   0.29885  -0.1445  0.0191  1.0000  -1.4670   0.0000   0.0000   0.0000   0.3801
  20.600   0.9459   0.30109   0.29845  -0.1440  0.0185  1.0000  -1.4622   0.0000   0.0000   0.0000   0.3806
  20.700   0.9405   0.30087   0.29824  -0.1437  0.0180  1.0000  -1.4657   0.0000   0.0000   0.0000   0.3810
  20.800   0.9361   0.30073   0.29812  -0.1433  0.0175  1.0000  -1.4766   0.0000   0.0000   0.0000   0.3813
  20.900   0.9325   0.30062   0.29803  -0.1430  0.0171  1.0000  -1.4950   0.0000   0.0000   0.0000   0.3814
  21.000   0.9294   0.30051   0.29794  -0.1426  0.0166  1.0000  -1.5221   0.0000   0.0000   0.0000   0.3813
  21.100   0.9269   0.30039   0.29784  -0.1421  0.0162  1.0000  -1.5608   0.0000   0.0000   0.0000   0.3810
  21.200   0.9253   0.30038   0.29786  -0.1412  0.0157  1.0000  -1.6166   0.0000   0.0000   0.0000   0.3802
  21.300   0.9192   0.30112   0.29861  -0.1403  0.0152  1.0000  -1.6088   0.0000   0.0000   0.0000   0.3801
  21.500   0.9049   0.30365   0.30112  -0.1400  0.0147  1.0000  -1.4599   0.0000   0.0000   0.0000   0.3822
  21.600   0.9024   0.30423   0.30171  -0.1401  0.0147  1.0000  -1.4433   0.0000   0.0000   0.0000   0.3827
  21.700   0.9002   0.30482   0.30231  -0.1404  0.0147  1.0000  -1.4273   0.0000   0.0000   0.0000   0.3832
  21.800   0.8981   0.30543   0.30292  -0.1406  0.0147  1.0000  -1.4121   0.0000   0.0000   0.0000   0.3837
  21.900   0.8961   0.30603   0.30354  -0.1408  0.0147  1.0000  -1.3972   0.0000   0.0000   0.0000   0.3842
  22.000   0.8942   0.30665   0.30416  -0.1410  0.0147  1.0000  -1.3828   0.0000   0.0000   0.0000   0.3847
  22.100   0.8924   0.30727   0.30479  -0.1413  0.0147  1.0000  -1.3689   0.0000   0.0000   0.0000   0.3852
  22.200   0.8908   0.30790   0.30543  -0.1415  0.0147  1.0000  -1.3554   0.0000   0.0000   0.0000   0.3857
  22.300   0.8892   0.30854   0.30607  -0.1418  0.0146  1.0000  -1.3424   0.0000   0.0000   0.0000   0.3861
  22.400   0.8877   0.30918   0.30672  -0.1421  0.0146  1.0000  -1.3297   0.0000   0.0000   0.0000   0.3866
  22.500   0.8863   0.30982   0.30737  -0.1424  0.0146  1.0000  -1.3175   0.0000   0.0000   0.0000   0.3870
  22.600   0.8850   0.31047   0.30803  -0.1427  0.0146  1.0000  -1.3055   0.0000   0.0000   0.0000   0.3875
  22.700   0.8837   0.31111   0.30868  -0.1430  0.0146  1.0000  -1.2936   0.0000   0.0000   0.0000   0.3879
  22.800   0.8824   0.31176   0.30933  -0.1433  0.0146  1.0000  -1.2819   0.0000   0.0000   0.0000   0.3884
  22.900   0.8812   0.31240   0.30998  -0.1436  0.0145  1.0000  -1.2705   0.0000   0.0000   0.0000   0.3888
  23.000   0.8801   0.31305   0.31064  -0.1439  0.0145  1.0000  -1.2593   0.0000   0.0000   0.0000   0.3893
  23.100   0.8791   0.31369   0.31129  -0.1443  0.0145  1.0000  -1.2484   0.0000   0.0000   0.0000   0.3897
  23.200   0.8781   0.31434   0.31194  -0.1446  0.0145  1.0000  -1.2378   0.0000   0.0000   0.0000   0.3902
  23.300   0.8771   0.31498   0.31258  -0.1450  0.0144  1.0000  -1.2268   0.0000   0.0000   0.0000   0.3906
  23.400   0.8762   0.31561   0.31323  -0.1453  0.0144  1.0000  -1.2158   0.0000   0.0000   0.0000   0.3911
  23.500   0.8753   0.31625   0.31387  -0.1457  0.0144  1.0000  -1.2049   0.0000   0.0000   0.0000   0.3915
  23.600   0.8743   0.31688   0.31450  -0.1461  0.0143  1.0000  -1.1924   0.0000   0.0000   0.0000   0.3921
  23.700   0.8734   0.31751   0.31514  -0.1466  0.0143  1.0000  -1.1787   0.0000   0.0000   0.0000   0.3926
  23.800   0.8725   0.31815   0.31578  -0.1471  0.0142  1.0000  -1.1649   0.0000   0.0000   0.0000   0.3932
  23.900   0.8718   0.31881   0.31645  -0.1475  0.0141  1.0000  -1.1509   0.0000   0.0000   0.0000   0.3937
  24.000   0.8711   0.31949   0.31714  -0.1481  0.0140  1.0000  -1.1366   0.0000   0.0000   0.0000   0.3943
  24.100   0.8706   0.32021   0.31787  -0.1486  0.0139  1.0000  -1.1218   0.0000   0.0000   0.0000   0.3949
  24.200   0.8703   0.32099   0.31865  -0.1492  0.0138  1.0000  -1.1062   0.0000   0.0000   0.0000   0.3954
  24.300   0.8702   0.32183   0.31949  -0.1498  0.0136  1.0000  -1.0900   0.0000   0.0000   0.0000   0.3960
  24.400   0.8701   0.32271   0.32038  -0.1503  0.0133  1.0000  -1.0739   0.0000   0.0000   0.0000   0.3965
  24.500   0.8701   0.32361   0.32129  -0.1508  0.0130  1.0000  -1.0592   0.0000   0.0000   0.0000   0.3969
  24.600   0.8700   0.32449   0.32217  -0.1513  0.0128  1.0000  -1.0467   0.0000   0.0000   0.0000   0.3973
  24.700   0.8698   0.32533   0.32302  -0.1517  0.0125  1.0000  -1.0361   0.0000   0.0000   0.0000   0.3977
  24.800   0.8696   0.32615   0.32384  -0.1521  0.0122  1.0000  -1.0271   0.0000   0.0000   0.0000   0.3980
  24.900   0.8693   0.32695   0.32465  -0.1524  0.0120  1.0000  -1.0192   0.0000   0.0000   0.0000   0.3983
  25.000   0.8690   0.32773   0.32544  -0.1528  0.0117  1.0000  -1.0121   0.0000   0.0000   0.0000   0.3986
  25.100   0.8687   0.32851   0.32622  -0.1531  0.0115  1.0000  -1.0057   0.0000   0.0000   0.0000   0.3989
  25.200   0.8684   0.32927   0.32700  -0.1535  0.0113  1.0000  -0.9999   0.0000   0.0000   0.0000   0.3992
  25.300   0.8681   0.33004   0.32777  -0.1538  0.0111  1.0000  -0.9945   0.0000   0.0000   0.0000   0.3995
  25.400   0.8678   0.33080   0.32853  -0.1541  0.0109  1.0000  -0.9895   0.0000   0.0000   0.0000   0.3998
  25.500   0.8675   0.33155   0.32929  -0.1545  0.0107  1.0000  -0.9848   0.0000   0.0000   0.0000   0.4000
  25.600   0.8672   0.33231   0.33005  -0.1548  0.0105  1.0000  -0.9804   0.0000   0.0000   0.0000   0.4003
  25.700   0.8669   0.33306   0.33081  -0.1552  0.0104  1.0000  -0.9762   0.0000   0.0000   0.0000   0.4006
  25.800   0.8667   0.33381   0.33157  -0.1555  0.0102  1.0000  -0.9723   0.0000   0.0000   0.0000   0.4008
  25.900   0.8664   0.33456   0.33232  -0.1558  0.0100  1.0000  -0.9686   0.0000   0.0000   0.0000   0.4011
  26.000   0.8662   0.33530   0.33308  -0.1562  0.0099  1.0000  -0.9652   0.0000   0.0000   0.0000   0.4014
  26.100   0.8659   0.33605   0.33383  -0.1565  0.0097  1.0000  -0.9619   0.0000   0.0000   0.0000   0.4016
  26.200   0.8657   0.33680   0.33458  -0.1568  0.0096  1.0000  -0.9588   0.0000   0.0000   0.0000   0.4019
  26.300   0.8655   0.33754   0.33534  -0.1572  0.0095  1.0000  -0.9559   0.0000   0.0000   0.0000   0.4021
  26.400   0.8653   0.33829   0.33609  -0.1575  0.0093  1.0000  -0.9532   0.0000   0.0000   0.0000   0.4024
  26.500   0.8651   0.33903   0.33684  -0.1579  0.0092  1.0000  -0.9506   0.0000   0.0000   0.0000   0.4026
  26.600   0.8649   0.33977   0.33758  -0.1582  0.0091  1.0000  -0.9482   0.0000   0.0000   0.0000   0.4029
  26.700   0.8647   0.34051   0.33833  -0.1586  0.0089  1.0000  -0.9460   0.0000   0.0000   0.0000   0.4031
  26.800   0.8645   0.34125   0.33908  -0.1589  0.0088  1.0000  -0.9440   0.0000   0.0000   0.0000   0.4034
  26.900   0.8643   0.34199   0.33983  -0.1593  0.0087  1.0000  -0.9421   0.0000   0.0000   0.0000   0.4036
  27.000   0.8642   0.34273   0.34057  -0.1596  0.0086  1.0000  -0.9404   0.0000   0.0000   0.0000   0.4038
  27.100   0.8640   0.34347   0.34131  -0.1599  0.0085  1.0000  -0.9389   0.0000   0.0000   0.0000   0.4041
  27.200   0.8638   0.34420   0.34205  -0.1603  0.0084  1.0000  -0.9375   0.0000   0.0000   0.0000   0.4043
  27.300   0.8637   0.34493   0.34279  -0.1606  0.0083  1.0000  -0.9363   0.0000   0.0000   0.0000   0.4045
  27.400   0.8635   0.34566   0.34353  -0.1610  0.0082  1.0000  -0.9353   0.0000   0.0000   0.0000   0.4048


