xflr5 v6.61

 Calculated polar for: E64  (8.45%)

 1 1 Reynolds number fixed          Mach number fixed         

 xtrf =   1.000 (top)        1.000 (bottom)
 Mach =   0.000     Re =     0.500 e 6     Ncrit =   9.000

  alpha     CL        CD       CDp       Cm    Top Xtr Bot Xtr   Cpmin    Chinge    XCp    
 ------- -------- --------- --------- -------- ------- ------- -------- --------- ---------
 -10.000  -0.3816   0.11147   0.10895  -0.0294  1.0000  0.0086  -1.8818   0.0000   0.0000   0.0000   0.1661
  -9.900  -0.3804   0.11038   0.10787  -0.0295  1.0000  0.0087  -1.8704   0.0000   0.0000   0.0000   0.1657
  -9.800  -0.3793   0.10929   0.10679  -0.0296  1.0000  0.0088  -1.8603   0.0000   0.0000   0.0000   0.1654
  -9.700  -0.3783   0.10821   0.10571  -0.0296  1.0000  0.0089  -1.8512   0.0000   0.0000   0.0000   0.1650
  -9.600  -0.3774   0.10712   0.10464  -0.0297  1.0000  0.0090  -1.8434   0.0000   0.0000   0.0000   0.1648
  -9.500  -0.3766   0.10604   0.10356  -0.0298  1.0000  0.0091  -1.8366   0.0000   0.0000   0.0000   0.1645
  -9.400  -0.3759   0.10496   0.10249  -0.0298  1.0000  0.0092  -1.8308   0.0000   0.0000   0.0000   0.1644
  -9.300  -0.3753   0.10388   0.10142  -0.0299  1.0000  0.0093  -1.8260   0.0000   0.0000   0.0000   0.1642
  -9.200  -0.3749   0.10281   0.10036  -0.0299  1.0000  0.0094  -1.8222   0.0000   0.0000   0.0000   0.1642
  -9.100  -0.3746   0.10174   0.09930  -0.0299  1.0000  0.0095  -1.8194   0.0000   0.0000   0.0000   0.1642
  -9.000  -0.3744   0.10068   0.09825  -0.0299  1.0000  0.0096  -1.8175   0.0000   0.0000   0.0000   0.1643
  -8.900  -0.3744   0.09962   0.09721  -0.0298  1.0000  0.0097  -1.8166   0.0000   0.0000   0.0000   0.1645
  -8.800  -0.3745   0.09858   0.09618  -0.0298  1.0000  0.0098  -1.8166   0.0000   0.0000   0.0000   0.1648
  -8.700  -0.3749   0.09756   0.09516  -0.0297  1.0000  0.0099  -1.8176   0.0000   0.0000   0.0000   0.1652
  -8.600  -0.3754   0.09654   0.09416  -0.0295  1.0000  0.0100  -1.8194   0.0000   0.0000   0.0000   0.1658
  -8.500  -0.3762   0.09553   0.09316  -0.0294  1.0000  0.0101  -1.8222   0.0000   0.0000   0.0000   0.1665
  -8.400  -0.3771   0.09454   0.09218  -0.0292  1.0000  0.0102  -1.8258   0.0000   0.0000   0.0000   0.1674
  -8.300  -0.3784   0.09356   0.09122  -0.0289  1.0000  0.0103  -1.8303   0.0000   0.0000   0.0000   0.1684
  -8.200  -0.3799   0.09261   0.09027  -0.0286  1.0000  0.0104  -1.8357   0.0000   0.0000   0.0000   0.1697
  -8.100  -0.3818   0.09167   0.08936  -0.0282  1.0000  0.0105  -1.8420   0.0000   0.0000   0.0000   0.1712
  -8.000  -0.3840   0.09077   0.08847  -0.0278  1.0000  0.0106  -1.8493   0.0000   0.0000   0.0000   0.1729
  -7.900  -0.3867   0.08989   0.08761  -0.0272  1.0000  0.0107  -1.8575   0.0000   0.0000   0.0000   0.1749
  -7.800  -0.3897   0.08905   0.08679  -0.0266  1.0000  0.0107  -1.8667   0.0000   0.0000   0.0000   0.1771
  -7.700  -0.3931   0.08825   0.08600  -0.0260  1.0000  0.0108  -1.8768   0.0000   0.0000   0.0000   0.1795
  -7.600  -0.3970   0.08747   0.08524  -0.0252  1.0000  0.0109  -1.8879   0.0000   0.0000   0.0000   0.1822
  -7.500  -0.4014   0.08675   0.08453  -0.0244  1.0000  0.0109  -1.9001   0.0000   0.0000   0.0000   0.1851
  -7.400  -0.4064   0.08607   0.08387  -0.0235  1.0000  0.0109  -1.9134   0.0000   0.0000   0.0000   0.1883
  -7.300  -0.4021   0.08445   0.08226  -0.0253  0.9991  0.0111  -1.9177   0.0000   0.0000   0.0000   0.1832
  -7.200  -0.3965   0.08270   0.08051  -0.0276  0.9978  0.0113  -1.9224   0.0000   0.0000   0.0000   0.1765
  -7.100  -0.3908   0.08093   0.07874  -0.0300  0.9965  0.0115  -1.9289   0.0000   0.0000   0.0000   0.1693
  -7.000  -0.3854   0.07912   0.07694  -0.0324  0.9946  0.0117  -1.9372   0.0000   0.0000   0.0000   0.1620
  -6.900  -0.3773   0.07698   0.07480  -0.0357  0.9927  0.0120  -1.9451   0.0000   0.0000   0.0000   0.1515
  -6.800  -0.3672   0.07459   0.07240  -0.0396  0.9910  0.0123  -1.9540   0.0000   0.0000   0.0000   0.1381
  -6.700  -0.3560   0.07205   0.06985  -0.0441  0.9895  0.0126  -1.9660   0.0000   0.0000   0.0000   0.1223
  -6.600  -0.3444   0.06943   0.06723  -0.0488  0.9883  0.0129  -1.9825   0.0000   0.0000   0.0000   0.1042
  -6.500  -0.3340   0.06685   0.06464  -0.0533  0.9866  0.0132  -2.0035   0.0000   0.0000   0.0000   0.0864
  -6.400  -0.3256   0.06439   0.06216  -0.0571  0.9837  0.0135  -2.0276   0.0000   0.0000   0.0000   0.0706
  -6.300  -0.3146   0.06162   0.05937  -0.0617  0.9814  0.0138  -2.0557   0.0000   0.0000   0.0000   0.0498
  -6.200  -0.3020   0.05865   0.05636  -0.0667  0.9794  0.0141  -2.0888   0.0000   0.0000   0.0000   0.0252
  -6.100  -0.2885   0.05554   0.05321  -0.0717  0.9778  0.0145  -2.1267   0.0000   0.0000   0.0000  -0.0026
  -6.000  -0.2740   0.05240   0.05000  -0.0765  0.9765  0.0150  -2.1678   0.0000   0.0000   0.0000  -0.0334
  -5.900  -0.2592   0.04955   0.04707  -0.0805  0.9755  0.0155  -2.1991   0.0000   0.0000   0.0000  -0.0653
  -5.800  -0.2441   0.04706   0.04450  -0.0839  0.9747  0.0161  -2.2175   0.0000   0.0000   0.0000  -0.0989
  -5.700  -0.2288   0.04486   0.04220  -0.0869  0.9740  0.0165  -2.2256   0.0000   0.0000   0.0000  -0.1350
  -5.400  -0.2023   0.03769   0.03456  -0.0922  0.9659  0.0160  -2.3351   0.0000   0.0000   0.0000  -0.2114
  -5.300  -0.1870   0.03771   0.03454  -0.0925  0.9647  0.0173  -2.2484   0.0000   0.0000   0.0000  -0.2508
  -5.200  -0.1704   0.03809   0.03480  -0.0932  0.9635  0.0179  -2.1509   0.0000   0.0000   0.0000  -0.3037
  -5.100  -0.1621   0.03032   0.02654  -0.0985  0.9610  0.0193  -2.4606   0.0000   0.0000   0.0000  -0.3647
  -5.000  -0.1511   0.02839   0.02456  -0.1003  0.9600  0.0211  -2.3795   0.0000   0.0000   0.0000  -0.4218
  -4.900  -0.1388   0.02836   0.02461  -0.1013  0.9593  0.0229  -2.2026   0.0000   0.0000   0.0000  -0.4877
  -4.800  -0.1257   0.02822   0.02448  -0.1022  0.9586  0.0252  -2.0606   0.0000   0.0000   0.0000  -0.5715
  -4.700  -0.1117   0.02784   0.02406  -0.1032  0.9580  0.0284  -1.9608   0.0000   0.0000   0.0000  -0.6830
  -4.600  -0.0931   0.03124   0.02753  -0.1021  0.9577  0.0341  -1.7529   0.0000   0.0000   0.0000  -0.8571
  -4.500  -0.0771   0.03109   0.02726  -0.1031  0.9571  0.0345  -1.6908   0.0000   0.0000   0.0000  -1.0996
  -4.400  -0.0667   0.02393   0.01963  -0.1072  0.9562  0.0379  -1.8601   0.0000   0.0000   0.0000  -1.3709
  -4.300  -0.0535   0.02322   0.01900  -0.1084  0.9558  0.0409  -1.7452   0.0000   0.0000   0.0000  -1.7914
  -4.200  -0.0394   0.02298   0.01880  -0.1094  0.9553  0.0444  -1.6305   0.0000   0.0000   0.0000  -2.5529
  -4.100  -0.0240   0.02284   0.01864  -0.1103  0.9549  0.0496  -1.5385   0.0000   0.0000   0.0000  -4.3883
  -4.000  -0.0054   0.02590   0.02179  -0.1098  0.9546  0.0558  -1.3815   0.0000   0.0000   0.0000  -20.3837
  -3.900  -0.0045   0.02154   0.01705  -0.1100  0.9496  0.0593  -1.4724   0.0000   0.0000   0.0000  -24.6073
  -3.800   0.0048   0.02015   0.01564  -0.1103  0.9472  0.0625  -1.4282   0.0000   0.0000   0.0000  23.5949
  -3.700   0.0168   0.01944   0.01493  -0.1106  0.9457  0.0646  -1.3723   0.0000   0.0000   0.0000   6.8912
  -3.600   0.0298   0.01875   0.01422  -0.1111  0.9444  0.0667  -1.3215   0.0000   0.0000   0.0000   4.0084
  -3.500   0.0434   0.01808   0.01349  -0.1116  0.9433  0.0689  -1.2741   0.0000   0.0000   0.0000   2.8370
  -3.400   0.0576   0.01740   0.01276  -0.1121  0.9422  0.0712  -1.2301   0.0000   0.0000   0.0000   2.2089
  -3.300   0.0721   0.01669   0.01196  -0.1127  0.9412  0.0731  -1.1915   0.0000   0.0000   0.0000   1.8218
  -3.200   0.0920   0.01302   0.00751  -0.1114  0.9407  0.0290  -1.5261   0.0000   0.0000   0.0000   1.4703
  -3.100   0.1069   0.01176   0.00597  -0.1113  0.9397  0.0204  -1.6264   0.0000   0.0000   0.0000   1.2983
  -3.000   0.1217   0.01197   0.00621  -0.1118  0.9386  0.0186  -1.5236   0.0000   0.0000   0.0000   1.1745
  -2.900   0.1359   0.01105   0.00519  -0.1122  0.9375  0.0168  -1.5313   0.0000   0.0000   0.0000   1.0810
  -2.800   0.1502   0.01043   0.00449  -0.1127  0.9364  0.0159  -1.5090   0.0000   0.0000   0.0000   1.0048
  -2.700   0.1647   0.01001   0.00399  -0.1132  0.9353  0.0151  -1.4686   0.0000   0.0000   0.0000   0.9416
  -2.600   0.1790   0.00968   0.00359  -0.1138  0.9341  0.0145  -1.4183   0.0000   0.0000   0.0000   0.8889
  -2.500   0.1935   0.00942   0.00326  -0.1143  0.9329  0.0140  -1.3604   0.0000   0.0000   0.0000   0.8438
  -2.400   0.2083   0.00921   0.00299  -0.1149  0.9317  0.0137  -1.2963   0.0000   0.0000   0.0000   0.8046
  -2.300   0.2231   0.00905   0.00278  -0.1156  0.9303  0.0135  -1.2278   0.0000   0.0000   0.0000   0.7704
  -2.200   0.2315   0.00896   0.00266  -0.1149  0.9270  0.0135  -1.1739   0.0000   0.0000   0.0000   0.7483
  -2.100   0.2417   0.00887   0.00254  -0.1145  0.9238  0.0135  -1.1128   0.0000   0.0000   0.0000   0.7258
  -2.000   0.2530   0.00879   0.00242  -0.1145  0.9210  0.0136  -1.0451   0.0000   0.0000   0.0000   0.7041
  -1.900   0.2649   0.00872   0.00231  -0.1145  0.9184  0.0138  -0.9725   0.0000   0.0000   0.0000   0.6838
  -1.800   0.2771   0.00864   0.00221  -0.1146  0.9160  0.0143  -0.8949   0.0000   0.0000   0.0000   0.6650
  -1.700   0.2895   0.00857   0.00211  -0.1148  0.9136  0.0153  -0.8100   0.0000   0.0000   0.0000   0.6476
  -1.500   0.3147   0.00712   0.00201  -0.1163  0.9090  0.3605  -0.5574   0.0000   0.0000   0.0000   0.6205
  -1.400   0.3277   0.00685   0.00199  -0.1168  0.9066  0.4413  -0.5055   0.0000   0.0000   0.0000   0.6073
  -1.300   0.3402   0.00651   0.00202  -0.1173  0.9040  0.5532  -0.4596   0.0000   0.0000   0.0000   0.5953
  -1.200   0.3513   0.00627   0.00207  -0.1173  0.9011  0.6363  -0.4672   0.0000   0.0000   0.0000   0.5843
  -1.100   0.3600   0.00617   0.00209  -0.1167  0.8976  0.6763  -0.4736   0.0000   0.0000   0.0000   0.5745
  -1.000   0.3698   0.00612   0.00209  -0.1163  0.8940  0.6962  -0.4806   0.0000   0.0000   0.0000   0.5647
  -0.900   0.3799   0.00606   0.00208  -0.1160  0.8901  0.7173  -0.4877   0.0000   0.0000   0.0000   0.5554
  -0.800   0.3902   0.00599   0.00207  -0.1157  0.8862  0.7421  -0.4950   0.0000   0.0000   0.0000   0.5465
  -0.700   0.4012   0.00592   0.00205  -0.1155  0.8824  0.7637  -0.5029   0.0000   0.0000   0.0000   0.5379
  -0.600   0.4121   0.00586   0.00203  -0.1153  0.8787  0.7869  -0.5114   0.0000   0.0000   0.0000   0.5297
  -0.500   0.4235   0.00581   0.00200  -0.1152  0.8751  0.8060  -0.5202   0.0000   0.0000   0.0000   0.5219
  -0.400   0.4342   0.00576   0.00199  -0.1150  0.8714  0.8283  -0.5291   0.0000   0.0000   0.0000   0.5144
  -0.300   0.4441   0.00574   0.00199  -0.1146  0.8678  0.8477  -0.5382   0.0000   0.0000   0.0000   0.5076
  -0.200   0.4518   0.00569   0.00200  -0.1137  0.8641  0.8687  -0.5461   0.0000   0.0000   0.0000   0.5011
  -0.100   0.4603   0.00566   0.00200  -0.1130  0.8597  0.8868  -0.5545   0.0000   0.0000   0.0000   0.4948
   0.000   0.4684   0.00562   0.00198  -0.1121  0.8550  0.9058  -0.5627   0.0000   0.0000   0.0000   0.4886
   0.100   0.4778   0.00558   0.00194  -0.1115  0.8500  0.9233  -0.5717   0.0000   0.0000   0.0000   0.4827
   0.200   0.4881   0.00553   0.00189  -0.1111  0.8450  0.9452  -0.5812   0.0000   0.0000   0.0000   0.4769
   0.400   0.5197   0.00547   0.00177  -0.1130  0.8350  1.0000  -0.6093   0.0000   0.0000   0.0000   0.4664
   0.500   0.5306   0.00549   0.00177  -0.1130  0.8307  1.0000  -0.6204   0.0000   0.0000   0.0000   0.4618
   0.600   0.5412   0.00550   0.00177  -0.1128  0.8261  1.0000  -0.6324   0.0000   0.0000   0.0000   0.4573
   0.700   0.5521   0.00552   0.00177  -0.1128  0.8211  1.0000  -0.6453   0.0000   0.0000   0.0000   0.4530
   0.800   0.5631   0.00553   0.00176  -0.1127  0.8159  1.0000  -0.6584   0.0000   0.0000   0.0000   0.4489
   0.900   0.5743   0.00555   0.00175  -0.1127  0.8103  1.0000  -0.6716   0.0000   0.0000   0.0000   0.4449
   1.000   0.5856   0.00558   0.00174  -0.1127  0.8043  1.0000  -0.6849   0.0000   0.0000   0.0000   0.4410
   1.100   0.5969   0.00562   0.00173  -0.1127  0.7976  1.0000  -0.6985   0.0000   0.0000   0.0000   0.4373
   1.200   0.6079   0.00565   0.00173  -0.1127  0.7920  1.0000  -0.7139   0.0000   0.0000   0.0000   0.4337
   1.300   0.6185   0.00567   0.00175  -0.1125  0.7868  1.0000  -0.7290   0.0000   0.0000   0.0000   0.4303
   1.400   0.6292   0.00569   0.00176  -0.1124  0.7805  1.0000  -0.7443   0.0000   0.0000   0.0000   0.4269
   1.500   0.6400   0.00572   0.00176  -0.1123  0.7736  1.0000  -0.7598   0.0000   0.0000   0.0000   0.4237
   1.600   0.6507   0.00576   0.00176  -0.1122  0.7660  1.0000  -0.7758   0.0000   0.0000   0.0000   0.4205
   1.700   0.6614   0.00582   0.00176  -0.1121  0.7580  1.0000  -0.7941   0.0000   0.0000   0.0000   0.4174
   1.800   0.6722   0.00587   0.00177  -0.1120  0.7508  1.0000  -0.8125   0.0000   0.0000   0.0000   0.4145
   1.900   0.6830   0.00590   0.00179  -0.1119  0.7459  1.0000  -0.8309   0.0000   0.0000   0.0000   0.4117
   2.000   0.6892   0.00606   0.00173  -0.1106  0.6993  1.0000  -0.8460   0.0000   0.0000   0.0000   0.4082
   2.100   0.6947   0.00634   0.00171  -0.1093  0.6432  1.0000  -0.8602   0.0000   0.0000   0.0000   0.4050
   2.200   0.7009   0.00661   0.00173  -0.1082  0.5973  1.0000  -0.8751   0.0000   0.0000   0.0000   0.4020
   2.300   0.7081   0.00687   0.00178  -0.1074  0.5617  1.0000  -0.8906   0.0000   0.0000   0.0000   0.3992
   2.400   0.7178   0.00699   0.00181  -0.1072  0.5426  1.0000  -0.9116   0.0000   0.0000   0.0000   0.3967
   2.500   0.7268   0.00715   0.00187  -0.1068  0.5231  1.0000  -0.9326   0.0000   0.0000   0.0000   0.3943
   2.600   0.7366   0.00726   0.00191  -0.1066  0.5098  1.0000  -0.9546   0.0000   0.0000   0.0000   0.3919
   2.700   0.7468   0.00736   0.00196  -0.1064  0.4968  1.0000  -0.9788   0.0000   0.0000   0.0000   0.3897
   2.800   0.7561   0.00751   0.00201  -0.1061  0.4791  1.0000  -1.0055   0.0000   0.0000   0.0000   0.3874
   2.900   0.7654   0.00767   0.00208  -0.1058  0.4619  1.0000  -1.0323   0.0000   0.0000   0.0000   0.3852
   3.000   0.7752   0.00779   0.00214  -0.1056  0.4456  1.0000  -1.0600   0.0000   0.0000   0.0000   0.3831
   3.100   0.7842   0.00799   0.00221  -0.1052  0.4250  1.0000  -1.0865   0.0000   0.0000   0.0000   0.3810
   3.200   0.7939   0.00812   0.00228  -0.1050  0.4096  1.0000  -1.1143   0.0000   0.0000   0.0000   0.3790
   3.300   0.8036   0.00827   0.00235  -0.1048  0.3930  1.0000  -1.1422   0.0000   0.0000   0.0000   0.3771
   3.400   0.8124   0.00849   0.00244  -0.1044  0.3714  1.0000  -1.1690   0.0000   0.0000   0.0000   0.3751
   3.500   0.8222   0.00863   0.00252  -0.1042  0.3549  1.0000  -1.1972   0.0000   0.0000   0.0000   0.3733
   3.600   0.8309   0.00887   0.00262  -0.1039  0.3315  1.0000  -1.2241   0.0000   0.0000   0.0000   0.3714
   3.700   0.8403   0.00904   0.00271  -0.1036  0.3125  1.0000  -1.2520   0.0000   0.0000   0.0000   0.3696
   3.800   0.8493   0.00927   0.00282  -0.1033  0.2910  1.0000  -1.3076   0.0000   0.0000   0.0000   0.3679
   3.900   0.8586   0.00946   0.00291  -0.1031  0.2725  1.0000  -1.3909   0.0000   0.0000   0.0000   0.3662
   4.000   0.8681   0.00964   0.00302  -0.1028  0.2557  1.0000  -1.4760   0.0000   0.0000   0.0000   0.3645
   4.100   0.8769   0.00989   0.00313  -0.1025  0.2346  1.0000  -1.5596   0.0000   0.0000   0.0000   0.3629
   4.200   0.8864   0.01007   0.00324  -0.1023  0.2183  1.0000  -1.6471   0.0000   0.0000   0.0000   0.3613
   4.300   0.8948   0.01037   0.00338  -0.1019  0.1936  1.0000  -1.7303   0.0000   0.0000   0.0000   0.3597
   4.400   0.9032   0.01066   0.00353  -0.1016  0.1686  1.0000  -1.8142   0.0000   0.0000   0.0000   0.3581
   4.500   0.9114   0.01099   0.00369  -0.1012  0.1401  1.0000  -1.8967   0.0000   0.0000   0.0000   0.3566
   4.600   0.9189   0.01141   0.00389  -0.1007  0.1079  1.0000  -1.9751   0.0000   0.0000   0.0000   0.3551
   4.700   0.9256   0.01190   0.00415  -0.1001  0.0723  1.0000  -2.0474   0.0000   0.0000   0.0000   0.3535
   4.800   0.9331   0.01233   0.00439  -0.0995  0.0438  1.0000  -2.1174   0.0000   0.0000   0.0000   0.3520
   4.900   0.9397   0.01288   0.00474  -0.0988  0.0139  1.0000  -2.1811   0.0000   0.0000   0.0000   0.3504
   5.000   0.9495   0.01304   0.00488  -0.0986  0.0128  1.0000  -2.2587   0.0000   0.0000   0.0000   0.3489
   5.100   0.9595   0.01318   0.00504  -0.0983  0.0121  1.0000  -2.3383   0.0000   0.0000   0.0000   0.3475
   5.200   0.9695   0.01331   0.00520  -0.0981  0.0116  1.0000  -2.4198   0.0000   0.0000   0.0000   0.3461
   5.300   0.9795   0.01344   0.00536  -0.0979  0.0113  1.0000  -2.5027   0.0000   0.0000   0.0000   0.3448
   5.400   0.9895   0.01358   0.00554  -0.0977  0.0112  1.0000  -2.5864   0.0000   0.0000   0.0000   0.3435
   5.500   0.9995   0.01372   0.00573  -0.0975  0.0110  1.0000  -2.6698   0.0000   0.0000   0.0000   0.3421
   5.600   1.0093   0.01387   0.00592  -0.0972  0.0110  1.0000  -2.7528   0.0000   0.0000   0.0000   0.3408
   5.700   1.0191   0.01403   0.00613  -0.0970  0.0110  1.0000  -2.8347   0.0000   0.0000   0.0000   0.3395
   5.800   1.0288   0.01420   0.00636  -0.0967  0.0110  1.0000  -2.9150   0.0000   0.0000   0.0000   0.3383
   5.900   1.0383   0.01440   0.00660  -0.0964  0.0110  1.0000  -2.9929   0.0000   0.0000   0.0000   0.3370
   6.000   1.0476   0.01462   0.00687  -0.0960  0.0111  1.0000  -3.0683   0.0000   0.0000   0.0000   0.3357
   6.100   1.0583   0.01463   0.00726  -0.0960  0.0120  1.0000  -3.2739   0.0000   0.0000   0.0000   0.3346
   6.200   1.0676   0.01486   0.00755  -0.0956  0.0121  1.0000  -3.3616   0.0000   0.0000   0.0000   0.3334
   6.300   1.0765   0.01513   0.00789  -0.0951  0.0122  1.0000  -3.4392   0.0000   0.0000   0.0000   0.3321
   6.400   1.0851   0.01543   0.00826  -0.0946  0.0123  1.0000  -3.5109   0.0000   0.0000   0.0000   0.3308
   6.500   1.0933   0.01577   0.00868  -0.0940  0.0123  1.0000  -3.5779   0.0000   0.0000   0.0000   0.3295
   6.600   1.1012   0.01615   0.00914  -0.0934  0.0124  1.0000  -3.6410   0.0000   0.0000   0.0000   0.3282
   6.700   1.1087   0.01656   0.00963  -0.0927  0.0125  1.0000  -3.7002   0.0000   0.0000   0.0000   0.3268
   6.800   1.1158   0.01702   0.01015  -0.0919  0.0126  1.0000  -3.7556   0.0000   0.0000   0.0000   0.3255
   6.900   1.1226   0.01751   0.01073  -0.0911  0.0127  1.0000  -3.8072   0.0000   0.0000   0.0000   0.3241
   7.000   1.1291   0.01805   0.01135  -0.0902  0.0129  1.0000  -3.8549   0.0000   0.0000   0.0000   0.3228
   7.100   1.1354   0.01865   0.01202  -0.0892  0.0130  1.0000  -3.8990   0.0000   0.0000   0.0000   0.3214
   7.200   1.1415   0.01930   0.01275  -0.0883  0.0132  1.0000  -3.9393   0.0000   0.0000   0.0000   0.3200
   7.300   1.1475   0.02003   0.01356  -0.0873  0.0134  1.0000  -3.9753   0.0000   0.0000   0.0000   0.3187
   7.400   1.1535   0.02086   0.01447  -0.0864  0.0136  1.0000  -4.0063   0.0000   0.0000   0.0000   0.3173
   7.500   1.1598   0.02185   0.01554  -0.0855  0.0138  1.0000  -4.0297   0.0000   0.0000   0.0000   0.3160
   7.600   1.1663   0.02312   0.01691  -0.0846  0.0141  1.0000  -4.0379   0.0000   0.0000   0.0000   0.3148
   7.700   1.1737   0.02564   0.01958  -0.0838  0.0151  1.0000  -3.9667   0.0000   0.0000   0.0000   0.3135
   7.800   1.1832   0.02558   0.01952  -0.0835  0.0154  1.0000  -4.0688   0.0000   0.0000   0.0000   0.3125
   7.900   1.1926   0.02556   0.01952  -0.0831  0.0159  1.0000  -4.1675   0.0000   0.0000   0.0000   0.3115
   8.000   1.2020   0.02563   0.01961  -0.0827  0.0164  1.0000  -4.2598   0.0000   0.0000   0.0000   0.3105
   8.100   1.2118   0.02590   0.01995  -0.0822  0.0174  1.0000  -4.3287   0.0000   0.0000   0.0000   0.3095
  14.000   0.9716   0.17018   0.16831  -0.1027  0.0280  1.0000  -2.2591   0.0000   0.0000   0.0000   0.3418
  14.100   0.9740   0.17194   0.17007  -0.1039  0.0277  1.0000  -2.2581   0.0000   0.0000   0.0000   0.3426
  14.200   0.9822   0.17220   0.17033  -0.1046  0.0263  1.0000  -2.3149   0.0000   0.0000   0.0000   0.3424
  14.300   0.9853   0.17401   0.17214  -0.1058  0.0252  1.0000  -2.3131   0.0000   0.0000   0.0000   0.3431
  14.400   0.9862   0.17634   0.17446  -0.1071  0.0245  1.0000  -2.2898   0.0000   0.0000   0.0000   0.3442
  14.500   0.9870   0.17863   0.17676  -0.1083  0.0237  1.0000  -2.2701   0.0000   0.0000   0.0000   0.3453
  14.600   0.9879   0.18085   0.17897  -0.1095  0.0229  1.0000  -2.2558   0.0000   0.0000   0.0000   0.3463
  14.700   0.9888   0.18296   0.18108  -0.1106  0.0222  1.0000  -2.2484   0.0000   0.0000   0.0000   0.3472
  14.800   0.9901   0.18493   0.18305  -0.1117  0.0214  1.0000  -2.2497   0.0000   0.0000   0.0000   0.3480
  14.900   0.9916   0.18668   0.18480  -0.1126  0.0206  1.0000  -2.2642   0.0000   0.0000   0.0000   0.3485
  15.000   0.9937   0.18809   0.18621  -0.1133  0.0197  1.0000  -2.2991   0.0000   0.0000   0.0000   0.3489
  15.100   0.9970   0.18879   0.18692  -0.1136  0.0187  1.0000  -2.3755   0.0000   0.0000   0.0000   0.3486
  15.200   1.0022   0.18828   0.18643  -0.1134  0.0177  1.0000  -2.5242   0.0000   0.0000   0.0000   0.3475
  15.300   1.0075   0.18753   0.18569  -0.1129  0.0169  1.0000  -2.6899   0.0000   0.0000   0.0000   0.3462
  15.400   1.0090   0.18894   0.18710  -0.1136  0.0165  1.0000  -2.7325   0.0000   0.0000   0.0000   0.3465
  15.500   1.0095   0.19086   0.18902  -0.1145  0.0161  1.0000  -2.7457   0.0000   0.0000   0.0000   0.3471
  15.600   1.0088   0.19338   0.19153  -0.1155  0.0158  1.0000  -2.7269   0.0000   0.0000   0.0000   0.3481
  15.700   1.0044   0.19758   0.19573  -0.1172  0.0154  1.0000  -2.6229   0.0000   0.0000   0.0000   0.3502
  17.300   1.0103   0.24276   0.24086  -0.1342  0.0146  1.0000  -2.0458   0.0000   0.0000   0.0000   0.3647
  17.400   1.0115   0.24514   0.24324  -0.1351  0.0146  1.0000  -2.0342   0.0000   0.0000   0.0000   0.3653
  17.500   1.0128   0.24751   0.24561  -0.1360  0.0146  1.0000  -2.0230   0.0000   0.0000   0.0000   0.3658
  17.600   1.0141   0.24988   0.24799  -0.1368  0.0146  1.0000  -2.0121   0.0000   0.0000   0.0000   0.3663
  17.700   1.0153   0.25225   0.25036  -0.1376  0.0146  1.0000  -2.0016   0.0000   0.0000   0.0000   0.3669
  17.800   1.0165   0.25462   0.25272  -0.1385  0.0145  1.0000  -1.9914   0.0000   0.0000   0.0000   0.3674
  17.900   1.0177   0.25697   0.25508  -0.1393  0.0145  1.0000  -1.9817   0.0000   0.0000   0.0000   0.3679
  18.000   1.0189   0.25931   0.25742  -0.1401  0.0145  1.0000  -1.9725   0.0000   0.0000   0.0000   0.3684
  18.100   1.0201   0.26164   0.25976  -0.1409  0.0145  1.0000  -1.9638   0.0000   0.0000   0.0000   0.3689
  18.200   1.0213   0.26395   0.26207  -0.1417  0.0144  1.0000  -1.9560   0.0000   0.0000   0.0000   0.3694
  18.300   1.0224   0.26623   0.26434  -0.1425  0.0144  1.0000  -1.9493   0.0000   0.0000   0.0000   0.3699
  18.400   1.0237   0.26845   0.26657  -0.1433  0.0143  1.0000  -1.9442   0.0000   0.0000   0.0000   0.3703
  18.500   1.0251   0.27056   0.26868  -0.1441  0.0142  1.0000  -1.9425   0.0000   0.0000   0.0000   0.3708
  19.400   1.0368   0.28883   0.28704  -0.1516  0.0085  1.0000  -1.9904   0.0000   0.0000   0.0000   0.3750
  19.500   1.0380   0.29025   0.28846  -0.1521  0.0079  1.0000  -2.0546   0.0000   0.0000   0.0000   0.3751
  19.600   1.0393   0.29140   0.28962  -0.1525  0.0074  1.0000  -2.1378   0.0000   0.0000   0.0000   0.3750
  19.700   1.0411   0.29224   0.29048  -0.1528  0.0070  1.0000  -2.2434   0.0000   0.0000   0.0000   0.3748
  19.800   1.0432   0.29273   0.29097  -0.1529  0.0066  1.0000  -2.3770   0.0000   0.0000   0.0000   0.3743
  19.900   1.0433   0.29408   0.29233  -0.1533  0.0062  1.0000  -2.4594   0.0000   0.0000   0.0000   0.3745
  20.000   1.0258   0.30253   0.30075  -0.1543  0.0053  1.0000  -2.0871   0.0000   0.0000   0.0000   0.3782
  20.100   1.0258   0.30427   0.30250  -0.1550  0.0052  1.0000  -2.1086   0.0000   0.0000   0.0000   0.3787
  20.200   1.0265   0.30572   0.30395  -0.1556  0.0050  1.0000  -2.1512   0.0000   0.0000   0.0000   0.3790
  20.300   1.0264   0.30728   0.30552  -0.1560  0.0049  1.0000  -2.1820   0.0000   0.0000   0.0000   0.3793
  20.400   1.0251   0.30900   0.30724  -0.1564  0.0047  1.0000  -2.1933   0.0000   0.0000   0.0000   0.3798
  20.500   1.0223   0.31075   0.30901  -0.1567  0.0045  1.0000  -2.1851   0.0000   0.0000   0.0000   0.3803
  20.600   0.9620   0.30080   0.29914  -0.1502  0.0047  1.0000  -1.9638   0.0000   0.0000   0.0000   0.3838
  20.700   0.9559   0.30081   0.29917  -0.1500  0.0046  1.0000  -1.9418   0.0000   0.0000   0.0000   0.3845
  20.800   0.9505   0.30102   0.29939  -0.1498  0.0045  1.0000  -1.9150   0.0000   0.0000   0.0000   0.3852
  20.900   0.9454   0.30133   0.29971  -0.1497  0.0044  1.0000  -1.8853   0.0000   0.0000   0.0000   0.3858
  21.000   0.9408   0.30171   0.30010  -0.1497  0.0044  1.0000  -1.8537   0.0000   0.0000   0.0000   0.3865
  21.100   0.9365   0.30215   0.30055  -0.1497  0.0043  1.0000  -1.8214   0.0000   0.0000   0.0000   0.3871
  21.200   0.9324   0.30264   0.30104  -0.1497  0.0043  1.0000  -1.7879   0.0000   0.0000   0.0000   0.3878
  21.300   0.9285   0.30316   0.30157  -0.1497  0.0043  1.0000  -1.7546   0.0000   0.0000   0.0000   0.3884
  21.400   0.9249   0.30370   0.30212  -0.1497  0.0044  1.0000  -1.7220   0.0000   0.0000   0.0000   0.3890
  21.500   0.9215   0.30425   0.30268  -0.1498  0.0044  1.0000  -1.6899   0.0000   0.0000   0.0000   0.3895
  21.600   0.9181   0.30481   0.30324  -0.1498  0.0045  1.0000  -1.6574   0.0000   0.0000   0.0000   0.3901
  21.700   0.9146   0.30539   0.30383  -0.1499  0.0046  1.0000  -1.6211   0.0000   0.0000   0.0000   0.3907
  21.800   0.9109   0.30599   0.30443  -0.1499  0.0047  1.0000  -1.5796   0.0000   0.0000   0.0000   0.3913
  21.900   0.9070   0.30660   0.30504  -0.1499  0.0049  1.0000  -1.5335   0.0000   0.0000   0.0000   0.3919
  22.000   0.9038   0.30723   0.30568  -0.1499  0.0050  1.0000  -1.4952   0.0000   0.0000   0.0000   0.3924
  22.100   0.9012   0.30788   0.30634  -0.1500  0.0051  1.0000  -1.4661   0.0000   0.0000   0.0000   0.3929
  22.200   0.8990   0.30854   0.30700  -0.1501  0.0051  1.0000  -1.4422   0.0000   0.0000   0.0000   0.3933
  22.300   0.8970   0.30922   0.30768  -0.1503  0.0051  1.0000  -1.4215   0.0000   0.0000   0.0000   0.3938
  22.400   0.8953   0.30990   0.30837  -0.1504  0.0051  1.0000  -1.4029   0.0000   0.0000   0.0000   0.3942
  22.500   0.8936   0.31058   0.30906  -0.1506  0.0052  1.0000  -1.3858   0.0000   0.0000   0.0000   0.3945
  22.600   0.8921   0.31127   0.30975  -0.1508  0.0052  1.0000  -1.3699   0.0000   0.0000   0.0000   0.3949
  22.700   0.8907   0.31197   0.31046  -0.1510  0.0052  1.0000  -1.3549   0.0000   0.0000   0.0000   0.3953
  22.800   0.8894   0.31268   0.31116  -0.1512  0.0052  1.0000  -1.3406   0.0000   0.0000   0.0000   0.3957
  22.900   0.8882   0.31338   0.31188  -0.1514  0.0052  1.0000  -1.3270   0.0000   0.0000   0.0000   0.3960
  23.000   0.8870   0.31410   0.31259  -0.1517  0.0052  1.0000  -1.3140   0.0000   0.0000   0.0000   0.3964
  23.100   0.8859   0.31481   0.31332  -0.1519  0.0052  1.0000  -1.3015   0.0000   0.0000   0.0000   0.3967
  23.200   0.8849   0.31553   0.31404  -0.1521  0.0052  1.0000  -1.2895   0.0000   0.0000   0.0000   0.3970
  23.300   0.8839   0.31626   0.31477  -0.1524  0.0052  1.0000  -1.2779   0.0000   0.0000   0.0000   0.3974
  23.400   0.8829   0.31699   0.31550  -0.1526  0.0052  1.0000  -1.2667   0.0000   0.0000   0.0000   0.3977


