xflr5 v6.61

 Calculated polar for: E71  (5.15%)

 1 1 Reynolds number fixed          Mach number fixed         

 xtrf =   1.000 (top)        1.000 (bottom)
 Mach =   0.000     Re =     0.160 e 6     Ncrit =   9.000

  alpha     CL        CD       CDp       Cm    Top Xtr Bot Xtr   Cpmin    Chinge    XCp    
 ------- -------- --------- --------- -------- ------- ------- -------- --------- ---------
 -10.000  -0.3776   0.12768   0.12337  -0.0220  1.0000  0.0203  -1.2350   0.0000   0.0000   0.0000   0.1889
  -9.900  -0.3761   0.12666   0.12236  -0.0221  1.0000  0.0205  -1.2401   0.0000   0.0000   0.0000   0.1883
  -9.800  -0.3747   0.12566   0.12138  -0.0222  1.0000  0.0207  -1.2457   0.0000   0.0000   0.0000   0.1878
  -9.700  -0.3733   0.12468   0.12042  -0.0224  1.0000  0.0208  -1.2520   0.0000   0.0000   0.0000   0.1872
  -9.600  -0.3720   0.12374   0.11949  -0.0225  1.0000  0.0210  -1.2591   0.0000   0.0000   0.0000   0.1866
  -9.500  -0.3708   0.12284   0.11860  -0.0227  1.0000  0.0212  -1.2670   0.0000   0.0000   0.0000   0.1860
  -9.400  -0.3696   0.12198   0.11776  -0.0229  1.0000  0.0214  -1.2757   0.0000   0.0000   0.0000   0.1854
  -9.300  -0.3686   0.12117   0.11696  -0.0230  1.0000  0.0216  -1.2852   0.0000   0.0000   0.0000   0.1848
  -9.200  -0.3678   0.12041   0.11622  -0.0232  1.0000  0.0218  -1.2955   0.0000   0.0000   0.0000   0.1842
  -9.100  -0.3671   0.11969   0.11552  -0.0234  1.0000  0.0219  -1.3064   0.0000   0.0000   0.0000   0.1837
  -9.000  -0.3667   0.11901   0.11486  -0.0236  1.0000  0.0221  -1.3176   0.0000   0.0000   0.0000   0.1832
  -8.900  -0.3664   0.11835   0.11422  -0.0237  1.0000  0.0222  -1.3289   0.0000   0.0000   0.0000   0.1828
  -8.800  -0.3662   0.11771   0.11360  -0.0238  1.0000  0.0223  -1.3404   0.0000   0.0000   0.0000   0.1825
  -8.700  -0.3663   0.11708   0.11298  -0.0239  1.0000  0.0224  -1.3518   0.0000   0.0000   0.0000   0.1823
  -8.600  -0.3664   0.11644   0.11236  -0.0240  1.0000  0.0225  -1.3630   0.0000   0.0000   0.0000   0.1822
  -8.500  -0.3666   0.11578   0.11173  -0.0240  1.0000  0.0226  -1.3740   0.0000   0.0000   0.0000   0.1822
  -8.400  -0.3665   0.11506   0.11103  -0.0240  1.0000  0.0227  -1.3828   0.0000   0.0000   0.0000   0.1823
  -8.300  -0.3662   0.11430   0.11029  -0.0239  1.0000  0.0228  -1.3895   0.0000   0.0000   0.0000   0.1825
  -8.200  -0.3660   0.11352   0.10953  -0.0238  1.0000  0.0228  -1.3948   0.0000   0.0000   0.0000   0.1828
  -8.100  -0.3659   0.11274   0.10877  -0.0237  1.0000  0.0229  -1.4003   0.0000   0.0000   0.0000   0.1833
  -8.000  -0.3660   0.11195   0.10801  -0.0234  1.0000  0.0229  -1.4058   0.0000   0.0000   0.0000   0.1840
  -7.900  -0.3663   0.11118   0.10725  -0.0232  1.0000  0.0230  -1.4115   0.0000   0.0000   0.0000   0.1847
  -7.800  -0.3668   0.11041   0.10651  -0.0229  1.0000  0.0230  -1.4173   0.0000   0.0000   0.0000   0.1857
  -7.700  -0.3676   0.10966   0.10579  -0.0225  1.0000  0.0230  -1.4234   0.0000   0.0000   0.0000   0.1869
  -7.600  -0.3686   0.10893   0.10508  -0.0221  1.0000  0.0231  -1.4297   0.0000   0.0000   0.0000   0.1883
  -7.500  -0.3699   0.10822   0.10439  -0.0216  1.0000  0.0231  -1.4362   0.0000   0.0000   0.0000   0.1898
  -7.400  -0.3715   0.10753   0.10372  -0.0211  1.0000  0.0231  -1.4429   0.0000   0.0000   0.0000   0.1916
  -7.300  -0.3734   0.10685   0.10307  -0.0205  1.0000  0.0232  -1.4498   0.0000   0.0000   0.0000   0.1936
  -7.200  -0.3754   0.10618   0.10243  -0.0199  1.0000  0.0232  -1.4568   0.0000   0.0000   0.0000   0.1956
  -7.100  -0.3772   0.10548   0.10175  -0.0193  1.0000  0.0232  -1.4639   0.0000   0.0000   0.0000   0.1974
  -7.000  -0.3783   0.10468   0.10098  -0.0190  1.0000  0.0232  -1.4706   0.0000   0.0000   0.0000   0.1984
  -6.900  -0.3783   0.10376   0.10008  -0.0189  1.0000  0.0232  -1.4768   0.0000   0.0000   0.0000   0.1986
  -6.800  -0.3782   0.10282   0.09916  -0.0189  1.0000  0.0233  -1.4831   0.0000   0.0000   0.0000   0.1986
  -6.700  -0.3778   0.10185   0.09821  -0.0190  1.0000  0.0233  -1.4894   0.0000   0.0000   0.0000   0.1984
  -6.600  -0.3773   0.10085   0.09723  -0.0191  1.0000  0.0233  -1.4957   0.0000   0.0000   0.0000   0.1981
  -6.500  -0.3766   0.09982   0.09623  -0.0193  1.0000  0.0233  -1.5021   0.0000   0.0000   0.0000   0.1975
  -6.400  -0.3757   0.09877   0.09519  -0.0196  1.0000  0.0233  -1.5085   0.0000   0.0000   0.0000   0.1967
  -6.300  -0.3745   0.09769   0.09413  -0.0199  1.0000  0.0233  -1.5150   0.0000   0.0000   0.0000   0.1956
  -6.200  -0.3730   0.09658   0.09304  -0.0203  1.0000  0.0234  -1.5215   0.0000   0.0000   0.0000   0.1944
  -6.100  -0.3713   0.09544   0.09192  -0.0208  1.0000  0.0234  -1.5281   0.0000   0.0000   0.0000   0.1928
  -6.000  -0.3693   0.09427   0.09077  -0.0214  1.0000  0.0234  -1.5347   0.0000   0.0000   0.0000   0.1910
  -5.900  -0.3675   0.09292   0.08948  -0.0220  1.0000  0.0234  -1.5477   0.0000   0.0000   0.0000   0.1890
  -5.800  -0.3710   0.08973   0.08632  -0.0225  1.0000  0.0238  -1.6245   0.0000   0.0000   0.0000   0.1881
  -5.700  -0.3731   0.08725   0.08386  -0.0228  1.0000  0.0243  -1.6606   0.0000   0.0000   0.0000   0.1879
  -5.600  -0.3739   0.08534   0.08196  -0.0227  1.0000  0.0247  -1.6637   0.0000   0.0000   0.0000   0.1883
  -5.500  -0.3748   0.08391   0.08055  -0.0213  1.0000  0.0252  -1.6222   0.0000   0.0000   0.0000   0.1921
  -5.400  -0.3749   0.08278   0.07944  -0.0199  1.0000  0.0258  -1.5699   0.0000   0.0000   0.0000   0.1959
  -5.300  -0.3739   0.08174   0.07841  -0.0190  1.0000  0.0265  -1.5245   0.0000   0.0000   0.0000   0.1983
  -5.200  -0.3723   0.08071   0.07739  -0.0186  1.0000  0.0271  -1.4886   0.0000   0.0000   0.0000   0.1991
  -5.100  -0.3700   0.07966   0.07635  -0.0186  1.0000  0.0278  -1.4601   0.0000   0.0000   0.0000   0.1989
  -5.000  -0.3671   0.07857   0.07528  -0.0189  1.0000  0.0286  -1.4369   0.0000   0.0000   0.0000   0.1976
  -4.900  -0.3637   0.07744   0.07416  -0.0195  1.0000  0.0294  -1.4180   0.0000   0.0000   0.0000   0.1955
  -4.800  -0.3596   0.07626   0.07299  -0.0203  1.0000  0.0303  -1.4024   0.0000   0.0000   0.0000   0.1926
  -4.700  -0.3547   0.07502   0.07175  -0.0214  1.0000  0.0314  -1.3896   0.0000   0.0000   0.0000   0.1887
  -4.600  -0.3489   0.07371   0.07045  -0.0229  1.0000  0.0326  -1.3798   0.0000   0.0000   0.0000   0.1836
  -4.500  -0.3419   0.07233   0.06907  -0.0246  1.0000  0.0340  -1.3735   0.0000   0.0000   0.0000   0.1770
  -4.400  -0.3328   0.07085   0.06758  -0.0271  1.0000  0.0358  -1.3727   0.0000   0.0000   0.0000   0.1676
  -4.300  -0.3168   0.06929   0.06600  -0.0318  1.0000  0.0385  -1.3896   0.0000   0.0000   0.0000   0.1488
  -3.800  -0.2659   0.05995   0.05664  -0.0442  1.0000  0.0482  -1.3512   0.0000   0.0000   0.0000   0.0829
  -3.700  -0.2633   0.06037   0.05707  -0.0427  1.0000  0.0587  -1.2442   0.0000   0.0000   0.0000   0.0867
  -3.600  -0.2264   0.05905   0.05560  -0.0519  1.0000  0.0638  -1.2686   0.0000   0.0000   0.0000   0.0198
  -3.500  -0.1984   0.05884   0.05521  -0.0572  1.0000  0.0655  -1.2626   0.0000   0.0000   0.0000  -0.0392
  -3.400  -0.1796   0.05746   0.05339  -0.0605  1.0000  0.0659  -1.2356   0.0000   0.0000   0.0000  -0.0879
  -3.300  -0.1555   0.04991   0.04574  -0.0692  1.0000  0.0683  -1.3115   0.0000   0.0000   0.0000  -0.1965
  -3.200  -0.1488   0.04799   0.04387  -0.0697  1.0000  0.0698  -1.2742   0.0000   0.0000   0.0000  -0.2200
  -3.100  -0.1424   0.04689   0.04279  -0.0697  1.0000  0.0711  -1.2307   0.0000   0.0000   0.0000  -0.2409
  -3.000  -0.1344   0.04593   0.04184  -0.0699  1.0000  0.0725  -1.1882   0.0000   0.0000   0.0000  -0.2721
  -2.900  -0.1204   0.04488   0.04078  -0.0714  0.9989  0.0748  -1.1383   0.0000   0.0000   0.0000  -0.3448
  -2.600  -0.0593   0.04139   0.03704  -0.0805  0.9963  0.0880  -1.0410   0.0000   0.0000   0.0000  -1.1117
  -2.500  -0.0274   0.04412   0.03943  -0.0834  0.9933  0.0950  -1.0061   0.0000   0.0000   0.0000  -2.8083
  -2.400  -0.0051   0.03708   0.03234  -0.0906  0.9958  0.1010  -1.0273   0.0000   0.0000   0.0000  -17.4816
  -2.300   0.0080   0.03606   0.03136  -0.0917  0.9946  0.1040  -0.9747   0.0000   0.0000   0.0000  11.7455
  -2.200   0.0235   0.03523   0.03053  -0.0932  0.9933  0.1080  -0.9261   0.0000   0.0000   0.0000   4.2194
  -2.100   0.0420   0.03444   0.02968  -0.0952  0.9921  0.1137  -0.8848   0.0000   0.0000   0.0000   2.5211
  -2.000   0.0642   0.03423   0.02932  -0.0976  0.9907  0.1230  -0.8512   0.0000   0.0000   0.0000   1.7727
  -1.900   0.0903   0.03202   0.02688  -0.1024  0.9909  0.1366  -0.8305   0.0000   0.0000   0.0000   1.3858
  -1.800   0.1056   0.03102   0.02594  -0.1037  0.9900  0.1408  -0.7848   0.0000   0.0000   0.0000   1.2340
  -1.500   0.1927   0.02517   0.01866  -0.1127  0.9908  0.0679  -0.9808   0.0000   0.0000   0.0000   0.8359
  -1.400   0.2161   0.02260   0.01580  -0.1153  0.9921  0.0536  -1.0334   0.0000   0.0000   0.0000   0.7844
  -1.300   0.2370   0.02153   0.01429  -0.1165  0.9921  0.0453  -1.0887   0.0000   0.0000   0.0000   0.7423
  -1.200   0.2522   0.02182   0.01454  -0.1170  0.9904  0.0430  -1.0320   0.0000   0.0000   0.0000   0.7147
  -1.100   0.2701   0.02107   0.01366  -0.1184  0.9901  0.0408  -1.0080   0.0000   0.0000   0.0000   0.6888
  -1.000   0.2889   0.02015   0.01258  -0.1198  0.9900  0.0392  -0.9939   0.0000   0.0000   0.0000   0.6654
  -0.900   0.3070   0.01952   0.01183  -0.1212  0.9896  0.0379  -0.9683   0.0000   0.0000   0.0000   0.6450
  -0.800   0.3250   0.01902   0.01125  -0.1224  0.9892  0.0367  -0.9366   0.0000   0.0000   0.0000   0.6270
  -0.700   0.3427   0.01863   0.01078  -0.1237  0.9884  0.0357  -0.9057   0.0000   0.0000   0.0000   0.6111
  -0.600   0.3588   0.01831   0.01040  -0.1247  0.9866  0.0349  -0.8724   0.0000   0.0000   0.0000   0.5976
  -0.500   0.3752   0.01806   0.01010  -0.1257  0.9848  0.0344  -0.8349   0.0000   0.0000   0.0000   0.5852
  -0.400   0.3919   0.01789   0.00986  -0.1269  0.9830  0.0340  -0.7938   0.0000   0.0000   0.0000   0.5737
  -0.300   0.4086   0.01778   0.00967  -0.1280  0.9813  0.0339  -0.7500   0.0000   0.0000   0.0000   0.5632
  -0.200   0.4255   0.01771   0.00953  -0.1292  0.9797  0.0342  -0.7039   0.0000   0.0000   0.0000   0.5534
  -0.100   0.4427   0.01768   0.00942  -0.1304  0.9781  0.0349  -0.6554   0.0000   0.0000   0.0000   0.5443
   0.000   0.4603   0.01767   0.00936  -0.1317  0.9767  0.0362  -0.6051   0.0000   0.0000   0.0000   0.5357
   0.100   0.4775   0.01768   0.00933  -0.1329  0.9752  0.0384  -0.5550   0.0000   0.0000   0.0000   0.5279
   0.200   0.4892   0.01762   0.00927  -0.1331  0.9710  0.0416  -0.5152   0.0000   0.0000   0.0000   0.5215
   0.300   0.5073   0.01716   0.00934  -0.1349  0.9696  0.1970  -0.4823   0.0000   0.0000   0.0000   0.5153
   0.400   0.5242   0.01689   0.00943  -0.1364  0.9677  0.3195  -0.4956   0.0000   0.0000   0.0000   0.5095
   0.500   0.5345   0.01572   0.00967  -0.1360  0.9678  0.8222  -0.5067   0.0000   0.0000   0.0000   0.5036
   0.600   0.5458   0.01557   0.00957  -0.1359  0.9634  1.0000  -0.5183   0.0000   0.0000   0.0000   0.4981
   0.700   0.5635   0.01563   0.00968  -0.1371  0.9613  1.0000  -0.5339   0.0000   0.0000   0.0000   0.4924
   0.800   0.5816   0.01568   0.00971  -0.1386  0.9596  1.0000  -0.5501   0.0000   0.0000   0.0000   0.4873
   0.900   0.5979   0.01574   0.00974  -0.1397  0.9574  1.0000  -0.5652   0.0000   0.0000   0.0000   0.4825
   1.000   0.6062   0.01573   0.00973  -0.1392  0.9516  1.0000  -0.5765   0.0000   0.0000   0.0000   0.4784
   1.100   0.6206   0.01572   0.00970  -0.1398  0.9477  1.0000  -0.5926   0.0000   0.0000   0.0000   0.4741
   1.200   0.6371   0.01569   0.00966  -0.1409  0.9446  1.0000  -0.6103   0.0000   0.0000   0.0000   0.4698
   1.300   0.6547   0.01565   0.00962  -0.1421  0.9420  1.0000  -0.6313   0.0000   0.0000   0.0000   0.4657
   1.400   0.6729   0.01561   0.00957  -0.1435  0.9399  1.0000  -0.6537   0.0000   0.0000   0.0000   0.4618
   1.500   0.6921   0.01555   0.00950  -0.1450  0.9380  1.0000  -0.6771   0.0000   0.0000   0.0000   0.4580
   1.600   0.7052   0.01552   0.00948  -0.1454  0.9342  1.0000  -0.6954   0.0000   0.0000   0.0000   0.4545
   1.700   0.7138   0.01552   0.00948  -0.1449  0.9282  1.0000  -0.7128   0.0000   0.0000   0.0000   0.4513
   1.800   0.7283   0.01544   0.00941  -0.1454  0.9240  1.0000  -0.7364   0.0000   0.0000   0.0000   0.4479
   1.900   0.7451   0.01531   0.00930  -0.1464  0.9205  1.0000  -0.7625   0.0000   0.0000   0.0000   0.4446
   2.000   0.7632   0.01515   0.00915  -0.1476  0.9176  1.0000  -0.7902   0.0000   0.0000   0.0000   0.4415
   2.100   0.7826   0.01495   0.00897  -0.1490  0.9152  1.0000  -0.8233   0.0000   0.0000   0.0000   0.4384
   2.200   0.8029   0.01471   0.00876  -0.1506  0.9130  1.0000  -0.8619   0.0000   0.0000   0.0000   0.4354
   2.300   0.8235   0.01447   0.00854  -0.1522  0.9113  1.0000  -0.9098   0.0000   0.0000   0.0000   0.4326
   2.400   0.8254   0.01458   0.00868  -0.1503  0.9025  1.0000  -0.9284   0.0000   0.0000   0.0000   0.4298
   2.500   0.8386   0.01445   0.00857  -0.1505  0.8974  1.0000  -0.9652   0.0000   0.0000   0.0000   0.4271
   2.600   0.8548   0.01423   0.00839  -0.1512  0.8935  1.0000  -1.0070   0.0000   0.0000   0.0000   0.4244
   2.700   0.8724   0.01397   0.00817  -0.1521  0.8903  1.0000  -1.0513   0.0000   0.0000   0.0000   0.4218
   2.800   0.8914   0.01363   0.00788  -0.1532  0.8874  1.0000  -1.0984   0.0000   0.0000   0.0000   0.4193
   2.900   0.9124   0.01324   0.00754  -0.1547  0.8846  1.0000  -1.1490   0.0000   0.0000   0.0000   0.4169
   3.000   0.9338   0.01288   0.00723  -0.1563  0.8819  1.0000  -1.2005   0.0000   0.0000   0.0000   0.4146
   3.100   0.9388   0.01292   0.00731  -0.1549  0.8731  1.0000  -1.2303   0.0000   0.0000   0.0000   0.4121
   3.200   0.9508   0.01278   0.00721  -0.1547  0.8657  1.0000  -1.3085   0.0000   0.0000   0.0000   0.4097
   3.300   0.9669   0.01252   0.00699  -0.1553  0.8594  1.0000  -1.4044   0.0000   0.0000   0.0000   0.4075
   3.400   0.9857   0.01220   0.00672  -0.1563  0.8538  1.0000  -1.5142   0.0000   0.0000   0.0000   0.4054
   3.600   0.9991   0.01386   0.00532  -0.1496  0.2987  1.0000  -2.0403   0.0000   0.0000   0.0000   0.3963
   3.700   1.0002   0.01515   0.00587  -0.1480  0.1753  1.0000  -2.1118   0.0000   0.0000   0.0000   0.3945
   3.800   1.0000   0.01685   0.00662  -0.1464  0.0348  1.0000  -2.1566   0.0000   0.0000   0.0000   0.3928
   3.900   1.0086   0.01734   0.00704  -0.1457  0.0224  1.0000  -2.2238   0.0000   0.0000   0.0000   0.3908
   4.000   1.0183   0.01763   0.00736  -0.1453  0.0204  1.0000  -2.3022   0.0000   0.0000   0.0000   0.3888
   4.100   1.0280   0.01792   0.00770  -0.1448  0.0193  1.0000  -2.3833   0.0000   0.0000   0.0000   0.3869
   4.200   1.0376   0.01820   0.00805  -0.1444  0.0185  1.0000  -2.4632   0.0000   0.0000   0.0000   0.3851
   4.300   1.0472   0.01850   0.00841  -0.1439  0.0179  1.0000  -2.5422   0.0000   0.0000   0.0000   0.3833
   4.400   1.0566   0.01882   0.00879  -0.1435  0.0174  1.0000  -2.6200   0.0000   0.0000   0.0000   0.3816
   4.500   1.0658   0.01916   0.00920  -0.1430  0.0170  1.0000  -2.6961   0.0000   0.0000   0.0000   0.3798
   4.600   1.0749   0.01953   0.00964  -0.1425  0.0168  1.0000  -2.7704   0.0000   0.0000   0.0000   0.3781
   4.700   1.0838   0.01993   0.01010  -0.1419  0.0166  1.0000  -2.8426   0.0000   0.0000   0.0000   0.3764
   4.800   1.0923   0.02037   0.01062  -0.1413  0.0165  1.0000  -2.9119   0.0000   0.0000   0.0000   0.3747
   4.900   1.1007   0.02085   0.01116  -0.1406  0.0164  1.0000  -2.9785   0.0000   0.0000   0.0000   0.3730
   5.000   1.1087   0.02138   0.01176  -0.1399  0.0164  1.0000  -3.0417   0.0000   0.0000   0.0000   0.3713
   5.100   1.1167   0.02196   0.01240  -0.1391  0.0165  1.0000  -3.1019   0.0000   0.0000   0.0000   0.3696
   5.200   1.1246   0.02261   0.01311  -0.1383  0.0167  1.0000  -3.1588   0.0000   0.0000   0.0000   0.3679
   5.300   1.1327   0.02332   0.01387  -0.1376  0.0169  1.0000  -3.2131   0.0000   0.0000   0.0000   0.3663
   5.400   1.1410   0.02411   0.01471  -0.1368  0.0172  1.0000  -3.2644   0.0000   0.0000   0.0000   0.3646
   5.500   1.1499   0.02497   0.01564  -0.1361  0.0175  1.0000  -3.3121   0.0000   0.0000   0.0000   0.3630
   5.600   1.1594   0.02594   0.01667  -0.1355  0.0179  1.0000  -3.3567   0.0000   0.0000   0.0000   0.3614
   5.700   1.1695   0.02703   0.01784  -0.1350  0.0184  1.0000  -3.3976   0.0000   0.0000   0.0000   0.3598
   5.800   1.1801   0.02826   0.01916  -0.1345  0.0190  1.0000  -3.4336   0.0000   0.0000   0.0000   0.3583
   5.900   1.1909   0.02968   0.02068  -0.1341  0.0197  1.0000  -3.4628   0.0000   0.0000   0.0000   0.3567
   6.000   1.2016   0.03138   0.02252  -0.1336  0.0204  1.0000  -3.4805   0.0000   0.0000   0.0000   0.3552
   6.100   1.2117   0.03381   0.02513  -0.1331  0.0213  1.0000  -3.4667   0.0000   0.0000   0.0000   0.3538
   6.200   1.2227   0.03484   0.02622  -0.1327  0.0224  1.0000  -3.5237   0.0000   0.0000   0.0000   0.3524
   6.300   1.2340   0.03439   0.02580  -0.1322  0.0237  1.0000  -3.6278   0.0000   0.0000   0.0000   0.3508
   6.400   1.2470   0.03593   0.02774  -0.1310  0.0272  1.0000  -3.5594   0.0000   0.0000   0.0000   0.3486
   6.500   1.2560   0.03892   0.03118  -0.1295  0.0311  1.0000  -3.4476   0.0000   0.0000   0.0000   0.3466
   6.600   1.2619   0.04182   0.03434  -0.1283  0.0340  1.0000  -3.3954   0.0000   0.0000   0.0000   0.3451
   8.200   1.2792   0.08870   0.08424  -0.1102  0.0813  1.0000  -2.7502   0.0000   0.0000   0.0000   0.3285
   8.300   1.2760   0.08867   0.08435  -0.1087  0.0808  1.0000  -2.7582   0.0000   0.0000   0.0000   0.3274
   8.400   1.2754   0.08593   0.08180  -0.1063  0.0786  1.0000  -2.7872   0.0000   0.0000   0.0000   0.3255
   8.500   1.2713   0.08646   0.08246  -0.1050  0.0771  1.0000  -2.7831   0.0000   0.0000   0.0000   0.3247
   8.600   1.2656   0.08768   0.08378  -0.1039  0.0760  1.0000  -2.7711   0.0000   0.0000   0.0000   0.3241
   8.700   1.2577   0.08906   0.08524  -0.1028  0.0753  1.0000  -2.7534   0.0000   0.0000   0.0000   0.3236
   8.800   1.2484   0.09046   0.08670  -0.1016  0.0749  1.0000  -2.7333   0.0000   0.0000   0.0000   0.3232
   8.900   1.2387   0.09197   0.08827  -0.1006  0.0745  1.0000  -2.7115   0.0000   0.0000   0.0000   0.3229
   9.000   1.2288   0.09362   0.08998  -0.0999  0.0741  1.0000  -2.6877   0.0000   0.0000   0.0000   0.3229
   9.100   1.2188   0.09543   0.09185  -0.0995  0.0738  1.0000  -2.6618   0.0000   0.0000   0.0000   0.3232
   9.200   1.2089   0.09743   0.09390  -0.0996  0.0735  1.0000  -2.6333   0.0000   0.0000   0.0000   0.3239
   9.300   1.1988   0.09958   0.09610  -0.1000  0.0732  1.0000  -2.6019   0.0000   0.0000   0.0000   0.3248
   9.400   1.1885   0.10192   0.09848  -0.1009  0.0729  1.0000  -2.5674   0.0000   0.0000   0.0000   0.3261
   9.500   1.1785   0.10450   0.10111  -0.1022  0.0726  1.0000  -2.5297   0.0000   0.0000   0.0000   0.3279
   9.600   1.1690   0.10737   0.10402  -0.1041  0.0723  1.0000  -2.4882   0.0000   0.0000   0.0000   0.3301
   9.700   1.1600   0.11055   0.10723  -0.1065  0.0718  1.0000  -2.4430   0.0000   0.0000   0.0000   0.3328
   9.800   1.1518   0.11413   0.11083  -0.1095  0.0713  1.0000  -2.3931   0.0000   0.0000   0.0000   0.3360
   9.900   1.1449   0.11793   0.11463  -0.1128  0.0707  1.0000  -2.3429   0.0000   0.0000   0.0000   0.3394
  10.000   1.1397   0.12128   0.11797  -0.1154  0.0699  1.0000  -2.3052   0.0000   0.0000   0.0000   0.3420
  10.100   1.1357   0.12431   0.12100  -0.1175  0.0692  1.0000  -2.2758   0.0000   0.0000   0.0000   0.3441
  10.200   1.1323   0.12713   0.12381  -0.1193  0.0684  1.0000  -2.2523   0.0000   0.0000   0.0000   0.3459
  10.300   1.1295   0.12979   0.12646  -0.1209  0.0677  1.0000  -2.2332   0.0000   0.0000   0.0000   0.3475
  10.400   1.1273   0.13232   0.12899  -0.1223  0.0670  1.0000  -2.2180   0.0000   0.0000   0.0000   0.3489
  10.500   1.1255   0.13475   0.13141  -0.1235  0.0663  1.0000  -2.2064   0.0000   0.0000   0.0000   0.3500
  10.600   1.1241   0.13709   0.13374  -0.1246  0.0657  1.0000  -2.1980   0.0000   0.0000   0.0000   0.3511
  10.700   1.1231   0.13934   0.13599  -0.1256  0.0651  1.0000  -2.1929   0.0000   0.0000   0.0000   0.3519
  10.800   1.1225   0.14151   0.13815  -0.1265  0.0644  1.0000  -2.1911   0.0000   0.0000   0.0000   0.3527
  10.900   1.1223   0.14360   0.14025  -0.1272  0.0638  1.0000  -2.1926   0.0000   0.0000   0.0000   0.3533
  11.000   1.1223   0.14565   0.14229  -0.1279  0.0633  1.0000  -2.1967   0.0000   0.0000   0.0000   0.3537
  11.100   1.1225   0.14766   0.14430  -0.1285  0.0627  1.0000  -2.2028   0.0000   0.0000   0.0000   0.3541
  11.200   1.1231   0.14962   0.14625  -0.1290  0.0622  1.0000  -2.2126   0.0000   0.0000   0.0000   0.3544
  11.300   1.1240   0.15149   0.14813  -0.1293  0.0617  1.0000  -2.2264   0.0000   0.0000   0.0000   0.3544
  11.400   1.1253   0.15331   0.14994  -0.1294  0.0611  1.0000  -2.2448   0.0000   0.0000   0.0000   0.3543
  11.500   1.1271   0.15512   0.15175  -0.1293  0.0606  1.0000  -2.2690   0.0000   0.0000   0.0000   0.3539
  11.600   1.1295   0.15700   0.15363  -0.1288  0.0600  1.0000  -2.3013   0.0000   0.0000   0.0000   0.3531
  11.700   1.1285   0.15970   0.15633  -0.1290  0.0592  1.0000  -2.3073   0.0000   0.0000   0.0000   0.3532
  11.800   1.1117   0.16829   0.16486  -0.1314  0.0575  1.0000  -2.1650   0.0000   0.0000   0.0000   0.3570
  11.900   1.1111   0.17069   0.16726  -0.1329  0.0575  1.0000  -2.1407   0.0000   0.0000   0.0000   0.3584
  12.000   1.1106   0.17305   0.16961  -0.1345  0.0574  1.0000  -2.1178   0.0000   0.0000   0.0000   0.3597
  12.100   1.1104   0.17535   0.17191  -0.1360  0.0574  1.0000  -2.0961   0.0000   0.0000   0.0000   0.3610
  12.200   1.1102   0.17761   0.17416  -0.1375  0.0573  1.0000  -2.0754   0.0000   0.0000   0.0000   0.3623
  12.300   1.1102   0.17980   0.17635  -0.1389  0.0572  1.0000  -2.0556   0.0000   0.0000   0.0000   0.3635
  12.400   1.1104   0.18193   0.17847  -0.1404  0.0571  1.0000  -2.0365   0.0000   0.0000   0.0000   0.3647
  12.500   1.1107   0.18396   0.18050  -0.1419  0.0570  1.0000  -2.0179   0.0000   0.0000   0.0000   0.3659
  12.600   1.1111   0.18586   0.18239  -0.1434  0.0568  1.0000  -1.9997   0.0000   0.0000   0.0000   0.3671
  12.700   1.1118   0.18756   0.18409  -0.1450  0.0564  1.0000  -1.9812   0.0000   0.0000   0.0000   0.3683
  12.800   1.1125   0.18905   0.18558  -0.1469  0.0559  1.0000  -1.9576   0.0000   0.0000   0.0000   0.3698
  12.900   1.1120   0.19065   0.18717  -0.1492  0.0550  1.0000  -1.9192   0.0000   0.0000   0.0000   0.3719
  13.000   1.1119   0.19252   0.18903  -0.1513  0.0540  1.0000  -1.8853   0.0000   0.0000   0.0000   0.3737
  13.100   1.1119   0.19459   0.19110  -0.1530  0.0531  1.0000  -1.8583   0.0000   0.0000   0.0000   0.3751
  13.200   1.1122   0.19674   0.19325  -0.1545  0.0522  1.0000  -1.8372   0.0000   0.0000   0.0000   0.3763
  13.300   1.1126   0.19892   0.19542  -0.1558  0.0514  1.0000  -1.8206   0.0000   0.0000   0.0000   0.3773
  13.400   1.1132   0.20111   0.19761  -0.1570  0.0507  1.0000  -1.8070   0.0000   0.0000   0.0000   0.3782
  13.500   1.1139   0.20330   0.19980  -0.1581  0.0500  1.0000  -1.7958   0.0000   0.0000   0.0000   0.3789
  13.600   1.1147   0.20548   0.20198  -0.1591  0.0493  1.0000  -1.7864   0.0000   0.0000   0.0000   0.3796
  13.700   1.1155   0.20766   0.20416  -0.1601  0.0486  1.0000  -1.7786   0.0000   0.0000   0.0000   0.3803
  13.800   1.1163   0.20983   0.20633  -0.1610  0.0479  1.0000  -1.7722   0.0000   0.0000   0.0000   0.3809
  13.900   1.1173   0.21201   0.20851  -0.1619  0.0473  1.0000  -1.7671   0.0000   0.0000   0.0000   0.3814
  14.000   1.1183   0.21419   0.21069  -0.1628  0.0467  1.0000  -1.7634   0.0000   0.0000   0.0000   0.3819
  14.100   1.1194   0.21637   0.21287  -0.1636  0.0461  1.0000  -1.7608   0.0000   0.0000   0.0000   0.3824
  14.200   1.1205   0.21854   0.21504  -0.1644  0.0456  1.0000  -1.7595   0.0000   0.0000   0.0000   0.3828
  14.300   1.1217   0.22072   0.21722  -0.1651  0.0450  1.0000  -1.7594   0.0000   0.0000   0.0000   0.3832
  14.400   1.1230   0.22289   0.21939  -0.1659  0.0445  1.0000  -1.7606   0.0000   0.0000   0.0000   0.3836
  14.500   1.1243   0.22506   0.22157  -0.1665  0.0440  1.0000  -1.7632   0.0000   0.0000   0.0000   0.3838
  14.600   1.1256   0.22724   0.22374  -0.1672  0.0435  1.0000  -1.7673   0.0000   0.0000   0.0000   0.3841
  14.700   1.1271   0.22941   0.22591  -0.1678  0.0430  1.0000  -1.7731   0.0000   0.0000   0.0000   0.3843
  14.800   1.1286   0.23158   0.22809  -0.1683  0.0425  1.0000  -1.7808   0.0000   0.0000   0.0000   0.3844
  14.900   1.1302   0.23376   0.23027  -0.1688  0.0421  1.0000  -1.7908   0.0000   0.0000   0.0000   0.3845
  15.000   1.1319   0.23596   0.23247  -0.1692  0.0416  1.0000  -1.8036   0.0000   0.0000   0.0000   0.3844
  15.100   1.1339   0.23817   0.23468  -0.1695  0.0412  1.0000  -1.8201   0.0000   0.0000   0.0000   0.3843
  15.200   1.1361   0.24041   0.23694  -0.1696  0.0407  1.0000  -1.8415   0.0000   0.0000   0.0000   0.3840
  15.300   1.1389   0.24275   0.23928  -0.1695  0.0402  1.0000  -1.8704   0.0000   0.0000   0.0000   0.3834
  15.400   1.1423   0.24523   0.24177  -0.1692  0.0397  1.0000  -1.9090   0.0000   0.0000   0.0000   0.3825
  15.500   1.1453   0.24796   0.24451  -0.1687  0.0392  1.0000  -1.9501   0.0000   0.0000   0.0000   0.3815
  15.600   1.1474   0.25190   0.24846  -0.1678  0.0385  1.0000  -1.9878   0.0000   0.0000   0.0000   0.3803
  15.700   1.1395   0.26055   0.25707  -0.1686  0.0375  1.0000  -1.8816   0.0000   0.0000   0.0000   0.3820
  15.800   1.1399   0.26292   0.25944  -0.1695  0.0375  1.0000  -1.8693   0.0000   0.0000   0.0000   0.3826
  15.900   1.1403   0.26528   0.26180  -0.1704  0.0375  1.0000  -1.8570   0.0000   0.0000   0.0000   0.3831
  16.000   1.1407   0.26761   0.26413  -0.1713  0.0374  1.0000  -1.8447   0.0000   0.0000   0.0000   0.3837
  16.100   1.1410   0.26991   0.26644  -0.1721  0.0374  1.0000  -1.8325   0.0000   0.0000   0.0000   0.3843
  16.200   1.1412   0.27218   0.26872  -0.1730  0.0374  1.0000  -1.8202   0.0000   0.0000   0.0000   0.3849
  16.300   1.1413   0.27442   0.27096  -0.1738  0.0373  1.0000  -1.8078   0.0000   0.0000   0.0000   0.3855
  16.400   1.1414   0.27662   0.27316  -0.1747  0.0373  1.0000  -1.7954   0.0000   0.0000   0.0000   0.3860
  16.500   1.1413   0.27876   0.27531  -0.1755  0.0372  1.0000  -1.7829   0.0000   0.0000   0.0000   0.3866
  16.600   1.1412   0.28085   0.27741  -0.1763  0.0371  1.0000  -1.7702   0.0000   0.0000   0.0000   0.3872
  16.700   1.1409   0.28287   0.27943  -0.1771  0.0370  1.0000  -1.7573   0.0000   0.0000   0.0000   0.3878
  16.800   1.1405   0.28480   0.28137  -0.1780  0.0369  1.0000  -1.7432   0.0000   0.0000   0.0000   0.3885
  16.900   1.1391   0.28663   0.28321  -0.1789  0.0368  1.0000  -1.7226   0.0000   0.0000   0.0000   0.3893
  17.000   1.1374   0.28836   0.28494  -0.1799  0.0366  1.0000  -1.7006   0.0000   0.0000   0.0000   0.3903
  17.100   1.1346   0.28993   0.28651  -0.1809  0.0364  1.0000  -1.6725   0.0000   0.0000   0.0000   0.3914
  17.200   1.1315   0.29143   0.28802  -0.1820  0.0362  1.0000  -1.6423   0.0000   0.0000   0.0000   0.3927
  17.500   1.1236   0.29599   0.29290  -0.1853  0.0340  1.0000  -1.5381   0.0000   0.0000   0.0000   0.3964
  17.600   1.1209   0.29787   0.29481  -0.1857  0.0334  1.0000  -1.5187   0.0000   0.0000   0.0000   0.3970
  17.700   1.1174   0.29967   0.29663  -0.1859  0.0329  1.0000  -1.5009   0.0000   0.0000   0.0000   0.3975
  17.800   1.1127   0.30127   0.29826  -0.1859  0.0324  1.0000  -1.4826   0.0000   0.0000   0.0000   0.3980
  17.900   1.0632   0.29432   0.29138  -0.1793  0.0332  1.0000  -1.3789   0.0000   0.0000   0.0000   0.3996
  18.000   1.0523   0.29363   0.29073  -0.1782  0.0329  1.0000  -1.3481   0.0000   0.0000   0.0000   0.4003
  18.100   1.0442   0.29344   0.29057  -0.1776  0.0325  1.0000  -1.3238   0.0000   0.0000   0.0000   0.4009
  18.200   1.0376   0.29347   0.29063  -0.1772  0.0321  1.0000  -1.3033   0.0000   0.0000   0.0000   0.4014
  18.300   1.0319   0.29363   0.29081  -0.1768  0.0317  1.0000  -1.2853   0.0000   0.0000   0.0000   0.4019
  18.400   1.0269   0.29388   0.29108  -0.1766  0.0313  1.0000  -1.2693   0.0000   0.0000   0.0000   0.4024
  18.500   1.0224   0.29418   0.29141  -0.1764  0.0309  1.0000  -1.2549   0.0000   0.0000   0.0000   0.4028
  18.600   1.0182   0.29453   0.29178  -0.1762  0.0305  1.0000  -1.2418   0.0000   0.0000   0.0000   0.4032
  18.700   1.0144   0.29491   0.29218  -0.1761  0.0301  1.0000  -1.2298   0.0000   0.0000   0.0000   0.4035
  18.800   1.0109   0.29533   0.29261  -0.1760  0.0297  1.0000  -1.2189   0.0000   0.0000   0.0000   0.4039
  18.900   1.0076   0.29577   0.29306  -0.1759  0.0294  1.0000  -1.2089   0.0000   0.0000   0.0000   0.4042
  19.000   1.0046   0.29622   0.29354  -0.1758  0.0290  1.0000  -1.1999   0.0000   0.0000   0.0000   0.4046
  19.100   1.0018   0.29670   0.29403  -0.1758  0.0286  1.0000  -1.1917   0.0000   0.0000   0.0000   0.4049
  19.200   0.9991   0.29718   0.29453  -0.1758  0.0283  1.0000  -1.1843   0.0000   0.0000   0.0000   0.4052
  19.300   0.9966   0.29767   0.29503  -0.1757  0.0278  1.0000  -1.1789   0.0000   0.0000   0.0000   0.4054
  19.400   0.9943   0.29816   0.29554  -0.1757  0.0274  1.0000  -1.1746   0.0000   0.0000   0.0000   0.4057
  19.500   0.9921   0.29866   0.29605  -0.1757  0.0270  1.0000  -1.1714   0.0000   0.0000   0.0000   0.4059
  19.600   0.9900   0.29915   0.29656  -0.1757  0.0266  1.0000  -1.1694   0.0000   0.0000   0.0000   0.4061
  19.700   0.9880   0.29965   0.29707  -0.1757  0.0262  1.0000  -1.1686   0.0000   0.0000   0.0000   0.4063
  19.800   0.9862   0.30014   0.29757  -0.1757  0.0258  1.0000  -1.1692   0.0000   0.0000   0.0000   0.4064
  19.900   0.9844   0.30063   0.29807  -0.1757  0.0254  1.0000  -1.1714   0.0000   0.0000   0.0000   0.4066
  20.000   0.9828   0.30111   0.29857  -0.1756  0.0250  1.0000  -1.1754   0.0000   0.0000   0.0000   0.4066
  20.100   0.9813   0.30159   0.29906  -0.1755  0.0247  1.0000  -1.1815   0.0000   0.0000   0.0000   0.4067
  20.200   0.9798   0.30206   0.29955  -0.1754  0.0243  1.0000  -1.1901   0.0000   0.0000   0.0000   0.4066
  20.300   0.9785   0.30254   0.30004  -0.1753  0.0240  1.0000  -1.2018   0.0000   0.0000   0.0000   0.4065
  20.400   0.9774   0.30306   0.30057  -0.1750  0.0236  1.0000  -1.2179   0.0000   0.0000   0.0000   0.4063
  20.500   0.9766   0.30367   0.30120  -0.1746  0.0232  1.0000  -1.2406   0.0000   0.0000   0.0000   0.4058
  20.600   0.9766   0.30469   0.30224  -0.1738  0.0228  1.0000  -1.2756   0.0000   0.0000   0.0000   0.4049


