xflr5 v6.61

 Calculated polar for: E71  (5.15%)

 1 1 Reynolds number fixed          Mach number fixed         

 xtrf =   1.000 (top)        1.000 (bottom)
 Mach =   0.000     Re =     1.000 e 6     Ncrit =   9.000

  alpha     CL        CD       CDp       Cm    Top Xtr Bot Xtr   Cpmin    Chinge    XCp    
 ------- -------- --------- --------- -------- ------- ------- -------- --------- ---------
 -10.000  -0.4001   0.12526   0.12356  -0.0152  1.0000  0.0054  -1.4312   0.0000   0.0000   0.0000   0.2092
  -9.900  -0.3986   0.12424   0.12255  -0.0153  1.0000  0.0058  -1.4182   0.0000   0.0000   0.0000   0.2090
  -9.800  -0.3972   0.12323   0.12153  -0.0153  1.0000  0.0062  -1.4065   0.0000   0.0000   0.0000   0.2088
  -9.700  -0.3956   0.12222   0.12053  -0.0153  1.0000  0.0067  -1.3961   0.0000   0.0000   0.0000   0.2086
  -9.600  -0.3940   0.12124   0.11956  -0.0154  1.0000  0.0072  -1.3866   0.0000   0.0000   0.0000   0.2084
  -9.500  -0.3920   0.12033   0.11866  -0.0154  1.0000  0.0079  -1.3774   0.0000   0.0000   0.0000   0.2082
  -9.400  -0.3892   0.11963   0.11796  -0.0154  1.0000  0.0085  -1.3669   0.0000   0.0000   0.0000   0.2078
  -9.300  -0.3866   0.11904   0.11737  -0.0155  1.0000  0.0089  -1.3567   0.0000   0.0000   0.0000   0.2075
  -9.200  -0.3848   0.11833   0.11667  -0.0155  1.0000  0.0092  -1.3498   0.0000   0.0000   0.0000   0.2074
  -9.100  -0.3835   0.11753   0.11588  -0.0154  1.0000  0.0093  -1.3456   0.0000   0.0000   0.0000   0.2074
  -9.000  -0.3824   0.11668   0.11504  -0.0153  1.0000  0.0093  -1.3433   0.0000   0.0000   0.0000   0.2075
  -8.900  -0.3772   0.11536   0.11372  -0.0165  0.9997  0.0094  -1.3387   0.0000   0.0000   0.0000   0.2037
  -8.800  -0.3721   0.11399   0.11235  -0.0177  0.9994  0.0095  -1.3355   0.0000   0.0000   0.0000   0.1998
  -8.700  -0.3670   0.11261   0.11097  -0.0189  0.9990  0.0095  -1.3334   0.0000   0.0000   0.0000   0.1959
  -8.600  -0.3621   0.11122   0.10958  -0.0201  0.9986  0.0095  -1.3322   0.0000   0.0000   0.0000   0.1919
  -8.500  -0.3571   0.10982   0.10819  -0.0213  0.9983  0.0096  -1.3316   0.0000   0.0000   0.0000   0.1878
  -8.400  -0.3522   0.10842   0.10679  -0.0225  0.9979  0.0096  -1.3315   0.0000   0.0000   0.0000   0.1836
  -8.300  -0.3473   0.10702   0.10539  -0.0237  0.9976  0.0096  -1.3319   0.0000   0.0000   0.0000   0.1792
  -8.200  -0.3422   0.10558   0.10395  -0.0250  0.9972  0.0096  -1.3336   0.0000   0.0000   0.0000   0.1744
  -8.100  -0.3373   0.10408   0.10245  -0.0262  0.9968  0.0096  -1.3375   0.0000   0.0000   0.0000   0.1698
  -8.000  -0.3325   0.10257   0.10094  -0.0273  0.9962  0.0096  -1.3417   0.0000   0.0000   0.0000   0.1651
  -7.900  -0.3275   0.10104   0.09942  -0.0286  0.9955  0.0096  -1.3464   0.0000   0.0000   0.0000   0.1600
  -7.800  -0.3223   0.09950   0.09788  -0.0299  0.9948  0.0096  -1.3515   0.0000   0.0000   0.0000   0.1546
  -7.700  -0.3170   0.09796   0.09634  -0.0312  0.9940  0.0095  -1.3571   0.0000   0.0000   0.0000   0.1487
  -7.600  -0.3116   0.09640   0.09478  -0.0326  0.9933  0.0095  -1.3635   0.0000   0.0000   0.0000   0.1425
  -7.500  -0.3061   0.09484   0.09322  -0.0341  0.9926  0.0095  -1.3707   0.0000   0.0000   0.0000   0.1358
  -7.400  -0.3007   0.09327   0.09166  -0.0355  0.9919  0.0094  -1.3791   0.0000   0.0000   0.0000   0.1289
  -7.300  -0.2952   0.09169   0.09008  -0.0370  0.9913  0.0094  -1.3889   0.0000   0.0000   0.0000   0.1215
  -7.200  -0.2895   0.09006   0.08846  -0.0386  0.9907  0.0093  -1.4010   0.0000   0.0000   0.0000   0.1136
  -7.100  -0.2839   0.08839   0.08678  -0.0403  0.9901  0.0092  -1.4165   0.0000   0.0000   0.0000   0.1051
  -7.000  -0.2784   0.08661   0.08501  -0.0420  0.9896  0.0091  -1.4389   0.0000   0.0000   0.0000   0.0959
  -6.900  -0.2734   0.08463   0.08303  -0.0439  0.9890  0.0088  -1.4763   0.0000   0.0000   0.0000   0.0861
  -6.800  -0.2736   0.08309   0.08150  -0.0443  0.9868  0.0083  -1.5147   0.0000   0.0000   0.0000   0.0848
  -6.700  -0.2709   0.08133   0.07974  -0.0456  0.9845  0.0078  -1.5557   0.0000   0.0000   0.0000   0.0786
  -6.600  -0.2636   0.07921   0.07764  -0.0481  0.9828  0.0071  -1.5996   0.0000   0.0000   0.0000   0.0644
  -6.500  -0.2546   0.07706   0.07548  -0.0510  0.9814  0.0066  -1.6444   0.0000   0.0000   0.0000   0.0463
  -6.400  -0.2449   0.07495   0.07337  -0.0541  0.9803  0.0062  -1.6899   0.0000   0.0000   0.0000   0.0257
  -6.300  -0.2345   0.07280   0.07123  -0.0574  0.9794  0.0058  -1.7368   0.0000   0.0000   0.0000   0.0013
  -6.200  -0.2231   0.07059   0.06902  -0.0610  0.9787  0.0056  -1.7845   0.0000   0.0000   0.0000  -0.0276
  -6.100  -0.2109   0.06834   0.06676  -0.0649  0.9780  0.0054  -1.8314   0.0000   0.0000   0.0000  -0.0619
  -6.000  -0.1979   0.06605   0.06447  -0.0690  0.9774  0.0052  -1.8760   0.0000   0.0000   0.0000  -0.1032
  -5.900  -0.1841   0.06374   0.06215  -0.0733  0.9769  0.0052  -1.9162   0.0000   0.0000   0.0000  -0.1529
  -5.800  -0.1693   0.06140   0.05980  -0.0778  0.9764  0.0052  -1.9499   0.0000   0.0000   0.0000  -0.2147
  -5.700  -0.1536   0.05904   0.05744  -0.0825  0.9760  0.0053  -1.9752   0.0000   0.0000   0.0000  -0.2929
  -5.600  -0.1531   0.05787   0.05627  -0.0824  0.9718  0.0053  -1.9931   0.0000   0.0000   0.0000  -0.2935
  -5.500  -0.1419   0.05589   0.05428  -0.0855  0.9696  0.0055  -2.0069   0.0000   0.0000   0.0000  -0.3587
  -5.400  -0.1276   0.05374   0.05212  -0.0894  0.9681  0.0059  -2.0102   0.0000   0.0000   0.0000  -0.4576
  -5.300  -0.1118   0.05162   0.04998  -0.0935  0.9669  0.0064  -1.9989   0.0000   0.0000   0.0000  -0.5939
  -5.200  -0.0953   0.04965   0.04800  -0.0974  0.9660  0.0071  -1.9693   0.0000   0.0000   0.0000  -0.7815
  -5.100  -0.0788   0.04816   0.04649  -0.1006  0.9653  0.0080  -1.9042   0.0000   0.0000   0.0000  -1.0368
  -5.000  -0.0684   0.05060   0.04894  -0.0976  0.9652  0.0098  -1.5519   0.0000   0.0000   0.0000  -1.1887
  -4.900  -0.0509   0.04890   0.04722  -0.1013  0.9645  0.0099  -1.5246   0.0000   0.0000   0.0000  -1.7544
  -4.700  -0.0144   0.04490   0.04300  -0.1094  0.9634  0.0100  -1.4958   0.0000   0.0000   0.0000  -7.4209
  -4.600   0.0035   0.04280   0.04086  -0.1132  0.9629  0.0100  -1.5051   0.0000   0.0000   0.0000  33.1186
  -4.500   0.0216   0.04068   0.03870  -0.1170  0.9625  0.0100  -1.5157   0.0000   0.0000   0.0000   5.6934
  -4.400   0.0402   0.03855   0.03652  -0.1208  0.9621  0.0100  -1.5278   0.0000   0.0000   0.0000   3.2732
  -4.300   0.0590   0.03641   0.03433  -0.1244  0.9618  0.0100  -1.5415   0.0000   0.0000   0.0000   2.3704
  -4.200   0.0780   0.03430   0.03214  -0.1279  0.9615  0.0100  -1.5565   0.0000   0.0000   0.0000   1.8993
  -4.100   0.0970   0.03222   0.02999  -0.1312  0.9613  0.0100  -1.5722   0.0000   0.0000   0.0000   1.6104
  -4.000   0.1160   0.03021   0.02790  -0.1344  0.9610  0.0101  -1.5879   0.0000   0.0000   0.0000   1.4152
  -3.900   0.1347   0.02830   0.02589  -0.1373  0.9608  0.0101  -1.6018   0.0000   0.0000   0.0000   1.2745
  -3.800   0.1532   0.02650   0.02399  -0.1399  0.9606  0.0101  -1.6122   0.0000   0.0000   0.0000   1.1683
  -3.700   0.1714   0.02485   0.02222  -0.1424  0.9605  0.0101  -1.6181   0.0000   0.0000   0.0000   1.0854
  -3.600   0.1892   0.02333   0.02059  -0.1447  0.9603  0.0101  -1.6176   0.0000   0.0000   0.0000   1.0187
  -3.500   0.2066   0.02196   0.01909  -0.1468  0.9602  0.0101  -1.6114   0.0000   0.0000   0.0000   0.9640
  -3.400   0.2236   0.02071   0.01772  -0.1486  0.9600  0.0101  -1.5986   0.0000   0.0000   0.0000   0.9181
  -3.300   0.2528   0.01490   0.01129  -0.1548  0.9605  0.0114  -1.9613   0.0000   0.0000   0.0000   0.8656
  -3.200   0.2687   0.01392   0.01019  -0.1562  0.9604  0.0120  -1.9180   0.0000   0.0000   0.0000   0.8345
  -3.100   0.2837   0.01331   0.00951  -0.1573  0.9603  0.0125  -1.8430   0.0000   0.0000   0.0000   0.8074
  -3.000   0.2985   0.01284   0.00897  -0.1584  0.9601  0.0130  -1.7587   0.0000   0.0000   0.0000   0.7831
  -2.900   0.3133   0.01242   0.00850  -0.1593  0.9599  0.0136  -1.6716   0.0000   0.0000   0.0000   0.7609
  -2.800   0.3282   0.01204   0.00807  -0.1603  0.9597  0.0143  -1.5846   0.0000   0.0000   0.0000   0.7406
  -2.700   0.3431   0.01169   0.00768  -0.1612  0.9595  0.0150  -1.4968   0.0000   0.0000   0.0000   0.7220
  -2.600   0.3581   0.01135   0.00730  -0.1621  0.9592  0.0159  -1.4114   0.0000   0.0000   0.0000   0.7048
  -2.500   0.3731   0.01102   0.00693  -0.1631  0.9590  0.0170  -1.3288   0.0000   0.0000   0.0000   0.6889
  -2.400   0.3882   0.01072   0.00660  -0.1640  0.9588  0.0183  -1.2484   0.0000   0.0000   0.0000   0.6741
  -2.300   0.3900   0.01057   0.00643  -0.1618  0.9541  0.0190  -1.2096   0.0000   0.0000   0.0000   0.6666
  -2.200   0.4001   0.01038   0.00622  -0.1615  0.9517  0.0204  -1.1430   0.0000   0.0000   0.0000   0.6553
  -2.100   0.4118   0.01036   0.00620  -0.1616  0.9500  0.0220  -1.0606   0.0000   0.0000   0.0000   0.6438
  -1.200   0.5428   0.00677   0.00221  -0.1679  0.9418  0.0283  -0.6487   0.0000   0.0000   0.0000   0.5600
  -1.100   0.5565   0.00675   0.00220  -0.1683  0.9405  0.0244  -0.5875   0.0000   0.0000   0.0000   0.5530
  -1.000   0.5726   0.00640   0.00175  -0.1692  0.9395  0.0211  -0.5816   0.0000   0.0000   0.0000   0.5460
  -0.900   0.5879   0.00623   0.00149  -0.1700  0.9383  0.0186  -0.5535   0.0000   0.0000   0.0000   0.5395
  -0.800   0.6028   0.00611   0.00133  -0.1707  0.9370  0.0169  -0.5140   0.0000   0.0000   0.0000   0.5335
  -0.700   0.6116   0.00606   0.00125  -0.1701  0.9334  0.0160  -0.5160   0.0000   0.0000   0.0000   0.5283
  -0.600   0.6214   0.00601   0.00117  -0.1697  0.9293  0.0153  -0.5243   0.0000   0.0000   0.0000   0.5232
  -0.500   0.6337   0.00595   0.00108  -0.1699  0.9258  0.0147  -0.5340   0.0000   0.0000   0.0000   0.5182
  -0.400   0.6471   0.00587   0.00097  -0.1703  0.9225  0.0142  -0.5451   0.0000   0.0000   0.0000   0.5131
  -0.300   0.6616   0.00579   0.00088  -0.1710  0.9190  0.0141  -0.5581   0.0000   0.0000   0.0000   0.5083
  -0.200   0.6767   0.00571   0.00077  -0.1718  0.9151  0.0156  -0.5725   0.0000   0.0000   0.0000   0.5036
  -0.100   0.6915   0.00566   0.00073  -0.1725  0.9106  0.0210  -0.5868   0.0000   0.0000   0.0000   0.4992
   0.000   0.7032   0.00547   0.00077  -0.1727  0.9059  0.0913  -0.5990   0.0000   0.0000   0.0000   0.4953
   0.100   0.7154   0.00536   0.00077  -0.1730  0.9007  0.1358  -0.6117   0.0000   0.0000   0.0000   0.4914
   0.200   0.7281   0.00525   0.00078  -0.1735  0.8957  0.1814  -0.6263   0.0000   0.0000   0.0000   0.4877
   0.300   0.7411   0.00515   0.00078  -0.1740  0.8904  0.2313  -0.6417   0.0000   0.0000   0.0000   0.4841
   0.400   0.7545   0.00504   0.00078  -0.1745  0.8841  0.2880  -0.6583   0.0000   0.0000   0.0000   0.4806
   0.500   0.7665   0.00494   0.00081  -0.1748  0.8779  0.3444  -0.6756   0.0000   0.0000   0.0000   0.4773
   0.600   0.7781   0.00485   0.00084  -0.1750  0.8708  0.4060  -0.6927   0.0000   0.0000   0.0000   0.4741
   0.700   0.7900   0.00475   0.00088  -0.1752  0.8615  0.4782  -0.7102   0.0000   0.0000   0.0000   0.4709
   0.800   0.8028   0.00451   0.00097  -0.1758  0.8516  0.6441  -0.7289   0.0000   0.0000   0.0000   0.4680
   0.900   0.8105   0.00412   0.00111  -0.1749  0.8437  0.8779  -0.7461   0.0000   0.0000   0.0000   0.4648
   1.000   0.8149   0.00397   0.00107  -0.1732  0.8355  1.0000  -0.7603   0.0000   0.0000   0.0000   0.4614
   1.100   0.8256   0.00403   0.00108  -0.1731  0.8256  1.0000  -0.7805   0.0000   0.0000   0.0000   0.4584
   1.200   0.8362   0.00410   0.00109  -0.1729  0.8162  1.0000  -0.8006   0.0000   0.0000   0.0000   0.4555
   1.300   0.8468   0.00415   0.00111  -0.1728  0.8082  1.0000  -0.8214   0.0000   0.0000   0.0000   0.4527
   1.400   0.8575   0.00419   0.00114  -0.1727  0.7998  1.0000  -0.8465   0.0000   0.0000   0.0000   0.4499
   1.500   0.8677   0.00427   0.00116  -0.1724  0.7866  1.0000  -0.8712   0.0000   0.0000   0.0000   0.4472
   1.600   0.8771   0.00440   0.00119  -0.1720  0.7696  1.0000  -0.8958   0.0000   0.0000   0.0000   0.4445
   1.700   0.8871   0.00448   0.00122  -0.1717  0.7528  1.0000  -0.9276   0.0000   0.0000   0.0000   0.4418
   1.800   0.8954   0.00467   0.00126  -0.1711  0.7262  1.0000  -0.9569   0.0000   0.0000   0.0000   0.4392
   1.900   0.9044   0.00483   0.00131  -0.1706  0.6995  1.0000  -0.9875   0.0000   0.0000   0.0000   0.4367
   2.000   0.9128   0.00503   0.00137  -0.1700  0.6698  1.0000  -1.0172   0.0000   0.0000   0.0000   0.4342
   2.100   0.9191   0.00540   0.00147  -0.1689  0.6144  1.0000  -1.0439   0.0000   0.0000   0.0000   0.4317
   2.200   0.9232   0.00601   0.00164  -0.1676  0.5266  1.0000  -1.0673   0.0000   0.0000   0.0000   0.4293
   2.300   0.9273   0.00675   0.00188  -0.1663  0.4225  1.0000  -1.0903   0.0000   0.0000   0.0000   0.4271
   2.400   0.9322   0.00750   0.00212  -0.1653  0.3225  1.0000  -1.1145   0.0000   0.0000   0.0000   0.4250
   2.500   0.9390   0.00806   0.00232  -0.1646  0.2504  1.0000  -1.1418   0.0000   0.0000   0.0000   0.4229
   2.600   0.9478   0.00838   0.00245  -0.1643  0.2139  1.0000  -1.1758   0.0000   0.0000   0.0000   0.4208
   2.700   0.9568   0.00868   0.00259  -0.1640  0.1831  1.0000  -1.2178   0.0000   0.0000   0.0000   0.4188
   2.800   0.9661   0.00894   0.00270  -0.1637  0.1562  1.0000  -1.2608   0.0000   0.0000   0.0000   0.4167
   2.900   0.9753   0.00921   0.00283  -0.1634  0.1286  1.0000  -1.3038   0.0000   0.0000   0.0000   0.4148
   3.100   0.9935   0.00980   0.00311  -0.1628  0.0750  1.0000  -1.4134   0.0000   0.0000   0.0000   0.4109
   3.200   1.0022   0.01016   0.00329  -0.1624  0.0458  1.0000  -1.5405   0.0000   0.0000   0.0000   0.4090
   3.400   1.0207   0.01094   0.00404  -0.1612  0.0060  1.0000  -2.0392   0.0000   0.0000   0.0000   0.4047
   3.500   1.0311   0.01109   0.00426  -0.1610  0.0063  1.0000  -2.1767   0.0000   0.0000   0.0000   0.4027
   3.600   1.0414   0.01125   0.00445  -0.1607  0.0066  1.0000  -2.2886   0.0000   0.0000   0.0000   0.4008
   3.700   1.0518   0.01140   0.00465  -0.1604  0.0069  1.0000  -2.3850   0.0000   0.0000   0.0000   0.3990
   3.800   1.0621   0.01158   0.00486  -0.1601  0.0072  1.0000  -2.4672   0.0000   0.0000   0.0000   0.3971
   3.900   1.0723   0.01179   0.00512  -0.1598  0.0077  1.0000  -2.5390   0.0000   0.0000   0.0000   0.3952
   4.000   1.0823   0.01204   0.00544  -0.1593  0.0083  1.0000  -2.6002   0.0000   0.0000   0.0000   0.3933
   4.100   1.0918   0.01240   0.00589  -0.1587  0.0091  1.0000  -2.6435   0.0000   0.0000   0.0000   0.3914
   4.200   1.0995   0.01310   0.00672  -0.1576  0.0100  1.0000  -2.6387   0.0000   0.0000   0.0000   0.3893
   4.300   1.1105   0.01318   0.00680  -0.1574  0.0116  1.0000  -2.7251   0.0000   0.0000   0.0000   0.3875
   4.400   1.1210   0.01337   0.00707  -0.1569  0.0148  1.0000  -2.7847   0.0000   0.0000   0.0000   0.3856
   5.200   1.1920   0.01766   0.01167  -0.1518  0.0134  1.0000  -3.4264   0.0000   0.0000   0.0000   0.3722
   5.500   1.2182   0.01943   0.01350  -0.1507  0.0073  1.0000  -3.8958   0.0000   0.0000   0.0000   0.3682
   5.600   1.2276   0.01969   0.01378  -0.1505  0.0065  1.0000  -4.0785   0.0000   0.0000   0.0000   0.3670
   5.700   1.2367   0.01999   0.01408  -0.1502  0.0058  1.0000  -4.2678   0.0000   0.0000   0.0000   0.3658
   5.800   1.2458   0.02032   0.01442  -0.1500  0.0052  1.0000  -4.4605   0.0000   0.0000   0.0000   0.3645
   5.900   1.2546   0.02075   0.01486  -0.1497  0.0047  1.0000  -4.6487   0.0000   0.0000   0.0000   0.3633
   6.000   1.2630   0.02145   0.01557  -0.1492  0.0043  1.0000  -4.8044   0.0000   0.0000   0.0000   0.3621
   6.100   1.2700   0.02353   0.01779  -0.1483  0.0036  1.0000  -4.7981   0.0000   0.0000   0.0000   0.3606
   6.200   1.2702   0.02986   0.02466  -0.1455  0.0031  1.0000  -4.3088   0.0000   0.0000   0.0000   0.3583
   6.300   1.2773   0.03103   0.02596  -0.1446  0.0031  1.0000  -4.3681   0.0000   0.0000   0.0000   0.3568
   6.400   1.2841   0.03224   0.02730  -0.1437  0.0031  1.0000  -4.4235   0.0000   0.0000   0.0000   0.3554
   6.500   1.2904   0.03350   0.02868  -0.1427  0.0031  1.0000  -4.4750   0.0000   0.0000   0.0000   0.3540
   6.600   1.2963   0.03480   0.03011  -0.1417  0.0031  1.0000  -4.5224   0.0000   0.0000   0.0000   0.3526
   6.700   1.3018   0.03615   0.03159  -0.1406  0.0030  1.0000  -4.5658   0.0000   0.0000   0.0000   0.3512
   6.800   1.3069   0.03754   0.03312  -0.1395  0.0030  1.0000  -4.6050   0.0000   0.0000   0.0000   0.3498
   6.900   1.3116   0.03899   0.03469  -0.1384  0.0030  1.0000  -4.6398   0.0000   0.0000   0.0000   0.3485
   7.000   1.3158   0.04048   0.03631  -0.1372  0.0030  1.0000  -4.6701   0.0000   0.0000   0.0000   0.3471
   7.100   1.3195   0.04201   0.03797  -0.1359  0.0030  1.0000  -4.6962   0.0000   0.0000   0.0000   0.3458
   7.200   1.3227   0.04358   0.03967  -0.1347  0.0030  1.0000  -4.7182   0.0000   0.0000   0.0000   0.3445
   7.300   1.3253   0.04519   0.04141  -0.1333  0.0030  1.0000  -4.7361   0.0000   0.0000   0.0000   0.3432
   7.400   1.3274   0.04684   0.04319  -0.1320  0.0030  1.0000  -4.7500   0.0000   0.0000   0.0000   0.3419
   7.500   1.3289   0.04852   0.04500  -0.1306  0.0030  1.0000  -4.7601   0.0000   0.0000   0.0000   0.3407
   7.600   1.3298   0.05024   0.04683  -0.1292  0.0030  1.0000  -4.7666   0.0000   0.0000   0.0000   0.3395
   7.700   1.3301   0.05198   0.04868  -0.1278  0.0030  1.0000  -4.7695   0.0000   0.0000   0.0000   0.3383
   7.800   1.3298   0.05374   0.05057  -0.1263  0.0030  1.0000  -4.7685   0.0000   0.0000   0.0000   0.3371
   7.900   1.3290   0.05553   0.05246  -0.1249  0.0030  1.0000  -4.7640   0.0000   0.0000   0.0000   0.3360
   8.000   1.3274   0.05733   0.05436  -0.1234  0.0030  1.0000  -4.7566   0.0000   0.0000   0.0000   0.3349
   8.100   1.3252   0.05912   0.05625  -0.1219  0.0030  1.0000  -4.7469   0.0000   0.0000   0.0000   0.3338
   8.200   1.3221   0.06089   0.05812  -0.1203  0.0030  1.0000  -4.7349   0.0000   0.0000   0.0000   0.3328
   8.300   1.3183   0.06264   0.05997  -0.1188  0.0030  1.0000  -4.7211   0.0000   0.0000   0.0000   0.3317
   8.400   1.3137   0.06437   0.06178  -0.1172  0.0030  1.0000  -4.7054   0.0000   0.0000   0.0000   0.3308
   8.500   1.3080   0.06599   0.06348  -0.1155  0.0030  1.0000  -4.6880   0.0000   0.0000   0.0000   0.3298
   8.600   1.3003   0.06734   0.06489  -0.1135  0.0030  1.0000  -4.6704   0.0000   0.0000   0.0000   0.3286
   8.700   1.2920   0.06865   0.06627  -0.1114  0.0030  1.0000  -4.6521   0.0000   0.0000   0.0000   0.3275
   8.800   1.2838   0.07008   0.06775  -0.1097  0.0030  1.0000  -4.6324   0.0000   0.0000   0.0000   0.3266
   8.900   1.2756   0.07161   0.06935  -0.1081  0.0030  1.0000  -4.6112   0.0000   0.0000   0.0000   0.3258
   9.000   1.2674   0.07324   0.07104  -0.1069  0.0030  1.0000  -4.5886   0.0000   0.0000   0.0000   0.3252
   9.100   1.2588   0.07492   0.07278  -0.1058  0.0030  1.0000  -4.5647   0.0000   0.0000   0.0000   0.3248
   9.200   1.2499   0.07666   0.07457  -0.1049  0.0030  1.0000  -4.5396   0.0000   0.0000   0.0000   0.3246
   9.300   1.2411   0.07853   0.07650  -0.1044  0.0030  1.0000  -4.5127   0.0000   0.0000   0.0000   0.3247
   9.400   1.2325   0.08055   0.07857  -0.1042  0.0030  1.0000  -4.4838   0.0000   0.0000   0.0000   0.3250
   9.500   1.2241   0.08271   0.08079  -0.1043  0.0030  1.0000  -4.4527   0.0000   0.0000   0.0000   0.3255
   9.600   1.2157   0.08502   0.08315  -0.1047  0.0030  1.0000  -4.4193   0.0000   0.0000   0.0000   0.3263
   9.700   1.2074   0.08748   0.08566  -0.1055  0.0030  1.0000  -4.3830   0.0000   0.0000   0.0000   0.3275
   9.800   1.1993   0.09012   0.08835  -0.1067  0.0030  1.0000  -4.3432   0.0000   0.0000   0.0000   0.3289
   9.900   1.1914   0.09296   0.09124  -0.1082  0.0030  1.0000  -4.2991   0.0000   0.0000   0.0000   0.3307
  10.000   1.1838   0.09603   0.09437  -0.1102  0.0030  1.0000  -4.2498   0.0000   0.0000   0.0000   0.3328
  10.100   1.1765   0.09939   0.09778  -0.1126  0.0030  1.0000  -4.1937   0.0000   0.0000   0.0000   0.3353
  10.200   1.1696   0.10312   0.10155  -0.1154  0.0030  1.0000  -4.1281   0.0000   0.0000   0.0000   0.3382
  10.300   1.1634   0.10733   0.10580  -0.1188  0.0030  1.0000  -4.0484   0.0000   0.0000   0.0000   0.3415
  10.400   1.1584   0.11228   0.11080  -0.1227  0.0030  1.0000  -3.9433   0.0000   0.0000   0.0000   0.3452
  10.500   1.1562   0.11896   0.11752  -0.1272  0.0030  1.0000  -3.7710   0.0000   0.0000   0.0000   0.3494
  10.600   1.1536   0.12363   0.12218  -0.1300  0.0030  1.0000  -3.6656   0.0000   0.0000   0.0000   0.3521
  10.700   1.1508   0.12756   0.12612  -0.1323  0.0030  1.0000  -3.5843   0.0000   0.0000   0.0000   0.3543
  10.800   1.1482   0.13117   0.12972  -0.1344  0.0030  1.0000  -3.5133   0.0000   0.0000   0.0000   0.3563
  10.900   1.1457   0.13457   0.13312  -0.1363  0.0030  1.0000  -3.4487   0.0000   0.0000   0.0000   0.3581
  11.000   1.1434   0.13781   0.13636  -0.1380  0.0030  1.0000  -3.3889   0.0000   0.0000   0.0000   0.3598
  11.100   1.1413   0.14089   0.13944  -0.1397  0.0030  1.0000  -3.3328   0.0000   0.0000   0.0000   0.3614
  11.200   1.1394   0.14371   0.14226  -0.1413  0.0030  1.0000  -3.2804   0.0000   0.0000   0.0000   0.3629
  11.300   1.1377   0.14638   0.14493  -0.1429  0.0030  1.0000  -3.2308   0.0000   0.0000   0.0000   0.3644
  11.400   1.1362   0.14901   0.14756  -0.1443  0.0030  1.0000  -3.1835   0.0000   0.0000   0.0000   0.3658
  11.500   1.1349   0.15162   0.15017  -0.1458  0.0030  1.0000  -3.1382   0.0000   0.0000   0.0000   0.3671
  11.600   1.1338   0.15423   0.15277  -0.1472  0.0030  1.0000  -3.0948   0.0000   0.0000   0.0000   0.3684
  11.700   1.1330   0.15683   0.15537  -0.1486  0.0030  1.0000  -3.0532   0.0000   0.0000   0.0000   0.3696
  11.800   1.1323   0.15942   0.15796  -0.1499  0.0030  1.0000  -3.0132   0.0000   0.0000   0.0000   0.3708
  11.900   1.1317   0.16200   0.16054  -0.1513  0.0030  1.0000  -2.9747   0.0000   0.0000   0.0000   0.3719
  12.000   1.1313   0.16457   0.16311  -0.1526  0.0030  1.0000  -2.9377   0.0000   0.0000   0.0000   0.3730
  12.100   1.1311   0.16713   0.16567  -0.1539  0.0030  1.0000  -2.9021   0.0000   0.0000   0.0000   0.3740
  12.200   1.1310   0.16968   0.16822  -0.1551  0.0030  1.0000  -2.8678   0.0000   0.0000   0.0000   0.3751
  12.300   1.1310   0.17223   0.17077  -0.1563  0.0030  1.0000  -2.8347   0.0000   0.0000   0.0000   0.3760
  12.400   1.1311   0.17477   0.17330  -0.1576  0.0030  1.0000  -2.8029   0.0000   0.0000   0.0000   0.3770
  12.500   1.1313   0.17730   0.17584  -0.1588  0.0030  1.0000  -2.7721   0.0000   0.0000   0.0000   0.3779
  12.600   1.1316   0.17983   0.17837  -0.1599  0.0030  1.0000  -2.7424   0.0000   0.0000   0.0000   0.3788
  12.700   1.1320   0.18236   0.18090  -0.1611  0.0030  1.0000  -2.7137   0.0000   0.0000   0.0000   0.3797
  12.800   1.1325   0.18488   0.18342  -0.1622  0.0030  1.0000  -2.6860   0.0000   0.0000   0.0000   0.3805
  12.900   1.1331   0.18740   0.18594  -0.1634  0.0030  1.0000  -2.6592   0.0000   0.0000   0.0000   0.3813
  13.000   1.1337   0.18992   0.18846  -0.1645  0.0030  1.0000  -2.6332   0.0000   0.0000   0.0000   0.3821
  13.100   1.1344   0.19244   0.19097  -0.1656  0.0030  1.0000  -2.6081   0.0000   0.0000   0.0000   0.3828
  13.200   1.1351   0.19496   0.19349  -0.1666  0.0030  1.0000  -2.5838   0.0000   0.0000   0.0000   0.3836
  13.300   1.1359   0.19747   0.19601  -0.1677  0.0030  1.0000  -2.5602   0.0000   0.0000   0.0000   0.3843
  13.400   1.1367   0.19999   0.19853  -0.1687  0.0030  1.0000  -2.5373   0.0000   0.0000   0.0000   0.3850
  13.500   1.1376   0.20251   0.20105  -0.1698  0.0030  1.0000  -2.5150   0.0000   0.0000   0.0000   0.3857
  13.600   1.1385   0.20504   0.20357  -0.1708  0.0030  1.0000  -2.4935   0.0000   0.0000   0.0000   0.3863
  13.700   1.1394   0.20756   0.20610  -0.1718  0.0030  1.0000  -2.4725   0.0000   0.0000   0.0000   0.3870
  13.800   1.1404   0.21009   0.20863  -0.1728  0.0030  1.0000  -2.4521   0.0000   0.0000   0.0000   0.3876
  13.900   1.1414   0.21262   0.21116  -0.1738  0.0030  1.0000  -2.4323   0.0000   0.0000   0.0000   0.3882
  14.000   1.1424   0.21516   0.21370  -0.1748  0.0030  1.0000  -2.4130   0.0000   0.0000   0.0000   0.3888
  14.100   1.1434   0.21770   0.21624  -0.1757  0.0030  1.0000  -2.3942   0.0000   0.0000   0.0000   0.3893
  14.200   1.1444   0.22024   0.21878  -0.1767  0.0030  1.0000  -2.3759   0.0000   0.0000   0.0000   0.3899
  14.300   1.1455   0.22278   0.22133  -0.1776  0.0029  1.0000  -2.3580   0.0000   0.0000   0.0000   0.3904
  14.400   1.1465   0.22533   0.22388  -0.1785  0.0029  1.0000  -2.3404   0.0000   0.0000   0.0000   0.3910
  14.500   1.1475   0.22789   0.22643  -0.1794  0.0029  1.0000  -2.3233   0.0000   0.0000   0.0000   0.3915
  14.600   1.1485   0.23045   0.22899  -0.1803  0.0029  1.0000  -2.3066   0.0000   0.0000   0.0000   0.3920
  14.700   1.1495   0.23301   0.23156  -0.1812  0.0029  1.0000  -2.2901   0.0000   0.0000   0.0000   0.3925
  14.800   1.1505   0.23558   0.23413  -0.1821  0.0029  1.0000  -2.2740   0.0000   0.0000   0.0000   0.3930
  14.900   1.1515   0.23815   0.23670  -0.1830  0.0029  1.0000  -2.2582   0.0000   0.0000   0.0000   0.3935
  15.000   1.1524   0.24073   0.23928  -0.1838  0.0029  1.0000  -2.2427   0.0000   0.0000   0.0000   0.3940
  15.100   1.1533   0.24331   0.24186  -0.1846  0.0029  1.0000  -2.2274   0.0000   0.0000   0.0000   0.3944
  15.200   1.1542   0.24590   0.24445  -0.1855  0.0029  1.0000  -2.2123   0.0000   0.0000   0.0000   0.3949
  15.300   1.1550   0.24849   0.24705  -0.1863  0.0029  1.0000  -2.1974   0.0000   0.0000   0.0000   0.3953
  15.400   1.1558   0.25109   0.24965  -0.1871  0.0029  1.0000  -2.1828   0.0000   0.0000   0.0000   0.3958
  15.500   1.1565   0.25369   0.25225  -0.1879  0.0029  1.0000  -2.1683   0.0000   0.0000   0.0000   0.3962
  15.600   1.1572   0.25629   0.25485  -0.1887  0.0029  1.0000  -2.1539   0.0000   0.0000   0.0000   0.3966
  15.700   1.1578   0.25890   0.25746  -0.1894  0.0029  1.0000  -2.1397   0.0000   0.0000   0.0000   0.3971
  15.800   1.1584   0.26151   0.26008  -0.1902  0.0029  1.0000  -2.1257   0.0000   0.0000   0.0000   0.3975
  15.900   1.1589   0.26412   0.26269  -0.1909  0.0029  1.0000  -2.1117   0.0000   0.0000   0.0000   0.3979
  16.000   1.1593   0.26673   0.26530  -0.1916  0.0029  1.0000  -2.0978   0.0000   0.0000   0.0000   0.3983
  16.100   1.1596   0.26935   0.26792  -0.1923  0.0029  1.0000  -2.0837   0.0000   0.0000   0.0000   0.3987
  16.200   1.1598   0.27196   0.27053  -0.1930  0.0029  1.0000  -2.0697   0.0000   0.0000   0.0000   0.3991
  16.300   1.1599   0.27457   0.27315  -0.1936  0.0029  1.0000  -2.0557   0.0000   0.0000   0.0000   0.3995
  16.400   1.1599   0.27717   0.27575  -0.1942  0.0029  1.0000  -2.0417   0.0000   0.0000   0.0000   0.3999
  16.500   1.1597   0.27977   0.27835  -0.1949  0.0029  1.0000  -2.0276   0.0000   0.0000   0.0000   0.4003
  16.600   1.1594   0.28235   0.28094  -0.1954  0.0029  1.0000  -2.0133   0.0000   0.0000   0.0000   0.4007
  16.700   1.1588   0.28489   0.28361  -0.1959  0.0029  1.0000  -2.0081   0.0000   0.0000   0.0000   0.4010
  16.800   1.1581   0.28742   0.28616  -0.1964  0.0029  1.0000  -1.9952   0.0000   0.0000   0.0000   0.4014
  16.900   1.1572   0.28995   0.28869  -0.1969  0.0029  1.0000  -1.9811   0.0000   0.0000   0.0000   0.4018
  17.000   1.1560   0.29244   0.29119  -0.1973  0.0029  1.0000  -1.9663   0.0000   0.0000   0.0000   0.4022
  17.100   1.1545   0.29489   0.29365  -0.1977  0.0029  1.0000  -1.9507   0.0000   0.0000   0.0000   0.4026
  17.200   1.1525   0.29729   0.29606  -0.1980  0.0029  1.0000  -1.9344   0.0000   0.0000   0.0000   0.4030
  17.300   1.1501   0.29962   0.29839  -0.1983  0.0029  1.0000  -1.9170   0.0000   0.0000   0.0000   0.4035
  17.400   1.1470   0.30184   0.30062  -0.1984  0.0029  1.0000  -1.8982   0.0000   0.0000   0.0000   0.4039
  17.500   1.1430   0.30390   0.30269  -0.1984  0.0029  1.0000  -1.8775   0.0000   0.0000   0.0000   0.4044
  17.600   1.1375   0.30570   0.30450  -0.1982  0.0029  1.0000  -1.8535   0.0000   0.0000   0.0000   0.4049


