xflr5 v6.61

 Calculated polar for: E71  (5.15%)

 1 1 Reynolds number fixed          Mach number fixed         

 xtrf =   1.000 (top)        1.000 (bottom)
 Mach =   0.000     Re =     0.688 e 6     Ncrit =   9.000

  alpha     CL        CD       CDp       Cm    Top Xtr Bot Xtr   Cpmin    Chinge    XCp    
 ------- -------- --------- --------- -------- ------- ------- -------- --------- ---------
 -10.000  -0.3876   0.12835   0.12628  -0.0174  1.0000  0.0096  -1.3196   0.0000   0.0000   0.0000   0.2022
  -9.900  -0.3863   0.12732   0.12526  -0.0175  1.0000  0.0097  -1.3215   0.0000   0.0000   0.0000   0.2020
  -9.800  -0.3849   0.12627   0.12421  -0.0175  1.0000  0.0097  -1.3227   0.0000   0.0000   0.0000   0.2017
  -9.700  -0.3837   0.12522   0.12317  -0.0176  1.0000  0.0097  -1.3240   0.0000   0.0000   0.0000   0.2015
  -9.600  -0.3824   0.12416   0.12212  -0.0176  1.0000  0.0097  -1.3257   0.0000   0.0000   0.0000   0.2013
  -9.500  -0.3812   0.12311   0.12108  -0.0176  1.0000  0.0097  -1.3276   0.0000   0.0000   0.0000   0.2012
  -9.400  -0.3801   0.12206   0.12003  -0.0176  1.0000  0.0097  -1.3297   0.0000   0.0000   0.0000   0.2011
  -9.300  -0.3790   0.12101   0.11899  -0.0176  1.0000  0.0097  -1.3319   0.0000   0.0000   0.0000   0.2010
  -9.200  -0.3780   0.11997   0.11796  -0.0176  1.0000  0.0097  -1.3344   0.0000   0.0000   0.0000   0.2010
  -9.100  -0.3771   0.11894   0.11693  -0.0175  1.0000  0.0097  -1.3371   0.0000   0.0000   0.0000   0.2011
  -9.000  -0.3763   0.11789   0.11589  -0.0174  1.0000  0.0098  -1.3404   0.0000   0.0000   0.0000   0.2012
  -8.900  -0.3756   0.11681   0.11483  -0.0173  1.0000  0.0097  -1.3444   0.0000   0.0000   0.0000   0.2014
  -8.800  -0.3750   0.11575   0.11378  -0.0172  1.0000  0.0097  -1.3487   0.0000   0.0000   0.0000   0.2017
  -8.700  -0.3745   0.11470   0.11274  -0.0171  1.0000  0.0097  -1.3531   0.0000   0.0000   0.0000   0.2021
  -8.600  -0.3740   0.11367   0.11171  -0.0169  1.0000  0.0097  -1.3577   0.0000   0.0000   0.0000   0.2025
  -8.500  -0.3737   0.11264   0.11069  -0.0168  1.0000  0.0097  -1.3625   0.0000   0.0000   0.0000   0.2029
  -8.400  -0.3734   0.11162   0.10968  -0.0166  1.0000  0.0097  -1.3675   0.0000   0.0000   0.0000   0.2034
  -8.300  -0.3733   0.11062   0.10869  -0.0164  1.0000  0.0097  -1.3727   0.0000   0.0000   0.0000   0.2040
  -8.200  -0.3733   0.10963   0.10771  -0.0161  1.0000  0.0097  -1.3781   0.0000   0.0000   0.0000   0.2047
  -8.100  -0.3734   0.10866   0.10675  -0.0159  1.0000  0.0097  -1.3837   0.0000   0.0000   0.0000   0.2054
  -8.000  -0.3737   0.10771   0.10581  -0.0156  1.0000  0.0097  -1.3896   0.0000   0.0000   0.0000   0.2063
  -7.900  -0.3701   0.10632   0.10443  -0.0164  0.9997  0.0097  -1.3943   0.0000   0.0000   0.0000   0.2036
  -7.800  -0.3643   0.10469   0.10280  -0.0179  0.9991  0.0097  -1.3985   0.0000   0.0000   0.0000   0.1987
  -7.700  -0.3585   0.10307   0.10118  -0.0195  0.9984  0.0097  -1.4031   0.0000   0.0000   0.0000   0.1936
  -7.600  -0.3528   0.10146   0.09957  -0.0210  0.9978  0.0096  -1.4084   0.0000   0.0000   0.0000   0.1884
  -7.500  -0.3471   0.09987   0.09798  -0.0225  0.9972  0.0096  -1.4142   0.0000   0.0000   0.0000   0.1830
  -7.400  -0.3420   0.09832   0.09644  -0.0238  0.9965  0.0096  -1.4209   0.0000   0.0000   0.0000   0.1782
  -7.300  -0.3372   0.09680   0.09492  -0.0251  0.9956  0.0096  -1.4283   0.0000   0.0000   0.0000   0.1734
  -7.200  -0.3323   0.09528   0.09340  -0.0264  0.9946  0.0095  -1.4368   0.0000   0.0000   0.0000   0.1684
  -7.100  -0.3274   0.09373   0.09186  -0.0277  0.9936  0.0095  -1.4465   0.0000   0.0000   0.0000   0.1629
  -7.000  -0.3223   0.09215   0.09028  -0.0292  0.9925  0.0094  -1.4581   0.0000   0.0000   0.0000   0.1570
  -6.900  -0.3170   0.09053   0.08866  -0.0307  0.9915  0.0094  -1.4724   0.0000   0.0000   0.0000   0.1506
  -6.800  -0.3116   0.08881   0.08695  -0.0324  0.9905  0.0093  -1.4905   0.0000   0.0000   0.0000   0.1435
  -6.700  -0.3058   0.08690   0.08504  -0.0343  0.9897  0.0091  -1.5140   0.0000   0.0000   0.0000   0.1353
  -6.600  -0.2990   0.08467   0.08281  -0.0367  0.9890  0.0087  -1.5471   0.0000   0.0000   0.0000   0.1247
  -6.500  -0.2949   0.08279   0.08094  -0.0381  0.9868  0.0083  -1.5750   0.0000   0.0000   0.0000   0.1182
  -6.400  -0.2888   0.08085   0.07900  -0.0401  0.9845  0.0080  -1.6012   0.0000   0.0000   0.0000   0.1085
  -6.300  -0.2804   0.07881   0.07697  -0.0427  0.9827  0.0077  -1.6269   0.0000   0.0000   0.0000   0.0950
  -6.200  -0.2711   0.07678   0.07494  -0.0456  0.9813  0.0074  -1.6528   0.0000   0.0000   0.0000   0.0788
  -6.100  -0.2609   0.07475   0.07291  -0.0487  0.9801  0.0072  -1.6788   0.0000   0.0000   0.0000   0.0602
  -6.000  -0.2498   0.07267   0.07083  -0.0521  0.9791  0.0070  -1.7053   0.0000   0.0000   0.0000   0.0382
  -5.900  -0.2380   0.07055   0.06871  -0.0557  0.9782  0.0069  -1.7316   0.0000   0.0000   0.0000   0.0126
  -5.800  -0.2251   0.06838   0.06652  -0.0596  0.9775  0.0068  -1.7577   0.0000   0.0000   0.0000  -0.0181
  -5.700  -0.2113   0.06614   0.06429  -0.0637  0.9769  0.0068  -1.7829   0.0000   0.0000   0.0000  -0.0552
  -5.600  -0.1965   0.06386   0.06200  -0.0681  0.9764  0.0068  -1.8065   0.0000   0.0000   0.0000  -0.1004
  -5.500  -0.1806   0.06153   0.05966  -0.0727  0.9759  0.0070  -1.8276   0.0000   0.0000   0.0000  -0.1569
  -5.400  -0.1795   0.06030   0.05843  -0.0727  0.9714  0.0071  -1.8441   0.0000   0.0000   0.0000  -0.1595
  -5.300  -0.1671   0.05825   0.05637  -0.0761  0.9692  0.0073  -1.8596   0.0000   0.0000   0.0000  -0.2102
  -5.200  -0.1518   0.05611   0.05421  -0.0801  0.9677  0.0078  -1.8661   0.0000   0.0000   0.0000  -0.2830
  -5.100  -0.1351   0.05436   0.05245  -0.0838  0.9666  0.0085  -1.8342   0.0000   0.0000   0.0000  -0.3755
  -4.400  -0.0060   0.03866   0.03631  -0.1146  0.9620  0.0138  -1.6567   0.0000   0.0000   0.0000  -19.0009
  -4.300   0.0134   0.03661   0.03420  -0.1184  0.9617  0.0141  -1.6546   0.0000   0.0000   0.0000   9.1607
  -4.200   0.0327   0.03461   0.03212  -0.1219  0.9614  0.0143  -1.6522   0.0000   0.0000   0.0000   3.9943
  -4.100   0.0521   0.03267   0.03009  -0.1253  0.9612  0.0146  -1.6491   0.0000   0.0000   0.0000   2.6676
  -4.000   0.0714   0.03078   0.02812  -0.1285  0.9609  0.0149  -1.6453   0.0000   0.0000   0.0000   2.0585
  -3.900   0.0906   0.02899   0.02623  -0.1314  0.9608  0.0153  -1.6394   0.0000   0.0000   0.0000   1.7085
  -3.800   0.1095   0.02730   0.02443  -0.1341  0.9606  0.0157  -1.6316   0.0000   0.0000   0.0000   1.4810
  -3.700   0.1282   0.02571   0.02273  -0.1366  0.9604  0.0162  -1.6212   0.0000   0.0000   0.0000   1.3212
  -3.600   0.1465   0.02426   0.02116  -0.1388  0.9603  0.0168  -1.6066   0.0000   0.0000   0.0000   1.2025
  -3.500   0.1645   0.02294   0.01972  -0.1409  0.9601  0.0174  -1.5888   0.0000   0.0000   0.0000   1.1108
  -3.400   0.1820   0.02175   0.01842  -0.1427  0.9600  0.0182  -1.5663   0.0000   0.0000   0.0000   1.0377
  -3.300   0.1991   0.02073   0.01728  -0.1443  0.9598  0.0190  -1.5381   0.0000   0.0000   0.0000   0.9781
  -3.200   0.2156   0.01990   0.01635  -0.1456  0.9596  0.0200  -1.5026   0.0000   0.0000   0.0000   0.9287
  -3.100   0.2312   0.01934   0.01571  -0.1467  0.9594  0.0211  -1.4541   0.0000   0.0000   0.0000   0.8872
  -3.000   0.2456   0.01928   0.01562  -0.1472  0.9592  0.0222  -1.3808   0.0000   0.0000   0.0000   0.8521
  -2.900   0.2589   0.02000   0.01633  -0.1472  0.9588  0.0232  -1.2726   0.0000   0.0000   0.0000   0.8211
  -2.800   0.2828   0.01585   0.01172  -0.1518  0.9592  0.0264  -1.3868   0.0000   0.0000   0.0000   0.7890
  -2.700   0.2974   0.01542   0.01129  -0.1529  0.9590  0.0286  -1.2876   0.0000   0.0000   0.0000   0.7664
  -2.600   0.3115   0.01523   0.01112  -0.1538  0.9588  0.0310  -1.1853   0.0000   0.0000   0.0000   0.7459
  -2.500   0.3260   0.01509   0.01097  -0.1547  0.9585  0.0345  -1.0953   0.0000   0.0000   0.0000   0.7264
  -1.300   0.4935   0.00877   0.00376  -0.1607  0.9448  0.0302  -0.7579   0.0000   0.0000   0.0000   0.5763
  -1.200   0.5081   0.00862   0.00356  -0.1612  0.9440  0.0256  -0.7199   0.0000   0.0000   0.0000   0.5679
  -1.100   0.5218   0.00865   0.00363  -0.1616  0.9430  0.0235  -0.6492   0.0000   0.0000   0.0000   0.5602
  -1.000   0.5392   0.00808   0.00292  -0.1628  0.9426  0.0213  -0.6546   0.0000   0.0000   0.0000   0.5524
  -0.900   0.5547   0.00784   0.00261  -0.1637  0.9419  0.0198  -0.6194   0.0000   0.0000   0.0000   0.5454
  -0.800   0.5701   0.00766   0.00238  -0.1644  0.9411  0.0187  -0.5761   0.0000   0.0000   0.0000   0.5387
  -0.700   0.5853   0.00751   0.00219  -0.1652  0.9403  0.0179  -0.5282   0.0000   0.0000   0.0000   0.5324
  -0.600   0.6004   0.00739   0.00203  -0.1660  0.9393  0.0172  -0.5127   0.0000   0.0000   0.0000   0.5265
  -0.500   0.6151   0.00728   0.00189  -0.1666  0.9384  0.0168  -0.5237   0.0000   0.0000   0.0000   0.5210
  -0.400   0.6301   0.00718   0.00175  -0.1674  0.9374  0.0165  -0.5349   0.0000   0.0000   0.0000   0.5156
  -0.300   0.6404   0.00711   0.00167  -0.1671  0.9346  0.0169  -0.5447   0.0000   0.0000   0.0000   0.5108
  -0.200   0.6487   0.00707   0.00162  -0.1664  0.9303  0.0182  -0.5543   0.0000   0.0000   0.0000   0.5062
  -0.100   0.6597   0.00700   0.00159  -0.1662  0.9268  0.0217  -0.5662   0.0000   0.0000   0.0000   0.5017
   0.000   0.6741   0.00666   0.00159  -0.1671  0.9241  0.1327  -0.5799   0.0000   0.0000   0.0000   0.4975
   0.100   0.6890   0.00638   0.00158  -0.1681  0.9216  0.2249  -0.5943   0.0000   0.0000   0.0000   0.4935
   0.200   0.7048   0.00614   0.00155  -0.1693  0.9189  0.3045  -0.6093   0.0000   0.0000   0.0000   0.4896
   0.300   0.7212   0.00591   0.00152  -0.1705  0.9162  0.3836  -0.6268   0.0000   0.0000   0.0000   0.4858
   0.400   0.7375   0.00568   0.00150  -0.1718  0.9135  0.4687  -0.6446   0.0000   0.0000   0.0000   0.4822
   0.500   0.7532   0.00546   0.00151  -0.1729  0.9107  0.5637  -0.6640   0.0000   0.0000   0.0000   0.4788
   0.600   0.7638   0.00526   0.00160  -0.1729  0.9065  0.6785  -0.6802   0.0000   0.0000   0.0000   0.4755
   0.700   0.7689   0.00484   0.00168  -0.1713  0.9014  0.8871  -0.6923   0.0000   0.0000   0.0000   0.4719
   0.900   0.7897   0.00466   0.00155  -0.1707  0.8899  1.0000  -0.7255   0.0000   0.0000   0.0000   0.4650
   1.000   0.8041   0.00464   0.00149  -0.1713  0.8836  1.0000  -0.7490   0.0000   0.0000   0.0000   0.4619
   1.100   0.8157   0.00466   0.00148  -0.1714  0.8769  1.0000  -0.7700   0.0000   0.0000   0.0000   0.4589
   1.200   0.8266   0.00468   0.00148  -0.1713  0.8692  1.0000  -0.7905   0.0000   0.0000   0.0000   0.4559
   1.300   0.8385   0.00470   0.00147  -0.1714  0.8604  1.0000  -0.8119   0.0000   0.0000   0.0000   0.4530
   1.400   0.8508   0.00473   0.00145  -0.1715  0.8513  1.0000  -0.8371   0.0000   0.0000   0.0000   0.4501
   1.500   0.8621   0.00477   0.00146  -0.1715  0.8442  1.0000  -0.8630   0.0000   0.0000   0.0000   0.4474
   1.600   0.8728   0.00480   0.00148  -0.1714  0.8370  1.0000  -0.8887   0.0000   0.0000   0.0000   0.4447
   1.700   0.8837   0.00485   0.00150  -0.1713  0.8270  1.0000  -0.9217   0.0000   0.0000   0.0000   0.4421
   1.800   0.8947   0.00492   0.00150  -0.1712  0.8149  1.0000  -0.9550   0.0000   0.0000   0.0000   0.4395
   1.900   0.9052   0.00499   0.00152  -0.1710  0.8042  1.0000  -0.9878   0.0000   0.0000   0.0000   0.4370
   2.000   0.9155   0.00505   0.00155  -0.1708  0.7908  1.0000  -1.0206   0.0000   0.0000   0.0000   0.4345
   2.100   0.9254   0.00517   0.00157  -0.1704  0.7745  1.0000  -1.0528   0.0000   0.0000   0.0000   0.4321
   2.200   0.9353   0.00525   0.00161  -0.1701  0.7592  1.0000  -1.0854   0.0000   0.0000   0.0000   0.4297
   2.300   0.9430   0.00548   0.00165  -0.1692  0.7242  1.0000  -1.1148   0.0000   0.0000   0.0000   0.4272
   2.400   0.9481   0.00589   0.00173  -0.1678  0.6579  1.0000  -1.1403   0.0000   0.0000   0.0000   0.4247
   2.500   0.9504   0.00655   0.00190  -0.1660  0.5638  1.0000  -1.1614   0.0000   0.0000   0.0000   0.4222
   2.600   0.9526   0.00737   0.00215  -0.1643  0.4549  1.0000  -1.1826   0.0000   0.0000   0.0000   0.4199
   2.700   0.9569   0.00813   0.00241  -0.1632  0.3583  1.0000  -1.2147   0.0000   0.0000   0.0000   0.4179
   2.800   0.9644   0.00860   0.00258  -0.1626  0.3029  1.0000  -1.2535   0.0000   0.0000   0.0000   0.4159
   2.900   0.9727   0.00896   0.00273  -0.1622  0.2619  1.0000  -1.2945   0.0000   0.0000   0.0000   0.4139
   3.000   0.9812   0.00931   0.00287  -0.1618  0.2246  1.0000  -1.3363   0.0000   0.0000   0.0000   0.4120
   3.100   0.9901   0.00962   0.00301  -0.1615  0.1920  1.0000  -1.3988   0.0000   0.0000   0.0000   0.4101
   3.200   0.9991   0.00992   0.00316  -0.1611  0.1617  1.0000  -1.5115   0.0000   0.0000   0.0000   0.4082
   3.400   1.0099   0.01179   0.00426  -0.1590  0.0074  1.0000  -1.9484   0.0000   0.0000   0.0000   0.4042
   3.500   1.0205   0.01193   0.00453  -0.1587  0.0075  1.0000  -2.1164   0.0000   0.0000   0.0000   0.4021
   3.600   1.0309   0.01209   0.00473  -0.1584  0.0076  1.0000  -2.2283   0.0000   0.0000   0.0000   0.4002
   3.700   1.0411   0.01227   0.00495  -0.1581  0.0077  1.0000  -2.3260   0.0000   0.0000   0.0000   0.3983
   3.800   1.0513   0.01246   0.00517  -0.1578  0.0078  1.0000  -2.4170   0.0000   0.0000   0.0000   0.3964
   3.900   1.0614   0.01267   0.00542  -0.1574  0.0080  1.0000  -2.5023   0.0000   0.0000   0.0000   0.3945
   4.000   1.0713   0.01292   0.00572  -0.1570  0.0083  1.0000  -2.5818   0.0000   0.0000   0.0000   0.3927
   4.100   1.0810   0.01320   0.00607  -0.1566  0.0086  1.0000  -2.6543   0.0000   0.0000   0.0000   0.3909
   4.200   1.0904   0.01355   0.00648  -0.1560  0.0090  1.0000  -2.7165   0.0000   0.0000   0.0000   0.3890
   4.300   1.0992   0.01401   0.00702  -0.1553  0.0095  1.0000  -2.7634   0.0000   0.0000   0.0000   0.3871
   4.400   1.1066   0.01474   0.00787  -0.1543  0.0100  1.0000  -2.7763   0.0000   0.0000   0.0000   0.3851
   4.500   1.1157   0.01515   0.00831  -0.1537  0.0109  1.0000  -2.8350   0.0000   0.0000   0.0000   0.3833
   4.600   1.1275   0.01504   0.00818  -0.1536  0.0123  1.0000  -2.9623   0.0000   0.0000   0.0000   0.3817
   4.700   1.1366   0.01557   0.00885  -0.1526  0.0152  1.0000  -2.9672   0.0000   0.0000   0.0000   0.3797
   4.800   1.1424   0.01732   0.01081  -0.1506  0.0198  1.0000  -2.8486   0.0000   0.0000   0.0000   0.3771
   4.900   1.1638   0.02472   0.01901  -0.1480  0.0570  1.0000  -2.3564   0.0000   0.0000   0.0000   0.3723
   5.000   1.1746   0.02495   0.01929  -0.1474  0.0564  1.0000  -2.4232   0.0000   0.0000   0.0000   0.3706
   5.100   1.1853   0.02532   0.01971  -0.1469  0.0556  1.0000  -2.4879   0.0000   0.0000   0.0000   0.3688
   5.200   1.1963   0.02508   0.01947  -0.1464  0.0530  1.0000  -2.5776   0.0000   0.0000   0.0000   0.3672
   5.300   1.2058   0.02454   0.01883  -0.1463  0.0466  1.0000  -2.7167   0.0000   0.0000   0.0000   0.3660
   5.400   1.2134   0.02478   0.01894  -0.1462  0.0419  1.0000  -2.8609   0.0000   0.0000   0.0000   0.3651
   5.700   1.2365   0.02549   0.01960  -0.1455  0.0261  1.0000  -3.3005   0.0000   0.0000   0.0000   0.3619
   5.800   1.2350   0.03294   0.02738  -0.1440  0.0218  1.0000  -3.1475   0.0000   0.0000   0.0000   0.3608
   6.100   1.2618   0.02731   0.02141  -0.1445  0.0092  1.0000  -4.0969   0.0000   0.0000   0.0000   0.3583
   6.200   1.2715   0.02730   0.02142  -0.1441  0.0082  1.0000  -4.2718   0.0000   0.0000   0.0000   0.3571
   6.300   1.2805   0.02770   0.02187  -0.1437  0.0074  1.0000  -4.4232   0.0000   0.0000   0.0000   0.3558
   6.400   1.2891   0.02822   0.02244  -0.1433  0.0068  1.0000  -4.5728   0.0000   0.0000   0.0000   0.3546
   6.500   1.2974   0.02879   0.02306  -0.1428  0.0062  1.0000  -4.7271   0.0000   0.0000   0.0000   0.3534
   6.600   1.3053   0.02937   0.02368  -0.1423  0.0058  1.0000  -4.8884   0.0000   0.0000   0.0000   0.3523
   6.700   1.3130   0.02996   0.02431  -0.1418  0.0054  1.0000  -5.0561   0.0000   0.0000   0.0000   0.3511
   6.800   1.3204   0.03059   0.02501  -0.1413  0.0051  1.0000  -5.2189   0.0000   0.0000   0.0000   0.3500
   6.900   1.3273   0.03128   0.02577  -0.1407  0.0048  1.0000  -5.3810   0.0000   0.0000   0.0000   0.3489
   7.000   1.3339   0.03207   0.02662  -0.1400  0.0045  1.0000  -5.5359   0.0000   0.0000   0.0000   0.3478
   7.100   1.3399   0.03305   0.02768  -0.1393  0.0043  1.0000  -5.6714   0.0000   0.0000   0.0000   0.3466
   7.200   1.3449   0.03443   0.02916  -0.1384  0.0040  1.0000  -5.7609   0.0000   0.0000   0.0000   0.3454
   7.300   1.3475   0.03654   0.03145  -0.1370  0.0037  1.0000  -5.7594   0.0000   0.0000   0.0000   0.3441
   7.400   1.3455   0.03986   0.03505  -0.1349  0.0035  1.0000  -5.6098   0.0000   0.0000   0.0000   0.3427
   7.500   1.3373   0.04445   0.04003  -0.1320  0.0033  1.0000  -5.3042   0.0000   0.0000   0.0000   0.3411
   9.400   1.2281   0.07921   0.07677  -0.1030  0.0031  1.0000  -4.6502   0.0000   0.0000   0.0000   0.3243
   9.500   1.2201   0.08126   0.07888  -0.1030  0.0031  1.0000  -4.6234   0.0000   0.0000   0.0000   0.3247
   9.600   1.2121   0.08344   0.08112  -0.1033  0.0031  1.0000  -4.5945   0.0000   0.0000   0.0000   0.3254
   9.700   1.2042   0.08575   0.08349  -0.1039  0.0031  1.0000  -4.5634   0.0000   0.0000   0.0000   0.3263
   9.800   1.1965   0.08821   0.08600  -0.1048  0.0031  1.0000  -4.5298   0.0000   0.0000   0.0000   0.3275
   9.900   1.1889   0.09082   0.08866  -0.1061  0.0031  1.0000  -4.4933   0.0000   0.0000   0.0000   0.3290
  10.000   1.1816   0.09361   0.09151  -0.1077  0.0031  1.0000  -4.4533   0.0000   0.0000   0.0000   0.3308
  10.100   1.1745   0.09661   0.09456  -0.1097  0.0031  1.0000  -4.4090   0.0000   0.0000   0.0000   0.3329
  10.200   1.1677   0.09984   0.09784  -0.1120  0.0031  1.0000  -4.3595   0.0000   0.0000   0.0000   0.3353
  10.300   1.1615   0.10336   0.10140  -0.1147  0.0031  1.0000  -4.3033   0.0000   0.0000   0.0000   0.3381
  10.400   1.1558   0.10720   0.10529  -0.1178  0.0031  1.0000  -4.2381   0.0000   0.0000   0.0000   0.3411
  10.500   1.1510   0.11144   0.10958  -0.1212  0.0031  1.0000  -4.1606   0.0000   0.0000   0.0000   0.3445
  10.600   1.1471   0.11610   0.11428  -0.1248  0.0031  1.0000  -4.0664   0.0000   0.0000   0.0000   0.3479
  11.500   1.1415   0.14461   0.14288  -0.1408  0.0032  1.0000  -3.7047   0.0000   0.0000   0.0000   0.3617
  11.600   1.1400   0.14735   0.14562  -0.1423  0.0032  1.0000  -3.6511   0.0000   0.0000   0.0000   0.3631
  11.700   1.1385   0.15016   0.14843  -0.1438  0.0032  1.0000  -3.5920   0.0000   0.0000   0.0000   0.3645
  11.800   1.1369   0.15302   0.15129  -0.1453  0.0032  1.0000  -3.5267   0.0000   0.0000   0.0000   0.3660
  11.900   1.1353   0.15596   0.15423  -0.1468  0.0032  1.0000  -3.4548   0.0000   0.0000   0.0000   0.3674
  12.000   1.1335   0.15898   0.15724  -0.1484  0.0032  1.0000  -3.3753   0.0000   0.0000   0.0000   0.3689
  12.100   1.1317   0.16209   0.16035  -0.1499  0.0032  1.0000  -3.2867   0.0000   0.0000   0.0000   0.3704
  12.200   1.1298   0.16532   0.16358  -0.1515  0.0031  1.0000  -3.1874   0.0000   0.0000   0.0000   0.3719
  12.300   1.1277   0.16867   0.16694  -0.1531  0.0031  1.0000  -3.0764   0.0000   0.0000   0.0000   0.3735
  12.400   1.1258   0.17208   0.17035  -0.1547  0.0031  1.0000  -2.9608   0.0000   0.0000   0.0000   0.3751
  12.500   1.1259   0.17468   0.17290  -0.1559  0.0031  1.0000  -2.9245   0.0000   0.0000   0.0000   0.3760
  12.600   1.1261   0.17725   0.17547  -0.1571  0.0031  1.0000  -2.8907   0.0000   0.0000   0.0000   0.3769
  12.700   1.1264   0.17981   0.17804  -0.1583  0.0031  1.0000  -2.8582   0.0000   0.0000   0.0000   0.3778
  12.800   1.1269   0.18237   0.18059  -0.1594  0.0031  1.0000  -2.8267   0.0000   0.0000   0.0000   0.3787
  12.900   1.1274   0.18492   0.18314  -0.1606  0.0031  1.0000  -2.7963   0.0000   0.0000   0.0000   0.3795
  13.000   1.1279   0.18747   0.18569  -0.1617  0.0031  1.0000  -2.7669   0.0000   0.0000   0.0000   0.3803
  13.100   1.1285   0.19002   0.18824  -0.1628  0.0031  1.0000  -2.7384   0.0000   0.0000   0.0000   0.3811
  13.200   1.1292   0.19256   0.19078  -0.1639  0.0031  1.0000  -2.7108   0.0000   0.0000   0.0000   0.3819
  13.300   1.1300   0.19510   0.19332  -0.1650  0.0031  1.0000  -2.6841   0.0000   0.0000   0.0000   0.3826
  13.400   1.1308   0.19764   0.19587  -0.1660  0.0031  1.0000  -2.6582   0.0000   0.0000   0.0000   0.3833
  13.500   1.1316   0.20019   0.19841  -0.1671  0.0031  1.0000  -2.6331   0.0000   0.0000   0.0000   0.3840
  13.600   1.1325   0.20273   0.20095  -0.1681  0.0031  1.0000  -2.6087   0.0000   0.0000   0.0000   0.3847
  13.700   1.1334   0.20528   0.20350  -0.1691  0.0031  1.0000  -2.5851   0.0000   0.0000   0.0000   0.3854
  13.800   1.1343   0.20782   0.20605  -0.1701  0.0031  1.0000  -2.5621   0.0000   0.0000   0.0000   0.3860
  13.900   1.1353   0.21037   0.20860  -0.1711  0.0031  1.0000  -2.5398   0.0000   0.0000   0.0000   0.3866
  14.000   1.1362   0.21292   0.21115  -0.1721  0.0031  1.0000  -2.5180   0.0000   0.0000   0.0000   0.3872
  14.100   1.1372   0.21547   0.21370  -0.1731  0.0031  1.0000  -2.4969   0.0000   0.0000   0.0000   0.3878
  14.200   1.1382   0.21803   0.21626  -0.1740  0.0031  1.0000  -2.4763   0.0000   0.0000   0.0000   0.3884
  14.300   1.1392   0.22059   0.21881  -0.1749  0.0030  1.0000  -2.4562   0.0000   0.0000   0.0000   0.3889
  14.400   1.1402   0.22315   0.22138  -0.1759  0.0030  1.0000  -2.4366   0.0000   0.0000   0.0000   0.3895
  14.500   1.1412   0.22571   0.22394  -0.1768  0.0030  1.0000  -2.4175   0.0000   0.0000   0.0000   0.3900
  14.600   1.1422   0.22828   0.22651  -0.1777  0.0030  1.0000  -2.3988   0.0000   0.0000   0.0000   0.3906
  14.700   1.1432   0.23085   0.22908  -0.1786  0.0030  1.0000  -2.3805   0.0000   0.0000   0.0000   0.3911
  14.800   1.1442   0.23342   0.23166  -0.1795  0.0030  1.0000  -2.3626   0.0000   0.0000   0.0000   0.3916
  14.900   1.1451   0.23600   0.23424  -0.1803  0.0030  1.0000  -2.3451   0.0000   0.0000   0.0000   0.3921
  15.000   1.1461   0.23858   0.23682  -0.1812  0.0030  1.0000  -2.3279   0.0000   0.0000   0.0000   0.3925
  15.100   1.1470   0.24117   0.23941  -0.1820  0.0030  1.0000  -2.3110   0.0000   0.0000   0.0000   0.3930
  15.200   1.1478   0.24375   0.24200  -0.1829  0.0030  1.0000  -2.2945   0.0000   0.0000   0.0000   0.3935
  15.300   1.1487   0.24635   0.24459  -0.1837  0.0030  1.0000  -2.2781   0.0000   0.0000   0.0000   0.3939
  15.400   1.1494   0.24894   0.24719  -0.1845  0.0030  1.0000  -2.2621   0.0000   0.0000   0.0000   0.3944
  15.500   1.1502   0.25154   0.24979  -0.1853  0.0030  1.0000  -2.2463   0.0000   0.0000   0.0000   0.3948
  15.600   1.1509   0.25414   0.25239  -0.1860  0.0030  1.0000  -2.2306   0.0000   0.0000   0.0000   0.3953
  15.700   1.1515   0.25674   0.25500  -0.1868  0.0030  1.0000  -2.2151   0.0000   0.0000   0.0000   0.3957
  15.800   1.1520   0.25935   0.25760  -0.1875  0.0030  1.0000  -2.1998   0.0000   0.0000   0.0000   0.3961
  15.900   1.1525   0.26195   0.26021  -0.1883  0.0030  1.0000  -2.1846   0.0000   0.0000   0.0000   0.3965
  16.000   1.1529   0.26456   0.26282  -0.1890  0.0030  1.0000  -2.1695   0.0000   0.0000   0.0000   0.3970
  16.100   1.1533   0.26716   0.26543  -0.1897  0.0030  1.0000  -2.1546   0.0000   0.0000   0.0000   0.3974
  16.200   1.1535   0.26977   0.26803  -0.1904  0.0030  1.0000  -2.1397   0.0000   0.0000   0.0000   0.3978
  16.300   1.1536   0.27236   0.27064  -0.1910  0.0030  1.0000  -2.1247   0.0000   0.0000   0.0000   0.3982
  16.400   1.1536   0.27496   0.27323  -0.1917  0.0030  1.0000  -2.1097   0.0000   0.0000   0.0000   0.3986
  16.500   1.1535   0.27754   0.27582  -0.1923  0.0030  1.0000  -2.0947   0.0000   0.0000   0.0000   0.3990
  16.600   1.1532   0.28012   0.27840  -0.1928  0.0030  1.0000  -2.0796   0.0000   0.0000   0.0000   0.3994
  16.700   1.1528   0.28256   0.28101  -0.1932  0.0030  1.0000  -2.0837   0.0000   0.0000   0.0000   0.3996
  16.800   1.1522   0.28508   0.28355  -0.1937  0.0030  1.0000  -2.0701   0.0000   0.0000   0.0000   0.4000
  16.900   1.1513   0.28759   0.28607  -0.1942  0.0030  1.0000  -2.0555   0.0000   0.0000   0.0000   0.4004
  17.000   1.1502   0.29007   0.28856  -0.1947  0.0030  1.0000  -2.0401   0.0000   0.0000   0.0000   0.4008
  17.100   1.1487   0.29252   0.29101  -0.1951  0.0030  1.0000  -2.0240   0.0000   0.0000   0.0000   0.4012
  17.200   1.1469   0.29491   0.29342  -0.1954  0.0030  1.0000  -2.0072   0.0000   0.0000   0.0000   0.4016
  17.300   1.1446   0.29724   0.29575  -0.1957  0.0030  1.0000  -1.9893   0.0000   0.0000   0.0000   0.4020
  17.400   1.1417   0.29947   0.29799  -0.1958  0.0030  1.0000  -1.9703   0.0000   0.0000   0.0000   0.4025
  17.500   1.1380   0.30156   0.30009  -0.1959  0.0030  1.0000  -1.9495   0.0000   0.0000   0.0000   0.4029
  17.600   1.1330   0.30342   0.30196  -0.1957  0.0030  1.0000  -1.9259   0.0000   0.0000   0.0000   0.4034


