xflr5 v6.61

 Calculated polar for: E71  (5.15%)

 1 1 Reynolds number fixed          Mach number fixed         

 xtrf =   1.000 (top)        1.000 (bottom)
 Mach =   0.000     Re =     0.100 e 6     Ncrit =   9.000

  alpha     CL        CD       CDp       Cm    Top Xtr Bot Xtr   Cpmin    Chinge    XCp    
 ------- -------- --------- --------- -------- ------- ------- -------- --------- ---------
 -10.000  -0.3758   0.12903   0.12362  -0.0229  1.0000  0.0343  -1.1501   0.0000   0.0000   0.0000   0.1862
  -9.900  -0.3744   0.12799   0.12260  -0.0230  1.0000  0.0347  -1.1517   0.0000   0.0000   0.0000   0.1857
  -9.800  -0.3730   0.12696   0.12158  -0.0231  1.0000  0.0352  -1.1536   0.0000   0.0000   0.0000   0.1852
  -9.700  -0.3716   0.12595   0.12059  -0.0232  1.0000  0.0356  -1.1560   0.0000   0.0000   0.0000   0.1846
  -9.600  -0.3703   0.12496   0.11962  -0.0234  1.0000  0.0361  -1.1589   0.0000   0.0000   0.0000   0.1841
  -9.500  -0.3690   0.12400   0.11867  -0.0235  1.0000  0.0365  -1.1626   0.0000   0.0000   0.0000   0.1836
  -9.400  -0.3678   0.12307   0.11776  -0.0236  1.0000  0.0370  -1.1671   0.0000   0.0000   0.0000   0.1830
  -9.300  -0.3668   0.12219   0.11690  -0.0238  1.0000  0.0375  -1.1726   0.0000   0.0000   0.0000   0.1825
  -9.200  -0.3658   0.12138   0.11611  -0.0240  1.0000  0.0380  -1.1794   0.0000   0.0000   0.0000   0.1819
  -9.100  -0.3651   0.12066   0.11541  -0.0241  1.0000  0.0385  -1.1878   0.0000   0.0000   0.0000   0.1813
  -9.000  -0.3646   0.12004   0.11482  -0.0244  1.0000  0.0390  -1.1980   0.0000   0.0000   0.0000   0.1807
  -8.900  -0.3644   0.11955   0.11435  -0.0246  1.0000  0.0394  -1.2099   0.0000   0.0000   0.0000   0.1801
  -8.800  -0.3646   0.11916   0.11398  -0.0248  1.0000  0.0398  -1.2233   0.0000   0.0000   0.0000   0.1796
  -8.700  -0.3652   0.11885   0.11370  -0.0250  1.0000  0.0401  -1.2376   0.0000   0.0000   0.0000   0.1791
  -8.600  -0.3660   0.11857   0.11345  -0.0252  1.0000  0.0404  -1.2523   0.0000   0.0000   0.0000   0.1788
  -8.500  -0.3669   0.11829   0.11321  -0.0254  1.0000  0.0406  -1.2668   0.0000   0.0000   0.0000   0.1787
  -8.400  -0.3680   0.11799   0.11293  -0.0255  1.0000  0.0408  -1.2809   0.0000   0.0000   0.0000   0.1786
  -8.300  -0.3690   0.11765   0.11262  -0.0255  1.0000  0.0409  -1.2939   0.0000   0.0000   0.0000   0.1788
  -8.200  -0.3700   0.11726   0.11227  -0.0255  1.0000  0.0411  -1.3059   0.0000   0.0000   0.0000   0.1792
  -8.100  -0.3711   0.11684   0.11188  -0.0254  1.0000  0.0412  -1.3168   0.0000   0.0000   0.0000   0.1798
  -8.000  -0.3725   0.11640   0.11147  -0.0252  1.0000  0.0413  -1.3274   0.0000   0.0000   0.0000   0.1806
  -7.900  -0.3741   0.11595   0.11105  -0.0249  1.0000  0.0414  -1.3378   0.0000   0.0000   0.0000   0.1817
  -7.800  -0.3756   0.11545   0.11058  -0.0246  1.0000  0.0415  -1.3464   0.0000   0.0000   0.0000   0.1829
  -7.700  -0.3771   0.11491   0.11008  -0.0242  1.0000  0.0415  -1.3538   0.0000   0.0000   0.0000   0.1844
  -7.600  -0.3787   0.11435   0.10955  -0.0237  1.0000  0.0416  -1.3612   0.0000   0.0000   0.0000   0.1858
  -7.500  -0.3800   0.11375   0.10897  -0.0234  1.0000  0.0417  -1.3684   0.0000   0.0000   0.0000   0.1870
  -7.400  -0.3804   0.11302   0.10828  -0.0233  1.0000  0.0417  -1.3753   0.0000   0.0000   0.0000   0.1873
  -7.300  -0.3801   0.11219   0.10748  -0.0235  1.0000  0.0418  -1.3819   0.0000   0.0000   0.0000   0.1869
  -7.200  -0.3795   0.11132   0.10664  -0.0237  1.0000  0.0418  -1.3885   0.0000   0.0000   0.0000   0.1863
  -7.100  -0.3787   0.11041   0.10575  -0.0239  1.0000  0.0419  -1.3950   0.0000   0.0000   0.0000   0.1855
  -7.000  -0.3778   0.10946   0.10483  -0.0243  1.0000  0.0419  -1.4016   0.0000   0.0000   0.0000   0.1845
  -6.900  -0.3766   0.10848   0.10388  -0.0247  1.0000  0.0420  -1.4081   0.0000   0.0000   0.0000   0.1833
  -6.800  -0.3752   0.10747   0.10289  -0.0251  1.0000  0.0420  -1.4148   0.0000   0.0000   0.0000   0.1819
  -6.700  -0.3736   0.10643   0.10187  -0.0256  1.0000  0.0420  -1.4215   0.0000   0.0000   0.0000   0.1802
  -6.600  -0.3718   0.10536   0.10082  -0.0262  1.0000  0.0421  -1.4283   0.0000   0.0000   0.0000   0.1783
  -6.500  -0.3760   0.10170   0.09725  -0.0260  1.0000  0.0426  -1.4758   0.0000   0.0000   0.0000   0.1796
  -6.400  -0.3794   0.09835   0.09392  -0.0245  1.0000  0.0434  -1.4796   0.0000   0.0000   0.0000   0.1843
  -6.300  -0.3797   0.09584   0.09142  -0.0218  1.0000  0.0444  -1.4302   0.0000   0.0000   0.0000   0.1915
  -6.200  -0.3783   0.09408   0.08968  -0.0198  1.0000  0.0454  -1.3809   0.0000   0.0000   0.0000   0.1966
  -6.100  -0.3769   0.09272   0.08833  -0.0186  1.0000  0.0463  -1.3464   0.0000   0.0000   0.0000   0.1996
  -6.000  -0.3757   0.09155   0.08717  -0.0178  1.0000  0.0471  -1.3224   0.0000   0.0000   0.0000   0.2014
  -5.900  -0.3747   0.09046   0.08611  -0.0173  1.0000  0.0480  -1.3050   0.0000   0.0000   0.0000   0.2026
  -5.800  -0.3737   0.08942   0.08509  -0.0171  1.0000  0.0488  -1.2919   0.0000   0.0000   0.0000   0.2033
  -5.700  -0.3727   0.08839   0.08408  -0.0169  1.0000  0.0497  -1.2818   0.0000   0.0000   0.0000   0.2035
  -5.600  -0.3714   0.08736   0.08307  -0.0170  1.0000  0.0506  -1.2738   0.0000   0.0000   0.0000   0.2033
  -5.500  -0.3700   0.08632   0.08205  -0.0171  1.0000  0.0516  -1.2676   0.0000   0.0000   0.0000   0.2027
  -5.400  -0.3682   0.08527   0.08102  -0.0175  1.0000  0.0526  -1.2631   0.0000   0.0000   0.0000   0.2016
  -5.300  -0.3661   0.08419   0.07996  -0.0180  1.0000  0.0537  -1.2599   0.0000   0.0000   0.0000   0.2000
  -5.200  -0.3635   0.08309   0.07888  -0.0186  1.0000  0.0549  -1.2583   0.0000   0.0000   0.0000   0.1978
  -5.100  -0.3602   0.08197   0.07778  -0.0196  1.0000  0.0563  -1.2583   0.0000   0.0000   0.0000   0.1947
  -5.000  -0.3560   0.08083   0.07665  -0.0209  1.0000  0.0578  -1.2608   0.0000   0.0000   0.0000   0.1904
  -4.900  -0.3502   0.07969   0.07552  -0.0229  1.0000  0.0596  -1.2677   0.0000   0.0000   0.0000   0.1837
  -4.800  -0.3392   0.07872   0.07454  -0.0270  1.0000  0.0621  -1.2883   0.0000   0.0000   0.0000   0.1694
  -4.700  -0.3026   0.07958   0.07528  -0.0402  1.0000  0.0656  -1.3481   0.0000   0.0000   0.0000   0.1162
  -4.400  -0.3266   0.07269   0.06861  -0.0289  1.0000  0.0751  -1.2300   0.0000   0.0000   0.0000   0.1607
  -4.300  -0.3228   0.07230   0.06823  -0.0283  1.0000  0.0846  -1.1765   0.0000   0.0000   0.0000   0.1616
  -4.200  -0.2713   0.07337   0.06909  -0.0454  1.0000  0.0943  -1.2260   0.0000   0.0000   0.0000   0.0818
  -4.100  -0.2533   0.07283   0.06844  -0.0495  1.0000  0.0950  -1.2283   0.0000   0.0000   0.0000   0.0538
  -4.000  -0.2412   0.07011   0.06571  -0.0531  1.0000  0.0957  -1.2486   0.0000   0.0000   0.0000   0.0291
  -3.900  -0.2444   0.06457   0.06026  -0.0535  1.0000  0.0979  -1.2648   0.0000   0.0000   0.0000   0.0303
  -3.800  -0.2447   0.06270   0.05844  -0.0517  1.0000  0.0992  -1.2342   0.0000   0.0000   0.0000   0.0378
  -3.700  -0.2433   0.06125   0.05703  -0.0503  1.0000  0.1006  -1.2008   0.0000   0.0000   0.0000   0.0425
  -3.600  -0.2406   0.06000   0.05579  -0.0491  1.0000  0.1023  -1.1646   0.0000   0.0000   0.0000   0.0452
  -3.500  -0.2351   0.05860   0.05400  -0.0486  1.0000  0.1045  -1.1021   0.0000   0.0000   0.0000   0.0422
  -3.400  -0.2282   0.05754   0.05294  -0.0488  1.0000  0.1068  -1.0774   0.0000   0.0000   0.0000   0.0351
  -3.300  -0.2193   0.05644   0.05183  -0.0496  1.0000  0.1097  -1.0551   0.0000   0.0000   0.0000   0.0226
  -3.200  -0.2074   0.05526   0.05061  -0.0514  1.0000  0.1135  -1.0361   0.0000   0.0000   0.0000   0.0011
  -3.100  -0.1893   0.05403   0.04931  -0.0549  1.0000  0.1193  -1.0227   0.0000   0.0000   0.0000  -0.0413
  -3.000  -0.1363   0.05148   0.04635  -0.0695  1.0000  0.1327  -1.0583   0.0000   0.0000   0.0000  -0.2616
  -2.900  -0.1325   0.04952   0.04447  -0.0689  1.0000  0.1347  -1.0301   0.0000   0.0000   0.0000  -0.2711
  -2.800  -0.1275   0.04823   0.04323  -0.0682  1.0000  0.1368  -0.9995   0.0000   0.0000   0.0000  -0.2865
  -2.700  -0.1211   0.04721   0.04223  -0.0678  1.0000  0.1395  -0.9690   0.0000   0.0000   0.0000  -0.3120
  -2.600  -0.1132   0.04631   0.04135  -0.0677  1.0000  0.1428  -0.9396   0.0000   0.0000   0.0000  -0.3500
  -2.500  -0.1026   0.04544   0.04045  -0.0684  1.0000  0.1475  -0.9123   0.0000   0.0000   0.0000  -0.4191
  -2.400  -0.0865   0.04463   0.03958  -0.0705  1.0000  0.1555  -0.8886   0.0000   0.0000   0.0000  -0.5682
  -2.300  -0.0515   0.04264   0.03732  -0.0785  1.0000  0.1748  -0.8783   0.0000   0.0000   0.0000  -1.2781
  -2.200  -0.0446   0.04141   0.03615  -0.0781  1.0000  0.1780  -0.8492   0.0000   0.0000   0.0000  -1.5057
  -2.100  -0.0361   0.04049   0.03526  -0.0781  1.0000  0.1820  -0.8207   0.0000   0.0000   0.0000  -1.9193
  -2.000  -0.0255   0.03971   0.03447  -0.0785  1.0000  0.1873  -0.7937   0.0000   0.0000   0.0000  -2.8400
  -1.900  -0.0111   0.03904   0.03375  -0.0798  1.0000  0.1954  -0.7689   0.0000   0.0000   0.0000  -6.9471
  -1.700   0.1038   0.03018   0.02350  -0.1012  1.0000  0.1049  -0.9447   0.0000   0.0000   0.0000   1.2264
  -1.600   0.1426   0.02763   0.02006  -0.1051  1.0000  0.0684  -1.0946   0.0000   0.0000   0.0000   0.9888
  -1.500   0.1475   0.02841   0.02086  -0.1036  1.0000  0.0665  -1.0550   0.0000   0.0000   0.0000   0.9537
  -1.400   0.1775   0.02551   0.01762  -0.1080  1.0000  0.0604  -1.0694   0.0000   0.0000   0.0000   0.8591
  -1.300   0.1971   0.02439   0.01627  -0.1097  1.0000  0.0571  -1.0637   0.0000   0.0000   0.0000   0.8073
  -1.200   0.2151   0.02351   0.01515  -0.1110  1.0000  0.0543  -1.0579   0.0000   0.0000   0.0000   0.7665
  -1.100   0.2320   0.02276   0.01419  -0.1119  1.0000  0.0520  -1.0514   0.0000   0.0000   0.0000   0.7331
  -1.000   0.2475   0.02217   0.01342  -0.1127  1.0000  0.0501  -1.0384   0.0000   0.0000   0.0000   0.7058
  -0.900   0.2619   0.02170   0.01282  -0.1132  1.0000  0.0486  -1.0202   0.0000   0.0000   0.0000   0.6827
  -0.800   0.2754   0.02134   0.01236  -0.1136  1.0000  0.0476  -0.9960   0.0000   0.0000   0.0000   0.6630
  -0.700   0.2882   0.02107   0.01201  -0.1140  1.0000  0.0468  -0.9667   0.0000   0.0000   0.0000   0.6457
  -0.600   0.3007   0.02084   0.01173  -0.1143  1.0000  0.0463  -0.9336   0.0000   0.0000   0.0000   0.6302
  -0.500   0.3135   0.02064   0.01149  -0.1147  1.0000  0.0461  -0.8978   0.0000   0.0000   0.0000   0.6159
  -0.400   0.3262   0.02048   0.01128  -0.1151  1.0000  0.0461  -0.8607   0.0000   0.0000   0.0000   0.6028
  -0.300   0.3389   0.02035   0.01109  -0.1155  1.0000  0.0464  -0.8226   0.0000   0.0000   0.0000   0.5907
  -0.200   0.3513   0.02027   0.01095  -0.1159  1.0000  0.0472  -0.7885   0.0000   0.0000   0.0000   0.5797
  -0.100   0.3634   0.02023   0.01084  -0.1163  1.0000  0.0484  -0.7565   0.0000   0.0000   0.0000   0.5696
   0.000   0.3752   0.02023   0.01077  -0.1166  1.0000  0.0503  -0.7246   0.0000   0.0000   0.0000   0.5602
   0.100   0.3867   0.02025   0.01075  -0.1168  1.0000  0.0533  -0.6932   0.0000   0.0000   0.0000   0.5516
   0.200   0.3979   0.02030   0.01076  -0.1170  1.0000  0.0581  -0.6634   0.0000   0.0000   0.0000   0.5435
   0.400   0.4406   0.01876   0.01099  -0.1214  1.0000  0.6234  -0.5775   0.0000   0.0000   0.0000   0.5248
   0.500   0.4408   0.01835   0.01106  -0.1188  1.0000  0.8395  -0.5579   0.0000   0.0000   0.0000   0.5188
   0.600   0.4396   0.01855   0.01130  -0.1170  1.0000  1.0000  -0.5419   0.0000   0.0000   0.0000   0.5154
   0.700   0.4485   0.01881   0.01148  -0.1169  1.0000  1.0000  -0.5042   0.0000   0.0000   0.0000   0.5098
   0.800   0.4572   0.01907   0.01167  -0.1168  1.0000  1.0000  -0.4683   0.0000   0.0000   0.0000   0.5045
   0.900   0.4658   0.01934   0.01188  -0.1167  1.0000  1.0000  -0.4768   0.0000   0.0000   0.0000   0.4995
   1.000   0.4743   0.01962   0.01211  -0.1166  1.0000  1.0000  -0.4859   0.0000   0.0000   0.0000   0.4947
   1.100   0.4864   0.01989   0.01234  -0.1172  0.9984  1.0000  -0.4974   0.0000   0.0000   0.0000   0.4897
   1.200   0.5043   0.02014   0.01267  -0.1188  0.9943  1.0000  -0.5126   0.0000   0.0000   0.0000   0.4842
   1.300   0.5225   0.02037   0.01287  -0.1204  0.9906  1.0000  -0.5285   0.0000   0.0000   0.0000   0.4791
   1.400   0.5402   0.02059   0.01307  -0.1220  0.9868  1.0000  -0.5452   0.0000   0.0000   0.0000   0.4743
   1.500   0.5561   0.02078   0.01324  -0.1232  0.9820  1.0000  -0.5617   0.0000   0.0000   0.0000   0.4700
   1.600   0.5745   0.02098   0.01342  -0.1249  0.9784  1.0000  -0.5804   0.0000   0.0000   0.0000   0.4657
   1.700   0.5950   0.02119   0.01361  -0.1269  0.9757  1.0000  -0.6023   0.0000   0.0000   0.0000   0.4615
   1.800   0.6073   0.02129   0.01371  -0.1274  0.9689  1.0000  -0.6188   0.0000   0.0000   0.0000   0.4579
   1.900   0.6251   0.02141   0.01382  -0.1288  0.9642  1.0000  -0.6405   0.0000   0.0000   0.0000   0.4542
   2.000   0.6451   0.02153   0.01394  -0.1307  0.9608  1.0000  -0.6644   0.0000   0.0000   0.0000   0.4506
   2.100   0.6661   0.02166   0.01408  -0.1326  0.9579  1.0000  -0.6916   0.0000   0.0000   0.0000   0.4471
   2.200   0.6750   0.02170   0.01414  -0.1324  0.9500  1.0000  -0.7089   0.0000   0.0000   0.0000   0.4440
   2.300   0.6924   0.02173   0.01419  -0.1337  0.9449  1.0000  -0.7351   0.0000   0.0000   0.0000   0.4409
   2.400   0.7125   0.02175   0.01422  -0.1354  0.9411  1.0000  -0.7643   0.0000   0.0000   0.0000   0.4377
   2.500   0.7349   0.02174   0.01424  -0.1375  0.9380  1.0000  -0.7990   0.0000   0.0000   0.0000   0.4347
   2.600   0.7455   0.02176   0.01429  -0.1374  0.9308  1.0000  -0.8232   0.0000   0.0000   0.0000   0.4319
   2.700   0.7595   0.02172   0.01428  -0.1380  0.9240  1.0000  -0.8560   0.0000   0.0000   0.0000   0.4291
   2.800   0.7789   0.02161   0.01421  -0.1394  0.9190  1.0000  -0.9017   0.0000   0.0000   0.0000   0.4263
   2.900   0.8013   0.02142   0.01407  -0.1412  0.9150  1.0000  -0.9527   0.0000   0.0000   0.0000   0.4235
   3.000   0.8259   0.02117   0.01388  -0.1434  0.9118  1.0000  -1.0078   0.0000   0.0000   0.0000   0.4208
   3.100   0.8314   0.02122   0.01397  -0.1423  0.9026  1.0000  -1.0318   0.0000   0.0000   0.0000   0.4183
   3.200   0.8462   0.02108   0.01390  -0.1428  0.8957  1.0000  -1.0714   0.0000   0.0000   0.0000   0.4157
   3.300   0.8660   0.02080   0.01368  -0.1440  0.8904  1.0000  -1.1196   0.0000   0.0000   0.0000   0.4132
   3.400   0.8886   0.02042   0.01338  -0.1456  0.8863  1.0000  -1.1730   0.0000   0.0000   0.0000   0.4107
   3.500   0.9132   0.01995   0.01301  -0.1475  0.8830  1.0000  -1.2689   0.0000   0.0000   0.0000   0.4083
   3.600   0.9227   0.01986   0.01299  -0.1469  0.8744  1.0000  -1.3401   0.0000   0.0000   0.0000   0.4058
   3.700   0.9346   0.01965   0.01285  -0.1465  0.8653  1.0000  -1.4219   0.0000   0.0000   0.0000   0.4034
   3.800   0.9544   0.01915   0.01244  -0.1474  0.8590  1.0000  -1.5379   0.0000   0.0000   0.0000   0.4009
   4.000   1.0116   0.01758   0.00760  -0.1425  0.2127  1.0000  -2.3114   0.0000   0.0000   0.0000   0.3870
   4.200   1.0188   0.02015   0.00883  -0.1402  0.0369  1.0000  -2.3846   0.0000   0.0000   0.0000   0.3836
   4.300   1.0281   0.02055   0.00925  -0.1397  0.0326  1.0000  -2.4446   0.0000   0.0000   0.0000   0.3817
   4.400   1.0372   0.02094   0.00968  -0.1391  0.0300  1.0000  -2.5094   0.0000   0.0000   0.0000   0.3799
   4.500   1.0463   0.02135   0.01013  -0.1386  0.0280  1.0000  -2.5755   0.0000   0.0000   0.0000   0.3781
   4.600   1.0552   0.02178   0.01060  -0.1380  0.0265  1.0000  -2.6408   0.0000   0.0000   0.0000   0.3764
   4.700   1.0639   0.02224   0.01113  -0.1374  0.0253  1.0000  -2.7036   0.0000   0.0000   0.0000   0.3746
   4.800   1.0723   0.02274   0.01171  -0.1367  0.0244  1.0000  -2.7635   0.0000   0.0000   0.0000   0.3729
   4.900   1.0804   0.02330   0.01235  -0.1360  0.0238  1.0000  -2.8202   0.0000   0.0000   0.0000   0.3712
   5.000   1.0880   0.02390   0.01305  -0.1352  0.0232  1.0000  -2.8739   0.0000   0.0000   0.0000   0.3695
   5.100   1.0953   0.02456   0.01379  -0.1344  0.0229  1.0000  -2.9253   0.0000   0.0000   0.0000   0.3678
   5.200   1.1024   0.02527   0.01458  -0.1335  0.0226  1.0000  -2.9751   0.0000   0.0000   0.0000   0.3661
   5.300   1.1095   0.02603   0.01542  -0.1327  0.0224  1.0000  -3.0245   0.0000   0.0000   0.0000   0.3644
   5.400   1.1170   0.02685   0.01629  -0.1318  0.0223  1.0000  -3.0746   0.0000   0.0000   0.0000   0.3628
   5.500   1.1250   0.02771   0.01719  -0.1311  0.0222  1.0000  -3.1267   0.0000   0.0000   0.0000   0.3612
   5.600   1.1338   0.02859   0.01812  -0.1305  0.0223  1.0000  -3.1814   0.0000   0.0000   0.0000   0.3596
   5.700   1.1433   0.02950   0.01906  -0.1300  0.0223  1.0000  -3.2392   0.0000   0.0000   0.0000   0.3581
   5.800   1.1534   0.03039   0.01999  -0.1296  0.0225  1.0000  -3.3000   0.0000   0.0000   0.0000   0.3566
   5.900   1.1638   0.03126   0.02092  -0.1292  0.0227  1.0000  -3.3631   0.0000   0.0000   0.0000   0.3552
   6.000   1.1745   0.03212   0.02183  -0.1288  0.0230  1.0000  -3.4274   0.0000   0.0000   0.0000   0.3537
   6.100   1.1853   0.03296   0.02275  -0.1284  0.0234  1.0000  -3.4901   0.0000   0.0000   0.0000   0.3523
   6.200   1.1964   0.03385   0.02373  -0.1280  0.0239  1.0000  -3.5473   0.0000   0.0000   0.0000   0.3508
   6.300   1.2079   0.03487   0.02489  -0.1275  0.0246  1.0000  -3.5910   0.0000   0.0000   0.0000   0.3493
   6.400   1.2196   0.03616   0.02638  -0.1270  0.0255  1.0000  -3.6124   0.0000   0.0000   0.0000   0.3477
   6.500   1.2309   0.03778   0.02824  -0.1263  0.0267  1.0000  -3.6126   0.0000   0.0000   0.0000   0.3461
   6.600   1.2412   0.03963   0.03035  -0.1255  0.0280  1.0000  -3.5999   0.0000   0.0000   0.0000   0.3445
   6.700   1.2500   0.04158   0.03258  -0.1246  0.0293  1.0000  -3.5818   0.0000   0.0000   0.0000   0.3430
   6.800   1.2574   0.04357   0.03483  -0.1235  0.0306  1.0000  -3.5673   0.0000   0.0000   0.0000   0.3415
   6.900   1.2636   0.04560   0.03711  -0.1224  0.0319  1.0000  -3.5557   0.0000   0.0000   0.0000   0.3400
   7.000   1.2688   0.04772   0.03945  -0.1213  0.0331  1.0000  -3.5456   0.0000   0.0000   0.0000   0.3387
   7.100   1.2728   0.04998   0.04192  -0.1202  0.0343  1.0000  -3.5347   0.0000   0.0000   0.0000   0.3374
   7.200   1.2755   0.05251   0.04465  -0.1191  0.0354  1.0000  -3.5187   0.0000   0.0000   0.0000   0.3362
   7.300   1.2761   0.05588   0.04819  -0.1180  0.0366  1.0000  -3.4825   0.0000   0.0000   0.0000   0.3353
   7.400   1.2937   0.05537   0.04805  -0.1165  0.0430  1.0000  -3.4593   0.0000   0.0000   0.0000   0.3327
   7.500   1.2916   0.05877   0.05193  -0.1142  0.0472  1.0000  -3.3200   0.0000   0.0000   0.0000   0.3311
   7.600   1.2909   0.06175   0.05515  -0.1128  0.0503  1.0000  -3.2611   0.0000   0.0000   0.0000   0.3300
   7.700   1.2895   0.06476   0.05831  -0.1117  0.0530  1.0000  -3.2269   0.0000   0.0000   0.0000   0.3291
   7.800   1.2858   0.06877   0.06241  -0.1108  0.0555  1.0000  -3.1869   0.0000   0.0000   0.0000   0.3287
  10.100   1.1179   0.12946   0.12528  -0.1188  0.1000  1.0000  -2.0682   0.0000   0.0000   0.0000   0.3472
  10.200   1.1142   0.13218   0.12799  -0.1206  0.0991  1.0000  -2.0410   0.0000   0.0000   0.0000   0.3491
  10.300   1.1111   0.13482   0.13062  -0.1222  0.0984  1.0000  -2.0167   0.0000   0.0000   0.0000   0.3508
  10.400   1.1084   0.13737   0.13317  -0.1238  0.0977  1.0000  -1.9947   0.0000   0.0000   0.0000   0.3523
  10.500   1.1061   0.13986   0.13564  -0.1252  0.0971  1.0000  -1.9749   0.0000   0.0000   0.0000   0.3537
  10.600   1.1042   0.14228   0.13805  -0.1265  0.0964  1.0000  -1.9570   0.0000   0.0000   0.0000   0.3550
  10.700   1.1026   0.14463   0.14040  -0.1277  0.0957  1.0000  -1.9411   0.0000   0.0000   0.0000   0.3562
  10.800   1.1013   0.14692   0.14268  -0.1289  0.0950  1.0000  -1.9272   0.0000   0.0000   0.0000   0.3573
  10.900   1.1003   0.14916   0.14491  -0.1300  0.0942  1.0000  -1.9153   0.0000   0.0000   0.0000   0.3583
  11.000   1.0996   0.15135   0.14709  -0.1310  0.0935  1.0000  -1.9053   0.0000   0.0000   0.0000   0.3592
  11.100   1.0992   0.15349   0.14923  -0.1319  0.0927  1.0000  -1.8972   0.0000   0.0000   0.0000   0.3600
  11.200   1.0991   0.15555   0.15128  -0.1328  0.0920  1.0000  -1.8910   0.0000   0.0000   0.0000   0.3607
  11.300   1.0992   0.15754   0.15326  -0.1336  0.0913  1.0000  -1.8868   0.0000   0.0000   0.0000   0.3613
  11.400   1.0996   0.15948   0.15520  -0.1344  0.0905  1.0000  -1.8845   0.0000   0.0000   0.0000   0.3618
  11.500   1.1003   0.16140   0.15712  -0.1350  0.0898  1.0000  -1.8842   0.0000   0.0000   0.0000   0.3623
  11.600   1.1013   0.16332   0.15903  -0.1356  0.0891  1.0000  -1.8860   0.0000   0.0000   0.0000   0.3626
  11.700   1.1026   0.16523   0.16095  -0.1361  0.0885  1.0000  -1.8903   0.0000   0.0000   0.0000   0.3627
  11.800   1.1043   0.16717   0.16288  -0.1365  0.0878  1.0000  -1.8973   0.0000   0.0000   0.0000   0.3628
  11.900   1.1064   0.16912   0.16483  -0.1368  0.0871  1.0000  -1.9075   0.0000   0.0000   0.0000   0.3627
  12.000   1.1089   0.17111   0.16682  -0.1369  0.0865  1.0000  -1.9220   0.0000   0.0000   0.0000   0.3624
  12.100   1.1119   0.17317   0.16889  -0.1368  0.0858  1.0000  -1.9407   0.0000   0.0000   0.0000   0.3619
  12.200   1.1152   0.17537   0.17108  -0.1365  0.0850  1.0000  -1.9638   0.0000   0.0000   0.0000   0.3611
  12.300   1.1196   0.17789   0.17361  -0.1358  0.0842  1.0000  -1.9962   0.0000   0.0000   0.0000   0.3599
  12.400   1.1238   0.18216   0.17790  -0.1343  0.0829  1.0000  -2.0332   0.0000   0.0000   0.0000   0.3580
  12.500   1.1153   0.18960   0.18527  -0.1359  0.0816  1.0000  -1.9611   0.0000   0.0000   0.0000   0.3602
  12.600   1.1150   0.19165   0.18732  -0.1373  0.0815  1.0000  -1.9432   0.0000   0.0000   0.0000   0.3614
  12.700   1.1148   0.19364   0.18930  -0.1387  0.0814  1.0000  -1.9255   0.0000   0.0000   0.0000   0.3626
  12.800   1.1146   0.19553   0.19119  -0.1402  0.0813  1.0000  -1.9080   0.0000   0.0000   0.0000   0.3638
  12.900   1.1144   0.19732   0.19297  -0.1416  0.0812  1.0000  -1.8902   0.0000   0.0000   0.0000   0.3650
  13.000   1.1143   0.19894   0.19458  -0.1432  0.0809  1.0000  -1.8718   0.0000   0.0000   0.0000   0.3663
  13.100   1.1140   0.20029   0.19592  -0.1449  0.0806  1.0000  -1.8517   0.0000   0.0000   0.0000   0.3677
  13.200   1.1117   0.20124   0.19686  -0.1473  0.0800  1.0000  -1.8148   0.0000   0.0000   0.0000   0.3701
  13.300   1.1088   0.20193   0.19754  -0.1502  0.0788  1.0000  -1.7685   0.0000   0.0000   0.0000   0.3729
  13.400   1.1065   0.20317   0.19877  -0.1527  0.0773  1.0000  -1.7284   0.0000   0.0000   0.0000   0.3753
  13.500   1.1056   0.20490   0.20049  -0.1545  0.0759  1.0000  -1.7027   0.0000   0.0000   0.0000   0.3769
  13.600   1.1055   0.20682   0.20240  -0.1558  0.0747  1.0000  -1.6855   0.0000   0.0000   0.0000   0.3781
  13.700   1.1057   0.20881   0.20439  -0.1570  0.0735  1.0000  -1.6730   0.0000   0.0000   0.0000   0.3790
  13.800   1.1062   0.21083   0.20641  -0.1581  0.0724  1.0000  -1.6637   0.0000   0.0000   0.0000   0.3798
  13.900   1.1069   0.21289   0.20847  -0.1590  0.0714  1.0000  -1.6567   0.0000   0.0000   0.0000   0.3804
  14.000   1.1078   0.21497   0.21055  -0.1599  0.0704  1.0000  -1.6516   0.0000   0.0000   0.0000   0.3810
  14.100   1.1088   0.21706   0.21265  -0.1607  0.0695  1.0000  -1.6482   0.0000   0.0000   0.0000   0.3814
  14.200   1.1099   0.21916   0.21475  -0.1615  0.0686  1.0000  -1.6464   0.0000   0.0000   0.0000   0.3818
  14.300   1.1112   0.22128   0.21686  -0.1622  0.0677  1.0000  -1.6460   0.0000   0.0000   0.0000   0.3822
  14.400   1.1125   0.22339   0.21898  -0.1629  0.0669  1.0000  -1.6471   0.0000   0.0000   0.0000   0.3825
  14.500   1.1139   0.22552   0.22111  -0.1635  0.0660  1.0000  -1.6498   0.0000   0.0000   0.0000   0.3827
  14.600   1.1155   0.22765   0.22324  -0.1640  0.0653  1.0000  -1.6543   0.0000   0.0000   0.0000   0.3828
  14.700   1.1172   0.22979   0.22539  -0.1645  0.0645  1.0000  -1.6608   0.0000   0.0000   0.0000   0.3829
  14.800   1.1190   0.23196   0.22756  -0.1649  0.0638  1.0000  -1.6696   0.0000   0.0000   0.0000   0.3829
  14.900   1.1211   0.23416   0.22976  -0.1652  0.0630  1.0000  -1.6814   0.0000   0.0000   0.0000   0.3827
  15.000   1.1235   0.23641   0.23202  -0.1654  0.0623  1.0000  -1.6969   0.0000   0.0000   0.0000   0.3824
  15.100   1.1264   0.23877   0.23438  -0.1654  0.0616  1.0000  -1.7176   0.0000   0.0000   0.0000   0.3819
  15.200   1.1302   0.24132   0.23695  -0.1652  0.0609  1.0000  -1.7465   0.0000   0.0000   0.0000   0.3811
  15.300   1.1352   0.24424   0.23988  -0.1645  0.0601  1.0000  -1.7874   0.0000   0.0000   0.0000   0.3797
  15.400   1.1405   0.24778   0.24343  -0.1633  0.0593  1.0000  -1.8375   0.0000   0.0000   0.0000   0.3778
  15.500   1.1394   0.25856   0.25418  -0.1618  0.0575  1.0000  -1.8290   0.0000   0.0000   0.0000   0.3765
  15.600   1.1398   0.26078   0.25640  -0.1627  0.0575  1.0000  -1.8171   0.0000   0.0000   0.0000   0.3772
  15.700   1.1402   0.26297   0.25859  -0.1637  0.0574  1.0000  -1.8051   0.0000   0.0000   0.0000   0.3779
  15.800   1.1405   0.26512   0.26074  -0.1647  0.0574  1.0000  -1.7931   0.0000   0.0000   0.0000   0.3785
  15.900   1.1408   0.26723   0.26286  -0.1656  0.0573  1.0000  -1.7811   0.0000   0.0000   0.0000   0.3792
  16.000   1.1410   0.26930   0.26493  -0.1666  0.0573  1.0000  -1.7689   0.0000   0.0000   0.0000   0.3799
  16.100   1.1412   0.27132   0.26695  -0.1675  0.0572  1.0000  -1.7565   0.0000   0.0000   0.0000   0.3805
  16.200   1.1413   0.27328   0.26891  -0.1685  0.0571  1.0000  -1.7439   0.0000   0.0000   0.0000   0.3812
  16.300   1.1409   0.27513   0.27077  -0.1695  0.0570  1.0000  -1.7283   0.0000   0.0000   0.0000   0.3820
  16.400   1.1399   0.27686   0.27250  -0.1707  0.0568  1.0000  -1.7087   0.0000   0.0000   0.0000   0.3830
  16.500   1.1387   0.27848   0.27413  -0.1719  0.0567  1.0000  -1.6879   0.0000   0.0000   0.0000   0.3841
  16.600   1.1371   0.27997   0.27562  -0.1731  0.0565  1.0000  -1.6649   0.0000   0.0000   0.0000   0.3852
  16.700   1.1344   0.28128   0.27693  -0.1743  0.0562  1.0000  -1.6376   0.0000   0.0000   0.0000   0.3865
  16.800   1.1310   0.28248   0.27813  -0.1756  0.0559  1.0000  -1.6077   0.0000   0.0000   0.0000   0.3879
  16.900   1.1279   0.28372   0.27938  -0.1769  0.0555  1.0000  -1.5776   0.0000   0.0000   0.0000   0.3894
  17.000   1.1251   0.28509   0.28076  -0.1781  0.0550  1.0000  -1.5489   0.0000   0.0000   0.0000   0.3907
  17.100   1.1229   0.28667   0.28234  -0.1792  0.0544  1.0000  -1.5235   0.0000   0.0000   0.0000   0.3918
  17.200   1.1210   0.28844   0.28413  -0.1801  0.0537  1.0000  -1.5023   0.0000   0.0000   0.0000   0.3927
  17.300   1.1192   0.29033   0.28603  -0.1808  0.0530  1.0000  -1.4846   0.0000   0.0000   0.0000   0.3935
  17.400   1.1172   0.29228   0.28798  -0.1813  0.0523  1.0000  -1.4692   0.0000   0.0000   0.0000   0.3941
  17.500   1.1150   0.29421   0.28993  -0.1817  0.0516  1.0000  -1.4552   0.0000   0.0000   0.0000   0.3946
  17.600   1.1124   0.29609   0.29183  -0.1820  0.0510  1.0000  -1.4417   0.0000   0.0000   0.0000   0.3951
  17.700   1.1091   0.29788   0.29363  -0.1822  0.0503  1.0000  -1.4281   0.0000   0.0000   0.0000   0.3956
  17.800   1.1050   0.29950   0.29527  -0.1822  0.0498  1.0000  -1.4136   0.0000   0.0000   0.0000   0.3961
  17.900   1.0972   0.30047   0.29663  -0.1816  0.0484  1.0000  -1.3914   0.0000   0.0000   0.0000   0.3966
  18.000   1.0563   0.29457   0.29049  -0.1762  0.0497  1.0000  -1.3061   0.0000   0.0000   0.0000   0.3979
  18.100   1.0453   0.29383   0.28979  -0.1751  0.0494  1.0000  -1.2790   0.0000   0.0000   0.0000   0.3985
  18.200   1.0371   0.29357   0.28956  -0.1744  0.0489  1.0000  -1.2581   0.0000   0.0000   0.0000   0.3990
  18.300   1.0304   0.29349   0.28986  -0.1738  0.0475  1.0000  -1.2404   0.0000   0.0000   0.0000   0.3995
  18.400   1.0248   0.29358   0.28998  -0.1734  0.0469  1.0000  -1.2261   0.0000   0.0000   0.0000   0.3999
  18.500   1.0198   0.29376   0.29019  -0.1731  0.0464  1.0000  -1.2135   0.0000   0.0000   0.0000   0.4002
  18.600   1.0153   0.29400   0.29047  -0.1728  0.0459  1.0000  -1.2025   0.0000   0.0000   0.0000   0.4006
  18.700   1.0113   0.29429   0.29078  -0.1726  0.0454  1.0000  -1.1928   0.0000   0.0000   0.0000   0.4009
  18.800   1.0075   0.29461   0.29113  -0.1724  0.0449  1.0000  -1.1843   0.0000   0.0000   0.0000   0.4012
  18.900   1.0041   0.29497   0.29151  -0.1722  0.0444  1.0000  -1.1770   0.0000   0.0000   0.0000   0.4014
  19.000   1.0010   0.29535   0.29191  -0.1720  0.0439  1.0000  -1.1708   0.0000   0.0000   0.0000   0.4016
  19.100   0.9981   0.29575   0.29234  -0.1719  0.0435  1.0000  -1.1658   0.0000   0.0000   0.0000   0.4018
  19.200   0.9954   0.29617   0.29278  -0.1717  0.0430  1.0000  -1.1619   0.0000   0.0000   0.0000   0.4020
  19.300   0.9929   0.29661   0.29324  -0.1716  0.0425  1.0000  -1.1593   0.0000   0.0000   0.0000   0.4022
  19.400   0.9906   0.29707   0.29372  -0.1715  0.0421  1.0000  -1.1580   0.0000   0.0000   0.0000   0.4023
  19.500   0.9885   0.29755   0.29422  -0.1713  0.0417  1.0000  -1.1581   0.0000   0.0000   0.0000   0.4023
  19.600   0.9866   0.29805   0.29474  -0.1711  0.0412  1.0000  -1.1600   0.0000   0.0000   0.0000   0.4023
  19.700   0.9849   0.29860   0.29530  -0.1709  0.0408  1.0000  -1.1638   0.0000   0.0000   0.0000   0.4022
  19.800   0.9834   0.29920   0.29593  -0.1707  0.0404  1.0000  -1.1700   0.0000   0.0000   0.0000   0.4021
  19.900   0.9823   0.29992   0.29666  -0.1704  0.0399  1.0000  -1.1795   0.0000   0.0000   0.0000   0.4018
  20.000   0.9817   0.30084   0.29761  -0.1699  0.0395  1.0000  -1.1936   0.0000   0.0000   0.0000   0.4013
  20.100   0.9822   0.30230   0.29908  -0.1693  0.0390  1.0000  -1.2162   0.0000   0.0000   0.0000   0.4005


