xflr5 v6.61

 Calculated polar for: E71  (5.15%)

 1 1 Reynolds number fixed          Mach number fixed         

 xtrf =   1.000 (top)        1.000 (bottom)
 Mach =   0.000     Re =     0.400 e 6     Ncrit =   9.000

  alpha     CL        CD       CDp       Cm    Top Xtr Bot Xtr   Cpmin    Chinge    XCp    
 ------- -------- --------- --------- -------- ------- ------- -------- --------- ---------
 -10.000  -0.3837   0.13027   0.12754  -0.0204  1.0000  0.0099  -1.3704   0.0000   0.0000   0.0000   0.1940
  -9.900  -0.3823   0.12909   0.12637  -0.0205  1.0000  0.0099  -1.3732   0.0000   0.0000   0.0000   0.1937
  -9.800  -0.3810   0.12792   0.12521  -0.0205  1.0000  0.0099  -1.3762   0.0000   0.0000   0.0000   0.1935
  -9.700  -0.3797   0.12676   0.12406  -0.0205  1.0000  0.0099  -1.3792   0.0000   0.0000   0.0000   0.1933
  -9.600  -0.3784   0.12561   0.12292  -0.0205  1.0000  0.0099  -1.3824   0.0000   0.0000   0.0000   0.1931
  -9.500  -0.3772   0.12446   0.12178  -0.0205  1.0000  0.0099  -1.3856   0.0000   0.0000   0.0000   0.1930
  -9.400  -0.3761   0.12332   0.12065  -0.0205  1.0000  0.0099  -1.3890   0.0000   0.0000   0.0000   0.1929
  -9.300  -0.3749   0.12218   0.11952  -0.0205  1.0000  0.0099  -1.3924   0.0000   0.0000   0.0000   0.1928
  -9.200  -0.3739   0.12105   0.11840  -0.0204  1.0000  0.0099  -1.3960   0.0000   0.0000   0.0000   0.1928
  -9.100  -0.3729   0.11993   0.11729  -0.0204  1.0000  0.0099  -1.3997   0.0000   0.0000   0.0000   0.1928
  -9.000  -0.3720   0.11882   0.11619  -0.0203  1.0000  0.0099  -1.4035   0.0000   0.0000   0.0000   0.1929
  -8.900  -0.3711   0.11772   0.11510  -0.0202  1.0000  0.0099  -1.4075   0.0000   0.0000   0.0000   0.1930
  -8.800  -0.3703   0.11663   0.11402  -0.0201  1.0000  0.0099  -1.4116   0.0000   0.0000   0.0000   0.1932
  -8.700  -0.3696   0.11555   0.11295  -0.0200  1.0000  0.0099  -1.4159   0.0000   0.0000   0.0000   0.1934
  -8.600  -0.3691   0.11448   0.11189  -0.0199  1.0000  0.0099  -1.4203   0.0000   0.0000   0.0000   0.1938
  -8.500  -0.3686   0.11343   0.11086  -0.0197  1.0000  0.0099  -1.4248   0.0000   0.0000   0.0000   0.1941
  -8.400  -0.3682   0.11239   0.10983  -0.0196  1.0000  0.0099  -1.4296   0.0000   0.0000   0.0000   0.1946
  -8.300  -0.3679   0.11137   0.10882  -0.0194  1.0000  0.0099  -1.4345   0.0000   0.0000   0.0000   0.1952
  -8.200  -0.3678   0.11036   0.10782  -0.0191  1.0000  0.0099  -1.4396   0.0000   0.0000   0.0000   0.1958
  -8.100  -0.3677   0.10937   0.10684  -0.0189  1.0000  0.0099  -1.4448   0.0000   0.0000   0.0000   0.1965
  -8.000  -0.3678   0.10838   0.10587  -0.0186  1.0000  0.0099  -1.4502   0.0000   0.0000   0.0000   0.1973
  -7.900  -0.3680   0.10740   0.10491  -0.0183  1.0000  0.0099  -1.4557   0.0000   0.0000   0.0000   0.1982
  -7.800  -0.3684   0.10645   0.10397  -0.0180  1.0000  0.0099  -1.4614   0.0000   0.0000   0.0000   0.1992
  -7.700  -0.3689   0.10552   0.10305  -0.0176  1.0000  0.0099  -1.4674   0.0000   0.0000   0.0000   0.2004
  -7.600  -0.3697   0.10462   0.10216  -0.0172  1.0000  0.0099  -1.4736   0.0000   0.0000   0.0000   0.2017
  -7.500  -0.3707   0.10373   0.10129  -0.0167  1.0000  0.0099  -1.4800   0.0000   0.0000   0.0000   0.2031
  -7.400  -0.3719   0.10288   0.10046  -0.0162  1.0000  0.0099  -1.4866   0.0000   0.0000   0.0000   0.2047
  -7.300  -0.3734   0.10205   0.09964  -0.0156  1.0000  0.0099  -1.4935   0.0000   0.0000   0.0000   0.2064
  -7.200  -0.3751   0.10126   0.09887  -0.0150  1.0000  0.0099  -1.5007   0.0000   0.0000   0.0000   0.2084
  -7.100  -0.3772   0.10051   0.09813  -0.0143  1.0000  0.0099  -1.5081   0.0000   0.0000   0.0000   0.2105
  -7.000  -0.3797   0.09980   0.09744  -0.0135  1.0000  0.0099  -1.5159   0.0000   0.0000   0.0000   0.2128
  -6.900  -0.3826   0.09914   0.09680  -0.0126  1.0000  0.0098  -1.5241   0.0000   0.0000   0.0000   0.2154
  -6.800  -0.3860   0.09852   0.09620  -0.0117  1.0000  0.0098  -1.5325   0.0000   0.0000   0.0000   0.2182
  -6.700  -0.3853   0.09749   0.09517  -0.0119  0.9995  0.0098  -1.5397   0.0000   0.0000   0.0000   0.2177
  -6.600  -0.3782   0.09579   0.09348  -0.0139  0.9982  0.0098  -1.5450   0.0000   0.0000   0.0000   0.2118
  -6.500  -0.3697   0.09392   0.09161  -0.0163  0.9971  0.0098  -1.5500   0.0000   0.0000   0.0000   0.2045
  -6.400  -0.3615   0.09205   0.08974  -0.0185  0.9957  0.0098  -1.5554   0.0000   0.0000   0.0000   0.1973
  -6.300  -0.3531   0.09017   0.08786  -0.0208  0.9942  0.0098  -1.5614   0.0000   0.0000   0.0000   0.1896
  -6.200  -0.3443   0.08825   0.08595  -0.0232  0.9927  0.0098  -1.5679   0.0000   0.0000   0.0000   0.1810
  -6.100  -0.3347   0.08626   0.08396  -0.0258  0.9914  0.0098  -1.5749   0.0000   0.0000   0.0000   0.1710
  -6.000  -0.3243   0.08422   0.08192  -0.0287  0.9902  0.0097  -1.5826   0.0000   0.0000   0.0000   0.1596
  -5.900  -0.3132   0.08214   0.07984  -0.0318  0.9892  0.0097  -1.5909   0.0000   0.0000   0.0000   0.1465
  -5.800  -0.3042   0.08026   0.07796  -0.0343  0.9877  0.0097  -1.5999   0.0000   0.0000   0.0000   0.1352
  -5.700  -0.2964   0.07850   0.07620  -0.0364  0.9855  0.0097  -1.6090   0.0000   0.0000   0.0000   0.1250
  -5.600  -0.2868   0.07662   0.07432  -0.0391  0.9836  0.0097  -1.6173   0.0000   0.0000   0.0000   0.1116
  -5.500  -0.2758   0.07469   0.07239  -0.0421  0.9820  0.0098  -1.6241   0.0000   0.0000   0.0000   0.0953
  -5.400  -0.2633   0.07271   0.07040  -0.0455  0.9806  0.0098  -1.6286   0.0000   0.0000   0.0000   0.0750
  -5.300  -0.2492   0.07067   0.06836  -0.0492  0.9793  0.0099  -1.6311   0.0000   0.0000   0.0000   0.0500
  -5.200  -0.2334   0.06855   0.06622  -0.0535  0.9783  0.0099  -1.6338   0.0000   0.0000   0.0000   0.0183
  -4.900  -0.1771   0.05647   0.05410  -0.0742  0.9758  0.0112  -1.9613   0.0000   0.0000   0.0000  -0.1727
  -4.800  -0.1766   0.05578   0.05341  -0.0735  0.9721  0.0122  -1.8341   0.0000   0.0000   0.0000  -0.1694
  -4.700  -0.1748   0.05657   0.05422  -0.0712  0.9702  0.0145  -1.5727   0.0000   0.0000   0.0000  -0.1607
  -4.600  -0.1609   0.05551   0.05314  -0.0738  0.9686  0.0181  -1.4696   0.0000   0.0000   0.0000  -0.2122
  -4.100  -0.0548   0.04260   0.03973  -0.0997  0.9643  0.0269  -1.4947   0.0000   0.0000   0.0000  -1.5776
  -4.000  -0.0398   0.04130   0.03839  -0.1019  0.9637  0.0276  -1.4462   0.0000   0.0000   0.0000  -2.3264
  -3.900  -0.0239   0.03997   0.03702  -0.1043  0.9631  0.0284  -1.4011   0.0000   0.0000   0.0000  -4.1412
  -3.800  -0.0068   0.03857   0.03557  -0.1070  0.9626  0.0294  -1.3612   0.0000   0.0000   0.0000  -15.4622
  -3.700   0.0113   0.03709   0.03403  -0.1099  0.9622  0.0306  -1.3273   0.0000   0.0000   0.0000  10.0103
  -3.600   0.0305   0.03555   0.03241  -0.1129  0.9618  0.0321  -1.3000   0.0000   0.0000   0.0000   3.9736
  -3.500   0.0504   0.03398   0.03075  -0.1160  0.9615  0.0338  -1.2787   0.0000   0.0000   0.0000   2.5615
  -3.400   0.0709   0.03248   0.02914  -0.1189  0.9612  0.0361  -1.2640   0.0000   0.0000   0.0000   1.9335
  -3.300   0.0910   0.03158   0.02813  -0.1210  0.9609  0.0389  -1.2457   0.0000   0.0000   0.0000   1.5849
  -3.200   0.1083   0.03258   0.02905  -0.1212  0.9602  0.0414  -1.1810   0.0000   0.0000   0.0000   1.3728
  -3.100   0.1274   0.03211   0.02844  -0.1230  0.9598  0.0419  -1.1480   0.0000   0.0000   0.0000   1.2196
  -3.000   0.1555   0.02560   0.02157  -0.1309  0.9607  0.0455  -1.2646   0.0000   0.0000   0.0000   1.0950
  -2.900   0.1696   0.02476   0.02075  -0.1323  0.9604  0.0477  -1.1858   0.0000   0.0000   0.0000   1.0329
  -2.800   0.1835   0.02428   0.02029  -0.1334  0.9600  0.0502  -1.1076   0.0000   0.0000   0.0000   0.9796
  -2.700   0.1986   0.02379   0.01977  -0.1346  0.9597  0.0536  -1.0424   0.0000   0.0000   0.0000   0.9303
  -2.600   0.2146   0.02336   0.01926  -0.1358  0.9593  0.0582  -0.9913   0.0000   0.0000   0.0000   0.8850
  -2.500   0.2304   0.02354   0.01937  -0.1364  0.9589  0.0629  -0.9401   0.0000   0.0000   0.0000   0.8438
  -2.300   0.2679   0.02041   0.01593  -0.1412  0.9589  0.0733  -0.8889   0.0000   0.0000   0.0000   0.7787
  -2.200   0.2829   0.01990   0.01545  -0.1423  0.9586  0.0769  -0.8285   0.0000   0.0000   0.0000   0.7546
  -2.100   0.2958   0.01949   0.01503  -0.1429  0.9574  0.0809  -0.7819   0.0000   0.0000   0.0000   0.7343
  -1.400   0.4155   0.01288   0.00711  -0.1490  0.9542  0.0334  -0.8813   0.0000   0.0000   0.0000   0.6094
  -1.300   0.4318   0.01224   0.00631  -0.1497  0.9536  0.0283  -0.9008   0.0000   0.0000   0.0000   0.5975
  -1.200   0.4446   0.01205   0.00608  -0.1499  0.9515  0.0261  -0.8623   0.0000   0.0000   0.0000   0.5878
  -1.100   0.4575   0.01195   0.00597  -0.1502  0.9495  0.0247  -0.8065   0.0000   0.0000   0.0000   0.5788
  -1.000   0.4711   0.01187   0.00590  -0.1506  0.9477  0.0236  -0.7459   0.0000   0.0000   0.0000   0.5701
  -0.900   0.4878   0.01139   0.00534  -0.1517  0.9470  0.0227  -0.7239   0.0000   0.0000   0.0000   0.5613
  -0.800   0.5037   0.01109   0.00498  -0.1526  0.9460  0.0220  -0.6873   0.0000   0.0000   0.0000   0.5533
  -0.700   0.5192   0.01087   0.00471  -0.1535  0.9449  0.0215  -0.6433   0.0000   0.0000   0.0000   0.5457
  -0.600   0.5345   0.01070   0.00448  -0.1542  0.9438  0.0210  -0.5950   0.0000   0.0000   0.0000   0.5387
  -0.500   0.5499   0.01055   0.00428  -0.1550  0.9427  0.0207  -0.5435   0.0000   0.0000   0.0000   0.5320
  -0.400   0.5654   0.01041   0.00411  -0.1559  0.9417  0.0206  -0.4988   0.0000   0.0000   0.0000   0.5256
  -0.300   0.5810   0.01028   0.00396  -0.1567  0.9407  0.0206  -0.5102   0.0000   0.0000   0.0000   0.5196
  -0.200   0.5970   0.01015   0.00381  -0.1576  0.9398  0.0209  -0.5222   0.0000   0.0000   0.0000   0.5138
  -0.100   0.6132   0.01001   0.00367  -0.1586  0.9389  0.0219  -0.5354   0.0000   0.0000   0.0000   0.5083
   0.000   0.6327   0.00933   0.00369  -0.1607  0.9387  0.2511  -0.5515   0.0000   0.0000   0.0000   0.5037
   0.100   0.6501   0.00893   0.00371  -0.1624  0.9382  0.3935  -0.5674   0.0000   0.0000   0.0000   0.4993
   0.200   0.6672   0.00857   0.00372  -0.1638  0.9376  0.5296  -0.5832   0.0000   0.0000   0.0000   0.4950
   0.300   0.6833   0.00820   0.00374  -0.1649  0.9371  0.6652  -0.5986   0.0000   0.0000   0.0000   0.4907
   0.500   0.6913   0.00774   0.00378  -0.1614  0.9279  0.8627  -0.6161   0.0000   0.0000   0.0000   0.4827
   0.600   0.6992   0.00748   0.00362  -0.1603  0.9243  1.0000  -0.6281   0.0000   0.0000   0.0000   0.4785
   0.700   0.7134   0.00737   0.00350  -0.1609  0.9220  1.0000  -0.6450   0.0000   0.0000   0.0000   0.4746
   0.800   0.7284   0.00725   0.00337  -0.1616  0.9199  1.0000  -0.6649   0.0000   0.0000   0.0000   0.4708
   0.900   0.7440   0.00713   0.00324  -0.1624  0.9177  1.0000  -0.6854   0.0000   0.0000   0.0000   0.4672
   1.000   0.7596   0.00701   0.00311  -0.1632  0.9156  1.0000  -0.7060   0.0000   0.0000   0.0000   0.4637
   1.100   0.7758   0.00690   0.00300  -0.1642  0.9136  1.0000  -0.7290   0.0000   0.0000   0.0000   0.4604
   1.200   0.7921   0.00680   0.00289  -0.1652  0.9118  1.0000  -0.7544   0.0000   0.0000   0.0000   0.4573
   1.300   0.8020   0.00679   0.00289  -0.1649  0.9074  1.0000  -0.7738   0.0000   0.0000   0.0000   0.4542
   1.400   0.8114   0.00679   0.00289  -0.1644  0.9020  1.0000  -0.7927   0.0000   0.0000   0.0000   0.4512
   1.500   0.8232   0.00675   0.00284  -0.1645  0.8970  1.0000  -0.8142   0.0000   0.0000   0.0000   0.4482
   1.600   0.8378   0.00666   0.00276  -0.1651  0.8923  1.0000  -0.8430   0.0000   0.0000   0.0000   0.4454
   1.700   0.8539   0.00656   0.00264  -0.1660  0.8875  1.0000  -0.8749   0.0000   0.0000   0.0000   0.4427
   1.800   0.8708   0.00647   0.00254  -0.1671  0.8827  1.0000  -0.9161   0.0000   0.0000   0.0000   0.4401
   1.900   0.8816   0.00648   0.00254  -0.1670  0.8762  1.0000  -0.9492   0.0000   0.0000   0.0000   0.4375
   2.000   0.8923   0.00648   0.00255  -0.1668  0.8687  1.0000  -0.9821   0.0000   0.0000   0.0000   0.4349
   2.100   0.9050   0.00647   0.00252  -0.1670  0.8615  1.0000  -1.0185   0.0000   0.0000   0.0000   0.4325
   2.200   0.9192   0.00644   0.00247  -0.1675  0.8538  1.0000  -1.0574   0.0000   0.0000   0.0000   0.4301
   2.300   0.9328   0.00644   0.00244  -0.1679  0.8455  1.0000  -1.0957   0.0000   0.0000   0.0000   0.4278
   2.400   0.9428   0.00647   0.00247  -0.1676  0.8357  1.0000  -1.1284   0.0000   0.0000   0.0000   0.4255
   2.500   0.9545   0.00650   0.00247  -0.1676  0.8241  1.0000  -1.1640   0.0000   0.0000   0.0000   0.4232
   2.600   0.9672   0.00654   0.00244  -0.1678  0.8121  1.0000  -1.2016   0.0000   0.0000   0.0000   0.4210
   2.700   0.9768   0.00663   0.00243  -0.1672  0.7835  1.0000  -1.2437   0.0000   0.0000   0.0000   0.4186
   2.800   0.9838   0.00694   0.00238  -0.1659  0.7193  1.0000  -1.2835   0.0000   0.0000   0.0000   0.4159
   2.900   0.9862   0.00753   0.00245  -0.1638  0.6297  1.0000  -1.3228   0.0000   0.0000   0.0000   0.4133
   3.000   0.9872   0.00828   0.00264  -0.1617  0.5293  1.0000  -1.3658   0.0000   0.0000   0.0000   0.4109
   3.100   0.9908   0.00895   0.00286  -0.1603  0.4493  1.0000  -1.4177   0.0000   0.0000   0.0000   0.4088
   3.200   0.9977   0.00938   0.00303  -0.1595  0.4014  1.0000  -1.4827   0.0000   0.0000   0.0000   0.4068
   3.300   1.0048   0.00982   0.00320  -0.1589  0.3537  1.0000  -1.5957   0.0000   0.0000   0.0000   0.4049
   3.500   1.0030   0.01332   0.00486  -0.1549  0.0102  1.0000  -1.9550   0.0000   0.0000   0.0000   0.4011
   3.600   1.0132   0.01356   0.00518  -0.1545  0.0098  1.0000  -2.0925   0.0000   0.0000   0.0000   0.3990
   3.700   1.0234   0.01378   0.00547  -0.1541  0.0097  1.0000  -2.2007   0.0000   0.0000   0.0000   0.3970
   3.800   1.0334   0.01399   0.00575  -0.1537  0.0096  1.0000  -2.2984   0.0000   0.0000   0.0000   0.3951
   3.900   1.0434   0.01422   0.00604  -0.1534  0.0096  1.0000  -2.3900   0.0000   0.0000   0.0000   0.3933
   4.000   1.0532   0.01447   0.00634  -0.1530  0.0095  1.0000  -2.4769   0.0000   0.0000   0.0000   0.3914
   4.100   1.0628   0.01476   0.00669  -0.1526  0.0096  1.0000  -2.5592   0.0000   0.0000   0.0000   0.3896
   4.200   1.0722   0.01509   0.00707  -0.1521  0.0096  1.0000  -2.6367   0.0000   0.0000   0.0000   0.3878
   4.300   1.0813   0.01547   0.00751  -0.1516  0.0097  1.0000  -2.7079   0.0000   0.0000   0.0000   0.3860
   4.400   1.0899   0.01593   0.00803  -0.1509  0.0099  1.0000  -2.7711   0.0000   0.0000   0.0000   0.3842
   4.500   1.0979   0.01650   0.00866  -0.1501  0.0101  1.0000  -2.8224   0.0000   0.0000   0.0000   0.3824
   4.600   1.1048   0.01731   0.00956  -0.1491  0.0103  1.0000  -2.8482   0.0000   0.0000   0.0000   0.3805
   4.700   1.1146   0.01756   0.00984  -0.1487  0.0106  1.0000  -2.9451   0.0000   0.0000   0.0000   0.3789
   4.800   1.1248   0.01772   0.00999  -0.1484  0.0112  1.0000  -3.0529   0.0000   0.0000   0.0000   0.3773
   4.900   1.1350   0.01791   0.01019  -0.1481  0.0119  1.0000  -3.1557   0.0000   0.0000   0.0000   0.3756
   5.000   1.1447   0.01823   0.01056  -0.1475  0.0129  1.0000  -3.2360   0.0000   0.0000   0.0000   0.3740
   5.100   1.1534   0.01895   0.01139  -0.1466  0.0145  1.0000  -3.2467   0.0000   0.0000   0.0000   0.3720
   5.200   1.1618   0.02022   0.01283  -0.1453  0.0167  1.0000  -3.2063   0.0000   0.0000   0.0000   0.3699
   5.300   1.1716   0.02205   0.01480  -0.1443  0.0194  1.0000  -3.1546   0.0000   0.0000   0.0000   0.3679
   5.400   1.1842   0.02289   0.01568  -0.1437  0.0246  1.0000  -3.1543   0.0000   0.0000   0.0000   0.3660
   6.800   1.2818   0.05437   0.04946  -0.1303  0.0375  1.0000  -3.1025   0.0000   0.0000   0.0000   0.3450
   6.900   1.2875   0.05435   0.04958  -0.1290  0.0373  1.0000  -3.1616   0.0000   0.0000   0.0000   0.3434
   7.000   1.3161   0.04634   0.04144  -0.1293  0.0297  1.0000  -3.5406   0.0000   0.0000   0.0000   0.3412
   7.100   1.3225   0.04660   0.04168  -0.1289  0.0273  1.0000  -3.6847   0.0000   0.0000   0.0000   0.3404
   7.200   1.3296   0.04686   0.04180  -0.1291  0.0253  1.0000  -3.8814   0.0000   0.0000   0.0000   0.3398
   7.300   1.3322   0.04861   0.04353  -0.1286  0.0238  1.0000  -3.9894   0.0000   0.0000   0.0000   0.3392
   7.400   1.3276   0.05265   0.04775  -0.1272  0.0228  1.0000  -3.9406   0.0000   0.0000   0.0000   0.3384
   7.500   1.3185   0.05759   0.05296  -0.1253  0.0222  1.0000  -3.8090   0.0000   0.0000   0.0000   0.3375
   7.600   1.3080   0.06245   0.05809  -0.1233  0.0218  1.0000  -3.6670   0.0000   0.0000   0.0000   0.3367
  12.400   1.1287   0.17357   0.17134  -0.1503  0.0180  1.0000  -2.4264   0.0000   0.0000   0.0000   0.3711
  12.500   1.1292   0.17594   0.17371  -0.1516  0.0173  1.0000  -2.4087   0.0000   0.0000   0.0000   0.3721
  12.600   1.1297   0.17826   0.17603  -0.1529  0.0166  1.0000  -2.3965   0.0000   0.0000   0.0000   0.3730
  12.700   1.1304   0.18049   0.17825  -0.1540  0.0159  1.0000  -2.3930   0.0000   0.0000   0.0000   0.3738
  12.800   1.1312   0.18257   0.18032  -0.1551  0.0152  1.0000  -2.4016   0.0000   0.0000   0.0000   0.3745
  12.900   1.1323   0.18439   0.18215  -0.1560  0.0144  1.0000  -2.4310   0.0000   0.0000   0.0000   0.3750
  13.000   1.1346   0.18532   0.18307  -0.1563  0.0132  1.0000  -2.5332   0.0000   0.0000   0.0000   0.3749
  14.000   1.1328   0.21019   0.20791  -0.1668  0.0099  1.0000  -2.4510   0.0000   0.0000   0.0000   0.3831
  14.100   1.1357   0.21222   0.20994  -0.1678  0.0096  1.0000  -2.4529   0.0000   0.0000   0.0000   0.3835
  14.200   1.1380   0.21447   0.21218  -0.1688  0.0093  1.0000  -2.4438   0.0000   0.0000   0.0000   0.3839
  14.300   1.1399   0.21685   0.21456  -0.1698  0.0091  1.0000  -2.4282   0.0000   0.0000   0.0000   0.3844
  14.400   1.1413   0.21937   0.21709  -0.1709  0.0089  1.0000  -2.4042   0.0000   0.0000   0.0000   0.3851
  14.500   1.1424   0.22194   0.21966  -0.1719  0.0087  1.0000  -2.3779   0.0000   0.0000   0.0000   0.3857
  14.600   1.1433   0.22453   0.22225  -0.1730  0.0085  1.0000  -2.3514   0.0000   0.0000   0.0000   0.3864
  14.700   1.1442   0.22711   0.22483  -0.1740  0.0083  1.0000  -2.3270   0.0000   0.0000   0.0000   0.3871
  14.800   1.1452   0.22969   0.22741  -0.1750  0.0082  1.0000  -2.3046   0.0000   0.0000   0.0000   0.3877
  14.900   1.1461   0.23226   0.22998  -0.1760  0.0080  1.0000  -2.2842   0.0000   0.0000   0.0000   0.3883
  15.000   1.1470   0.23482   0.23254  -0.1769  0.0078  1.0000  -2.2656   0.0000   0.0000   0.0000   0.3888
  15.100   1.1479   0.23737   0.23510  -0.1779  0.0077  1.0000  -2.2486   0.0000   0.0000   0.0000   0.3894
  15.200   1.1487   0.23992   0.23765  -0.1787  0.0075  1.0000  -2.2331   0.0000   0.0000   0.0000   0.3899
  15.300   1.1495   0.24246   0.24019  -0.1796  0.0074  1.0000  -2.2189   0.0000   0.0000   0.0000   0.3904
  15.400   1.1503   0.24499   0.24273  -0.1805  0.0072  1.0000  -2.2058   0.0000   0.0000   0.0000   0.3909
  15.500   1.1511   0.24753   0.24526  -0.1813  0.0071  1.0000  -2.1938   0.0000   0.0000   0.0000   0.3914
  15.600   1.1518   0.25005   0.24779  -0.1821  0.0069  1.0000  -2.1828   0.0000   0.0000   0.0000   0.3919
  15.700   1.1525   0.25258   0.25032  -0.1829  0.0068  1.0000  -2.1725   0.0000   0.0000   0.0000   0.3923
  15.800   1.1531   0.25510   0.25285  -0.1837  0.0066  1.0000  -2.1630   0.0000   0.0000   0.0000   0.3928
  15.900   1.1536   0.25762   0.25537  -0.1844  0.0065  1.0000  -2.1542   0.0000   0.0000   0.0000   0.3932
  16.000   1.1541   0.26014   0.25789  -0.1852  0.0064  1.0000  -2.1459   0.0000   0.0000   0.0000   0.3936
  16.100   1.1546   0.26265   0.26040  -0.1859  0.0063  1.0000  -2.1382   0.0000   0.0000   0.0000   0.3941
  16.200   1.1549   0.26516   0.26292  -0.1866  0.0062  1.0000  -2.1310   0.0000   0.0000   0.0000   0.3945
  16.300   1.1552   0.26766   0.26542  -0.1873  0.0060  1.0000  -2.1242   0.0000   0.0000   0.0000   0.3949
  16.400   1.1554   0.27016   0.26792  -0.1880  0.0059  1.0000  -2.1178   0.0000   0.0000   0.0000   0.3953
  16.500   1.1554   0.27265   0.27041  -0.1886  0.0058  1.0000  -2.1116   0.0000   0.0000   0.0000   0.3957


