xflr5 v6.61

 Calculated polar for: E71  (5.15%)

 1 1 Reynolds number fixed          Mach number fixed         

 xtrf =   1.000 (top)        1.000 (bottom)
 Mach =   0.000     Re =     0.130 e 6     Ncrit =   9.000

  alpha     CL        CD       CDp       Cm    Top Xtr Bot Xtr   Cpmin    Chinge    XCp    
 ------- -------- --------- --------- -------- ------- ------- -------- --------- ---------
 -10.000  -0.3864   0.13682   0.13208  -0.0259  1.0000  0.0233  -1.3792   0.0000   0.0000   0.0000   0.1803
  -9.900  -0.3850   0.13572   0.13100  -0.0261  1.0000  0.0233  -1.3831   0.0000   0.0000   0.0000   0.1798
  -9.800  -0.3837   0.13464   0.12993  -0.0262  1.0000  0.0233  -1.3871   0.0000   0.0000   0.0000   0.1793
  -9.700  -0.3824   0.13355   0.12886  -0.0263  1.0000  0.0233  -1.3911   0.0000   0.0000   0.0000   0.1788
  -9.600  -0.3811   0.13247   0.12780  -0.0263  1.0000  0.0233  -1.3952   0.0000   0.0000   0.0000   0.1784
  -9.500  -0.3800   0.13140   0.12674  -0.0264  1.0000  0.0233  -1.3994   0.0000   0.0000   0.0000   0.1781
  -9.400  -0.3788   0.13032   0.12569  -0.0265  1.0000  0.0234  -1.4037   0.0000   0.0000   0.0000   0.1778
  -9.300  -0.3778   0.12926   0.12464  -0.0265  1.0000  0.0234  -1.4081   0.0000   0.0000   0.0000   0.1775
  -9.200  -0.3768   0.12820   0.12360  -0.0265  1.0000  0.0234  -1.4126   0.0000   0.0000   0.0000   0.1773
  -9.100  -0.3759   0.12715   0.12257  -0.0265  1.0000  0.0234  -1.4172   0.0000   0.0000   0.0000   0.1771
  -9.000  -0.3750   0.12611   0.12155  -0.0265  1.0000  0.0234  -1.4218   0.0000   0.0000   0.0000   0.1770
  -8.900  -0.3754   0.12393   0.11944  -0.0265  1.0000  0.0236  -1.4529   0.0000   0.0000   0.0000   0.1770
  -8.800  -0.3768   0.12079   0.11632  -0.0265  1.0000  0.0239  -1.4948   0.0000   0.0000   0.0000   0.1774
  -8.700  -0.3765   0.11826   0.11380  -0.0262  1.0000  0.0243  -1.5017   0.0000   0.0000   0.0000   0.1781
  -8.600  -0.3721   0.11533   0.11087  -0.0253  1.0000  0.0248  -1.4540   0.0000   0.0000   0.0000   0.1796
  -8.500  -0.3680   0.11321   0.10876  -0.0246  1.0000  0.0253  -1.4083   0.0000   0.0000   0.0000   0.1808
  -8.400  -0.3655   0.11170   0.10725  -0.0241  1.0000  0.0257  -1.3788   0.0000   0.0000   0.0000   0.1817
  -8.300  -0.3637   0.11041   0.10598  -0.0237  1.0000  0.0261  -1.3568   0.0000   0.0000   0.0000   0.1825
  -8.200  -0.3624   0.10924   0.10483  -0.0234  1.0000  0.0265  -1.3394   0.0000   0.0000   0.0000   0.1833
  -8.100  -0.3613   0.10815   0.10376  -0.0230  1.0000  0.0268  -1.3253   0.0000   0.0000   0.0000   0.1840
  -8.000  -0.3605   0.10712   0.10274  -0.0227  1.0000  0.0272  -1.3136   0.0000   0.0000   0.0000   0.1848
  -7.900  -0.3598   0.10612   0.10177  -0.0224  1.0000  0.0275  -1.3039   0.0000   0.0000   0.0000   0.1856
  -7.800  -0.3594   0.10516   0.10082  -0.0221  1.0000  0.0279  -1.2959   0.0000   0.0000   0.0000   0.1864
  -7.700  -0.3591   0.10422   0.09991  -0.0218  1.0000  0.0283  -1.2893   0.0000   0.0000   0.0000   0.1873
  -7.600  -0.3590   0.10332   0.09903  -0.0214  1.0000  0.0287  -1.2839   0.0000   0.0000   0.0000   0.1883
  -7.500  -0.3591   0.10244   0.09817  -0.0211  1.0000  0.0290  -1.2797   0.0000   0.0000   0.0000   0.1893
  -7.400  -0.3594   0.10158   0.09733  -0.0207  1.0000  0.0294  -1.2765   0.0000   0.0000   0.0000   0.1905
  -7.300  -0.3600   0.10074   0.09652  -0.0203  1.0000  0.0298  -1.2743   0.0000   0.0000   0.0000   0.1918
  -7.200  -0.3608   0.09994   0.09574  -0.0199  1.0000  0.0302  -1.2729   0.0000   0.0000   0.0000   0.1932
  -7.100  -0.3618   0.09916   0.09499  -0.0194  1.0000  0.0306  -1.2725   0.0000   0.0000   0.0000   0.1948
  -7.000  -0.3631   0.09841   0.09426  -0.0188  1.0000  0.0309  -1.2729   0.0000   0.0000   0.0000   0.1965
  -6.900  -0.3647   0.09769   0.09357  -0.0182  1.0000  0.0313  -1.2741   0.0000   0.0000   0.0000   0.1984
  -6.800  -0.3667   0.09700   0.09291  -0.0176  1.0000  0.0317  -1.2761   0.0000   0.0000   0.0000   0.2005
  -6.700  -0.3690   0.09634   0.09227  -0.0169  1.0000  0.0320  -1.2789   0.0000   0.0000   0.0000   0.2028
  -6.600  -0.3715   0.09570   0.09167  -0.0161  1.0000  0.0324  -1.2823   0.0000   0.0000   0.0000   0.2052
  -6.500  -0.3741   0.09506   0.09106  -0.0153  1.0000  0.0327  -1.2861   0.0000   0.0000   0.0000   0.2076
  -6.400  -0.3762   0.09437   0.09039  -0.0148  1.0000  0.0331  -1.2897   0.0000   0.0000   0.0000   0.2095
  -6.300  -0.3772   0.09356   0.08961  -0.0145  1.0000  0.0336  -1.2927   0.0000   0.0000   0.0000   0.2103
  -6.200  -0.3778   0.09271   0.08879  -0.0144  1.0000  0.0341  -1.2960   0.0000   0.0000   0.0000   0.2108
  -6.100  -0.3781   0.09184   0.08794  -0.0143  1.0000  0.0347  -1.2998   0.0000   0.0000   0.0000   0.2109
  -6.000  -0.3782   0.09096   0.08708  -0.0144  1.0000  0.0353  -1.3043   0.0000   0.0000   0.0000   0.2108
  -5.900  -0.3779   0.09006   0.08621  -0.0146  1.0000  0.0359  -1.3098   0.0000   0.0000   0.0000   0.2102
  -5.800  -0.3771   0.08915   0.08533  -0.0150  1.0000  0.0366  -1.3167   0.0000   0.0000   0.0000   0.2091
  -5.700  -0.3758   0.08825   0.08445  -0.0157  1.0000  0.0374  -1.3257   0.0000   0.0000   0.0000   0.2073
  -5.600  -0.3736   0.08738   0.08360  -0.0167  1.0000  0.0382  -1.3384   0.0000   0.0000   0.0000   0.2042
  -5.500  -0.3699   0.08660   0.08284  -0.0185  1.0000  0.0391  -1.3574   0.0000   0.0000   0.0000   0.1989
  -5.400  -0.3632   0.08601   0.08226  -0.0216  1.0000  0.0401  -1.3850   0.0000   0.0000   0.0000   0.1895
  -5.300  -0.3536   0.08548   0.08173  -0.0254  1.0000  0.0409  -1.4109   0.0000   0.0000   0.0000   0.1772
  -5.200  -0.3449   0.08468   0.08093  -0.0280  1.0000  0.0414  -1.4199   0.0000   0.0000   0.0000   0.1678
  -5.100  -0.3369   0.08360   0.07984  -0.0303  1.0000  0.0416  -1.4271   0.0000   0.0000   0.0000   0.1592
  -5.000  -0.3290   0.08233   0.07858  -0.0325  1.0000  0.0418  -1.4343   0.0000   0.0000   0.0000   0.1504
  -4.900  -0.3208   0.08095   0.07718  -0.0346  1.0000  0.0419  -1.4417   0.0000   0.0000   0.0000   0.1412
  -4.800  -0.3123   0.07946   0.07569  -0.0368  1.0000  0.0420  -1.4493   0.0000   0.0000   0.0000   0.1313
  -4.700  -0.3033   0.07790   0.07410  -0.0390  1.0000  0.0420  -1.4573   0.0000   0.0000   0.0000   0.1205
  -4.600  -0.2992   0.07416   0.07042  -0.0415  1.0000  0.0426  -1.5142   0.0000   0.0000   0.0000   0.1105
  -4.500  -0.3001   0.07031   0.06658  -0.0424  1.0000  0.0437  -1.5458   0.0000   0.0000   0.0000   0.1078
  -4.400  -0.3041   0.06881   0.06513  -0.0397  1.0000  0.0448  -1.4933   0.0000   0.0000   0.0000   0.1186
  -4.300  -0.3063   0.06789   0.06425  -0.0371  1.0000  0.0461  -1.4303   0.0000   0.0000   0.0000   0.1279
  -4.200  -0.3058   0.06708   0.06345  -0.0354  1.0000  0.0477  -1.3726   0.0000   0.0000   0.0000   0.1332
  -4.100  -0.3065   0.06694   0.06334  -0.0330  1.0000  0.0533  -1.2827   0.0000   0.0000   0.0000   0.1413
  -3.900  -0.2502   0.06172   0.05796  -0.0516  1.0000  0.0692  -1.3533   0.0000   0.0000   0.0000   0.0427
  -3.800  -0.2541   0.06077   0.05707  -0.0485  1.0000  0.0710  -1.2940   0.0000   0.0000   0.0000   0.0584
  -3.700  -0.2499   0.05962   0.05593  -0.0479  1.0000  0.0723  -1.2581   0.0000   0.0000   0.0000   0.0574
  -3.600  -0.2436   0.05843   0.05474  -0.0480  1.0000  0.0738  -1.2246   0.0000   0.0000   0.0000   0.0519
  -3.500  -0.2349   0.05712   0.05340  -0.0489  1.0000  0.0756  -1.1913   0.0000   0.0000   0.0000   0.0408
  -3.400  -0.2229   0.05557   0.05147  -0.0507  1.0000  0.0780  -1.1387   0.0000   0.0000   0.0000   0.0216
  -3.300  -0.2101   0.05426   0.05013  -0.0528  1.0000  0.0806  -1.1196   0.0000   0.0000   0.0000  -0.0022
  -3.200  -0.1942   0.05286   0.04868  -0.0557  1.0000  0.0839  -1.1048   0.0000   0.0000   0.0000  -0.0380
  -3.000  -0.1327   0.05381   0.04915  -0.0669  1.0000  0.0949  -1.0995   0.0000   0.0000   0.0000  -0.2556
  -2.900  -0.1109   0.04617   0.04149  -0.0746  1.0000  0.0994  -1.1288   0.0000   0.0000   0.0000  -0.4244
  -2.800  -0.1048   0.04491   0.04028  -0.0743  1.0000  0.1012  -1.0897   0.0000   0.0000   0.0000  -0.4606
  -2.700  -0.0976   0.04394   0.03934  -0.0742  1.0000  0.1033  -1.0513   0.0000   0.0000   0.0000  -0.5127
  -2.600  -0.0888   0.04310   0.03850  -0.0745  1.0000  0.1060  -1.0152   0.0000   0.0000   0.0000  -0.5911
  -2.500  -0.0779   0.04225   0.03764  -0.0752  1.0000  0.1094  -0.9825   0.0000   0.0000   0.0000  -0.7178
  -2.400  -0.0638   0.04136   0.03670  -0.0768  1.0000  0.1143  -0.9545   0.0000   0.0000   0.0000  -0.9577
  -2.300  -0.0429   0.04101   0.03619  -0.0796  1.0000  0.1232  -0.9363   0.0000   0.0000   0.0000  -1.6097
  -2.200  -0.0110   0.03826   0.03318  -0.0864  1.0000  0.1352  -0.9305   0.0000   0.0000   0.0000  -7.5918
  -2.100  -0.0025   0.03714   0.03212  -0.0866  1.0000  0.1381  -0.8947   0.0000   0.0000   0.0000  -35.0192
  -2.000   0.0071   0.03634   0.03134  -0.0868  1.0000  0.1415  -0.8600   0.0000   0.0000   0.0000  12.5208
  -1.500   0.1529   0.02615   0.01928  -0.1057  1.0000  0.0692  -1.0515   0.0000   0.0000   0.0000   0.9425
  -1.400   0.1686   0.02523   0.01828  -0.1066  1.0000  0.0609  -1.0438   0.0000   0.0000   0.0000   0.8833
  -1.300   0.1938   0.02351   0.01621  -0.1093  1.0000  0.0542  -1.0626   0.0000   0.0000   0.0000   0.8150
  -1.200   0.2160   0.02228   0.01459  -0.1111  1.0000  0.0484  -1.0956   0.0000   0.0000   0.0000   0.7650
  -1.100   0.2300   0.02190   0.01400  -0.1114  1.0000  0.0454  -1.0909   0.0000   0.0000   0.0000   0.7350
  -1.000   0.2404   0.02188   0.01391  -0.1113  1.0000  0.0439  -1.0582   0.0000   0.0000   0.0000   0.7134
  -0.900   0.2498   0.02194   0.01394  -0.1110  1.0000  0.0429  -1.0174   0.0000   0.0000   0.0000   0.6949
  -0.800   0.2606   0.02185   0.01378  -0.1111  1.0000  0.0419  -0.9786   0.0000   0.0000   0.0000   0.6766
  -0.700   0.2795   0.02095   0.01275  -0.1126  1.0000  0.0410  -0.9615   0.0000   0.0000   0.0000   0.6531
  -0.600   0.2952   0.02044   0.01217  -0.1135  1.0000  0.0403  -0.9340   0.0000   0.0000   0.0000   0.6347
  -0.500   0.3099   0.02008   0.01174  -0.1143  1.0000  0.0397  -0.9020   0.0000   0.0000   0.0000   0.6188
  -0.400   0.3245   0.01980   0.01142  -0.1150  0.9999  0.0393  -0.8682   0.0000   0.0000   0.0000   0.6044
  -0.300   0.3425   0.01956   0.01111  -0.1164  0.9987  0.0390  -0.8300   0.0000   0.0000   0.0000   0.5897
  -0.200   0.3604   0.01939   0.01087  -0.1178  0.9976  0.0389  -0.7890   0.0000   0.0000   0.0000   0.5765
  -0.100   0.3781   0.01929   0.01069  -0.1191  0.9961  0.0391  -0.7460   0.0000   0.0000   0.0000   0.5647
   0.000   0.3954   0.01925   0.01055  -0.1204  0.9939  0.0397  -0.7017   0.0000   0.0000   0.0000   0.5542
   0.100   0.4130   0.01923   0.01045  -0.1217  0.9919  0.0407  -0.6559   0.0000   0.0000   0.0000   0.5443
   0.300   0.4497   0.01921   0.01037  -0.1246  0.9888  0.0549  -0.5724   0.0000   0.0000   0.0000   0.5265
   0.400   0.4712   0.01853   0.01055  -0.1273  0.9888  0.3123  -0.5185   0.0000   0.0000   0.0000   0.5194
   0.500   0.4876   0.01826   0.01069  -0.1286  0.9866  0.4696  -0.4764   0.0000   0.0000   0.0000   0.5130
   0.600   0.4929   0.01736   0.01081  -0.1269  0.9848  0.8601  -0.4838   0.0000   0.0000   0.0000   0.5066
   0.800   0.5250   0.01756   0.01091  -0.1291  0.9773  1.0000  -0.5119   0.0000   0.0000   0.0000   0.4949
   0.900   0.5425   0.01771   0.01113  -0.1304  0.9748  1.0000  -0.5273   0.0000   0.0000   0.0000   0.4893
   1.000   0.5544   0.01777   0.01117  -0.1308  0.9696  1.0000  -0.5391   0.0000   0.0000   0.0000   0.4847
   1.100   0.5700   0.01786   0.01124  -0.1318  0.9658  1.0000  -0.5535   0.0000   0.0000   0.0000   0.4799
   1.200   0.5871   0.01795   0.01131  -0.1331  0.9629  1.0000  -0.5714   0.0000   0.0000   0.0000   0.4753
   1.300   0.6058   0.01803   0.01137  -0.1346  0.9605  1.0000  -0.5905   0.0000   0.0000   0.0000   0.4708
   1.400   0.6260   0.01811   0.01143  -0.1364  0.9585  1.0000  -0.6116   0.0000   0.0000   0.0000   0.4665
   1.500   0.6345   0.01811   0.01143  -0.1360  0.9519  1.0000  -0.6253   0.0000   0.0000   0.0000   0.4629
   1.600   0.6492   0.01812   0.01144  -0.1368  0.9474  1.0000  -0.6447   0.0000   0.0000   0.0000   0.4591
   1.700   0.6663   0.01812   0.01144  -0.1380  0.9439  1.0000  -0.6661   0.0000   0.0000   0.0000   0.4554
   1.800   0.6853   0.01810   0.01142  -0.1395  0.9409  1.0000  -0.6898   0.0000   0.0000   0.0000   0.4518
   1.900   0.7055   0.01806   0.01138  -0.1412  0.9386  1.0000  -0.7189   0.0000   0.0000   0.0000   0.4483
   2.000   0.7223   0.01804   0.01138  -0.1423  0.9353  1.0000  -0.7447   0.0000   0.0000   0.0000   0.4450
   2.100   0.7294   0.01804   0.01140  -0.1415  0.9279  1.0000  -0.7606   0.0000   0.0000   0.0000   0.4420
   2.200   0.7450   0.01796   0.01133  -0.1423  0.9231  1.0000  -0.7856   0.0000   0.0000   0.0000   0.4389
   2.300   0.7631   0.01782   0.01122  -0.1435  0.9192  1.0000  -0.8178   0.0000   0.0000   0.0000   0.4358
   2.400   0.7830   0.01765   0.01107  -0.1449  0.9160  1.0000  -0.8560   0.0000   0.0000   0.0000   0.4328
   2.500   0.8046   0.01741   0.01087  -0.1467  0.9133  1.0000  -0.9055   0.0000   0.0000   0.0000   0.4299
   2.600   0.8270   0.01716   0.01066  -0.1485  0.9112  1.0000  -0.9566   0.0000   0.0000   0.0000   0.4272
   2.700   0.8285   0.01727   0.01080  -0.1467  0.9017  1.0000  -0.9746   0.0000   0.0000   0.0000   0.4245
   2.800   0.8428   0.01712   0.01069  -0.1470  0.8961  1.0000  -1.0133   0.0000   0.0000   0.0000   0.4218
   2.900   0.8606   0.01687   0.01049  -0.1480  0.8917  1.0000  -1.0580   0.0000   0.0000   0.0000   0.4192
   3.000   0.8801   0.01656   0.01023  -0.1492  0.8883  1.0000  -1.1057   0.0000   0.0000   0.0000   0.4167
   3.100   0.9013   0.01616   0.00990  -0.1506  0.8853  1.0000  -1.1566   0.0000   0.0000   0.0000   0.4142
   3.200   0.9241   0.01566   0.00948  -0.1523  0.8827  1.0000  -1.2108   0.0000   0.0000   0.0000   0.4118
   3.300   0.9328   0.01559   0.00945  -0.1515  0.8749  1.0000  -1.2770   0.0000   0.0000   0.0000   0.4093
   3.400   0.9433   0.01546   0.00937  -0.1510  0.8667  1.0000  -1.3517   0.0000   0.0000   0.0000   0.4069
   3.500   0.9603   0.01512   0.00909  -0.1516  0.8608  1.0000  -1.4533   0.0000   0.0000   0.0000   0.4046
   3.600   0.9811   0.01467   0.00872  -0.1528  0.8554  1.0000  -1.5733   0.0000   0.0000   0.0000   0.4024
   3.800   1.0032   0.01608   0.00647  -0.1459  0.1904  1.0000  -2.1860   0.0000   0.0000   0.0000   0.3918
   3.900   1.0060   0.01734   0.00705  -0.1447  0.0854  1.0000  -2.2324   0.0000   0.0000   0.0000   0.3901
   4.000   1.0107   0.01839   0.00763  -0.1436  0.0301  1.0000  -2.2845   0.0000   0.0000   0.0000   0.3883
   4.100   1.0197   0.01881   0.00803  -0.1430  0.0251  1.0000  -2.3468   0.0000   0.0000   0.0000   0.3863
   4.200   1.0289   0.01920   0.00850  -0.1424  0.0226  1.0000  -2.4051   0.0000   0.0000   0.0000   0.3844
   4.300   1.0382   0.01957   0.00893  -0.1419  0.0215  1.0000  -2.4696   0.0000   0.0000   0.0000   0.3825
   4.400   1.0475   0.01991   0.00934  -0.1414  0.0209  1.0000  -2.5447   0.0000   0.0000   0.0000   0.3807
   4.500   1.0567   0.02026   0.00977  -0.1409  0.0204  1.0000  -2.6181   0.0000   0.0000   0.0000   0.3790
   4.600   1.0657   0.02064   0.01023  -0.1403  0.0200  1.0000  -2.6896   0.0000   0.0000   0.0000   0.3772
   4.700   1.0745   0.02106   0.01072  -0.1397  0.0197  1.0000  -2.7591   0.0000   0.0000   0.0000   0.3755
   4.800   1.0830   0.02151   0.01125  -0.1391  0.0194  1.0000  -2.8265   0.0000   0.0000   0.0000   0.3738
   4.900   1.0912   0.02200   0.01181  -0.1384  0.0193  1.0000  -2.8916   0.0000   0.0000   0.0000   0.3721
   5.000   1.0992   0.02254   0.01242  -0.1377  0.0191  1.0000  -2.9543   0.0000   0.0000   0.0000   0.3704
   5.100   1.1070   0.02312   0.01307  -0.1369  0.0191  1.0000  -3.0144   0.0000   0.0000   0.0000   0.3688
   5.200   1.1148   0.02376   0.01376  -0.1362  0.0191  1.0000  -3.0726   0.0000   0.0000   0.0000   0.3671
   5.300   1.1226   0.02446   0.01452  -0.1354  0.0191  1.0000  -3.1285   0.0000   0.0000   0.0000   0.3654
   5.400   1.1308   0.02522   0.01533  -0.1347  0.0192  1.0000  -3.1829   0.0000   0.0000   0.0000   0.3638
   5.500   1.1394   0.02607   0.01623  -0.1340  0.0193  1.0000  -3.2354   0.0000   0.0000   0.0000   0.3622
   5.600   1.1486   0.02700   0.01721  -0.1334  0.0196  1.0000  -3.2860   0.0000   0.0000   0.0000   0.3606
   5.700   1.1585   0.02804   0.01832  -0.1329  0.0198  1.0000  -3.3338   0.0000   0.0000   0.0000   0.3591
   5.800   1.1688   0.02923   0.01957  -0.1325  0.0202  1.0000  -3.3777   0.0000   0.0000   0.0000   0.3576
   5.900   1.1796   0.03058   0.02100  -0.1321  0.0205  1.0000  -3.4157   0.0000   0.0000   0.0000   0.3561
   6.000   1.1905   0.03220   0.02272  -0.1317  0.0210  1.0000  -3.4439   0.0000   0.0000   0.0000   0.3547
   6.100   1.2012   0.03437   0.02504  -0.1313  0.0215  1.0000  -3.4490   0.0000   0.0000   0.0000   0.3533
   6.200   1.2118   0.03544   0.02621  -0.1309  0.0222  1.0000  -3.5062   0.0000   0.0000   0.0000   0.3519
   6.300   1.2223   0.03550   0.02631  -0.1304  0.0229  1.0000  -3.6012   0.0000   0.0000   0.0000   0.3504
   6.400   1.2330   0.03581   0.02673  -0.1297  0.0240  1.0000  -3.6679   0.0000   0.0000   0.0000   0.3488
   6.500   1.2446   0.03711   0.02836  -0.1288  0.0260  1.0000  -3.6488   0.0000   0.0000   0.0000   0.3470
   6.600   1.2546   0.03951   0.03116  -0.1276  0.0285  1.0000  -3.5719   0.0000   0.0000   0.0000   0.3451
   6.700   1.2620   0.04193   0.03389  -0.1263  0.0308  1.0000  -3.5205   0.0000   0.0000   0.0000   0.3434
   6.800   1.2677   0.04435   0.03658  -0.1251  0.0329  1.0000  -3.4885   0.0000   0.0000   0.0000   0.3419
   6.900   1.2716   0.04706   0.03950  -0.1239  0.0347  1.0000  -3.4594   0.0000   0.0000   0.0000   0.3406
   7.000   1.2852   0.04916   0.04210  -0.1219  0.0450  1.0000  -3.3168   0.0000   0.0000   0.0000   0.3379
   7.100   1.2855   0.05335   0.04671  -0.1200  0.0516  1.0000  -3.1826   0.0000   0.0000   0.0000   0.3363
   7.900   1.2834   0.07697   0.07242  -0.1091  0.1005  1.0000  -2.6392   0.0000   0.0000   0.0000   0.3277
   8.000   1.2807   0.07860   0.07415  -0.1081  0.0992  1.0000  -2.6364   0.0000   0.0000   0.0000   0.3270
   8.100   1.2774   0.08029   0.07592  -0.1072  0.0979  1.0000  -2.6328   0.0000   0.0000   0.0000   0.3264
   8.200   1.2734   0.08200   0.07772  -0.1063  0.0968  1.0000  -2.6285   0.0000   0.0000   0.0000   0.3259
   8.300   1.2690   0.08372   0.07952  -0.1054  0.0958  1.0000  -2.6237   0.0000   0.0000   0.0000   0.3254
   8.400   1.2641   0.08545   0.08131  -0.1046  0.0948  1.0000  -2.6182   0.0000   0.0000   0.0000   0.3250
   8.500   1.2586   0.08717   0.08309  -0.1038  0.0940  1.0000  -2.6118   0.0000   0.0000   0.0000   0.3247
   8.600   1.2519   0.08879   0.08476  -0.1028  0.0933  1.0000  -2.6033   0.0000   0.0000   0.0000   0.3243
   8.700   1.2444   0.09036   0.08638  -0.1019  0.0927  1.0000  -2.5930   0.0000   0.0000   0.0000   0.3239
   8.800   1.2365   0.09198   0.08804  -0.1010  0.0922  1.0000  -2.5814   0.0000   0.0000   0.0000   0.3236
   8.900   1.2285   0.09367   0.08976  -0.1003  0.0917  1.0000  -2.5686   0.0000   0.0000   0.0000   0.3235
   9.000   1.2205   0.09545   0.09159  -0.0999  0.0913  1.0000  -2.5548   0.0000   0.0000   0.0000   0.3236
   9.100   1.2126   0.09734   0.09351  -0.0998  0.0908  1.0000  -2.5404   0.0000   0.0000   0.0000   0.3239
   9.200   1.2050   0.09933   0.09553  -0.0999  0.0903  1.0000  -2.5254   0.0000   0.0000   0.0000   0.3244
   9.300   1.1975   0.10141   0.09764  -0.1002  0.0899  1.0000  -2.5099   0.0000   0.0000   0.0000   0.3251
   9.400   1.1904   0.10355   0.09981  -0.1006  0.0894  1.0000  -2.4942   0.0000   0.0000   0.0000   0.3259
   9.500   1.1839   0.10578   0.10206  -0.1013  0.0889  1.0000  -2.4799   0.0000   0.0000   0.0000   0.3268
   9.600   1.1784   0.10806   0.10436  -0.1020  0.0884  1.0000  -2.4687   0.0000   0.0000   0.0000   0.3277
   9.700   1.1741   0.11035   0.10666  -0.1028  0.0879  1.0000  -2.4619   0.0000   0.0000   0.0000   0.3286
   9.800   1.1714   0.11258   0.10890  -0.1034  0.0872  1.0000  -2.4623   0.0000   0.0000   0.0000   0.3292
   9.900   1.1709   0.11469   0.11100  -0.1035  0.0866  1.0000  -2.4748   0.0000   0.0000   0.0000   0.3292
  10.000   1.1776   0.11643   0.11271  -0.1023  0.0855  1.0000  -2.5291   0.0000   0.0000   0.0000   0.3275
  10.100   1.1874   0.12026   0.11646  -0.1006  0.0836  1.0000  -2.5941   0.0000   0.0000   0.0000   0.3253
  10.800   1.1209   0.14606   0.14233  -0.1184  0.0812  1.0000  -2.1919   0.0000   0.0000   0.0000   0.3457
  10.900   1.1169   0.14863   0.14490  -0.1215  0.0809  1.0000  -2.1473   0.0000   0.0000   0.0000   0.3487
  11.000   1.1134   0.15028   0.14654  -0.1253  0.0798  1.0000  -2.0966   0.0000   0.0000   0.0000   0.3524
  11.100   1.1080   0.15208   0.14833  -0.1300  0.0771  1.0000  -2.0220   0.0000   0.0000   0.0000   0.3571
  11.200   1.1055   0.15433   0.15057  -0.1323  0.0756  1.0000  -1.9855   0.0000   0.0000   0.0000   0.3594
  11.300   1.1039   0.15650   0.15272  -0.1340  0.0743  1.0000  -1.9606   0.0000   0.0000   0.0000   0.3610
  11.400   1.1027   0.15860   0.15482  -0.1355  0.0731  1.0000  -1.9406   0.0000   0.0000   0.0000   0.3624
  11.500   1.1019   0.16067   0.15688  -0.1368  0.0721  1.0000  -1.9243   0.0000   0.0000   0.0000   0.3636
  11.600   1.1014   0.16271   0.15892  -0.1380  0.0711  1.0000  -1.9112   0.0000   0.0000   0.0000   0.3647
  11.700   1.1012   0.16474   0.16094  -0.1392  0.0702  1.0000  -1.9006   0.0000   0.0000   0.0000   0.3656
  11.800   1.1012   0.16675   0.16295  -0.1402  0.0693  1.0000  -1.8924   0.0000   0.0000   0.0000   0.3664
  11.900   1.1015   0.16875   0.16495  -0.1412  0.0684  1.0000  -1.8864   0.0000   0.0000   0.0000   0.3672
  12.000   1.1020   0.17074   0.16693  -0.1421  0.0676  1.0000  -1.8825   0.0000   0.0000   0.0000   0.3678
  12.100   1.1027   0.17271   0.16890  -0.1429  0.0668  1.0000  -1.8807   0.0000   0.0000   0.0000   0.3684
  12.200   1.1036   0.17467   0.17085  -0.1437  0.0660  1.0000  -1.8810   0.0000   0.0000   0.0000   0.3689
  12.300   1.1047   0.17662   0.17280  -0.1444  0.0653  1.0000  -1.8835   0.0000   0.0000   0.0000   0.3692
  12.400   1.1061   0.17856   0.17474  -0.1450  0.0646  1.0000  -1.8885   0.0000   0.0000   0.0000   0.3695
  12.500   1.1076   0.18050   0.17668  -0.1456  0.0639  1.0000  -1.8960   0.0000   0.0000   0.0000   0.3697
  12.600   1.1095   0.18243   0.17861  -0.1460  0.0633  1.0000  -1.9065   0.0000   0.0000   0.0000   0.3697
  12.700   1.1115   0.18438   0.18055  -0.1463  0.0627  1.0000  -1.9199   0.0000   0.0000   0.0000   0.3697
  12.800   1.1138   0.18633   0.18251  -0.1466  0.0620  1.0000  -1.9364   0.0000   0.0000   0.0000   0.3695
  12.900   1.1165   0.18832   0.18450  -0.1467  0.0614  1.0000  -1.9578   0.0000   0.0000   0.0000   0.3691
  13.000   1.1196   0.19038   0.18656  -0.1465  0.0608  1.0000  -1.9842   0.0000   0.0000   0.0000   0.3685
  13.100   1.1226   0.19259   0.18878  -0.1463  0.0602  1.0000  -2.0123   0.0000   0.0000   0.0000   0.3678
  13.200   1.1261   0.19514   0.19134  -0.1457  0.0595  1.0000  -2.0479   0.0000   0.0000   0.0000   0.3667
  13.300   1.1266   0.19962   0.19582  -0.1451  0.0585  1.0000  -2.0622   0.0000   0.0000   0.0000   0.3660
  13.400   1.1188   0.20691   0.20305  -0.1468  0.0575  1.0000  -1.9712   0.0000   0.0000   0.0000   0.3684
  13.500   1.1194   0.20916   0.20530  -0.1480  0.0575  1.0000  -1.9563   0.0000   0.0000   0.0000   0.3693
  13.600   1.1200   0.21137   0.20752  -0.1492  0.0574  1.0000  -1.9417   0.0000   0.0000   0.0000   0.3701
  13.700   1.1207   0.21356   0.20970  -0.1504  0.0573  1.0000  -1.9274   0.0000   0.0000   0.0000   0.3710
  13.800   1.1213   0.21570   0.21184  -0.1516  0.0573  1.0000  -1.9133   0.0000   0.0000   0.0000   0.3719
  13.900   1.1220   0.21779   0.21393  -0.1528  0.0572  1.0000  -1.8993   0.0000   0.0000   0.0000   0.3727
  14.000   1.1227   0.21982   0.21595  -0.1540  0.0571  1.0000  -1.8854   0.0000   0.0000   0.0000   0.3736
  14.100   1.1235   0.22176   0.21789  -0.1553  0.0570  1.0000  -1.8714   0.0000   0.0000   0.0000   0.3745
  14.200   1.1243   0.22359   0.21973  -0.1565  0.0568  1.0000  -1.8571   0.0000   0.0000   0.0000   0.3754
  14.300   1.1250   0.22528   0.22141  -0.1579  0.0565  1.0000  -1.8405   0.0000   0.0000   0.0000   0.3764
  14.400   1.1246   0.22682   0.22295  -0.1597  0.0562  1.0000  -1.8134   0.0000   0.0000   0.0000   0.3779
  14.500   1.1243   0.22825   0.22437  -0.1616  0.0556  1.0000  -1.7832   0.0000   0.0000   0.0000   0.3796
  14.600   1.1235   0.22975   0.22587  -0.1636  0.0549  1.0000  -1.7493   0.0000   0.0000   0.0000   0.3813
  14.700   1.1226   0.23141   0.22753  -0.1654  0.0542  1.0000  -1.7190   0.0000   0.0000   0.0000   0.3829
  14.800   1.1223   0.23330   0.22941  -0.1669  0.0533  1.0000  -1.6955   0.0000   0.0000   0.0000   0.3841
  14.900   1.1225   0.23537   0.23148  -0.1681  0.0525  1.0000  -1.6777   0.0000   0.0000   0.0000   0.3851
  15.000   1.1229   0.23753   0.23364  -0.1692  0.0517  1.0000  -1.6641   0.0000   0.0000   0.0000   0.3858
  15.100   1.1235   0.23974   0.23585  -0.1702  0.0510  1.0000  -1.6532   0.0000   0.0000   0.0000   0.3865
  15.200   1.1242   0.24198   0.23810  -0.1711  0.0503  1.0000  -1.6444   0.0000   0.0000   0.0000   0.3871
  15.300   1.1250   0.24424   0.24036  -0.1719  0.0496  1.0000  -1.6371   0.0000   0.0000   0.0000   0.3876
  15.400   1.1257   0.24651   0.24264  -0.1727  0.0489  1.0000  -1.6311   0.0000   0.0000   0.0000   0.3881
  15.500   1.1264   0.24879   0.24492  -0.1735  0.0482  1.0000  -1.6261   0.0000   0.0000   0.0000   0.3885
  15.600   1.1272   0.25107   0.24720  -0.1742  0.0476  1.0000  -1.6221   0.0000   0.0000   0.0000   0.3889
  15.700   1.1279   0.25335   0.24948  -0.1749  0.0470  1.0000  -1.6190   0.0000   0.0000   0.0000   0.3893
  15.800   1.1286   0.25563   0.25177  -0.1756  0.0464  1.0000  -1.6167   0.0000   0.0000   0.0000   0.3896
  15.900   1.1293   0.25791   0.25405  -0.1762  0.0458  1.0000  -1.6152   0.0000   0.0000   0.0000   0.3899
  16.000   1.1299   0.26018   0.25633  -0.1768  0.0452  1.0000  -1.6146   0.0000   0.0000   0.0000   0.3902
  16.100   1.1305   0.26245   0.25861  -0.1773  0.0447  1.0000  -1.6149   0.0000   0.0000   0.0000   0.3904
  16.200   1.1311   0.26472   0.26088  -0.1779  0.0441  1.0000  -1.6161   0.0000   0.0000   0.0000   0.3907
  16.300   1.1316   0.26697   0.26314  -0.1783  0.0436  1.0000  -1.6184   0.0000   0.0000   0.0000   0.3909
  16.400   1.1321   0.26923   0.26540  -0.1788  0.0431  1.0000  -1.6220   0.0000   0.0000   0.0000   0.3910
  16.500   1.1326   0.27147   0.26765  -0.1791  0.0426  1.0000  -1.6268   0.0000   0.0000   0.0000   0.3911
  16.600   1.1331   0.27372   0.26991  -0.1795  0.0422  1.0000  -1.6333   0.0000   0.0000   0.0000   0.3912
  16.700   1.1335   0.27596   0.27216  -0.1797  0.0417  1.0000  -1.6418   0.0000   0.0000   0.0000   0.3912
  16.800   1.1340   0.27821   0.27442  -0.1798  0.0412  1.0000  -1.6527   0.0000   0.0000   0.0000   0.3911
  16.900   1.1345   0.28049   0.27670  -0.1799  0.0408  1.0000  -1.6668   0.0000   0.0000   0.0000   0.3909
  17.000   1.1353   0.28282   0.27905  -0.1798  0.0403  1.0000  -1.6855   0.0000   0.0000   0.0000   0.3905
  17.100   1.1407   0.29445   0.29105  -0.1753  0.0375  1.0000  -1.7770   0.0000   0.0000   0.0000   0.3858
  17.200   1.1397   0.29664   0.29325  -0.1759  0.0375  1.0000  -1.7633   0.0000   0.0000   0.0000   0.3863
  17.300   1.1385   0.29878   0.29541  -0.1765  0.0375  1.0000  -1.7494   0.0000   0.0000   0.0000   0.3868
  17.400   1.1370   0.30087   0.29751  -0.1770  0.0374  1.0000  -1.7351   0.0000   0.0000   0.0000   0.3873
  17.500   1.1352   0.30289   0.29954  -0.1775  0.0374  1.0000  -1.7203   0.0000   0.0000   0.0000   0.3879
  17.600   1.1330   0.30483   0.30149  -0.1779  0.0374  1.0000  -1.7049   0.0000   0.0000   0.0000   0.3884
  17.700   1.1303   0.30666   0.30334  -0.1783  0.0373  1.0000  -1.6887   0.0000   0.0000   0.0000   0.3889
  17.800   1.1271   0.30836   0.30505  -0.1786  0.0373  1.0000  -1.6714   0.0000   0.0000   0.0000   0.3895
  17.900   1.1230   0.30986   0.30658  -0.1787  0.0373  1.0000  -1.6525   0.0000   0.0000   0.0000   0.3901
  18.000   1.1176   0.31109   0.30783  -0.1787  0.0372  1.0000  -1.6312   0.0000   0.0000   0.0000   0.3906
  18.400   1.0422   0.30123   0.29815  -0.1703  0.0372  1.0000  -1.4421   0.0000   0.0000   0.0000   0.3939
  18.500   1.0356   0.30092   0.29786  -0.1701  0.0371  1.0000  -1.4185   0.0000   0.0000   0.0000   0.3946
  18.600   1.0293   0.30057   0.29753  -0.1699  0.0371  1.0000  -1.3937   0.0000   0.0000   0.0000   0.3953
  18.700   1.0233   0.30026   0.29723  -0.1699  0.0370  1.0000  -1.3696   0.0000   0.0000   0.0000   0.3961
  18.800   1.0175   0.29989   0.29688  -0.1699  0.0369  1.0000  -1.3448   0.0000   0.0000   0.0000   0.3969
  18.900   1.0118   0.29949   0.29649  -0.1700  0.0369  1.0000  -1.3194   0.0000   0.0000   0.0000   0.3978
  19.000   1.0065   0.29916   0.29618  -0.1701  0.0368  1.0000  -1.2946   0.0000   0.0000   0.0000   0.3987
  19.100   1.0017   0.29888   0.29592  -0.1704  0.0367  1.0000  -1.2704   0.0000   0.0000   0.0000   0.3996
  19.200   0.9974   0.29868   0.29573  -0.1707  0.0365  1.0000  -1.2465   0.0000   0.0000   0.0000   0.4005
  19.300   0.9934   0.29857   0.29563  -0.1711  0.0364  1.0000  -1.2230   0.0000   0.0000   0.0000   0.4014
  19.400   0.9900   0.29856   0.29563  -0.1715  0.0362  1.0000  -1.1999   0.0000   0.0000   0.0000   0.4023
  19.500   0.9871   0.29870   0.29578  -0.1720  0.0359  1.0000  -1.1776   0.0000   0.0000   0.0000   0.4032
  19.600   0.9848   0.29900   0.29609  -0.1726  0.0356  1.0000  -1.1565   0.0000   0.0000   0.0000   0.4040
  19.700   0.9828   0.29945   0.29655  -0.1731  0.0352  1.0000  -1.1375   0.0000   0.0000   0.0000   0.4047
  19.800   0.9811   0.30000   0.29712  -0.1735  0.0348  1.0000  -1.1209   0.0000   0.0000   0.0000   0.4053
  19.900   0.9795   0.30061   0.29774  -0.1738  0.0343  1.0000  -1.1067   0.0000   0.0000   0.0000   0.4058
  20.000   0.9779   0.30124   0.29838  -0.1741  0.0339  1.0000  -1.0943   0.0000   0.0000   0.0000   0.4062
  20.100   0.9765   0.30189   0.29905  -0.1744  0.0334  1.0000  -1.0834   0.0000   0.0000   0.0000   0.4066
  20.200   0.9750   0.30254   0.29971  -0.1746  0.0330  1.0000  -1.0736   0.0000   0.0000   0.0000   0.4069
  20.300   0.9736   0.30320   0.30038  -0.1748  0.0325  1.0000  -1.0647   0.0000   0.0000   0.0000   0.4072
  20.400   0.9722   0.30385   0.30105  -0.1750  0.0321  1.0000  -1.0567   0.0000   0.0000   0.0000   0.4075
  20.500   0.9709   0.30451   0.30171  -0.1752  0.0317  1.0000  -1.0492   0.0000   0.0000   0.0000   0.4078
  20.600   0.9696   0.30516   0.30238  -0.1754  0.0313  1.0000  -1.0424   0.0000   0.0000   0.0000   0.4081
  20.700   0.9684   0.30582   0.30305  -0.1756  0.0309  1.0000  -1.0360   0.0000   0.0000   0.0000   0.4083
  20.800   0.9672   0.30648   0.30372  -0.1758  0.0305  1.0000  -1.0302   0.0000   0.0000   0.0000   0.4086
  20.900   0.9660   0.30713   0.30439  -0.1760  0.0301  1.0000  -1.0248   0.0000   0.0000   0.0000   0.4088
  21.000   0.9649   0.30779   0.30506  -0.1762  0.0297  1.0000  -1.0198   0.0000   0.0000   0.0000   0.4090
  21.100   0.9638   0.30845   0.30573  -0.1763  0.0293  1.0000  -1.0153   0.0000   0.0000   0.0000   0.4092
  21.200   0.9628   0.30911   0.30640  -0.1765  0.0290  1.0000  -1.0112   0.0000   0.0000   0.0000   0.4095


