xflr5 v6.61

 Calculated polar for: E71  (5.15%)

 1 1 Reynolds number fixed          Mach number fixed         

 xtrf =   1.000 (top)        1.000 (bottom)
 Mach =   0.000     Re =     0.563 e 6     Ncrit =   9.000

  alpha     CL        CD       CDp       Cm    Top Xtr Bot Xtr   Cpmin    Chinge    XCp    
 ------- -------- --------- --------- -------- ------- ------- -------- --------- ---------
 -10.000  -0.3855   0.12920   0.12690  -0.0186  1.0000  0.0098  -1.3284   0.0000   0.0000   0.0000   0.1990
  -9.900  -0.3842   0.12812   0.12583  -0.0186  1.0000  0.0098  -1.3309   0.0000   0.0000   0.0000   0.1988
  -9.800  -0.3829   0.12704   0.12476  -0.0187  1.0000  0.0098  -1.3335   0.0000   0.0000   0.0000   0.1985
  -9.700  -0.3817   0.12596   0.12369  -0.0187  1.0000  0.0098  -1.3363   0.0000   0.0000   0.0000   0.1983
  -9.600  -0.3805   0.12483   0.12257  -0.0187  1.0000  0.0098  -1.3395   0.0000   0.0000   0.0000   0.1982
  -9.500  -0.3794   0.12370   0.12144  -0.0187  1.0000  0.0098  -1.3427   0.0000   0.0000   0.0000   0.1981
  -9.400  -0.3782   0.12257   0.12032  -0.0187  1.0000  0.0098  -1.3461   0.0000   0.0000   0.0000   0.1980
  -9.300  -0.3772   0.12144   0.11921  -0.0187  1.0000  0.0098  -1.3495   0.0000   0.0000   0.0000   0.1980
  -9.200  -0.3762   0.12033   0.11810  -0.0186  1.0000  0.0098  -1.3532   0.0000   0.0000   0.0000   0.1980
  -9.100  -0.3752   0.11922   0.11700  -0.0186  1.0000  0.0098  -1.3569   0.0000   0.0000   0.0000   0.1980
  -9.000  -0.3744   0.11812   0.11591  -0.0185  1.0000  0.0098  -1.3608   0.0000   0.0000   0.0000   0.1981
  -8.900  -0.3736   0.11704   0.11483  -0.0184  1.0000  0.0098  -1.3649   0.0000   0.0000   0.0000   0.1983
  -8.800  -0.3729   0.11596   0.11377  -0.0183  1.0000  0.0098  -1.3691   0.0000   0.0000   0.0000   0.1986
  -8.700  -0.3724   0.11490   0.11272  -0.0182  1.0000  0.0098  -1.3735   0.0000   0.0000   0.0000   0.1989
  -8.600  -0.3719   0.11385   0.11168  -0.0180  1.0000  0.0098  -1.3781   0.0000   0.0000   0.0000   0.1993
  -8.500  -0.3715   0.11281   0.11065  -0.0178  1.0000  0.0098  -1.3829   0.0000   0.0000   0.0000   0.1997
  -8.400  -0.3712   0.11179   0.10964  -0.0177  1.0000  0.0098  -1.3879   0.0000   0.0000   0.0000   0.2002
  -8.300  -0.3710   0.11078   0.10863  -0.0174  1.0000  0.0098  -1.3930   0.0000   0.0000   0.0000   0.2008
  -8.200  -0.3710   0.10978   0.10765  -0.0172  1.0000  0.0098  -1.3984   0.0000   0.0000   0.0000   0.2014
  -8.100  -0.3710   0.10879   0.10668  -0.0170  1.0000  0.0098  -1.4039   0.0000   0.0000   0.0000   0.2022
  -8.000  -0.3712   0.10783   0.10572  -0.0167  1.0000  0.0097  -1.4097   0.0000   0.0000   0.0000   0.2030
  -7.900  -0.3715   0.10687   0.10478  -0.0164  1.0000  0.0097  -1.4157   0.0000   0.0000   0.0000   0.2039
  -7.800  -0.3721   0.10594   0.10385  -0.0160  1.0000  0.0097  -1.4219   0.0000   0.0000   0.0000   0.2050
  -7.700  -0.3728   0.10502   0.10295  -0.0156  1.0000  0.0097  -1.4284   0.0000   0.0000   0.0000   0.2062
  -7.600  -0.3737   0.10413   0.10207  -0.0152  1.0000  0.0097  -1.4351   0.0000   0.0000   0.0000   0.2075
  -7.500  -0.3747   0.10325   0.10121  -0.0147  1.0000  0.0097  -1.4421   0.0000   0.0000   0.0000   0.2089
  -7.400  -0.3697   0.10172   0.09968  -0.0160  0.9994  0.0097  -1.4474   0.0000   0.0000   0.0000   0.2048
  -7.300  -0.3642   0.10014   0.09809  -0.0175  0.9987  0.0097  -1.4532   0.0000   0.0000   0.0000   0.2000
  -7.200  -0.3587   0.09857   0.09653  -0.0190  0.9979  0.0097  -1.4596   0.0000   0.0000   0.0000   0.1951
  -7.000  -0.3484   0.09549   0.09346  -0.0219  0.9961  0.0096  -1.4748   0.0000   0.0000   0.0000   0.1853
  -6.900  -0.3435   0.09397   0.09194  -0.0232  0.9948  0.0096  -1.4839   0.0000   0.0000   0.0000   0.1805
  -6.800  -0.3385   0.09242   0.09039  -0.0247  0.9934  0.0095  -1.4944   0.0000   0.0000   0.0000   0.1751
  -6.700  -0.3329   0.09078   0.08876  -0.0263  0.9921  0.0095  -1.5069   0.0000   0.0000   0.0000   0.1689
  -6.600  -0.3260   0.08894   0.08692  -0.0284  0.9909  0.0094  -1.5224   0.0000   0.0000   0.0000   0.1608
  -6.500  -0.3175   0.08677   0.08475  -0.0310  0.9899  0.0093  -1.5439   0.0000   0.0000   0.0000   0.1502
  -6.400  -0.3086   0.08442   0.08240  -0.0337  0.9891  0.0090  -1.5708   0.0000   0.0000   0.0000   0.1384
  -6.300  -0.3024   0.08235   0.08034  -0.0357  0.9873  0.0087  -1.5957   0.0000   0.0000   0.0000   0.1297
  -6.200  -0.2962   0.08040   0.07839  -0.0376  0.9849  0.0085  -1.6184   0.0000   0.0000   0.0000   0.1206
  -6.100  -0.2881   0.07838   0.07638  -0.0402  0.9830  0.0083  -1.6402   0.0000   0.0000   0.0000   0.1081
  -6.000  -0.2790   0.07640   0.07440  -0.0429  0.9815  0.0081  -1.6613   0.0000   0.0000   0.0000   0.0936
  -5.900  -0.2688   0.07437   0.07237  -0.0461  0.9802  0.0079  -1.6824   0.0000   0.0000   0.0000   0.0759
  -5.800  -0.2574   0.07228   0.07028  -0.0495  0.9791  0.0078  -1.7036   0.0000   0.0000   0.0000   0.0550
  -5.700  -0.2449   0.07014   0.06813  -0.0532  0.9782  0.0078  -1.7248   0.0000   0.0000   0.0000   0.0298
  -5.600  -0.2313   0.06793   0.06592  -0.0572  0.9774  0.0078  -1.7459   0.0000   0.0000   0.0000  -0.0006
  -5.500  -0.2165   0.06568   0.06366  -0.0615  0.9768  0.0079  -1.7662   0.0000   0.0000   0.0000  -0.0374
  -5.400  -0.2004   0.06338   0.06135  -0.0661  0.9762  0.0080  -1.7847   0.0000   0.0000   0.0000  -0.0834
  -5.300  -0.1829   0.06110   0.05906  -0.0709  0.9757  0.0084  -1.7973   0.0000   0.0000   0.0000  -0.1415
  -5.200  -0.1811   0.05992   0.05788  -0.0709  0.9709  0.0085  -1.8048   0.0000   0.0000   0.0000  -0.1456
  -5.100  -0.1673   0.05872   0.05667  -0.0733  0.9692  0.0092  -1.7482   0.0000   0.0000   0.0000  -0.1923
  -5.000  -0.1500   0.05834   0.05628  -0.0756  0.9680  0.0099  -1.6214   0.0000   0.0000   0.0000  -0.2589
  -4.900  -0.1315   0.05638   0.05429  -0.0801  0.9667  0.0100  -1.6119   0.0000   0.0000   0.0000  -0.3643
  -4.400  -0.0496   0.04453   0.04212  -0.1017  0.9626  0.0198  -1.4387   0.0000   0.0000   0.0000  -1.8123
  -4.300  -0.0295   0.04242   0.03995  -0.1059  0.9621  0.0202  -1.4476   0.0000   0.0000   0.0000  -3.3547
  -4.200  -0.0091   0.04036   0.03782  -0.1098  0.9618  0.0207  -1.4569   0.0000   0.0000   0.0000  -11.8476
  -4.100   0.0110   0.03847   0.03586  -0.1134  0.9614  0.0212  -1.4622   0.0000   0.0000   0.0000  10.5775
  -4.000   0.0301   0.03696   0.03428  -0.1163  0.9611  0.0218  -1.4537   0.0000   0.0000   0.0000   4.1340
  -3.900   0.0485   0.03583   0.03309  -0.1185  0.9608  0.0224  -1.4314   0.0000   0.0000   0.0000   2.7066
  -3.800   0.0669   0.03475   0.03193  -0.1207  0.9605  0.0228  -1.4077   0.0000   0.0000   0.0000   2.0626
  -3.700   0.0858   0.03339   0.03048  -0.1233  0.9602  0.0231  -1.3943   0.0000   0.0000   0.0000   1.6933
  -3.600   0.1048   0.03194   0.02892  -0.1259  0.9600  0.0232  -1.3850   0.0000   0.0000   0.0000   1.4569
  -3.500   0.1237   0.03049   0.02735  -0.1284  0.9598  0.0233  -1.3756   0.0000   0.0000   0.0000   1.2933
  -3.400   0.1424   0.02909   0.02583  -0.1308  0.9595  0.0233  -1.3636   0.0000   0.0000   0.0000   1.1734
  -3.300   0.1724   0.02232   0.01861  -0.1390  0.9602  0.0259  -1.5695   0.0000   0.0000   0.0000   1.0602
  -3.200   0.1880   0.02143   0.01766  -0.1407  0.9600  0.0272  -1.4901   0.0000   0.0000   0.0000   1.0017
  -3.100   0.2026   0.02094   0.01717  -0.1419  0.9597  0.0285  -1.3970   0.0000   0.0000   0.0000   0.9537
  -3.000   0.2173   0.02048   0.01668  -0.1431  0.9594  0.0302  -1.3129   0.0000   0.0000   0.0000   0.9113
  -2.900   0.2324   0.02001   0.01616  -0.1443  0.9592  0.0324  -1.2414   0.0000   0.0000   0.0000   0.8734
  -2.500   0.2838   0.01843   0.01420  -0.1458  0.9539  0.0438  -1.0731   0.0000   0.0000   0.0000   0.7656
  -2.400   0.3009   0.01681   0.01255  -0.1482  0.9543  0.0489  -1.0124   0.0000   0.0000   0.0000   0.7442
  -1.400   0.4527   0.01092   0.00580  -0.1555  0.9460  0.0389  -0.7526   0.0000   0.0000   0.0000   0.5942
  -1.300   0.4714   0.00991   0.00457  -0.1566  0.9462  0.0283  -0.8186   0.0000   0.0000   0.0000   0.5828
  -1.200   0.4858   0.00980   0.00443  -0.1571  0.9451  0.0253  -0.7670   0.0000   0.0000   0.0000   0.5739
  -1.100   0.4997   0.00980   0.00445  -0.1575  0.9439  0.0236  -0.6983   0.0000   0.0000   0.0000   0.5657
  -1.000   0.5168   0.00924   0.00379  -0.1587  0.9436  0.0219  -0.6933   0.0000   0.0000   0.0000   0.5575
  -0.900   0.5327   0.00897   0.00345  -0.1596  0.9429  0.0208  -0.6586   0.0000   0.0000   0.0000   0.5500
  -0.800   0.5481   0.00877   0.00319  -0.1604  0.9422  0.0198  -0.6153   0.0000   0.0000   0.0000   0.5430
  -0.700   0.5635   0.00860   0.00298  -0.1612  0.9414  0.0191  -0.5673   0.0000   0.0000   0.0000   0.5363
  -0.600   0.5789   0.00845   0.00279  -0.1620  0.9406  0.0186  -0.5159   0.0000   0.0000   0.0000   0.5300
  -0.500   0.5945   0.00831   0.00263  -0.1629  0.9398  0.0182  -0.5123   0.0000   0.0000   0.0000   0.5240
  -0.400   0.6099   0.00819   0.00247  -0.1637  0.9390  0.0181  -0.5236   0.0000   0.0000   0.0000   0.5183
  -0.300   0.6253   0.00808   0.00232  -0.1645  0.9383  0.0181  -0.5357   0.0000   0.0000   0.0000   0.5130
  -0.200   0.6410   0.00794   0.00220  -0.1653  0.9374  0.0210  -0.5489   0.0000   0.0000   0.0000   0.5077
  -0.100   0.6561   0.00763   0.00217  -0.1663  0.9363  0.1059  -0.5630   0.0000   0.0000   0.0000   0.5032
   0.000   0.6624   0.00745   0.00222  -0.1654  0.9314  0.1835  -0.5719   0.0000   0.0000   0.0000   0.4993
   0.100   0.6749   0.00720   0.00223  -0.1658  0.9284  0.2730  -0.5846   0.0000   0.0000   0.0000   0.4952
   0.200   0.6885   0.00696   0.00222  -0.1665  0.9258  0.3592  -0.5983   0.0000   0.0000   0.0000   0.4912
   0.300   0.7028   0.00670   0.00222  -0.1673  0.9232  0.4527  -0.6131   0.0000   0.0000   0.0000   0.4874
   0.400   0.7174   0.00644   0.00221  -0.1681  0.9206  0.5490  -0.6297   0.0000   0.0000   0.0000   0.4836
   0.500   0.7331   0.00614   0.00219  -0.1691  0.9183  0.6572  -0.6472   0.0000   0.0000   0.0000   0.4799
   0.600   0.7438   0.00565   0.00220  -0.1688  0.9158  0.8580  -0.6636   0.0000   0.0000   0.0000   0.4761
   0.700   0.7530   0.00537   0.00204  -0.1680  0.9128  1.0000  -0.6790   0.0000   0.0000   0.0000   0.4722
   0.800   0.7665   0.00534   0.00199  -0.1685  0.9096  1.0000  -0.6977   0.0000   0.0000   0.0000   0.4688
   0.900   0.7756   0.00536   0.00201  -0.1680  0.9046  1.0000  -0.7129   0.0000   0.0000   0.0000   0.4656
   1.000   0.7872   0.00535   0.00199  -0.1681  0.8997  1.0000  -0.7320   0.0000   0.0000   0.0000   0.4623
   1.100   0.8004   0.00531   0.00194  -0.1684  0.8946  1.0000  -0.7545   0.0000   0.0000   0.0000   0.4592
   1.200   0.8148   0.00527   0.00188  -0.1691  0.8892  1.0000  -0.7783   0.0000   0.0000   0.0000   0.4562
   1.300   0.8302   0.00523   0.00180  -0.1699  0.8833  1.0000  -0.8032   0.0000   0.0000   0.0000   0.4533
   1.400   0.8417   0.00524   0.00179  -0.1699  0.8768  1.0000  -0.8254   0.0000   0.0000   0.0000   0.4504
   1.500   0.8526   0.00525   0.00180  -0.1698  0.8691  1.0000  -0.8506   0.0000   0.0000   0.0000   0.4476
   1.600   0.8648   0.00526   0.00178  -0.1699  0.8608  1.0000  -0.8777   0.0000   0.0000   0.0000   0.4449
   1.700   0.8776   0.00528   0.00176  -0.1702  0.8530  1.0000  -0.9118   0.0000   0.0000   0.0000   0.4423
   1.800   0.8897   0.00531   0.00176  -0.1704  0.8456  1.0000  -0.9468   0.0000   0.0000   0.0000   0.4397
   1.900   0.9002   0.00534   0.00178  -0.1702  0.8371  1.0000  -0.9794   0.0000   0.0000   0.0000   0.4372
   2.000   0.9112   0.00539   0.00179  -0.1701  0.8260  1.0000  -1.0132   0.0000   0.0000   0.0000   0.4347
   2.100   0.9226   0.00546   0.00179  -0.1700  0.8134  1.0000  -1.0479   0.0000   0.0000   0.0000   0.4322
   2.200   0.9331   0.00551   0.00182  -0.1699  0.8026  1.0000  -1.0812   0.0000   0.0000   0.0000   0.4299
   2.300   0.9435   0.00558   0.00185  -0.1696  0.7892  1.0000  -1.1145   0.0000   0.0000   0.0000   0.4275
   2.400   0.9532   0.00572   0.00186  -0.1692  0.7686  1.0000  -1.1472   0.0000   0.0000   0.0000   0.4251
   2.500   0.9601   0.00598   0.00189  -0.1681  0.7200  1.0000  -1.1758   0.0000   0.0000   0.0000   0.4226
   2.600   0.9632   0.00651   0.00199  -0.1662  0.6401  1.0000  -1.2011   0.0000   0.0000   0.0000   0.4200
   2.700   0.9647   0.00725   0.00218  -0.1642  0.5396  1.0000  -1.2281   0.0000   0.0000   0.0000   0.4176
   2.800   0.9675   0.00803   0.00243  -0.1627  0.4380  1.0000  -1.2576   0.0000   0.0000   0.0000   0.4154
   2.900   0.9740   0.00854   0.00261  -0.1619  0.3745  1.0000  -1.2949   0.0000   0.0000   0.0000   0.4134
   3.000   0.9819   0.00893   0.00277  -0.1614  0.3301  1.0000  -1.3394   0.0000   0.0000   0.0000   0.4115
   3.100   0.9901   0.00931   0.00293  -0.1609  0.2884  1.0000  -1.4054   0.0000   0.0000   0.0000   0.4096
   3.200   0.9983   0.00969   0.00308  -0.1605  0.2484  1.0000  -1.4991   0.0000   0.0000   0.0000   0.4077
   3.500   1.0144   0.01242   0.00466  -0.1573  0.0083  1.0000  -2.0668   0.0000   0.0000   0.0000   0.4018
   3.600   1.0247   0.01260   0.00489  -0.1570  0.0083  1.0000  -2.1836   0.0000   0.0000   0.0000   0.3998
   3.700   1.0349   0.01279   0.00512  -0.1567  0.0083  1.0000  -2.2849   0.0000   0.0000   0.0000   0.3978
   3.800   1.0451   0.01298   0.00536  -0.1564  0.0084  1.0000  -2.3789   0.0000   0.0000   0.0000   0.3960
   3.900   1.0551   0.01320   0.00563  -0.1560  0.0085  1.0000  -2.4677   0.0000   0.0000   0.0000   0.3941
   4.000   1.0650   0.01345   0.00592  -0.1556  0.0086  1.0000  -2.5516   0.0000   0.0000   0.0000   0.3923
   4.100   1.0747   0.01373   0.00625  -0.1552  0.0088  1.0000  -2.6301   0.0000   0.0000   0.0000   0.3905
   4.200   1.0841   0.01405   0.00664  -0.1547  0.0090  1.0000  -2.7014   0.0000   0.0000   0.0000   0.3886
   4.300   1.0932   0.01445   0.00711  -0.1541  0.0093  1.0000  -2.7634   0.0000   0.0000   0.0000   0.3868
   4.400   1.1016   0.01497   0.00770  -0.1534  0.0097  1.0000  -2.8111   0.0000   0.0000   0.0000   0.3849
   4.500   1.1086   0.01575   0.00858  -0.1523  0.0101  1.0000  -2.8280   0.0000   0.0000   0.0000   0.3830
   4.600   1.1175   0.01619   0.00907  -0.1517  0.0108  1.0000  -2.8912   0.0000   0.0000   0.0000   0.3812
   4.700   1.1291   0.01612   0.00897  -0.1516  0.0117  1.0000  -3.0187   0.0000   0.0000   0.0000   0.3797
   4.800   1.1394   0.01633   0.00923  -0.1511  0.0133  1.0000  -3.1007   0.0000   0.0000   0.0000   0.3779
   4.900   1.1469   0.01738   0.01047  -0.1496  0.0165  1.0000  -3.0407   0.0000   0.0000   0.0000   0.3756
   5.000   1.1543   0.01948   0.01274  -0.1480  0.0204  1.0000  -2.9376   0.0000   0.0000   0.0000   0.3733
   5.800   1.2449   0.03058   0.02472  -0.1427  0.0400  1.0000  -3.0492   0.0000   0.0000   0.0000   0.3588
   6.900   1.3187   0.03568   0.03029  -0.1373  0.0076  1.0000  -4.6883   0.0000   0.0000   0.0000   0.3471
   7.000   1.3258   0.03653   0.03122  -0.1365  0.0071  1.0000  -4.7981   0.0000   0.0000   0.0000   0.3458
   7.100   1.3323   0.03744   0.03222  -0.1358  0.0066  1.0000  -4.9069   0.0000   0.0000   0.0000   0.3446
   7.200   1.3384   0.03838   0.03325  -0.1349  0.0062  1.0000  -5.0176   0.0000   0.0000   0.0000   0.3434
   7.300   1.3440   0.03932   0.03429  -0.1341  0.0059  1.0000  -5.1316   0.0000   0.0000   0.0000   0.3423
   7.400   1.3493   0.04027   0.03532  -0.1333  0.0056  1.0000  -5.2497   0.0000   0.0000   0.0000   0.3412
   7.500   1.3541   0.04121   0.03634  -0.1324  0.0053  1.0000  -5.3729   0.0000   0.0000   0.0000   0.3401
   7.600   1.3587   0.04214   0.03735  -0.1316  0.0051  1.0000  -5.5009   0.0000   0.0000   0.0000   0.3390
   7.700   1.3628   0.04316   0.03846  -0.1307  0.0049  1.0000  -5.6157   0.0000   0.0000   0.0000   0.3379
   7.800   1.3662   0.04424   0.03962  -0.1297  0.0047  1.0000  -5.7251   0.0000   0.0000   0.0000   0.3369
   7.900   1.3691   0.04536   0.04084  -0.1286  0.0046  1.0000  -5.8298   0.0000   0.0000   0.0000   0.3358
   8.100   1.3715   0.04930   0.04535  -0.1255  0.0047  1.0000  -5.7451   0.0000   0.0000   0.0000   0.3332
   8.200   1.3720   0.05115   0.04737  -0.1240  0.0048  1.0000  -5.7245   0.0000   0.0000   0.0000   0.3319
   8.300   1.3720   0.05277   0.04912  -0.1226  0.0047  1.0000  -5.7426   0.0000   0.0000   0.0000   0.3308
   8.400   1.3714   0.05431   0.05078  -0.1212  0.0047  1.0000  -5.7715   0.0000   0.0000   0.0000   0.3297
   8.500   1.3703   0.05582   0.05240  -0.1198  0.0046  1.0000  -5.8030   0.0000   0.0000   0.0000   0.3287
   8.600   1.3684   0.05731   0.05400  -0.1184  0.0046  1.0000  -5.8334   0.0000   0.0000   0.0000   0.3277
   8.700   1.3658   0.05880   0.05558  -0.1169  0.0045  1.0000  -5.8602   0.0000   0.0000   0.0000   0.3266
   8.800   1.3624   0.06028   0.05715  -0.1154  0.0045  1.0000  -5.8821   0.0000   0.0000   0.0000   0.3256
   8.900   1.3582   0.06174   0.05871  -0.1138  0.0044  1.0000  -5.8975   0.0000   0.0000   0.0000   0.3246
   9.000   1.3522   0.06310   0.06015  -0.1120  0.0044  1.0000  -5.9013   0.0000   0.0000   0.0000   0.3235
   9.100   1.3448   0.06435   0.06148  -0.1099  0.0044  1.0000  -5.8956   0.0000   0.0000   0.0000   0.3224
   9.200   1.3370   0.06566   0.06285  -0.1080  0.0043  1.0000  -5.8853   0.0000   0.0000   0.0000   0.3213
   9.300   1.3292   0.06706   0.06433  -0.1063  0.0043  1.0000  -5.8722   0.0000   0.0000   0.0000   0.3203
   9.400   1.3213   0.06856   0.06590  -0.1047  0.0043  1.0000  -5.8554   0.0000   0.0000   0.0000   0.3195
   9.500   1.3133   0.07017   0.06758  -0.1034  0.0043  1.0000  -5.8341   0.0000   0.0000   0.0000   0.3189
   9.600   1.3048   0.07184   0.06932  -0.1022  0.0043  1.0000  -5.8069   0.0000   0.0000   0.0000   0.3184
   9.700   1.2961   0.07361   0.07116  -0.1012  0.0043  1.0000  -5.7739   0.0000   0.0000   0.0000   0.3180
   9.800   1.2873   0.07552   0.07314  -0.1006  0.0043  1.0000  -5.7363   0.0000   0.0000   0.0000   0.3179
   9.900   1.2786   0.07758   0.07527  -0.1002  0.0043  1.0000  -5.6939   0.0000   0.0000   0.0000   0.3180
  10.000   1.2699   0.07980   0.07756  -0.1001  0.0044  1.0000  -5.6458   0.0000   0.0000   0.0000   0.3184
  10.100   1.2610   0.08219   0.08001  -0.1003  0.0044  1.0000  -5.5907   0.0000   0.0000   0.0000   0.3190
  10.200   1.2520   0.08475   0.08264  -0.1009  0.0044  1.0000  -5.5288   0.0000   0.0000   0.0000   0.3199
  10.300   1.2430   0.08751   0.08546  -0.1019  0.0044  1.0000  -5.4599   0.0000   0.0000   0.0000   0.3211
  10.400   1.2340   0.09048   0.08849  -0.1032  0.0045  1.0000  -5.3841   0.0000   0.0000   0.0000   0.3226
  10.500   1.2250   0.09368   0.09175  -0.1050  0.0045  1.0000  -5.3032   0.0000   0.0000   0.0000   0.3246
  10.600   1.2163   0.09710   0.09522  -0.1071  0.0045  1.0000  -5.2227   0.0000   0.0000   0.0000   0.3269
  10.700   1.2083   0.10064   0.09880  -0.1097  0.0045  1.0000  -5.1560   0.0000   0.0000   0.0000   0.3295
  10.800   1.2016   0.10407   0.10225  -0.1126  0.0044  1.0000  -5.1295   0.0000   0.0000   0.0000   0.3322
  11.100   1.1809   0.12275   0.12085  -0.1258  0.0046  1.0000  -4.5206   0.0000   0.0000   0.0000   0.3450
  11.200   1.1743   0.12891   0.12701  -0.1292  0.0048  1.0000  -4.2518   0.0000   0.0000   0.0000   0.3486
  11.300   1.1679   0.13429   0.13240  -0.1322  0.0049  1.0000  -4.0200   0.0000   0.0000   0.0000   0.3518
  11.400   1.1633   0.13846   0.13656  -0.1346  0.0050  1.0000  -3.8759   0.0000   0.0000   0.0000   0.3542
  11.500   1.1596   0.14198   0.14008  -0.1366  0.0051  1.0000  -3.7671   0.0000   0.0000   0.0000   0.3562
  11.600   1.1565   0.14512   0.14322  -0.1384  0.0051  1.0000  -3.6790   0.0000   0.0000   0.0000   0.3580
  11.700   1.1540   0.14808   0.14617  -0.1401  0.0052  1.0000  -3.6050   0.0000   0.0000   0.0000   0.3597
  11.800   1.1519   0.15092   0.14901  -0.1417  0.0052  1.0000  -3.5415   0.0000   0.0000   0.0000   0.3612
  11.900   1.1501   0.15368   0.15177  -0.1433  0.0052  1.0000  -3.4865   0.0000   0.0000   0.0000   0.3627
  12.000   1.1487   0.15638   0.15447  -0.1448  0.0052  1.0000  -3.4383   0.0000   0.0000   0.0000   0.3640
  12.100   1.1475   0.15902   0.15711  -0.1462  0.0051  1.0000  -3.3961   0.0000   0.0000   0.0000   0.3653
  12.200   1.1466   0.16161   0.15970  -0.1476  0.0051  1.0000  -3.3592   0.0000   0.0000   0.0000   0.3665
  12.300   1.1459   0.16416   0.16225  -0.1489  0.0051  1.0000  -3.3271   0.0000   0.0000   0.0000   0.3677
  12.400   1.1453   0.16667   0.16475  -0.1502  0.0050  1.0000  -3.2993   0.0000   0.0000   0.0000   0.3687
  12.500   1.1450   0.16915   0.16723  -0.1515  0.0050  1.0000  -3.2756   0.0000   0.0000   0.0000   0.3698
  12.600   1.1448   0.17159   0.16967  -0.1527  0.0049  1.0000  -3.2559   0.0000   0.0000   0.0000   0.3708
  12.700   1.1448   0.17400   0.17208  -0.1539  0.0049  1.0000  -3.2400   0.0000   0.0000   0.0000   0.3717
  12.800   1.1449   0.17638   0.17446  -0.1551  0.0048  1.0000  -3.2277   0.0000   0.0000   0.0000   0.3726
  12.900   1.1451   0.17873   0.17680  -0.1563  0.0047  1.0000  -3.2190   0.0000   0.0000   0.0000   0.3735
  13.000   1.1454   0.18105   0.17913  -0.1574  0.0047  1.0000  -3.2139   0.0000   0.0000   0.0000   0.3743
  13.100   1.1458   0.18334   0.18142  -0.1585  0.0046  1.0000  -3.2122   0.0000   0.0000   0.0000   0.3751
  13.200   1.1463   0.18561   0.18368  -0.1595  0.0045  1.0000  -3.2140   0.0000   0.0000   0.0000   0.3758
  13.300   1.1469   0.18785   0.18592  -0.1606  0.0045  1.0000  -3.2191   0.0000   0.0000   0.0000   0.3765
  13.400   1.1474   0.19017   0.18824  -0.1616  0.0044  1.0000  -3.2173   0.0000   0.0000   0.0000   0.3772
  13.500   1.1479   0.19254   0.19061  -0.1627  0.0043  1.0000  -3.2121   0.0000   0.0000   0.0000   0.3780
  13.600   1.1484   0.19490   0.19297  -0.1638  0.0043  1.0000  -3.2083   0.0000   0.0000   0.0000   0.3787
  13.700   1.1490   0.19727   0.19533  -0.1648  0.0042  1.0000  -3.2055   0.0000   0.0000   0.0000   0.3794
  13.800   1.1496   0.19963   0.19770  -0.1659  0.0041  1.0000  -3.2033   0.0000   0.0000   0.0000   0.3801
  13.900   1.1502   0.20201   0.20007  -0.1669  0.0041  1.0000  -3.2010   0.0000   0.0000   0.0000   0.3808
  14.000   1.1507   0.20440   0.20247  -0.1679  0.0040  1.0000  -3.1978   0.0000   0.0000   0.0000   0.3815
  14.100   1.1513   0.20683   0.20489  -0.1689  0.0039  1.0000  -3.1927   0.0000   0.0000   0.0000   0.3822
  14.200   1.1518   0.20929   0.20736  -0.1699  0.0038  1.0000  -3.1843   0.0000   0.0000   0.0000   0.3828
  14.300   1.1522   0.21182   0.20988  -0.1709  0.0038  1.0000  -3.1710   0.0000   0.0000   0.0000   0.3835
  14.400   1.1524   0.21442   0.21249  -0.1719  0.0037  1.0000  -3.1506   0.0000   0.0000   0.0000   0.3842
  14.500   1.1525   0.21714   0.21520  -0.1730  0.0036  1.0000  -3.1205   0.0000   0.0000   0.0000   0.3850
  14.600   1.1524   0.22000   0.21806  -0.1740  0.0036  1.0000  -3.0770   0.0000   0.0000   0.0000   0.3858
  14.700   1.1520   0.22306   0.22113  -0.1751  0.0035  1.0000  -3.0154   0.0000   0.0000   0.0000   0.3867
  14.800   1.1511   0.22640   0.22448  -0.1763  0.0034  1.0000  -2.9278   0.0000   0.0000   0.0000   0.3877
  14.900   1.1495   0.23022   0.22829  -0.1775  0.0033  1.0000  -2.7987   0.0000   0.0000   0.0000   0.3889
  15.000   1.1459   0.23521   0.23329  -0.1790  0.0032  1.0000  -2.5657   0.0000   0.0000   0.0000   0.3906


