xflr5 v6.61

 Calculated polar for: E71  (5.15%)

 1 1 Reynolds number fixed          Mach number fixed         

 xtrf =   1.000 (top)        1.000 (bottom)
 Mach =   0.000     Re =     0.450 e 6     Ncrit =   9.000

  alpha     CL        CD       CDp       Cm    Top Xtr Bot Xtr   Cpmin    Chinge    XCp    
 ------- -------- --------- --------- -------- ------- ------- -------- --------- ---------
 -10.000  -0.3841   0.12991   0.12734  -0.0198  1.0000  0.0099  -1.3535   0.0000   0.0000   0.0000   0.1957
  -9.900  -0.3828   0.12874   0.12618  -0.0198  1.0000  0.0099  -1.3564   0.0000   0.0000   0.0000   0.1954
  -9.800  -0.3815   0.12758   0.12503  -0.0198  1.0000  0.0099  -1.3594   0.0000   0.0000   0.0000   0.1952
  -9.700  -0.3802   0.12643   0.12389  -0.0199  1.0000  0.0099  -1.3625   0.0000   0.0000   0.0000   0.1950
  -9.600  -0.3790   0.12528   0.12275  -0.0199  1.0000  0.0099  -1.3657   0.0000   0.0000   0.0000   0.1949
  -9.500  -0.3778   0.12414   0.12161  -0.0199  1.0000  0.0099  -1.3690   0.0000   0.0000   0.0000   0.1948
  -9.400  -0.3767   0.12300   0.12049  -0.0198  1.0000  0.0099  -1.3724   0.0000   0.0000   0.0000   0.1947
  -9.300  -0.3756   0.12187   0.11936  -0.0198  1.0000  0.0099  -1.3759   0.0000   0.0000   0.0000   0.1946
  -9.200  -0.3745   0.12075   0.11825  -0.0198  1.0000  0.0099  -1.3796   0.0000   0.0000   0.0000   0.1946
  -9.100  -0.3736   0.11963   0.11714  -0.0197  1.0000  0.0099  -1.3833   0.0000   0.0000   0.0000   0.1947
  -9.000  -0.3727   0.11852   0.11605  -0.0197  1.0000  0.0099  -1.3872   0.0000   0.0000   0.0000   0.1947
  -8.900  -0.3718   0.11743   0.11496  -0.0196  1.0000  0.0099  -1.3913   0.0000   0.0000   0.0000   0.1949
  -8.800  -0.3711   0.11634   0.11389  -0.0195  1.0000  0.0099  -1.3955   0.0000   0.0000   0.0000   0.1951
  -8.700  -0.3704   0.11527   0.11282  -0.0194  1.0000  0.0099  -1.3999   0.0000   0.0000   0.0000   0.1953
  -8.600  -0.3699   0.11421   0.11178  -0.0192  1.0000  0.0099  -1.4044   0.0000   0.0000   0.0000   0.1957
  -8.500  -0.3694   0.11316   0.11074  -0.0191  1.0000  0.0099  -1.4090   0.0000   0.0000   0.0000   0.1961
  -8.400  -0.3691   0.11213   0.10972  -0.0189  1.0000  0.0099  -1.4138   0.0000   0.0000   0.0000   0.1966
  -8.300  -0.3689   0.11111   0.10871  -0.0187  1.0000  0.0098  -1.4188   0.0000   0.0000   0.0000   0.1971
  -8.200  -0.3687   0.11011   0.10772  -0.0185  1.0000  0.0098  -1.4240   0.0000   0.0000   0.0000   0.1978
  -8.100  -0.3687   0.10911   0.10673  -0.0182  1.0000  0.0098  -1.4293   0.0000   0.0000   0.0000   0.1985
  -8.000  -0.3688   0.10813   0.10576  -0.0179  1.0000  0.0098  -1.4349   0.0000   0.0000   0.0000   0.1993
  -7.900  -0.3691   0.10716   0.10481  -0.0176  1.0000  0.0098  -1.4406   0.0000   0.0000   0.0000   0.2002
  -7.800  -0.3695   0.10621   0.10387  -0.0173  1.0000  0.0098  -1.4465   0.0000   0.0000   0.0000   0.2013
  -7.700  -0.3701   0.10529   0.10296  -0.0169  1.0000  0.0098  -1.4527   0.0000   0.0000   0.0000   0.2024
  -7.600  -0.3709   0.10439   0.10208  -0.0165  1.0000  0.0098  -1.4591   0.0000   0.0000   0.0000   0.2037
  -7.500  -0.3720   0.10351   0.10121  -0.0160  1.0000  0.0098  -1.4657   0.0000   0.0000   0.0000   0.2051
  -7.400  -0.3732   0.10266   0.10037  -0.0155  1.0000  0.0098  -1.4726   0.0000   0.0000   0.0000   0.2067
  -7.300  -0.3747   0.10183   0.09956  -0.0149  1.0000  0.0098  -1.4798   0.0000   0.0000   0.0000   0.2084
  -7.200  -0.3765   0.10104   0.09879  -0.0143  1.0000  0.0098  -1.4873   0.0000   0.0000   0.0000   0.2103
  -7.100  -0.3786   0.10029   0.09805  -0.0136  1.0000  0.0098  -1.4951   0.0000   0.0000   0.0000   0.2124
  -7.000  -0.3812   0.09959   0.09736  -0.0128  1.0000  0.0098  -1.5033   0.0000   0.0000   0.0000   0.2147
  -6.900  -0.3773   0.09821   0.09600  -0.0139  0.9993  0.0098  -1.5096   0.0000   0.0000   0.0000   0.2115
  -6.800  -0.3713   0.09662   0.09441  -0.0156  0.9981  0.0098  -1.5158   0.0000   0.0000   0.0000   0.2063
  -6.700  -0.3649   0.09500   0.09279  -0.0174  0.9970  0.0097  -1.5225   0.0000   0.0000   0.0000   0.2006
  -6.600  -0.3586   0.09334   0.09114  -0.0192  0.9954  0.0097  -1.5297   0.0000   0.0000   0.0000   0.1948
  -6.500  -0.3508   0.09149   0.08929  -0.0213  0.9939  0.0097  -1.5371   0.0000   0.0000   0.0000   0.1874
  -6.400  -0.3422   0.08954   0.08734  -0.0237  0.9925  0.0097  -1.5456   0.0000   0.0000   0.0000   0.1788
  -6.300  -0.3329   0.08751   0.08531  -0.0264  0.9912  0.0096  -1.5556   0.0000   0.0000   0.0000   0.1689
  -6.200  -0.3230   0.08541   0.08321  -0.0292  0.9901  0.0096  -1.5679   0.0000   0.0000   0.0000   0.1577
  -6.100  -0.3127   0.08324   0.08104  -0.0322  0.9891  0.0095  -1.5833   0.0000   0.0000   0.0000   0.1450
  -6.000  -0.3051   0.08129   0.07909  -0.0344  0.9874  0.0094  -1.6011   0.0000   0.0000   0.0000   0.1351
  -5.900  -0.2983   0.07940   0.07721  -0.0365  0.9852  0.0093  -1.6209   0.0000   0.0000   0.0000   0.1256
  -5.800  -0.2900   0.07740   0.07521  -0.0390  0.9834  0.0092  -1.6421   0.0000   0.0000   0.0000   0.1133
  -5.700  -0.2802   0.07534   0.07315  -0.0419  0.9817  0.0092  -1.6622   0.0000   0.0000   0.0000   0.0981
  -5.600  -0.2691   0.07326   0.07106  -0.0452  0.9804  0.0091  -1.6789   0.0000   0.0000   0.0000   0.0798
  -5.500  -0.2566   0.07119   0.06899  -0.0486  0.9792  0.0091  -1.6898   0.0000   0.0000   0.0000   0.0580
  -5.400  -0.2428   0.06920   0.06699  -0.0523  0.9782  0.0093  -1.6908   0.0000   0.0000   0.0000   0.0321
  -5.300  -0.2273   0.06739   0.06517  -0.0560  0.9775  0.0095  -1.6735   0.0000   0.0000   0.0000   0.0007
  -5.200  -0.2100   0.06569   0.06346  -0.0601  0.9768  0.0098  -1.6429   0.0000   0.0000   0.0000  -0.0392
  -5.100  -0.1912   0.06369   0.06145  -0.0649  0.9762  0.0099  -1.6293   0.0000   0.0000   0.0000  -0.0928
  -5.000  -0.1709   0.06137   0.05910  -0.0703  0.9757  0.0101  -1.6347   0.0000   0.0000   0.0000  -0.1652
  -4.900  -0.1656   0.05988   0.05761  -0.0714  0.9710  0.0101  -1.6484   0.0000   0.0000   0.0000  -0.1848
  -4.700  -0.1452   0.05279   0.05052  -0.0804  0.9671  0.0130  -1.7061   0.0000   0.0000   0.0000  -0.3078
  -4.600  -0.1363   0.05288   0.05060  -0.0806  0.9660  0.0164  -1.4963   0.0000   0.0000   0.0000  -0.3458
  -4.500  -0.1124   0.05147   0.04915  -0.0855  0.9652  0.0212  -1.4542   0.0000   0.0000   0.0000  -0.5155
  -4.300  -0.0619   0.04936   0.04669  -0.0943  0.9639  0.0233  -1.3862   0.0000   0.0000   0.0000  -1.2829
  -4.200  -0.0438   0.04728   0.04455  -0.0979  0.9633  0.0234  -1.3934   0.0000   0.0000   0.0000  -2.0001
  -4.100  -0.0253   0.04521   0.04241  -0.1014  0.9627  0.0234  -1.4013   0.0000   0.0000   0.0000  -3.7779
  -4.000   0.0039   0.03674   0.03373  -0.1125  0.9628  0.0249  -1.6571   0.0000   0.0000   0.0000  29.0932
  -3.900   0.0205   0.03468   0.03159  -0.1157  0.9625  0.0258  -1.6264   0.0000   0.0000   0.0000   5.9289
  -3.800   0.0354   0.03350   0.03038  -0.1177  0.9621  0.0266  -1.5621   0.0000   0.0000   0.0000   3.5929
  -3.700   0.0502   0.03256   0.02940  -0.1195  0.9617  0.0274  -1.4916   0.0000   0.0000   0.0000   2.6415
  -3.600   0.0660   0.03156   0.02836  -0.1215  0.9613  0.0284  -1.4281   0.0000   0.0000   0.0000   2.0980
  -3.500   0.0827   0.03050   0.02724  -0.1235  0.9609  0.0296  -1.3731   0.0000   0.0000   0.0000   1.7502
  -3.400   0.1001   0.02938   0.02604  -0.1257  0.9606  0.0311  -1.3263   0.0000   0.0000   0.0000   1.5107
  -3.300   0.1182   0.02824   0.02481  -0.1279  0.9604  0.0330  -1.2875   0.0000   0.0000   0.0000   1.3367
  -3.200   0.1367   0.02714   0.02361  -0.1300  0.9601  0.0354  -1.2563   0.0000   0.0000   0.0000   1.2050
  -3.100   0.1543   0.02654   0.02291  -0.1314  0.9598  0.0384  -1.2206   0.0000   0.0000   0.0000   1.1050
  -3.000   0.1689   0.02785   0.02418  -0.1309  0.9592  0.0414  -1.1372   0.0000   0.0000   0.0000   1.0281
  -2.900   0.1861   0.02776   0.02397  -0.1320  0.9588  0.0419  -1.0912   0.0000   0.0000   0.0000   0.9623
  -2.800   0.2119   0.02196   0.01780  -0.1387  0.9596  0.0465  -1.1820   0.0000   0.0000   0.0000   0.9070
  -2.700   0.2257   0.02144   0.01732  -0.1398  0.9593  0.0490  -1.0984   0.0000   0.0000   0.0000   0.8718
  -2.600   0.2400   0.02108   0.01696  -0.1409  0.9590  0.0523  -1.0218   0.0000   0.0000   0.0000   0.8390
  -2.500   0.2554   0.02075   0.01660  -0.1419  0.9587  0.0570  -0.9594   0.0000   0.0000   0.0000   0.8077
  -2.400   0.2696   0.02111   0.01692  -0.1422  0.9580  0.0628  -0.8988   0.0000   0.0000   0.0000   0.7790
  -2.300   0.2881   0.01952   0.01507  -0.1444  0.9575  0.0696  -0.8932   0.0000   0.0000   0.0000   0.7527
  -2.200   0.2946   0.01860   0.01415  -0.1440  0.9540  0.0730  -0.8580   0.0000   0.0000   0.0000   0.7402
  -2.100   0.3060   0.01816   0.01375  -0.1443  0.9522  0.0765  -0.8032   0.0000   0.0000   0.0000   0.7228
  -2.000   0.3192   0.01778   0.01337  -0.1448  0.9508  0.0808  -0.7532   0.0000   0.0000   0.0000   0.7050
  -1.500   0.4098   0.01294   0.00751  -0.1501  0.9500  0.0460  -0.8128   0.0000   0.0000   0.0000   0.6172
  -1.400   0.4270   0.01213   0.00659  -0.1509  0.9498  0.0348  -0.8429   0.0000   0.0000   0.0000   0.6042
  -1.300   0.4444   0.01140   0.00569  -0.1518  0.9497  0.0282  -0.8755   0.0000   0.0000   0.0000   0.5923
  -1.200   0.4584   0.01124   0.00549  -0.1522  0.9482  0.0257  -0.8297   0.0000   0.0000   0.0000   0.5827
  -1.100   0.4722   0.01117   0.00543  -0.1527  0.9466  0.0242  -0.7677   0.0000   0.0000   0.0000   0.5738
  -1.000   0.4880   0.01084   0.00505  -0.1535  0.9457  0.0229  -0.7309   0.0000   0.0000   0.0000   0.5651
  -0.900   0.5044   0.01046   0.00460  -0.1546  0.9450  0.0220  -0.7030   0.0000   0.0000   0.0000   0.5568
  -0.800   0.5200   0.01021   0.00429  -0.1555  0.9441  0.0212  -0.6627   0.0000   0.0000   0.0000   0.5492
  -0.700   0.5355   0.01002   0.00405  -0.1563  0.9432  0.0206  -0.6164   0.0000   0.0000   0.0000   0.5420
  -0.600   0.5509   0.00986   0.00384  -0.1571  0.9423  0.0202  -0.5663   0.0000   0.0000   0.0000   0.5352
  -0.500   0.5664   0.00972   0.00366  -0.1579  0.9414  0.0198  -0.5137   0.0000   0.0000   0.0000   0.5288
  -0.400   0.5819   0.00958   0.00349  -0.1587  0.9405  0.0197  -0.5081   0.0000   0.0000   0.0000   0.5227
  -0.300   0.5978   0.00945   0.00334  -0.1596  0.9396  0.0197  -0.5196   0.0000   0.0000   0.0000   0.5169
  -0.200   0.6138   0.00932   0.00319  -0.1605  0.9388  0.0202  -0.5323   0.0000   0.0000   0.0000   0.5113
  -0.100   0.6315   0.00892   0.00311  -0.1620  0.9383  0.1203  -0.5467   0.0000   0.0000   0.0000   0.5062
   0.000   0.6488   0.00852   0.00309  -0.1636  0.9378  0.2491  -0.5623   0.0000   0.0000   0.0000   0.5017
   0.100   0.6659   0.00816   0.00309  -0.1651  0.9373  0.3737  -0.5780   0.0000   0.0000   0.0000   0.4975
   0.200   0.6823   0.00784   0.00311  -0.1664  0.9366  0.4949  -0.5934   0.0000   0.0000   0.0000   0.4933
   0.300   0.6855   0.00774   0.00319  -0.1647  0.9305  0.5629  -0.6004   0.0000   0.0000   0.0000   0.4896
   0.400   0.6979   0.00745   0.00321  -0.1649  0.9279  0.6731  -0.6149   0.0000   0.0000   0.0000   0.4857
   0.500   0.7089   0.00712   0.00319  -0.1647  0.9253  0.7913  -0.6291   0.0000   0.0000   0.0000   0.4816
   0.700   0.7274   0.00659   0.00292  -0.1633  0.9193  1.0000  -0.6571   0.0000   0.0000   0.0000   0.4736
   0.800   0.7425   0.00647   0.00280  -0.1640  0.9169  1.0000  -0.6771   0.0000   0.0000   0.0000   0.4699
   0.900   0.7584   0.00637   0.00268  -0.1649  0.9148  1.0000  -0.6979   0.0000   0.0000   0.0000   0.4664
   1.000   0.7745   0.00628   0.00258  -0.1659  0.9127  1.0000  -0.7189   0.0000   0.0000   0.0000   0.4631
   1.100   0.7890   0.00622   0.00251  -0.1666  0.9101  1.0000  -0.7424   0.0000   0.0000   0.0000   0.4599
   1.200   0.7969   0.00625   0.00254  -0.1658  0.9046  1.0000  -0.7598   0.0000   0.0000   0.0000   0.4568
   1.300   0.8077   0.00623   0.00252  -0.1657  0.8994  1.0000  -0.7801   0.0000   0.0000   0.0000   0.4537
   1.400   0.8212   0.00617   0.00246  -0.1661  0.8945  1.0000  -0.8031   0.0000   0.0000   0.0000   0.4508
   1.500   0.8364   0.00610   0.00237  -0.1668  0.8896  1.0000  -0.8300   0.0000   0.0000   0.0000   0.4479
   1.600   0.8526   0.00602   0.00227  -0.1678  0.8844  1.0000  -0.8618   0.0000   0.0000   0.0000   0.4452
   1.700   0.8660   0.00600   0.00224  -0.1682  0.8786  1.0000  -0.8931   0.0000   0.0000   0.0000   0.4425
   1.800   0.8760   0.00602   0.00225  -0.1679  0.8711  1.0000  -0.9247   0.0000   0.0000   0.0000   0.4399
   1.900   0.8880   0.00601   0.00224  -0.1680  0.8635  1.0000  -0.9597   0.0000   0.0000   0.0000   0.4373
   2.000   0.9013   0.00601   0.00221  -0.1684  0.8562  1.0000  -0.9969   0.0000   0.0000   0.0000   0.4348
   2.200   0.9256   0.00604   0.00220  -0.1686  0.8392  1.0000  -1.0682   0.0000   0.0000   0.0000   0.4300
   2.300   0.9367   0.00607   0.00221  -0.1685  0.8282  1.0000  -1.1026   0.0000   0.0000   0.0000   0.4277
   2.400   0.9488   0.00612   0.00219  -0.1686  0.8159  1.0000  -1.1388   0.0000   0.0000   0.0000   0.4254
   2.500   0.9598   0.00618   0.00222  -0.1685  0.8050  1.0000  -1.1734   0.0000   0.0000   0.0000   0.4231
   2.600   0.9695   0.00629   0.00220  -0.1680  0.7765  1.0000  -1.2079   0.0000   0.0000   0.0000   0.4207
   2.700   0.9761   0.00660   0.00220  -0.1666  0.7171  1.0000  -1.2462   0.0000   0.0000   0.0000   0.4181
   2.800   0.9785   0.00718   0.00228  -0.1646  0.6303  1.0000  -1.2760   0.0000   0.0000   0.0000   0.4155
   2.900   0.9796   0.00793   0.00248  -0.1625  0.5290  1.0000  -1.3028   0.0000   0.0000   0.0000   0.4131
   3.000   0.9827   0.00867   0.00272  -0.1610  0.4401  1.0000  -1.3481   0.0000   0.0000   0.0000   0.4110
   3.100   0.9899   0.00908   0.00288  -0.1604  0.3924  1.0000  -1.4116   0.0000   0.0000   0.0000   0.4090
   3.200   0.9974   0.00950   0.00305  -0.1598  0.3459  1.0000  -1.4824   0.0000   0.0000   0.0000   0.4071
   3.300   1.0050   0.00993   0.00321  -0.1592  0.2999  1.0000  -1.6038   0.0000   0.0000   0.0000   0.4053
   3.500   1.0071   0.01300   0.00479  -0.1558  0.0094  1.0000  -1.9981   0.0000   0.0000   0.0000   0.4013
   3.600   1.0173   0.01322   0.00508  -0.1554  0.0093  1.0000  -2.1267   0.0000   0.0000   0.0000   0.3993
   3.700   1.0275   0.01342   0.00534  -0.1550  0.0092  1.0000  -2.2323   0.0000   0.0000   0.0000   0.3973
   3.800   1.0376   0.01363   0.00560  -0.1547  0.0091  1.0000  -2.3290   0.0000   0.0000   0.0000   0.3954
   3.900   1.0476   0.01385   0.00588  -0.1543  0.0091  1.0000  -2.4200   0.0000   0.0000   0.0000   0.3936
   4.000   1.0574   0.01410   0.00618  -0.1540  0.0092  1.0000  -2.5063   0.0000   0.0000   0.0000   0.3917
   4.100   1.0671   0.01438   0.00652  -0.1535  0.0093  1.0000  -2.5880   0.0000   0.0000   0.0000   0.3899
   4.200   1.0765   0.01471   0.00690  -0.1531  0.0094  1.0000  -2.6642   0.0000   0.0000   0.0000   0.3881
   4.300   1.0856   0.01508   0.00734  -0.1525  0.0095  1.0000  -2.7336   0.0000   0.0000   0.0000   0.3863
   4.400   1.0942   0.01554   0.00786  -0.1518  0.0097  1.0000  -2.7941   0.0000   0.0000   0.0000   0.3845
   4.500   1.1022   0.01613   0.00853  -0.1510  0.0100  1.0000  -2.8402   0.0000   0.0000   0.0000   0.3827
   4.600   1.1085   0.01707   0.00955  -0.1499  0.0103  1.0000  -2.8501   0.0000   0.0000   0.0000   0.3807
   4.700   1.1190   0.01719   0.00969  -0.1496  0.0108  1.0000  -2.9585   0.0000   0.0000   0.0000   0.3791
   4.800   1.1297   0.01726   0.00975  -0.1494  0.0115  1.0000  -3.0739   0.0000   0.0000   0.0000   0.3775
   4.900   1.1400   0.01745   0.00996  -0.1490  0.0125  1.0000  -3.1717   0.0000   0.0000   0.0000   0.3759
   5.000   1.1491   0.01800   0.01061  -0.1481  0.0141  1.0000  -3.2022   0.0000   0.0000   0.0000   0.3740
   5.100   1.1570   0.01924   0.01202  -0.1468  0.0167  1.0000  -3.1492   0.0000   0.0000   0.0000   0.3718
   5.200   1.1661   0.02118   0.01412  -0.1456  0.0198  1.0000  -3.0805   0.0000   0.0000   0.0000   0.3697
   5.800   1.2450   0.03348   0.02768  -0.1399  0.0610  1.0000  -2.7846   0.0000   0.0000   0.0000   0.3566
   5.900   1.2398   0.03908   0.03371  -0.1381  0.0568  1.0000  -2.7036   0.0000   0.0000   0.0000   0.3555
   6.000   1.2552   0.03650   0.03110  -0.1376  0.0535  1.0000  -2.8470   0.0000   0.0000   0.0000   0.3537
   6.100   1.2659   0.03567   0.03022  -0.1374  0.0475  1.0000  -2.9818   0.0000   0.0000   0.0000   0.3524
   6.200   1.2747   0.03582   0.03023  -0.1374  0.0434  1.0000  -3.1306   0.0000   0.0000   0.0000   0.3516
   6.300   1.2804   0.03733   0.03166  -0.1373  0.0403  1.0000  -3.2464   0.0000   0.0000   0.0000   0.3509
   6.500   1.2776   0.04444   0.03936  -0.1340  0.0367  1.0000  -3.1595   0.0000   0.0000   0.0000   0.3484
   6.600   1.2981   0.03965   0.03438  -0.1345  0.0296  1.0000  -3.4668   0.0000   0.0000   0.0000   0.3470
   6.700   1.3054   0.03969   0.03436  -0.1343  0.0269  1.0000  -3.6356   0.0000   0.0000   0.0000   0.3461
   6.800   1.3123   0.04021   0.03474  -0.1345  0.0247  1.0000  -3.8240   0.0000   0.0000   0.0000   0.3456
   6.900   1.3119   0.04357   0.03821  -0.1335  0.0230  1.0000  -3.8424   0.0000   0.0000   0.0000   0.3448
   7.700   1.3354   0.05073   0.04622  -0.1256  0.0092  1.0000  -4.6596   0.0000   0.0000   0.0000   0.3362
   7.800   1.3418   0.05140   0.04698  -0.1246  0.0086  1.0000  -4.7484   0.0000   0.0000   0.0000   0.3350
   7.900   1.3455   0.05260   0.04829  -0.1235  0.0082  1.0000  -4.7997   0.0000   0.0000   0.0000   0.3338
   8.000   1.3480   0.05402   0.04982  -0.1223  0.0079  1.0000  -4.8362   0.0000   0.0000   0.0000   0.3326
   8.100   1.3495   0.05555   0.05147  -0.1210  0.0076  1.0000  -4.8637   0.0000   0.0000   0.0000   0.3315
   8.200   1.3500   0.05714   0.05317  -0.1197  0.0073  1.0000  -4.8849   0.0000   0.0000   0.0000   0.3304
   8.300   1.3497   0.05876   0.05491  -0.1184  0.0071  1.0000  -4.9010   0.0000   0.0000   0.0000   0.3293
   8.400   1.3484   0.06041   0.05667  -0.1170  0.0069  1.0000  -4.9127   0.0000   0.0000   0.0000   0.3282
   8.500   1.3464   0.06207   0.05844  -0.1156  0.0068  1.0000  -4.9200   0.0000   0.0000   0.0000   0.3272
   8.600   1.3435   0.06374   0.06021  -0.1141  0.0067  1.0000  -4.9231   0.0000   0.0000   0.0000   0.3262
   8.700   1.3399   0.06542   0.06198  -0.1127  0.0065  1.0000  -4.9219   0.0000   0.0000   0.0000   0.3253
   8.800   1.3356   0.06709   0.06375  -0.1112  0.0065  1.0000  -4.9159   0.0000   0.0000   0.0000   0.3244
   8.900   1.3296   0.06865   0.06540  -0.1095  0.0064  1.0000  -4.9038   0.0000   0.0000   0.0000   0.3234
   9.000   1.3220   0.07006   0.06688  -0.1076  0.0064  1.0000  -4.8859   0.0000   0.0000   0.0000   0.3223
   9.100   1.3139   0.07149   0.06838  -0.1058  0.0064  1.0000  -4.8645   0.0000   0.0000   0.0000   0.3213
   9.200   1.3056   0.07301   0.06997  -0.1042  0.0064  1.0000  -4.8403   0.0000   0.0000   0.0000   0.3205
   9.300   1.2972   0.07464   0.07167  -0.1028  0.0064  1.0000  -4.8130   0.0000   0.0000   0.0000   0.3198
   9.400   1.2885   0.07637   0.07347  -0.1016  0.0064  1.0000  -4.7821   0.0000   0.0000   0.0000   0.3194
   9.500   1.2793   0.07816   0.07534  -0.1007  0.0064  1.0000  -4.7470   0.0000   0.0000   0.0000   0.3191
   9.600   1.2698   0.08005   0.07729  -0.1000  0.0065  1.0000  -4.7080   0.0000   0.0000   0.0000   0.3190
   9.700   1.2603   0.08209   0.07940  -0.0996  0.0065  1.0000  -4.6653   0.0000   0.0000   0.0000   0.3191
   9.800   1.2509   0.08430   0.08168  -0.0995  0.0066  1.0000  -4.6186   0.0000   0.0000   0.0000   0.3196
   9.900   1.2414   0.08668   0.08412  -0.0998  0.0067  1.0000  -4.5673   0.0000   0.0000   0.0000   0.3203
  10.000   1.2320   0.08925   0.08675  -0.1005  0.0068  1.0000  -4.5112   0.0000   0.0000   0.0000   0.3213
  10.100   1.2225   0.09201   0.08957  -0.1016  0.0069  1.0000  -4.4493   0.0000   0.0000   0.0000   0.3227
  10.200   1.2129   0.09500   0.09262  -0.1031  0.0070  1.0000  -4.3811   0.0000   0.0000   0.0000   0.3245
  10.300   1.2033   0.09827   0.09595  -0.1051  0.0072  1.0000  -4.3057   0.0000   0.0000   0.0000   0.3267
  10.400   1.1938   0.10187   0.09960  -0.1076  0.0074  1.0000  -4.2212   0.0000   0.0000   0.0000   0.3294
  10.500   1.1844   0.10590   0.10368  -0.1107  0.0077  1.0000  -4.1248   0.0000   0.0000   0.0000   0.3326
  10.600   1.1752   0.11052   0.10835  -0.1144  0.0081  1.0000  -4.0109   0.0000   0.0000   0.0000   0.3365
  10.700   1.1657   0.11618   0.11405  -0.1190  0.0086  1.0000  -3.8619   0.0000   0.0000   0.0000   0.3411
  10.800   1.1454   0.12371   0.12158  -0.1245  0.0099  1.0000  -3.5911   0.0000   0.0000   0.0000   0.3478
  12.700   1.1316   0.17720   0.17505  -0.1537  0.0090  1.0000  -2.7866   0.0000   0.0000   0.0000   0.3732
  12.800   1.1326   0.17964   0.17749  -0.1549  0.0089  1.0000  -2.7627   0.0000   0.0000   0.0000   0.3740
  12.900   1.1334   0.18211   0.17996  -0.1560  0.0087  1.0000  -2.7374   0.0000   0.0000   0.0000   0.3748
  13.000   1.1342   0.18460   0.18245  -0.1572  0.0085  1.0000  -2.7117   0.0000   0.0000   0.0000   0.3756
  13.100   1.1349   0.18714   0.18499  -0.1584  0.0084  1.0000  -2.6830   0.0000   0.0000   0.0000   0.3765
  13.200   1.1356   0.18970   0.18755  -0.1596  0.0082  1.0000  -2.6542   0.0000   0.0000   0.0000   0.3773
  13.300   1.1362   0.19225   0.19010  -0.1607  0.0081  1.0000  -2.6269   0.0000   0.0000   0.0000   0.3781
  13.400   1.1370   0.19479   0.19263  -0.1618  0.0079  1.0000  -2.6011   0.0000   0.0000   0.0000   0.3789
  13.500   1.1377   0.19732   0.19517  -0.1630  0.0078  1.0000  -2.5763   0.0000   0.0000   0.0000   0.3797
  13.600   1.1384   0.19985   0.19770  -0.1641  0.0076  1.0000  -2.5528   0.0000   0.0000   0.0000   0.3805
  13.700   1.1392   0.20238   0.20023  -0.1652  0.0075  1.0000  -2.5306   0.0000   0.0000   0.0000   0.3812
  13.800   1.1400   0.20490   0.20275  -0.1662  0.0073  1.0000  -2.5098   0.0000   0.0000   0.0000   0.3819
  13.900   1.1407   0.20740   0.20525  -0.1673  0.0072  1.0000  -2.4904   0.0000   0.0000   0.0000   0.3827
  14.000   1.1415   0.20990   0.20775  -0.1683  0.0071  1.0000  -2.4727   0.0000   0.0000   0.0000   0.3833
  14.100   1.1424   0.21238   0.21023  -0.1694  0.0069  1.0000  -2.4564   0.0000   0.0000   0.0000   0.3840
  14.200   1.1432   0.21486   0.21271  -0.1704  0.0068  1.0000  -2.4416   0.0000   0.0000   0.0000   0.3846
  14.300   1.1441   0.21734   0.21519  -0.1714  0.0066  1.0000  -2.4282   0.0000   0.0000   0.0000   0.3853
  14.400   1.1450   0.21980   0.21765  -0.1723  0.0065  1.0000  -2.4162   0.0000   0.0000   0.0000   0.3859
  14.500   1.1459   0.22226   0.22012  -0.1733  0.0064  1.0000  -2.4054   0.0000   0.0000   0.0000   0.3864
  14.600   1.1468   0.22472   0.22257  -0.1742  0.0063  1.0000  -2.3958   0.0000   0.0000   0.0000   0.3870
  14.700   1.1477   0.22717   0.22503  -0.1751  0.0061  1.0000  -2.3875   0.0000   0.0000   0.0000   0.3875
  14.800   1.1486   0.22962   0.22748  -0.1760  0.0060  1.0000  -2.3802   0.0000   0.0000   0.0000   0.3881
  14.900   1.1495   0.23207   0.22992  -0.1769  0.0059  1.0000  -2.3741   0.0000   0.0000   0.0000   0.3886
  15.000   1.1504   0.23451   0.23237  -0.1778  0.0058  1.0000  -2.3690   0.0000   0.0000   0.0000   0.3891
  15.100   1.1513   0.23695   0.23481  -0.1786  0.0057  1.0000  -2.3650   0.0000   0.0000   0.0000   0.3896
  15.200   1.1522   0.23938   0.23724  -0.1795  0.0055  1.0000  -2.3620   0.0000   0.0000   0.0000   0.3900
  15.300   1.1530   0.24181   0.23967  -0.1803  0.0054  1.0000  -2.3601   0.0000   0.0000   0.0000   0.3905
  15.400   1.1538   0.24424   0.24210  -0.1811  0.0053  1.0000  -2.3592   0.0000   0.0000   0.0000   0.3909
  15.500   1.1546   0.24666   0.24453  -0.1819  0.0052  1.0000  -2.3593   0.0000   0.0000   0.0000   0.3914
  15.600   1.1554   0.24908   0.24695  -0.1827  0.0051  1.0000  -2.3605   0.0000   0.0000   0.0000   0.3918
  15.700   1.1561   0.25149   0.24936  -0.1834  0.0050  1.0000  -2.3627   0.0000   0.0000   0.0000   0.3922
  15.800   1.1568   0.25390   0.25177  -0.1842  0.0049  1.0000  -2.3659   0.0000   0.0000   0.0000   0.3926
  15.900   1.1574   0.25630   0.25417  -0.1849  0.0049  1.0000  -2.3701   0.0000   0.0000   0.0000   0.3930
  16.000   1.1580   0.25870   0.25657  -0.1856  0.0048  1.0000  -2.3754   0.0000   0.0000   0.0000   0.3934
  16.100   1.1585   0.26108   0.25896  -0.1863  0.0047  1.0000  -2.3817   0.0000   0.0000   0.0000   0.3937
  16.200   1.1590   0.26346   0.26134  -0.1870  0.0046  1.0000  -2.3891   0.0000   0.0000   0.0000   0.3941


