xflr5 v6.61

 Calculated polar for: EPPLER 393 AIRFOIL

 1 1 Reynolds number fixed          Mach number fixed         

 xtrf =   1.000 (top)        1.000 (bottom)
 Mach =   0.000     Re =     0.160 e 6     Ncrit =   9.000

  alpha     CL        CD       CDp       Cm    Top Xtr Bot Xtr   Cpmin    Chinge    XCp    
 ------- -------- --------- --------- -------- ------- ------- -------- --------- ---------
 -10.000  -0.2989   0.11157   0.10754  -0.0417  1.0000  0.0429  -1.3774   0.0000   0.0000   0.0000   0.0977
  -9.900  -0.2982   0.11045   0.10644  -0.0419  1.0000  0.0435  -1.3822   0.0000   0.0000   0.0000   0.0968
  -9.800  -0.2977   0.10934   0.10534  -0.0421  1.0000  0.0440  -1.3878   0.0000   0.0000   0.0000   0.0960
  -9.700  -0.2974   0.10823   0.10426  -0.0424  1.0000  0.0446  -1.3944   0.0000   0.0000   0.0000   0.0952
  -9.600  -0.2972   0.10713   0.10318  -0.0426  1.0000  0.0451  -1.4021   0.0000   0.0000   0.0000   0.0945
  -9.500  -0.2972   0.10605   0.10211  -0.0428  1.0000  0.0457  -1.4111   0.0000   0.0000   0.0000   0.0939
  -9.400  -0.2974   0.10498   0.10107  -0.0431  1.0000  0.0463  -1.4216   0.0000   0.0000   0.0000   0.0934
  -9.300  -0.2979   0.10394   0.10005  -0.0433  1.0000  0.0470  -1.4336   0.0000   0.0000   0.0000   0.0930
  -9.200  -0.2987   0.10294   0.09907  -0.0436  1.0000  0.0476  -1.4478   0.0000   0.0000   0.0000   0.0926
  -9.100  -0.2998   0.10199   0.09816  -0.0439  1.0000  0.0483  -1.4641   0.0000   0.0000   0.0000   0.0924
  -9.000  -0.3013   0.10114   0.09733  -0.0442  1.0000  0.0489  -1.4832   0.0000   0.0000   0.0000   0.0923
  -8.900  -0.3031   0.10043   0.09666  -0.0445  1.0000  0.0497  -1.5039   0.0000   0.0000   0.0000   0.0923
  -8.800  -0.3056   0.09988   0.09614  -0.0449  1.0000  0.0503  -1.5265   0.0000   0.0000   0.0000   0.0927
  -8.700  -0.3075   0.09949   0.09578  -0.0450  1.0000  0.0509  -1.5418   0.0000   0.0000   0.0000   0.0934
  -8.600  -0.3096   0.09902   0.09535  -0.0449  1.0000  0.0513  -1.5536   0.0000   0.0000   0.0000   0.0950
  -8.500  -0.3123   0.09845   0.09482  -0.0446  1.0000  0.0515  -1.5655   0.0000   0.0000   0.0000   0.0974
  -8.400  -0.3158   0.09786   0.09426  -0.0442  1.0000  0.0516  -1.5776   0.0000   0.0000   0.0000   0.1007
  -8.300  -0.3201   0.09729   0.09374  -0.0435  1.0000  0.0517  -1.5900   0.0000   0.0000   0.0000   0.1049
  -8.200  -0.3254   0.09679   0.09328  -0.0426  1.0000  0.0518  -1.6029   0.0000   0.0000   0.0000   0.1102
  -8.100  -0.3319   0.09641   0.09294  -0.0414  1.0000  0.0518  -1.6162   0.0000   0.0000   0.0000   0.1165
  -8.000  -0.3398   0.09616   0.09275  -0.0400  1.0000  0.0519  -1.6299   0.0000   0.0000   0.0000   0.1241
  -7.900  -0.3490   0.09607   0.09271  -0.0382  1.0000  0.0519  -1.6438   0.0000   0.0000   0.0000   0.1325
  -7.700  -0.3454   0.09346   0.09013  -0.0416  0.9966  0.0521  -1.6726   0.0000   0.0000   0.0000   0.1217
  -7.600  -0.3375   0.09130   0.08797  -0.0452  0.9932  0.0522  -1.6890   0.0000   0.0000   0.0000   0.1081
  -7.500  -0.3290   0.08896   0.08562  -0.0493  0.9897  0.0522  -1.7078   0.0000   0.0000   0.0000   0.0922
  -7.400  -0.3182   0.08618   0.08283  -0.0543  0.9869  0.0523  -1.7299   0.0000   0.0000   0.0000   0.0713
  -7.300  -0.3090   0.08330   0.07994  -0.0591  0.9819  0.0524  -1.7560   0.0000   0.0000   0.0000   0.0506
  -7.200  -0.2978   0.07990   0.07652  -0.0653  0.9776  0.0524  -1.7920   0.0000   0.0000   0.0000   0.0224
  -7.100  -0.2868   0.07672   0.07326  -0.0709  0.9746  0.0524  -1.8244   0.0000   0.0000   0.0000  -0.0059
  -7.000  -0.2756   0.07379   0.07028  -0.0757  0.9724  0.0525  -1.8489   0.0000   0.0000   0.0000  -0.0337
  -6.900  -0.2883   0.06657   0.06306  -0.0807  0.9644  0.0539  -2.0163   0.0000   0.0000   0.0000  -0.0383
  -6.800  -0.2842   0.06307   0.05954  -0.0836  0.9606  0.0549  -2.0393   0.0000   0.0000   0.0000  -0.0529
  -6.700  -0.2755   0.06043   0.05687  -0.0865  0.9578  0.0557  -2.0352   0.0000   0.0000   0.0000  -0.0727
  -6.600  -0.2646   0.05816   0.05457  -0.0892  0.9557  0.0564  -2.0178   0.0000   0.0000   0.0000  -0.0959
  -6.500  -0.2523   0.05609   0.05245  -0.0917  0.9540  0.0571  -1.9941   0.0000   0.0000   0.0000  -0.1228
  -6.400  -0.2391   0.05389   0.05020  -0.0947  0.9525  0.0577  -1.9769   0.0000   0.0000   0.0000  -0.1558
  -6.300  -0.2368   0.05250   0.04878  -0.0950  0.9447  0.0580  -1.9765   0.0000   0.0000   0.0000  -0.1609
  -6.100  -0.2118   0.04257   0.03814  -0.1019  0.9364  0.0299  -2.4596   0.0000   0.0000   0.0000  -0.2422
  -6.000  -0.2006   0.03926   0.03461  -0.1050  0.9339  0.0288  -2.5133   0.0000   0.0000   0.0000  -0.2851
  -5.900  -0.1868   0.03646   0.03158  -0.1077  0.9321  0.0280  -2.5486   0.0000   0.0000   0.0000  -0.3391
  -5.800  -0.1717   0.03397   0.02883  -0.1102  0.9306  0.0274  -2.5747   0.0000   0.0000   0.0000  -0.4054
  -5.700  -0.1559   0.03173   0.02633  -0.1124  0.9292  0.0269  -2.5930   0.0000   0.0000   0.0000  -0.4861
  -5.600  -0.1397   0.02973   0.02407  -0.1143  0.9280  0.0265  -2.6038   0.0000   0.0000   0.0000  -0.5848
  -5.500  -0.1353   0.02871   0.02290  -0.1135  0.9210  0.0264  -2.6095   0.0000   0.0000   0.0000  -0.6059
  -5.400  -0.1241   0.02736   0.02134  -0.1140  0.9169  0.0264  -2.6112   0.0000   0.0000   0.0000  -0.6863
  -5.300  -0.1107   0.02601   0.01977  -0.1148  0.9138  0.0265  -2.6115   0.0000   0.0000   0.0000  -0.8069
  -5.200  -0.0962   0.02467   0.01806  -0.1156  0.9112  0.0271  -2.6247   0.0000   0.0000   0.0000  -0.9750
  -5.100  -0.0811   0.02359   0.01680  -0.1165  0.9089  0.0277  -2.5998   0.0000   0.0000   0.0000  -1.2126
  -5.000  -0.0655   0.02265   0.01570  -0.1174  0.9069  0.0286  -2.5650   0.0000   0.0000   0.0000  -1.5751
  -4.900  -0.0494   0.02191   0.01482  -0.1182  0.9049  0.0296  -2.5151   0.0000   0.0000   0.0000  -2.1837
  -4.800  -0.0331   0.02145   0.01425  -0.1191  0.9030  0.0307  -2.4424   0.0000   0.0000   0.0000  -3.4089
  -4.700  -0.0172   0.02066   0.01335  -0.1200  0.9012  0.0320  -2.3847   0.0000   0.0000   0.0000  -6.8480
  -4.600  -0.0025   0.01896   0.01150  -0.1209  0.8995  0.0345  -2.3740   0.0000   0.0000   0.0000  -48.1058
  -4.500   0.0078   0.01837   0.01088  -0.1209  0.8953  0.0366  -2.3140   0.0000   0.0000   0.0000  15.9417
  -4.400   0.0164   0.01805   0.01055  -0.1205  0.8898  0.0384  -2.2454   0.0000   0.0000   0.0000   7.7255
  -4.300   0.0279   0.01773   0.01022  -0.1205  0.8854  0.0406  -2.1624   0.0000   0.0000   0.0000   4.6393
  -4.200   0.0407   0.01766   0.01016  -0.1209  0.8816  0.0450  -2.0487   0.0000   0.0000   0.0000   3.2614
  -4.100   0.0544   0.01775   0.01024  -0.1215  0.8782  0.0501  -1.9262   0.0000   0.0000   0.0000   2.5123
  -4.000   0.0682   0.01759   0.01005  -0.1219  0.8752  0.0536  -1.8255   0.0000   0.0000   0.0000   2.0627
  -3.900   0.0808   0.01648   0.00892  -0.1223  0.8725  0.0591  -1.7829   0.0000   0.0000   0.0000   1.7835
  -3.800   0.0947   0.01593   0.00836  -0.1228  0.8700  0.0643  -1.7161   0.0000   0.0000   0.0000   1.5624
  -3.700   0.1092   0.01499   0.00745  -0.1233  0.8675  0.0902  -1.7823   0.0000   0.0000   0.0000   1.3931
  -3.600   0.1234   0.01429   0.00693  -0.1241  0.8648  0.1409  -1.7889   0.0000   0.0000   0.0000   1.2677
  -3.500   0.1318   0.01393   0.00677  -0.1238  0.8604  0.1811  -1.7519   0.0000   0.0000   0.0000   1.2006
  -3.400   0.1414   0.01348   0.00664  -0.1240  0.8561  0.2444  -1.7039   0.0000   0.0000   0.0000   1.1365
  -3.300   0.1518   0.01310   0.00657  -0.1241  0.8521  0.3227  -1.6496   0.0000   0.0000   0.0000   1.0766
  -3.200   0.1625   0.01284   0.00659  -0.1242  0.8483  0.3921  -1.5911   0.0000   0.0000   0.0000   1.0221
  -3.100   0.1737   0.01273   0.00660  -0.1241  0.8448  0.4399  -1.5299   0.0000   0.0000   0.0000   0.9717
  -3.000   0.1854   0.01270   0.00658  -0.1241  0.8415  0.4776  -1.4667   0.0000   0.0000   0.0000   0.9256
  -2.900   0.1964   0.01263   0.00662  -0.1238  0.8384  0.5083  -1.4051   0.0000   0.0000   0.0000   0.8864
  -2.800   0.2088   0.01266   0.00657  -0.1239  0.8354  0.5306  -1.3405   0.0000   0.0000   0.0000   0.8487
  -2.700   0.2203   0.01261   0.00658  -0.1237  0.8326  0.5497  -1.2786   0.0000   0.0000   0.0000   0.8164
  -2.600   0.2324   0.01264   0.00660  -0.1237  0.8295  0.5662  -1.2161   0.0000   0.0000   0.0000   0.7868
  -2.500   0.2437   0.01273   0.00662  -0.1237  0.8263  0.5803  -1.1570   0.0000   0.0000   0.0000   0.7615
  -2.400   0.2530   0.01275   0.00665  -0.1233  0.8229  0.5931  -1.1038   0.0000   0.0000   0.0000   0.7409
  -2.300   0.2618   0.01274   0.00670  -0.1227  0.8192  0.6069  -1.0520   0.0000   0.0000   0.0000   0.7219
  -2.200   0.2715   0.01277   0.00674  -0.1222  0.8154  0.6202  -0.9992   0.0000   0.0000   0.0000   0.7033
  -2.100   0.2820   0.01281   0.00674  -0.1220  0.8116  0.6322  -0.9457   0.0000   0.0000   0.0000   0.6853
  -2.000   0.2930   0.01284   0.00671  -0.1218  0.8079  0.6426  -0.8946   0.0000   0.0000   0.0000   0.6683
  -1.900   0.3028   0.01277   0.00659  -0.1213  0.8044  0.6547  -0.8551   0.0000   0.0000   0.0000   0.6529
  -1.800   0.3130   0.01275   0.00659  -0.1209  0.8011  0.6657  -0.8025   0.0000   0.0000   0.0000   0.6382
  -1.700   0.3239   0.01276   0.00656  -0.1206  0.7980  0.6765  -0.7491   0.0000   0.0000   0.0000   0.6242
  -1.600   0.3354   0.01279   0.00654  -0.1205  0.7950  0.6868  -0.6951   0.0000   0.0000   0.0000   0.6110
  -1.500   0.3472   0.01284   0.00653  -0.1206  0.7920  0.6956  -0.6414   0.0000   0.0000   0.0000   0.5986
  -1.400   0.3575   0.01286   0.00656  -0.1202  0.7888  0.7059  -0.6386   0.0000   0.0000   0.0000   0.5874
  -1.300   0.3669   0.01292   0.00664  -0.1197  0.7860  0.7158  -0.6445   0.0000   0.0000   0.0000   0.5774
  -1.200   0.3760   0.01295   0.00669  -0.1193  0.7834  0.7257  -0.6504   0.0000   0.0000   0.0000   0.5681
  -1.100   0.3857   0.01299   0.00672  -0.1190  0.7806  0.7353  -0.6566   0.0000   0.0000   0.0000   0.5592
  -1.000   0.3962   0.01304   0.00675  -0.1189  0.7777  0.7437  -0.6632   0.0000   0.0000   0.0000   0.5506
  -0.900   0.4052   0.01302   0.00676  -0.1184  0.7747  0.7531  -0.6691   0.0000   0.0000   0.0000   0.5425
  -0.800   0.4139   0.01301   0.00678  -0.1177  0.7717  0.7624  -0.6750   0.0000   0.0000   0.0000   0.5347
  -0.700   0.4233   0.01302   0.00681  -0.1173  0.7688  0.7719  -0.6811   0.0000   0.0000   0.0000   0.5271
  -0.600   0.4333   0.01304   0.00682  -0.1169  0.7659  0.7820  -0.6877   0.0000   0.0000   0.0000   0.5199
  -0.500   0.4441   0.01307   0.00682  -0.1168  0.7631  0.7917  -0.6946   0.0000   0.0000   0.0000   0.5129
  -0.400   0.4532   0.01304   0.00680  -0.1162  0.7604  0.8013  -0.7007   0.0000   0.0000   0.0000   0.5063
  -0.300   0.4617   0.01302   0.00680  -0.1155  0.7579  0.8111  -0.7066   0.0000   0.0000   0.0000   0.4998
  -0.200   0.4709   0.01302   0.00680  -0.1149  0.7553  0.8219  -0.7129   0.0000   0.0000   0.0000   0.4936
  -0.100   0.4811   0.01305   0.00680  -0.1146  0.7528  0.8331  -0.7196   0.0000   0.0000   0.0000   0.4877
   0.000   0.4906   0.01308   0.00682  -0.1142  0.7502  0.8435  -0.7260   0.0000   0.0000   0.0000   0.4820
   0.100   0.4985   0.01312   0.00687  -0.1133  0.7474  0.8544  -0.7314   0.0000   0.0000   0.0000   0.4764
   0.200   0.5071   0.01329   0.00703  -0.1127  0.7441  0.8670  -0.7369   0.0000   0.0000   0.0000   0.4713
   0.300   0.5154   0.01330   0.00706  -0.1121  0.7422  0.8804  -0.7423   0.0000   0.0000   0.0000   0.4665
   0.400   0.5213   0.01325   0.00705  -0.1109  0.7400  0.8945  -0.7466   0.0000   0.0000   0.0000   0.4616
   0.500   0.5285   0.01322   0.00705  -0.1101  0.7375  0.9117  -0.7515   0.0000   0.0000   0.0000   0.4570
   0.600   0.5374   0.01316   0.00699  -0.1095  0.7347  0.9315  -0.7573   0.0000   0.0000   0.0000   0.4524
   0.700   0.5511   0.01310   0.00694  -0.1100  0.7318  0.9549  -0.7656   0.0000   0.0000   0.0000   0.4482
   0.900   0.5846   0.01308   0.00687  -0.1128  0.7257  1.0000  -0.7864   0.0000   0.0000   0.0000   0.4413
   1.000   0.5979   0.01313   0.00688  -0.1136  0.7227  1.0000  -0.7955   0.0000   0.0000   0.0000   0.4381
   1.100   0.6110   0.01319   0.00689  -0.1142  0.7200  1.0000  -0.8046   0.0000   0.0000   0.0000   0.4350
   1.200   0.6239   0.01326   0.00692  -0.1147  0.7175  1.0000  -0.8135   0.0000   0.0000   0.0000   0.4319
   1.300   0.6365   0.01332   0.00694  -0.1152  0.7151  1.0000  -0.8224   0.0000   0.0000   0.0000   0.4289
   1.400   0.6490   0.01339   0.00697  -0.1156  0.7127  1.0000  -0.8313   0.0000   0.0000   0.0000   0.4259
   1.500   0.6614   0.01346   0.00700  -0.1160  0.7104  1.0000  -0.8401   0.0000   0.0000   0.0000   0.4230
   1.600   0.6737   0.01355   0.00705  -0.1163  0.7081  1.0000  -0.8488   0.0000   0.0000   0.0000   0.4202
   1.700   0.6858   0.01366   0.00712  -0.1166  0.7057  1.0000  -0.8577   0.0000   0.0000   0.0000   0.4175
   1.800   0.6978   0.01383   0.00730  -0.1169  0.7030  1.0000  -0.8674   0.0000   0.0000   0.0000   0.4148
   1.900   0.7095   0.01411   0.00754  -0.1171  0.6999  1.0000  -0.8766   0.0000   0.0000   0.0000   0.4124
   2.000   0.7203   0.01430   0.00772  -0.1173  0.6976  1.0000  -0.8863   0.0000   0.0000   0.0000   0.4100
   2.100   0.7310   0.01438   0.00780  -0.1174  0.6959  1.0000  -0.8964   0.0000   0.0000   0.0000   0.4077
   2.200   0.7415   0.01446   0.00789  -0.1174  0.6938  1.0000  -0.9064   0.0000   0.0000   0.0000   0.4053
   2.300   0.7521   0.01454   0.00797  -0.1174  0.6914  1.0000  -0.9164   0.0000   0.0000   0.0000   0.4031
   2.400   0.7626   0.01462   0.00805  -0.1174  0.6887  1.0000  -0.9265   0.0000   0.0000   0.0000   0.4008
   2.500   0.7733   0.01469   0.00813  -0.1174  0.6858  1.0000  -0.9371   0.0000   0.0000   0.0000   0.3986
   2.600   0.7841   0.01477   0.00820  -0.1175  0.6828  1.0000  -0.9489   0.0000   0.0000   0.0000   0.3964
   2.700   0.7950   0.01484   0.00826  -0.1175  0.6799  1.0000  -0.9611   0.0000   0.0000   0.0000   0.3943
   2.800   0.8061   0.01491   0.00833  -0.1175  0.6771  1.0000  -0.9749   0.0000   0.0000   0.0000   0.3922
   2.900   0.8172   0.01499   0.00841  -0.1176  0.6745  1.0000  -0.9888   0.0000   0.0000   0.0000   0.3902
   3.000   0.8285   0.01507   0.00848  -0.1177  0.6721  1.0000  -1.0029   0.0000   0.0000   0.0000   0.3883
   3.100   0.8399   0.01513   0.00853  -0.1177  0.6696  1.0000  -1.0172   0.0000   0.0000   0.0000   0.3863
   3.200   0.8514   0.01519   0.00857  -0.1178  0.6670  1.0000  -1.0323   0.0000   0.0000   0.0000   0.3844
   3.300   0.8630   0.01524   0.00860  -0.1179  0.6644  1.0000  -1.0492   0.0000   0.0000   0.0000   0.3825
   3.400   0.8746   0.01530   0.00864  -0.1179  0.6617  1.0000  -1.0663   0.0000   0.0000   0.0000   0.3807
   3.500   0.8862   0.01541   0.00872  -0.1180  0.6587  1.0000  -1.0860   0.0000   0.0000   0.0000   0.3789
   3.600   0.8976   0.01563   0.00892  -0.1181  0.6551  1.0000  -1.1056   0.0000   0.0000   0.0000   0.3772
   3.700   0.9077   0.01599   0.00927  -0.1181  0.6512  1.0000  -1.1238   0.0000   0.0000   0.0000   0.3756
   3.800   0.9180   0.01601   0.00933  -0.1180  0.6493  1.0000  -1.1423   0.0000   0.0000   0.0000   0.3739
   3.900   0.9279   0.01606   0.00941  -0.1178  0.6469  1.0000  -1.1607   0.0000   0.0000   0.0000   0.3723
   4.000   0.9379   0.01612   0.00951  -0.1177  0.6442  1.0000  -1.1825   0.0000   0.0000   0.0000   0.3707
   4.100   0.9480   0.01619   0.00960  -0.1176  0.6412  1.0000  -1.2045   0.0000   0.0000   0.0000   0.3691
   4.200   0.9583   0.01625   0.00969  -0.1175  0.6381  1.0000  -1.2269   0.0000   0.0000   0.0000   0.3676
   4.300   0.9687   0.01632   0.00977  -0.1174  0.6349  1.0000  -1.2496   0.0000   0.0000   0.0000   0.3660
   4.400   0.9794   0.01635   0.00983  -0.1173  0.6316  1.0000  -1.2729   0.0000   0.0000   0.0000   0.3645
   4.500   0.9904   0.01636   0.00984  -0.1172  0.6280  1.0000  -1.2988   0.0000   0.0000   0.0000   0.3630
   4.600   1.0016   0.01634   0.00982  -0.1171  0.6245  1.0000  -1.3287   0.0000   0.0000   0.0000   0.3615
   4.700   1.0132   0.01631   0.00979  -0.1171  0.6210  1.0000  -1.3593   0.0000   0.0000   0.0000   0.3600
   4.800   1.0247   0.01630   0.00977  -0.1171  0.6177  1.0000  -1.3916   0.0000   0.0000   0.0000   0.3585
   4.900   1.0362   0.01631   0.00977  -0.1170  0.6145  1.0000  -1.4295   0.0000   0.0000   0.0000   0.3571
   5.000   1.0479   0.01639   0.01011  -0.1170  0.6108  1.0000  -1.4672   0.0000   0.0000   0.0000   0.3557
   5.100   1.0594   0.01663   0.01034  -0.1171  0.6063  1.0000  -1.5045   0.0000   0.0000   0.0000   0.3545
   5.200   1.0694   0.01685   0.01059  -0.1170  0.6027  1.0000  -1.5396   0.0000   0.0000   0.0000   0.3532
   5.300   1.0789   0.01682   0.01063  -0.1167  0.5999  1.0000  -1.5748   0.0000   0.0000   0.0000   0.3519
   5.400   1.0884   0.01680   0.01067  -0.1164  0.5962  1.0000  -1.6104   0.0000   0.0000   0.0000   0.3505
   5.500   1.0982   0.01679   0.01070  -0.1161  0.5921  1.0000  -1.6469   0.0000   0.0000   0.0000   0.3492
   5.600   1.1083   0.01677   0.01072  -0.1159  0.5877  1.0000  -1.6844   0.0000   0.0000   0.0000   0.3479
   5.700   1.1187   0.01675   0.01073  -0.1157  0.5833  1.0000  -1.7228   0.0000   0.0000   0.0000   0.3466
   5.800   1.1295   0.01671   0.01071  -0.1155  0.5790  1.0000  -1.7746   0.0000   0.0000   0.0000   0.3454
   5.900   1.1405   0.01666   0.01067  -0.1154  0.5748  1.0000  -1.8499   0.0000   0.0000   0.0000   0.3441
   6.000   1.1516   0.01661   0.01063  -0.1152  0.5706  1.0000  -1.9365   0.0000   0.0000   0.0000   0.3429
   6.100   1.1630   0.01657   0.01057  -0.1151  0.5661  1.0000  -2.0456   0.0000   0.0000   0.0000   0.3417
   6.200   1.1747   0.01661   0.01057  -0.1151  0.5609  1.0000  -2.1578   0.0000   0.0000   0.0000   0.3405
   6.300   1.1857   0.01679   0.01073  -0.1150  0.5550  1.0000  -2.2673   0.0000   0.0000   0.0000   0.3395
   6.400   1.1944   0.01674   0.01077  -0.1146  0.5512  1.0000  -2.3671   0.0000   0.0000   0.0000   0.3382
   6.500   1.2034   0.01671   0.01081  -0.1142  0.5463  1.0000  -2.4696   0.0000   0.0000   0.0000   0.3370
   6.600   1.2127   0.01668   0.01084  -0.1138  0.5407  1.0000  -2.5757   0.0000   0.0000   0.0000   0.3359
   6.700   1.2223   0.01663   0.01083  -0.1134  0.5346  1.0000  -2.6852   0.0000   0.0000   0.0000   0.3347
   6.800   1.2322   0.01657   0.01078  -0.1131  0.5284  1.0000  -2.7979   0.0000   0.0000   0.0000   0.3335
   6.900   1.2426   0.01651   0.01072  -0.1128  0.5221  1.0000  -2.9155   0.0000   0.0000   0.0000   0.3324
   7.000   1.2533   0.01650   0.01067  -0.1126  0.5157  1.0000  -3.0359   0.0000   0.0000   0.0000   0.3313
   7.100   1.2645   0.01662   0.01071  -0.1125  0.5078  1.0000  -3.1596   0.0000   0.0000   0.0000   0.3303
   7.200   1.2723   0.01662   0.01082  -0.1119  0.5024  1.0000  -3.2654   0.0000   0.0000   0.0000   0.3291
   7.300   1.2804   0.01662   0.01091  -0.1113  0.4948  1.0000  -3.3744   0.0000   0.0000   0.0000   0.3280
   7.400   1.2888   0.01661   0.01095  -0.1108  0.4856  1.0000  -3.4873   0.0000   0.0000   0.0000   0.3268
   7.500   1.2976   0.01660   0.01092  -0.1102  0.4755  1.0000  -3.6041   0.0000   0.0000   0.0000   0.3257
   7.600   1.3064   0.01665   0.01087  -0.1097  0.4649  1.0000  -3.7221   0.0000   0.0000   0.0000   0.3245
   7.700   1.3145   0.01675   0.01099  -0.1091  0.4553  1.0000  -3.8358   0.0000   0.0000   0.0000   0.3235
   7.800   1.3221   0.01683   0.01115  -0.1085  0.4442  1.0000  -3.9469   0.0000   0.0000   0.0000   0.3224
   7.900   1.3292   0.01693   0.01123  -0.1077  0.4303  1.0000  -4.0574   0.0000   0.0000   0.0000   0.3212
   8.000   1.3353   0.01711   0.01126  -0.1068  0.4151  1.0000  -4.1634   0.0000   0.0000   0.0000   0.3200
   8.100   1.3420   0.01727   0.01147  -0.1061  0.3997  1.0000  -4.2717   0.0000   0.0000   0.0000   0.3189
   8.200   1.3468   0.01752   0.01163  -0.1050  0.3794  1.0000  -4.3704   0.0000   0.0000   0.0000   0.3177
   8.300   1.3511   0.01782   0.01205  -0.1039  0.3614  1.0000  -4.4510   0.0000   0.0000   0.0000   0.3165
   8.400   1.3544   0.01819   0.01231  -0.1026  0.3373  1.0000  -4.5319   0.0000   0.0000   0.0000   0.3152
   8.500   1.3551   0.01869   0.01263  -0.1010  0.3122  1.0000  -4.6027   0.0000   0.0000   0.0000   0.3139
   8.600   1.3543   0.01929   0.01302  -0.0993  0.2859  1.0000  -4.6654   0.0000   0.0000   0.0000   0.3125
   8.700   1.3543   0.01986   0.01345  -0.0977  0.2617  1.0000  -4.7327   0.0000   0.0000   0.0000   0.3112
   8.800   1.3517   0.02057   0.01396  -0.0958  0.2403  1.0000  -4.7842   0.0000   0.0000   0.0000   0.3098
   8.900   1.3519   0.02111   0.01440  -0.0943  0.2198  1.0000  -4.8522   0.0000   0.0000   0.0000   0.3085
   9.000   1.3485   0.02180   0.01493  -0.0923  0.2027  1.0000  -4.8986   0.0000   0.0000   0.0000   0.3070
   9.100   1.3486   0.02237   0.01541  -0.0908  0.1856  1.0000  -4.9662   0.0000   0.0000   0.0000   0.3058
   9.200   1.3463   0.02307   0.01597  -0.0891  0.1704  1.0000  -5.0190   0.0000   0.0000   0.0000   0.3045
   9.300   1.3460   0.02369   0.01652  -0.0877  0.1565  1.0000  -5.0831   0.0000   0.0000   0.0000   0.3033
   9.400   1.3457   0.02432   0.01707  -0.0864  0.1434  1.0000  -5.1483   0.0000   0.0000   0.0000   0.3022
   9.500   1.3436   0.02508   0.01771  -0.0849  0.1319  1.0000  -5.2006   0.0000   0.0000   0.0000   0.3011
   9.600   1.3456   0.02562   0.01824  -0.0839  0.1220  1.0000  -5.2790   0.0000   0.0000   0.0000   0.3001
   9.700   1.3462   0.02625   0.01882  -0.0828  0.1132  1.0000  -5.3480   0.0000   0.0000   0.0000   0.2991
   9.800   1.3455   0.02698   0.01949  -0.0816  0.1054  1.0000  -5.4072   0.0000   0.0000   0.0000   0.2981
   9.900   1.3460   0.02766   0.02015  -0.0806  0.0980  1.0000  -5.4729   0.0000   0.0000   0.0000   0.2971
  10.000   1.3484   0.02822   0.02073  -0.0797  0.0907  1.0000  -5.5514   0.0000   0.0000   0.0000   0.2962
  10.100   1.3487   0.02895   0.02141  -0.0788  0.0834  1.0000  -5.6157   0.0000   0.0000   0.0000   0.2954
  10.200   1.3477   0.02980   0.02220  -0.0778  0.0768  1.0000  -5.6684   0.0000   0.0000   0.0000   0.2945
  10.300   1.3486   0.03052   0.02294  -0.0769  0.0709  1.0000  -5.7294   0.0000   0.0000   0.0000   0.2937
  10.400   1.3501   0.03122   0.02366  -0.0761  0.0644  1.0000  -5.7919   0.0000   0.0000   0.0000   0.2929
  10.500   1.3485   0.03216   0.02454  -0.0752  0.0575  1.0000  -5.8312   0.0000   0.0000   0.0000   0.2920
  10.600   1.3442   0.03335   0.02566  -0.0741  0.0504  1.0000  -5.8432   0.0000   0.0000   0.0000   0.2912
  10.700   1.3432   0.03433   0.02666  -0.0732  0.0418  1.0000  -5.8563   0.0000   0.0000   0.0000   0.2904
  10.800   1.3351   0.03598   0.02820  -0.0719  0.0345  1.0000  -5.8148   0.0000   0.0000   0.0000   0.2897
  10.900   1.3286   0.03755   0.02981  -0.0708  0.0293  1.0000  -5.7503   0.0000   0.0000   0.0000   0.2889
  11.000   1.3260   0.03879   0.03111  -0.0699  0.0258  1.0000  -5.7286   0.0000   0.0000   0.0000   0.2882
  11.100   1.3234   0.04005   0.03238  -0.0692  0.0235  1.0000  -5.7244   0.0000   0.0000   0.0000   0.2876
  11.200   1.3199   0.04141   0.03376  -0.0685  0.0220  1.0000  -5.7193   0.0000   0.0000   0.0000   0.2870
  11.300   1.3156   0.04288   0.03527  -0.0678  0.0207  1.0000  -5.7044   0.0000   0.0000   0.0000   0.2864
  11.400   1.3107   0.04444   0.03689  -0.0671  0.0197  1.0000  -5.6804   0.0000   0.0000   0.0000   0.2859
  11.500   1.3051   0.04608   0.03861  -0.0663  0.0189  1.0000  -5.6520   0.0000   0.0000   0.0000   0.2854
  11.600   1.2995   0.04775   0.04037  -0.0656  0.0183  1.0000  -5.6189   0.0000   0.0000   0.0000   0.2848
  11.700   1.2943   0.04943   0.04214  -0.0647  0.0177  1.0000  -5.5803   0.0000   0.0000   0.0000   0.2842
  11.800   1.2952   0.05042   0.04315  -0.0642  0.0175  1.0000  -5.6103   0.0000   0.0000   0.0000   0.2836
  11.900   1.2963   0.05140   0.04420  -0.0637  0.0172  1.0000  -5.6425   0.0000   0.0000   0.0000   0.2830
  12.000   1.2974   0.05241   0.04527  -0.0632  0.0170  1.0000  -5.6727   0.0000   0.0000   0.0000   0.2824
  12.100   1.2986   0.05344   0.04637  -0.0627  0.0168  1.0000  -5.7018   0.0000   0.0000   0.0000   0.2818
  12.200   1.3001   0.05448   0.04749  -0.0622  0.0166  1.0000  -5.7301   0.0000   0.0000   0.0000   0.2812
  12.300   1.3017   0.05555   0.04862  -0.0617  0.0164  1.0000  -5.7579   0.0000   0.0000   0.0000   0.2806
  12.400   1.3033   0.05665   0.04980  -0.0613  0.0162  1.0000  -5.7845   0.0000   0.0000   0.0000   0.2800
  12.500   1.3050   0.05777   0.05100  -0.0608  0.0160  1.0000  -5.8109   0.0000   0.0000   0.0000   0.2794
  12.600   1.3070   0.05891   0.05222  -0.0603  0.0159  1.0000  -5.8370   0.0000   0.0000   0.0000   0.2788
  12.700   1.3091   0.06007   0.05347  -0.0598  0.0157  1.0000  -5.8625   0.0000   0.0000   0.0000   0.2782
  12.800   1.3109   0.06129   0.05478  -0.0594  0.0156  1.0000  -5.8860   0.0000   0.0000   0.0000   0.2776
  12.900   1.3123   0.06258   0.05615  -0.0590  0.0155  1.0000  -5.9069   0.0000   0.0000   0.0000   0.2771
  13.000   1.3134   0.06391   0.05759  -0.0587  0.0154  1.0000  -5.9256   0.0000   0.0000   0.0000   0.2766
  13.100   1.3142   0.06530   0.05908  -0.0583  0.0154  1.0000  -5.9421   0.0000   0.0000   0.0000   0.2762
  13.200   1.3146   0.06675   0.06063  -0.0581  0.0153  1.0000  -5.9560   0.0000   0.0000   0.0000   0.2758
  13.300   1.3145   0.06825   0.06223  -0.0578  0.0153  1.0000  -5.9672   0.0000   0.0000   0.0000   0.2755
  13.400   1.3137   0.06982   0.06391  -0.0577  0.0152  1.0000  -5.9750   0.0000   0.0000   0.0000   0.2752
  13.500   1.3124   0.07146   0.06566  -0.0575  0.0152  1.0000  -5.9798   0.0000   0.0000   0.0000   0.2750
  13.600   1.3106   0.07314   0.06745  -0.0575  0.0152  1.0000  -5.9819   0.0000   0.0000   0.0000   0.2748
  13.700   1.3083   0.07489   0.06931  -0.0575  0.0152  1.0000  -5.9808   0.0000   0.0000   0.0000   0.2747
  13.800   1.3050   0.07672   0.07125  -0.0576  0.0152  1.0000  -5.9758   0.0000   0.0000   0.0000   0.2748
  13.900   1.3014   0.07861   0.07324  -0.0579  0.0152  1.0000  -5.9682   0.0000   0.0000   0.0000   0.2749
  14.000   1.2976   0.08053   0.07527  -0.0581  0.0152  1.0000  -5.9588   0.0000   0.0000   0.0000   0.2750
  14.100   1.2935   0.08248   0.07733  -0.0585  0.0153  1.0000  -5.9475   0.0000   0.0000   0.0000   0.2752
  14.200   1.2891   0.08447   0.07942  -0.0589  0.0153  1.0000  -5.9342   0.0000   0.0000   0.0000   0.2755
  14.300   1.2844   0.08653   0.08158  -0.0594  0.0153  1.0000  -5.9183   0.0000   0.0000   0.0000   0.2759
  14.400   1.2789   0.08867   0.08383  -0.0600  0.0153  1.0000  -5.8988   0.0000   0.0000   0.0000   0.2764
  14.500   1.2734   0.09085   0.08610  -0.0607  0.0154  1.0000  -5.8778   0.0000   0.0000   0.0000   0.2770
  14.600   1.2679   0.09305   0.08840  -0.0615  0.0154  1.0000  -5.8554   0.0000   0.0000   0.0000   0.2777
  14.700   1.2622   0.09523   0.09068  -0.0624  0.0154  1.0000  -5.8314   0.0000   0.0000   0.0000   0.2784
  14.800   1.2561   0.09744   0.09298  -0.0633  0.0155  1.0000  -5.8045   0.0000   0.0000   0.0000   0.2792
  14.900   1.2495   0.09975   0.09538  -0.0645  0.0155  1.0000  -5.7741   0.0000   0.0000   0.0000   0.2802
  15.000   1.2431   0.10212   0.09784  -0.0657  0.0155  1.0000  -5.7427   0.0000   0.0000   0.0000   0.2812
  15.100   1.2367   0.10458   0.10039  -0.0669  0.0156  1.0000  -5.7096   0.0000   0.0000   0.0000   0.2824
  15.200   1.2301   0.10715   0.10305  -0.0683  0.0156  1.0000  -5.6735   0.0000   0.0000   0.0000   0.2836
  15.300   1.2229   0.10994   0.10592  -0.0700  0.0157  1.0000  -5.6330   0.0000   0.0000   0.0000   0.2851
  15.400   1.2159   0.11278   0.10884  -0.0716  0.0157  1.0000  -5.5908   0.0000   0.0000   0.0000   0.2866
  15.500   1.2090   0.11571   0.11185  -0.0734  0.0158  1.0000  -5.5463   0.0000   0.0000   0.0000   0.2883
  15.600   1.2016   0.11885   0.11508  -0.0753  0.0158  1.0000  -5.4967   0.0000   0.0000   0.0000   0.2901
  15.700   1.1940   0.12215   0.11845  -0.0774  0.0159  1.0000  -5.4430   0.0000   0.0000   0.0000   0.2921
  15.800   1.1866   0.12554   0.12191  -0.0795  0.0159  1.0000  -5.3865   0.0000   0.0000   0.0000   0.2942
  15.900   1.1788   0.12914   0.12560  -0.0818  0.0160  1.0000  -5.3241   0.0000   0.0000   0.0000   0.2964
  16.000   1.1706   0.13297   0.12950  -0.0843  0.0161  1.0000  -5.2551   0.0000   0.0000   0.0000   0.2989
  16.100   1.1626   0.13694   0.13353  -0.0869  0.0161  1.0000  -5.1815   0.0000   0.0000   0.0000   0.3015
  16.200   1.1539   0.14126   0.13791  -0.0897  0.0162  1.0000  -5.0973   0.0000   0.0000   0.0000   0.3044
  16.300   1.1452   0.14576   0.14247  -0.0925  0.0163  1.0000  -5.0054   0.0000   0.0000   0.0000   0.3074
  16.400   1.1359   0.15066   0.14743  -0.0956  0.0164  1.0000  -4.9000   0.0000   0.0000   0.0000   0.3107
  16.500   1.1265   0.15584   0.15266  -0.0987  0.0165  1.0000  -4.7819   0.0000   0.0000   0.0000   0.3142
  16.600   1.1163   0.16156   0.15842  -0.1021  0.0166  1.0000  -4.6425   0.0000   0.0000   0.0000   0.3180
  16.700   1.1059   0.16758   0.16447  -0.1055  0.0168  1.0000  -4.4859   0.0000   0.0000   0.0000   0.3219
  16.800   1.0952   0.17405   0.17096  -0.1088  0.0170  1.0000  -4.3056   0.0000   0.0000   0.0000   0.3260
  16.900   1.0846   0.18075   0.17766  -0.1121  0.0172  1.0000  -4.1071   0.0000   0.0000   0.0000   0.3301
  17.000   1.0743   0.18745   0.18435  -0.1149  0.0175  1.0000  -3.8948   0.0000   0.0000   0.0000   0.3338
  17.300   1.0704   0.19764   0.19460  -0.1191  0.0181  1.0000  -3.7257   0.0000   0.0000   0.0000   0.3378
  17.400   1.0707   0.20061   0.19757  -0.1202  0.0182  1.0000  -3.6902   0.0000   0.0000   0.0000   0.3388
  17.500   1.0711   0.20370   0.20067  -0.1214  0.0185  1.0000  -3.6455   0.0000   0.0000   0.0000   0.3397
  17.600   1.0708   0.20740   0.20437  -0.1227  0.0189  1.0000  -3.5675   0.0000   0.0000   0.0000   0.3410
  17.700   1.0515   0.22340   0.22027  -0.1282  0.0225  1.0000  -2.8760   0.0000   0.0000   0.0000   0.3491
  17.800   1.0472   0.22889   0.22575  -0.1301  0.0239  1.0000  -2.7167   0.0000   0.0000   0.0000   0.3514
  17.900   1.0450   0.23307   0.22992  -0.1315  0.0250  1.0000  -2.6218   0.0000   0.0000   0.0000   0.3529
  18.000   1.0437   0.23674   0.23358  -0.1326  0.0261  1.0000  -2.5522   0.0000   0.0000   0.0000   0.3541
  18.100   1.0430   0.24002   0.23686  -0.1335  0.0272  1.0000  -2.5020   0.0000   0.0000   0.0000   0.3549
  18.200   1.0428   0.24299   0.23983  -0.1342  0.0283  1.0000  -2.4684   0.0000   0.0000   0.0000   0.3555
  18.300   1.0425   0.24587   0.24271  -0.1347  0.0297  1.0000  -2.4461   0.0000   0.0000   0.0000   0.3558
  18.400   1.0345   0.25524   0.25209  -0.1384  0.0402  1.0000  -2.0935   0.0000   0.0000   0.0000   0.3607
  18.500   1.0341   0.25816   0.25500  -0.1393  0.0406  1.0000  -2.0637   0.0000   0.0000   0.0000   0.3616
  18.600   1.0339   0.26092   0.25777  -0.1402  0.0406  1.0000  -2.0400   0.0000   0.0000   0.0000   0.3623
  18.700   1.0338   0.26359   0.26044  -0.1410  0.0406  1.0000  -2.0201   0.0000   0.0000   0.0000   0.3630
  18.800   1.0338   0.26620   0.26305  -0.1418  0.0404  1.0000  -2.0029   0.0000   0.0000   0.0000   0.3636
  18.900   1.0337   0.26875   0.26561  -0.1425  0.0402  1.0000  -1.9878   0.0000   0.0000   0.0000   0.3642
  19.000   1.0337   0.27126   0.26812  -0.1433  0.0398  1.0000  -1.9746   0.0000   0.0000   0.0000   0.3648
  19.100   1.0337   0.27372   0.27058  -0.1439  0.0395  1.0000  -1.9630   0.0000   0.0000   0.0000   0.3653
  19.200   1.0336   0.27613   0.27301  -0.1446  0.0392  1.0000  -1.9528   0.0000   0.0000   0.0000   0.3658
  19.300   1.0335   0.27851   0.27539  -0.1452  0.0388  1.0000  -1.9440   0.0000   0.0000   0.0000   0.3662
  19.400   1.0333   0.28085   0.27774  -0.1458  0.0384  1.0000  -1.9363   0.0000   0.0000   0.0000   0.3667
  19.500   1.0331   0.28315   0.28004  -0.1463  0.0380  1.0000  -1.9298   0.0000   0.0000   0.0000   0.3671
  19.600   1.0328   0.28540   0.28230  -0.1468  0.0377  1.0000  -1.9245   0.0000   0.0000   0.0000   0.3675
  19.700   1.0324   0.28761   0.28452  -0.1473  0.0373  1.0000  -1.9201   0.0000   0.0000   0.0000   0.3678
  19.800   1.0319   0.28976   0.28669  -0.1477  0.0370  1.0000  -1.9167   0.0000   0.0000   0.0000   0.3681
  19.900   1.0313   0.29187   0.28880  -0.1481  0.0366  1.0000  -1.9142   0.0000   0.0000   0.0000   0.3684
  20.000   1.0305   0.29391   0.29086  -0.1484  0.0363  1.0000  -1.9171   0.0000   0.0000   0.0000   0.3687
  20.100   1.0295   0.29589   0.29285  -0.1486  0.0360  1.0000  -1.9262   0.0000   0.0000   0.0000   0.3689
  20.200   1.0282   0.29779   0.29476  -0.1488  0.0357  1.0000  -1.9359   0.0000   0.0000   0.0000   0.3691
  20.300   1.0266   0.29960   0.29659  -0.1489  0.0354  1.0000  -1.9459   0.0000   0.0000   0.0000   0.3693
  20.400   1.0245   0.30129   0.29829  -0.1489  0.0351  1.0000  -1.9562   0.0000   0.0000   0.0000   0.3694
  20.500   1.0218   0.30282   0.29984  -0.1488  0.0348  1.0000  -1.9656   0.0000   0.0000   0.0000   0.3696
  20.700   0.9680   0.29667   0.29382  -0.1438  0.0348  1.0000  -1.8014   0.0000   0.0000   0.0000   0.3731
  20.800   0.9613   0.29643   0.29361  -0.1431  0.0346  1.0000  -1.7969   0.0000   0.0000   0.0000   0.3734
  20.900   0.9563   0.29643   0.29363  -0.1426  0.0343  1.0000  -1.8003   0.0000   0.0000   0.0000   0.3736
  21.000   0.9525   0.29658   0.29381  -0.1421  0.0341  1.0000  -1.8103   0.0000   0.0000   0.0000   0.3735
  21.100   0.9498   0.29691   0.29416  -0.1416  0.0338  1.0000  -1.8271   0.0000   0.0000   0.0000   0.3733
  21.200   0.9470   0.29736   0.29463  -0.1410  0.0335  1.0000  -1.8414   0.0000   0.0000   0.0000   0.3731
  21.300   0.9433   0.29805   0.29534  -0.1405  0.0331  1.0000  -1.8471   0.0000   0.0000   0.0000   0.3730
  21.400   0.9260   0.30110   0.29837  -0.1397  0.0321  1.0000  -1.7174   0.0000   0.0000   0.0000   0.3752
  21.500   0.9230   0.30173   0.29901  -0.1399  0.0321  1.0000  -1.7043   0.0000   0.0000   0.0000   0.3758
  21.600   0.9201   0.30238   0.29968  -0.1401  0.0321  1.0000  -1.6917   0.0000   0.0000   0.0000   0.3764
  21.700   0.9175   0.30305   0.30035  -0.1403  0.0321  1.0000  -1.6797   0.0000   0.0000   0.0000   0.3770
  21.800   0.9150   0.30372   0.30103  -0.1405  0.0321  1.0000  -1.6681   0.0000   0.0000   0.0000   0.3776
  21.900   0.9126   0.30439   0.30172  -0.1408  0.0321  1.0000  -1.6569   0.0000   0.0000   0.0000   0.3782
  22.000   0.9103   0.30506   0.30240  -0.1410  0.0321  1.0000  -1.6459   0.0000   0.0000   0.0000   0.3787
  22.100   0.9081   0.30573   0.30308  -0.1413  0.0320  1.0000  -1.6352   0.0000   0.0000   0.0000   0.3793
  22.200   0.9061   0.30640   0.30376  -0.1416  0.0320  1.0000  -1.6247   0.0000   0.0000   0.0000   0.3799
  22.300   0.9041   0.30706   0.30443  -0.1419  0.0320  1.0000  -1.6144   0.0000   0.0000   0.0000   0.3804
  22.400   0.9023   0.30773   0.30511  -0.1422  0.0320  1.0000  -1.6042   0.0000   0.0000   0.0000   0.3810
  22.500   0.9005   0.30839   0.30578  -0.1425  0.0319  1.0000  -1.5942   0.0000   0.0000   0.0000   0.3815
  22.600   0.8987   0.30903   0.30643  -0.1428  0.0319  1.0000  -1.5841   0.0000   0.0000   0.0000   0.3821
  22.700   0.8970   0.30966   0.30707  -0.1431  0.0319  1.0000  -1.5740   0.0000   0.0000   0.0000   0.3826
  22.800   0.8954   0.31029   0.30771  -0.1435  0.0319  1.0000  -1.5639   0.0000   0.0000   0.0000   0.3832
  22.900   0.8939   0.31091   0.30834  -0.1438  0.0318  1.0000  -1.5538   0.0000   0.0000   0.0000   0.3837
  23.000   0.8923   0.31150   0.30894  -0.1442  0.0318  1.0000  -1.5435   0.0000   0.0000   0.0000   0.3843
  23.100   0.8908   0.31208   0.30953  -0.1446  0.0317  1.0000  -1.5328   0.0000   0.0000   0.0000   0.3849
  23.200   0.8894   0.31264   0.31010  -0.1450  0.0317  1.0000  -1.5220   0.0000   0.0000   0.0000   0.3854
  23.300   0.8879   0.31316   0.31063  -0.1454  0.0316  1.0000  -1.5100   0.0000   0.0000   0.0000   0.3861
  23.400   0.8859   0.31359   0.31106  -0.1459  0.0315  1.0000  -1.4927   0.0000   0.0000   0.0000   0.3869
  23.500   0.8838   0.31399   0.31147  -0.1464  0.0314  1.0000  -1.4737   0.0000   0.0000   0.0000   0.3878
  23.600   0.8818   0.31441   0.31189  -0.1470  0.0313  1.0000  -1.4539   0.0000   0.0000   0.0000   0.3887
  23.700   0.8800   0.31486   0.31235  -0.1476  0.0311  1.0000  -1.4329   0.0000   0.0000   0.0000   0.3896
  23.800   0.8784   0.31538   0.31288  -0.1484  0.0309  1.0000  -1.4103   0.0000   0.0000   0.0000   0.3906
  23.900   0.8771   0.31602   0.31352  -0.1491  0.0306  1.0000  -1.3860   0.0000   0.0000   0.0000   0.3916
  24.000   0.8761   0.31683   0.31434  -0.1500  0.0301  1.0000  -1.3609   0.0000   0.0000   0.0000   0.3926
  24.100   0.8755   0.31775   0.31527  -0.1507  0.0295  1.0000  -1.3383   0.0000   0.0000   0.0000   0.3934
  24.200   0.8750   0.31868   0.31620  -0.1513  0.0289  1.0000  -1.3198   0.0000   0.0000   0.0000   0.3941
  24.300   0.8744   0.31956   0.31709  -0.1518  0.0283  1.0000  -1.3047   0.0000   0.0000   0.0000   0.3946
  24.400   0.8738   0.32041   0.31795  -0.1522  0.0277  1.0000  -1.2918   0.0000   0.0000   0.0000   0.3950
  24.500   0.8733   0.32123   0.31877  -0.1526  0.0271  1.0000  -1.2803   0.0000   0.0000   0.0000   0.3955
  24.600   0.8728   0.32202   0.31958  -0.1530  0.0265  1.0000  -1.2700   0.0000   0.0000   0.0000   0.3958
  24.700   0.8723   0.32279   0.32035  -0.1533  0.0258  1.0000  -1.2612   0.0000   0.0000   0.0000   0.3962
  24.800   0.8718   0.32353   0.32110  -0.1537  0.0250  1.0000  -1.2546   0.0000   0.0000   0.0000   0.3965
  24.900   0.8714   0.32423   0.32181  -0.1540  0.0242  1.0000  -1.2509   0.0000   0.0000   0.0000   0.3968
  25.000   0.8711   0.32488   0.32246  -0.1543  0.0234  1.0000  -1.2508   0.0000   0.0000   0.0000   0.3971
  25.100   0.8709   0.32546   0.32305  -0.1546  0.0225  1.0000  -1.2549   0.0000   0.0000   0.0000   0.3972
  25.200   0.8707   0.32597   0.32358  -0.1548  0.0218  1.0000  -1.2632   0.0000   0.0000   0.0000   0.3973
  25.300   0.8707   0.32643   0.32404  -0.1551  0.0211  1.0000  -1.2755   0.0000   0.0000   0.0000   0.3974
  25.400   0.8707   0.32683   0.32446  -0.1552  0.0205  1.0000  -1.2908   0.0000   0.0000   0.0000   0.3974
  25.500   0.8707   0.32723   0.32486  -0.1553  0.0200  1.0000  -1.3068   0.0000   0.0000   0.0000   0.3973
  25.600   0.8706   0.32767   0.32539  -0.1555  0.0197  1.0000  -1.3189   0.0000   0.0000   0.0000   0.3973
  25.700   0.8706   0.32815   0.32587  -0.1556  0.0194  1.0000  -1.3301   0.0000   0.0000   0.0000   0.3972
  25.800   0.8706   0.32861   0.32635  -0.1556  0.0191  1.0000  -1.3445   0.0000   0.0000   0.0000   0.3970
  25.900   0.8708   0.32910   0.32685  -0.1556  0.0189  1.0000  -1.3624   0.0000   0.0000   0.0000   0.3967
  26.000   0.8713   0.32972   0.32749  -0.1554  0.0186  1.0000  -1.3843   0.0000   0.0000   0.0000   0.3962
  26.100   0.8724   0.33091   0.32869  -0.1549  0.0182  1.0000  -1.4113   0.0000   0.0000   0.0000   0.3952
  26.200   0.8691   0.33478   0.33252  -0.1545  0.0177  1.0000  -1.3308   0.0000   0.0000   0.0000   0.3955
  26.300   0.8686   0.33556   0.33330  -0.1549  0.0177  1.0000  -1.3165   0.0000   0.0000   0.0000   0.3959
  26.400   0.8681   0.33632   0.33408  -0.1553  0.0176  1.0000  -1.3026   0.0000   0.0000   0.0000   0.3963
  26.500   0.8676   0.33709   0.33485  -0.1557  0.0176  1.0000  -1.2891   0.0000   0.0000   0.0000   0.3966
  26.600   0.8671   0.33786   0.33562  -0.1561  0.0176  1.0000  -1.2759   0.0000   0.0000   0.0000   0.3970
  26.700   0.8666   0.33862   0.33639  -0.1565  0.0176  1.0000  -1.2630   0.0000   0.0000   0.0000   0.3974
  26.800   0.8662   0.33937   0.33715  -0.1568  0.0176  1.0000  -1.2504   0.0000   0.0000   0.0000   0.3977
  26.900   0.8657   0.34011   0.33789  -0.1572  0.0176  1.0000  -1.2378   0.0000   0.0000   0.0000   0.3981
  27.000   0.8653   0.34084   0.33863  -0.1576  0.0176  1.0000  -1.2255   0.0000   0.0000   0.0000   0.3985
  27.100   0.8648   0.34158   0.33937  -0.1580  0.0176  1.0000  -1.2135   0.0000   0.0000   0.0000   0.3988
  27.200   0.8644   0.34230   0.34011  -0.1584  0.0175  1.0000  -1.2018   0.0000   0.0000   0.0000   0.3992
  27.300   0.8640   0.34303   0.34084  -0.1589  0.0175  1.0000  -1.1903   0.0000   0.0000   0.0000   0.3996
  27.400   0.8636   0.34375   0.34156  -0.1593  0.0175  1.0000  -1.1791   0.0000   0.0000   0.0000   0.3999
  27.500   0.8632   0.34446   0.34229  -0.1597  0.0175  1.0000  -1.1681   0.0000   0.0000   0.0000   0.4003
  27.600   0.8628   0.34517   0.34300  -0.1601  0.0175  1.0000  -1.1571   0.0000   0.0000   0.0000   0.4007
  27.700   0.8624   0.34587   0.34370  -0.1605  0.0174  1.0000  -1.1459   0.0000   0.0000   0.0000   0.4011


