xflr5 v6.61

 Calculated polar for: EPPLER E852 AIRFOIL

 1 1 Reynolds number fixed          Mach number fixed         

 xtrf =   1.000 (top)        1.000 (bottom)
 Mach =   0.000     Re =     0.200 e 6     Ncrit =   9.000

  alpha     CL        CD       CDp       Cm    Top Xtr Bot Xtr   Cpmin    Chinge    XCp    
 ------- -------- --------- --------- -------- ------- ------- -------- --------- ---------
 -10.000  -0.4130   0.10744   0.10388  -0.0402  1.0000  0.0382  -1.9814   0.0000   0.0000   0.0000   0.1441
  -9.900  -0.4132   0.10614   0.10260  -0.0409  1.0000  0.0388  -2.0065   0.0000   0.0000   0.0000   0.1427
  -9.800  -0.4134   0.10490   0.10138  -0.0416  1.0000  0.0394  -2.0331   0.0000   0.0000   0.0000   0.1412
  -9.700  -0.4137   0.10374   0.10024  -0.0424  1.0000  0.0400  -2.0619   0.0000   0.0000   0.0000   0.1395
  -9.600  -0.4135   0.10275   0.09926  -0.0432  1.0000  0.0407  -2.0870   0.0000   0.0000   0.0000   0.1376
  -9.500  -0.4128   0.10185   0.09839  -0.0439  1.0000  0.0412  -2.1052   0.0000   0.0000   0.0000   0.1358
  -9.400  -0.4127   0.10079   0.09735  -0.0445  1.0000  0.0415  -2.1239   0.0000   0.0000   0.0000   0.1344
  -9.300  -0.4130   0.09960   0.09618  -0.0450  1.0000  0.0416  -2.1438   0.0000   0.0000   0.0000   0.1333
  -9.200  -0.4137   0.09834   0.09494  -0.0455  1.0000  0.0418  -2.1646   0.0000   0.0000   0.0000   0.1325
  -9.100  -0.4147   0.09703   0.09365  -0.0460  1.0000  0.0418  -2.1864   0.0000   0.0000   0.0000   0.1318
  -9.000  -0.4160   0.09569   0.09234  -0.0464  1.0000  0.0419  -2.2092   0.0000   0.0000   0.0000   0.1313
  -8.900  -0.4177   0.09433   0.09100  -0.0468  1.0000  0.0420  -2.2329   0.0000   0.0000   0.0000   0.1309
  -8.800  -0.4196   0.09295   0.08964  -0.0472  1.0000  0.0420  -2.2578   0.0000   0.0000   0.0000   0.1307
  -8.700  -0.4220   0.09156   0.08828  -0.0475  1.0000  0.0420  -2.2839   0.0000   0.0000   0.0000   0.1306
  -8.600  -0.4249   0.09017   0.08691  -0.0478  1.0000  0.0421  -2.3113   0.0000   0.0000   0.0000   0.1308
  -8.500  -0.4285   0.08878   0.08556  -0.0481  1.0000  0.0421  -2.3403   0.0000   0.0000   0.0000   0.1313
  -8.400  -0.4329   0.08742   0.08423  -0.0483  1.0000  0.0421  -2.3709   0.0000   0.0000   0.0000   0.1322
  -8.300  -0.4384   0.08613   0.08297  -0.0483  1.0000  0.0421  -2.4028   0.0000   0.0000   0.0000   0.1336
  -8.200  -0.4452   0.08501   0.08187  -0.0481  1.0000  0.0421  -2.4337   0.0000   0.0000   0.0000   0.1360
  -8.100  -0.4534   0.08412   0.08102  -0.0474  1.0000  0.0421  -2.4617   0.0000   0.0000   0.0000   0.1396
  -8.000  -0.4629   0.08346   0.08039  -0.0464  1.0000  0.0421  -2.4873   0.0000   0.0000   0.0000   0.1443
  -7.900  -0.4731   0.08290   0.07986  -0.0451  1.0000  0.0421  -2.5114   0.0000   0.0000   0.0000   0.1492
  -7.800  -0.4823   0.08218   0.07917  -0.0444  1.0000  0.0421  -2.5363   0.0000   0.0000   0.0000   0.1528
  -7.700  -0.4906   0.08134   0.07834  -0.0439  1.0000  0.0421  -2.5613   0.0000   0.0000   0.0000   0.1554
  -7.600  -0.4985   0.08050   0.07751  -0.0435  1.0000  0.0421  -2.5851   0.0000   0.0000   0.0000   0.1580
  -7.500  -0.5058   0.07966   0.07667  -0.0428  1.0000  0.0421  -2.6074   0.0000   0.0000   0.0000   0.1606
  -7.400  -0.5026   0.07746   0.07441  -0.0458  0.9983  0.0421  -2.6387   0.0000   0.0000   0.0000   0.1542
  -7.300  -0.4952   0.07484   0.07170  -0.0498  0.9959  0.0422  -2.6703   0.0000   0.0000   0.0000   0.1447
  -7.200  -0.4888   0.07245   0.06923  -0.0530  0.9933  0.0422  -2.6968   0.0000   0.0000   0.0000   0.1368
  -7.100  -0.4817   0.07010   0.06679  -0.0561  0.9909  0.0423  -2.7201   0.0000   0.0000   0.0000   0.1290
  -7.000  -0.4737   0.06775   0.06434  -0.0590  0.9888  0.0423  -2.7406   0.0000   0.0000   0.0000   0.1209
  -6.900  -0.4809   0.06013   0.05660  -0.0641  0.9860  0.0435  -2.9368   0.0000   0.0000   0.0000   0.1120
  -6.800  -0.4807   0.05611   0.05252  -0.0663  0.9830  0.0445  -2.9865   0.0000   0.0000   0.0000   0.1076
  -6.700  -0.4752   0.05353   0.04989  -0.0679  0.9807  0.0455  -2.9782   0.0000   0.0000   0.0000   0.1026
  -6.600  -0.4669   0.05163   0.04797  -0.0691  0.9789  0.0464  -2.9429   0.0000   0.0000   0.0000   0.0974
  -6.500  -0.4572   0.04997   0.04629  -0.0703  0.9774  0.0473  -2.9003   0.0000   0.0000   0.0000   0.0916
  -6.400  -0.4467   0.04832   0.04459  -0.0719  0.9759  0.0483  -2.8614   0.0000   0.0000   0.0000   0.0846
  -6.300  -0.4353   0.04665   0.04285  -0.0736  0.9746  0.0494  -2.8266   0.0000   0.0000   0.0000   0.0764
  -6.200  -0.4229   0.04495   0.04106  -0.0754  0.9734  0.0507  -2.7960   0.0000   0.0000   0.0000   0.0671
  -6.100  -0.4139   0.04348   0.03949  -0.0763  0.9710  0.0519  -2.7752   0.0000   0.0000   0.0000   0.0610
  -5.800  -0.3810   0.03662   0.03187  -0.0785  0.9628  0.0376  -3.0388   0.0000   0.0000   0.0000   0.0390
  -5.600  -0.3529   0.03065   0.02497  -0.0798  0.9598  0.0252  -3.4532   0.0000   0.0000   0.0000   0.0185
  -5.400  -0.3247   0.02897   0.02310  -0.0811  0.9577  0.0234  -3.3572   0.0000   0.0000   0.0000  -0.0053
  -5.300  -0.3119   0.02694   0.02083  -0.0820  0.9569  0.0230  -3.3885   0.0000   0.0000   0.0000  -0.0186
  -5.200  -0.2981   0.02545   0.01915  -0.0828  0.9561  0.0229  -3.3848   0.0000   0.0000   0.0000  -0.0335
  -5.100  -0.2839   0.02422   0.01774  -0.0835  0.9554  0.0229  -3.3647   0.0000   0.0000   0.0000  -0.0501
  -5.000  -0.2694   0.02320   0.01656  -0.0842  0.9547  0.0231  -3.3303   0.0000   0.0000   0.0000  -0.0688
  -4.900  -0.2545   0.02239   0.01562  -0.0850  0.9541  0.0235  -3.2787   0.0000   0.0000   0.0000  -0.0901
  -4.800  -0.2435   0.02196   0.01509  -0.0849  0.9524  0.0239  -3.2145   0.0000   0.0000   0.0000  -0.1050
  -4.700  -0.2366   0.02024   0.01322  -0.0843  0.9502  0.0252  -3.2680   0.0000   0.0000   0.0000  -0.1125
  -4.600  -0.2277   0.01900   0.01193  -0.0841  0.9483  0.0285  -3.2500   0.0000   0.0000   0.0000  -0.1261
  -4.500  -0.2170   0.01859   0.01152  -0.0843  0.9462  0.0316  -3.1570   0.0000   0.0000   0.0000  -0.1449
  -4.400  -0.2051   0.01803   0.01092  -0.0844  0.9445  0.0340  -3.1032   0.0000   0.0000   0.0000  -0.1683
  -4.300  -0.1925   0.01749   0.01024  -0.0846  0.9430  0.0374  -3.0506   0.0000   0.0000   0.0000  -0.1968
  -4.200  -0.1795   0.01710   0.00979  -0.0850  0.9415  0.0412  -2.9993   0.0000   0.0000   0.0000  -0.2309
  -4.100  -0.1666   0.01622   0.00893  -0.0857  0.9403  0.0523  -2.9677   0.0000   0.0000   0.0000  -0.2720
  -4.000  -0.1528   0.01588   0.00855  -0.0863  0.9391  0.0629  -2.8905   0.0000   0.0000   0.0000  -0.3229
  -3.900  -0.1386   0.01515   0.00786  -0.0872  0.9380  0.0847  -2.8277   0.0000   0.0000   0.0000  -0.3874
  -3.800  -0.1245   0.01422   0.00731  -0.0884  0.9372  0.1677  -2.7375   0.0000   0.0000   0.0000  -0.4691
  -3.700  -0.1122   0.01306   0.00722  -0.0898  0.9366  0.3998  -2.6122   0.0000   0.0000   0.0000  -0.5603
  -3.600  -0.0988   0.01295   0.00730  -0.0903  0.9355  0.4649  -2.4673   0.0000   0.0000   0.0000  -0.6740
  -3.500  -0.0844   0.01298   0.00726  -0.0909  0.9344  0.4909  -2.3159   0.0000   0.0000   0.0000  -0.8396
  -3.400  -0.0706   0.01293   0.00729  -0.0914  0.9335  0.5118  -2.1681   0.0000   0.0000   0.0000  -1.0585
  -3.300  -0.0561   0.01298   0.00730  -0.0920  0.9326  0.5312  -2.0175   0.0000   0.0000   0.0000  -1.4059
  -3.200  -0.0414   0.01304   0.00730  -0.0927  0.9318  0.5464  -1.8677   0.0000   0.0000   0.0000  -2.0118
  -3.100  -0.0274   0.01301   0.00734  -0.0932  0.9311  0.5613  -1.7242   0.0000   0.0000   0.0000  -3.1840
  -3.000  -0.0128   0.01305   0.00737  -0.0938  0.9304  0.5736  -1.5803   0.0000   0.0000   0.0000  -7.1254
  -2.900   0.0022   0.01311   0.00739  -0.0945  0.9298  0.5839  -1.4372   0.0000   0.0000   0.0000  42.6766
  -2.800   0.0020   0.01325   0.00749  -0.0923  0.9252  0.5886  -1.3801   0.0000   0.0000   0.0000  46.2987
  -2.700   0.0104   0.01334   0.00752  -0.0918  0.9222  0.5935  -1.2774   0.0000   0.0000   0.0000   9.1287
  -2.600   0.0209   0.01329   0.00745  -0.0917  0.9199  0.6010  -1.1664   0.0000   0.0000   0.0000   4.6777
  -2.500   0.0321   0.01323   0.00742  -0.0917  0.9178  0.6090  -1.0522   0.0000   0.0000   0.0000   3.1257
  -2.400   0.0441   0.01322   0.00738  -0.0918  0.9159  0.6170  -0.9335   0.0000   0.0000   0.0000   2.3473
  -2.300   0.0566   0.01325   0.00740  -0.0920  0.9143  0.6260  -0.8192   0.0000   0.0000   0.0000   1.8862
  -2.200   0.0696   0.01329   0.00743  -0.0923  0.9128  0.6354  -0.7058   0.0000   0.0000   0.0000   1.5843
  -2.100   0.0831   0.01335   0.00745  -0.0927  0.9115  0.6433  -0.6420   0.0000   0.0000   0.0000   1.3726
  -2.000   0.0967   0.01338   0.00744  -0.0932  0.9103  0.6496  -0.5921   0.0000   0.0000   0.0000   1.2186
  -1.900   0.1102   0.01325   0.00733  -0.0936  0.9094  0.6583  -0.5440   0.0000   0.0000   0.0000   1.1046
  -1.800   0.1239   0.01319   0.00729  -0.0942  0.9084  0.6643  -0.4991   0.0000   0.0000   0.0000   1.0136
  -1.700   0.1381   0.01316   0.00724  -0.0948  0.9076  0.6693  -0.4558   0.0000   0.0000   0.0000   0.9395
  -1.600   0.1525   0.01313   0.00720  -0.0954  0.9068  0.6741  -0.4128   0.0000   0.0000   0.0000   0.8785
  -1.500   0.1671   0.01310   0.00716  -0.0962  0.9060  0.6789  -0.3934   0.0000   0.0000   0.0000   0.8278
  -1.400   0.1816   0.01308   0.00712  -0.0969  0.9052  0.6837  -0.3990   0.0000   0.0000   0.0000   0.7854
  -1.300   0.1962   0.01306   0.00705  -0.0976  0.9044  0.6882  -0.4046   0.0000   0.0000   0.0000   0.7493
  -1.200   0.2109   0.01305   0.00701  -0.0984  0.9036  0.6922  -0.4103   0.0000   0.0000   0.0000   0.7180
  -1.100   0.2258   0.01304   0.00697  -0.0992  0.9028  0.6957  -0.4165   0.0000   0.0000   0.0000   0.6907
  -1.000   0.2407   0.01304   0.00695  -0.1001  0.9020  0.6986  -0.4228   0.0000   0.0000   0.0000   0.6668
  -0.900   0.2553   0.01301   0.00690  -0.1009  0.9012  0.7028  -0.4290   0.0000   0.0000   0.0000   0.6459
  -0.800   0.2575   0.01309   0.00701  -0.0993  0.8977  0.7077  -0.4287   0.0000   0.0000   0.0000   0.6363
  -0.700   0.2622   0.01317   0.00711  -0.0982  0.8945  0.7122  -0.4297   0.0000   0.0000   0.0000   0.6249
  -0.600   0.2696   0.01322   0.00718  -0.0976  0.8918  0.7167  -0.4321   0.0000   0.0000   0.0000   0.6122
  -0.500   0.2788   0.01326   0.00723  -0.0973  0.8896  0.7213  -0.4355   0.0000   0.0000   0.0000   0.5990
  -0.400   0.2892   0.01328   0.00727  -0.0972  0.8876  0.7261  -0.4395   0.0000   0.0000   0.0000   0.5861
  -0.300   0.3006   0.01329   0.00729  -0.0973  0.8858  0.7313  -0.4441   0.0000   0.0000   0.0000   0.5736
  -0.200   0.3128   0.01329   0.00728  -0.0975  0.8840  0.7367  -0.4497   0.0000   0.0000   0.0000   0.5617
  -0.100   0.3257   0.01328   0.00727  -0.0979  0.8824  0.7421  -0.4557   0.0000   0.0000   0.0000   0.5504
   0.000   0.3391   0.01326   0.00724  -0.0984  0.8809  0.7469  -0.4619   0.0000   0.0000   0.0000   0.5398
   0.100   0.3527   0.01321   0.00720  -0.0989  0.8795  0.7519  -0.4683   0.0000   0.0000   0.0000   0.5300
   0.200   0.3657   0.01312   0.00714  -0.0993  0.8781  0.7586  -0.4745   0.0000   0.0000   0.0000   0.5209
   0.300   0.3785   0.01306   0.00712  -0.0996  0.8768  0.7645  -0.4805   0.0000   0.0000   0.0000   0.5124
   0.400   0.3913   0.01302   0.00712  -0.0999  0.8757  0.7705  -0.4866   0.0000   0.0000   0.0000   0.5045
   0.500   0.4043   0.01300   0.00712  -0.1002  0.8746  0.7767  -0.4929   0.0000   0.0000   0.0000   0.4971
   0.600   0.4177   0.01299   0.00712  -0.1007  0.8735  0.7830  -0.4997   0.0000   0.0000   0.0000   0.4902
   0.700   0.4314   0.01297   0.00712  -0.1013  0.8724  0.7894  -0.5068   0.0000   0.0000   0.0000   0.4837
   0.800   0.4456   0.01297   0.00712  -0.1019  0.8713  0.7954  -0.5144   0.0000   0.0000   0.0000   0.4776
   0.900   0.4591   0.01293   0.00713  -0.1023  0.8700  0.8023  -0.5222   0.0000   0.0000   0.0000   0.4717
   1.000   0.4718   0.01294   0.00719  -0.1026  0.8685  0.8098  -0.5297   0.0000   0.0000   0.0000   0.4662
   1.100   0.4774   0.01301   0.00732  -0.1015  0.8659  0.8180  -0.5341   0.0000   0.0000   0.0000   0.4613
   1.200   0.4819   0.01310   0.00745  -0.1003  0.8627  0.8271  -0.5384   0.0000   0.0000   0.0000   0.4567
   1.300   0.4884   0.01319   0.00757  -0.0995  0.8597  0.8364  -0.5445   0.0000   0.0000   0.0000   0.4522
   1.400   0.4956   0.01324   0.00766  -0.0987  0.8569  0.8460  -0.5518   0.0000   0.0000   0.0000   0.4477
   1.500   0.5027   0.01324   0.00773  -0.0978  0.8542  0.8573  -0.5612   0.0000   0.0000   0.0000   0.4430
   1.600   0.5114   0.01322   0.00776  -0.0973  0.8516  0.8704  -0.5747   0.0000   0.0000   0.0000   0.4385
   1.700   0.5213   0.01318   0.00776  -0.0969  0.8493  0.8843  -0.5948   0.0000   0.0000   0.0000   0.4341
   1.800   0.5312   0.01308   0.00773  -0.0964  0.8470  0.9016  -0.6151   0.0000   0.0000   0.0000   0.4297
   1.900   0.5432   0.01297   0.00767  -0.0964  0.8450  0.9222  -0.6378   0.0000   0.0000   0.0000   0.4255
   2.000   0.5602   0.01284   0.00760  -0.0974  0.8434  0.9484  -0.6655   0.0000   0.0000   0.0000   0.4219
   2.100   0.5824   0.01269   0.00752  -0.0997  0.8419  1.0000  -0.7028   0.0000   0.0000   0.0000   0.4191
   2.200   0.5988   0.01261   0.00745  -0.1008  0.8400  1.0000  -0.7378   0.0000   0.0000   0.0000   0.4162
   2.300   0.6154   0.01251   0.00736  -0.1018  0.8380  1.0000  -0.7735   0.0000   0.0000   0.0000   0.4133
   2.400   0.6319   0.01244   0.00729  -0.1028  0.8358  1.0000  -0.8170   0.0000   0.0000   0.0000   0.4105
   2.500   0.6480   0.01241   0.00727  -0.1037  0.8332  1.0000  -0.8649   0.0000   0.0000   0.0000   0.4077
   2.600   0.6590   0.01247   0.00735  -0.1037  0.8298  1.0000  -0.9041   0.0000   0.0000   0.0000   0.4050
   2.700   0.6663   0.01251   0.00740  -0.1031  0.8257  1.0000  -0.9366   0.0000   0.0000   0.0000   0.4022
   2.800   0.6750   0.01250   0.00742  -0.1026  0.8211  1.0000  -0.9722   0.0000   0.0000   0.0000   0.3994
   2.900   0.6859   0.01241   0.00735  -0.1024  0.8160  1.0000  -1.0127   0.0000   0.0000   0.0000   0.3966
   3.000   0.6993   0.01223   0.00718  -0.1025  0.8108  1.0000  -1.0621   0.0000   0.0000   0.0000   0.3938
   3.100   0.7146   0.01196   0.00693  -0.1029  0.8054  1.0000  -1.1291   0.0000   0.0000   0.0000   0.3911
   3.200   0.7313   0.01166   0.00667  -0.1034  0.7994  1.0000  -1.2009   0.0000   0.0000   0.0000   0.3885
   3.300   0.7476   0.01153   0.00652  -0.1039  0.7930  1.0000  -1.3538   0.0000   0.0000   0.0000   0.3861
   3.400   0.7564   0.01151   0.00654  -0.1034  0.7879  1.0000  -1.4658   0.0000   0.0000   0.0000   0.3836
   3.500   0.7649   0.01148   0.00655  -0.1027  0.7826  1.0000  -1.5775   0.0000   0.0000   0.0000   0.3812
   3.600   0.7748   0.01143   0.00654  -0.1023  0.7768  1.0000  -1.7001   0.0000   0.0000   0.0000   0.3789
   3.700   0.7859   0.01134   0.00649  -0.1021  0.7707  1.0000  -1.8329   0.0000   0.0000   0.0000   0.3767
   3.800   0.7980   0.01121   0.00637  -0.1020  0.7641  1.0000  -1.9755   0.0000   0.0000   0.0000   0.3745
   3.900   0.8114   0.01107   0.00623  -0.1021  0.7570  1.0000  -2.1294   0.0000   0.0000   0.0000   0.3723
   4.000   0.8257   0.01101   0.00615  -0.1023  0.7487  1.0000  -2.2917   0.0000   0.0000   0.0000   0.3704
   4.100   0.8328   0.01097   0.00618  -0.1014  0.7416  1.0000  -2.4093   0.0000   0.0000   0.0000   0.3681
   4.200   0.8411   0.01089   0.00615  -0.1006  0.7315  1.0000  -2.5375   0.0000   0.0000   0.0000   0.3659
   4.300   0.8517   0.01077   0.00603  -0.1001  0.7192  1.0000  -2.6834   0.0000   0.0000   0.0000   0.3637
   4.400   0.8647   0.01068   0.00588  -0.1001  0.7065  1.0000  -2.8487   0.0000   0.0000   0.0000   0.3618
   4.500   0.8726   0.01068   0.00596  -0.0993  0.6963  1.0000  -2.9785   0.0000   0.0000   0.0000   0.3598
   4.600   0.8808   0.01066   0.00598  -0.0985  0.6806  1.0000  -3.1125   0.0000   0.0000   0.0000   0.3577
   4.700   0.8909   0.01061   0.00583  -0.0979  0.6577  1.0000  -3.2639   0.0000   0.0000   0.0000   0.3557
   4.800   0.8975   0.01064   0.00582  -0.0967  0.6244  1.0000  -3.3907   0.0000   0.0000   0.0000   0.3534
   4.900   0.9027   0.01081   0.00570  -0.0951  0.5669  1.0000  -3.5103   0.0000   0.0000   0.0000   0.3510
   5.000   0.9032   0.01130   0.00574  -0.0928  0.4860  1.0000  -3.5970   0.0000   0.0000   0.0000   0.3483
   5.100   0.9013   0.01200   0.00598  -0.0904  0.4107  1.0000  -3.6642   0.0000   0.0000   0.0000   0.3457
   5.200   0.9001   0.01276   0.00634  -0.0882  0.3381  1.0000  -3.7346   0.0000   0.0000   0.0000   0.3433
   5.300   0.8993   0.01355   0.00680  -0.0863  0.2698  1.0000  -3.8049   0.0000   0.0000   0.0000   0.3412
   5.400   0.8993   0.01438   0.00723  -0.0846  0.2029  1.0000  -3.8783   0.0000   0.0000   0.0000   0.3392
   5.500   0.9005   0.01517   0.00769  -0.0831  0.1473  1.0000  -3.9563   0.0000   0.0000   0.0000   0.3373
   5.600   0.9030   0.01592   0.00818  -0.0817  0.1089  1.0000  -4.0337   0.0000   0.0000   0.0000   0.3354
   5.700   0.9067   0.01659   0.00872  -0.0804  0.0852  1.0000  -4.1076   0.0000   0.0000   0.0000   0.3336
   5.800   0.9090   0.01740   0.00939  -0.0790  0.0679  1.0000  -4.1636   0.0000   0.0000   0.0000   0.3316
   5.900   0.9167   0.01774   0.00976  -0.0783  0.0598  1.0000  -4.2660   0.0000   0.0000   0.0000   0.3301
   6.000   0.9224   0.01825   0.01025  -0.0774  0.0517  1.0000  -4.3457   0.0000   0.0000   0.0000   0.3285
   6.100   0.9227   0.01940   0.01138  -0.0755  0.0436  1.0000  -4.3380   0.0000   0.0000   0.0000   0.3263
   6.200   0.9333   0.01941   0.01141  -0.0754  0.0380  1.0000  -4.4665   0.0000   0.0000   0.0000   0.3252
   6.300   0.9399   0.01989   0.01190  -0.0746  0.0331  1.0000  -4.5199   0.0000   0.0000   0.0000   0.3237
   6.400   0.9441   0.02072   0.01272  -0.0734  0.0295  1.0000  -4.5520   0.0000   0.0000   0.0000   0.3219
   6.500   0.9471   0.02263   0.01470  -0.0719  0.0264  1.0000  -4.4875   0.0000   0.0000   0.0000   0.3200
   6.600   0.9567   0.02355   0.01568  -0.0714  0.0253  1.0000  -4.5352   0.0000   0.0000   0.0000   0.3187
   6.700   0.9664   0.02403   0.01627  -0.0710  0.0241  1.0000  -4.6121   0.0000   0.0000   0.0000   0.3174
   6.800   0.9756   0.02439   0.01668  -0.0707  0.0222  1.0000  -4.7168   0.0000   0.0000   0.0000   0.3162
   6.900   0.9844   0.02477   0.01709  -0.0703  0.0202  1.0000  -4.8306   0.0000   0.0000   0.0000   0.3151
   7.000   0.9938   0.02544   0.01781  -0.0699  0.0189  1.0000  -4.9169   0.0000   0.0000   0.0000   0.3140
   7.100   1.0042   0.02636   0.01881  -0.0697  0.0181  1.0000  -4.9789   0.0000   0.0000   0.0000   0.3129
   7.200   1.0148   0.02736   0.01989  -0.0694  0.0176  1.0000  -5.0392   0.0000   0.0000   0.0000   0.3118
   7.300   1.0255   0.02845   0.02108  -0.0692  0.0172  1.0000  -5.0948   0.0000   0.0000   0.0000   0.3108
   7.400   1.0361   0.02964   0.02239  -0.0690  0.0169  1.0000  -5.1418   0.0000   0.0000   0.0000   0.3097
   7.500   1.0464   0.03094   0.02383  -0.0686  0.0168  1.0000  -5.1768   0.0000   0.0000   0.0000   0.3087
   7.600   1.0561   0.03237   0.02542  -0.0682  0.0168  1.0000  -5.1965   0.0000   0.0000   0.0000   0.3075
   7.700   1.0651   0.03394   0.02718  -0.0676  0.0170  1.0000  -5.1987   0.0000   0.0000   0.0000   0.3063
   7.800   1.0732   0.03568   0.02911  -0.0668  0.0173  1.0000  -5.1805   0.0000   0.0000   0.0000   0.3051
   7.900   1.0798   0.03761   0.03127  -0.0658  0.0178  1.0000  -5.1349   0.0000   0.0000   0.0000   0.3037
   8.000   1.0849   0.03961   0.03351  -0.0646  0.0184  1.0000  -5.0787   0.0000   0.0000   0.0000   0.3022
   8.100   1.0885   0.04165   0.03577  -0.0633  0.0190  1.0000  -5.0195   0.0000   0.0000   0.0000   0.3008
   8.200   1.0911   0.04370   0.03803  -0.0620  0.0197  1.0000  -4.9621   0.0000   0.0000   0.0000   0.2993
   8.300   1.0928   0.04577   0.04029  -0.0606  0.0205  1.0000  -4.9074   0.0000   0.0000   0.0000   0.2979
   8.400   1.0934   0.04782   0.04252  -0.0592  0.0212  1.0000  -4.8575   0.0000   0.0000   0.0000   0.2965
   8.500   1.0928   0.04987   0.04473  -0.0578  0.0219  1.0000  -4.8113   0.0000   0.0000   0.0000   0.2951
   8.600   1.0911   0.05195   0.04697  -0.0563  0.0227  1.0000  -4.7662   0.0000   0.0000   0.0000   0.2938
   8.700   1.0880   0.05414   0.04930  -0.0549  0.0234  1.0000  -4.7182   0.0000   0.0000   0.0000   0.2926
   8.800   1.0827   0.05665   0.05194  -0.0534  0.0242  1.0000  -4.6562   0.0000   0.0000   0.0000   0.2914
  10.000   1.0086   0.07984   0.07646  -0.0374  0.0409  1.0000  -3.8798   0.0000   0.0000   0.0000   0.2783
  10.100   1.0005   0.08144   0.07811  -0.0370  0.0409  1.0000  -3.8557   0.0000   0.0000   0.0000   0.2780
  10.200   0.9921   0.08312   0.07985  -0.0368  0.0409  1.0000  -3.8295   0.0000   0.0000   0.0000   0.2780
  10.300   0.9838   0.08493   0.08171  -0.0368  0.0409  1.0000  -3.8013   0.0000   0.0000   0.0000   0.2782
  10.400   0.9752   0.08687   0.08370  -0.0370  0.0410  1.0000  -3.7705   0.0000   0.0000   0.0000   0.2786
  10.500   0.9667   0.08894   0.08582  -0.0375  0.0410  1.0000  -3.7371   0.0000   0.0000   0.0000   0.2793
  10.600   0.9582   0.09117   0.08809  -0.0381  0.0412  1.0000  -3.7007   0.0000   0.0000   0.0000   0.2803
  10.700   0.9468   0.09847   0.09530  -0.0393  0.0435  1.0000  -3.5793   0.0000   0.0000   0.0000   0.2820
  10.800   0.9393   0.10051   0.09739  -0.0401  0.0435  1.0000  -3.5476   0.0000   0.0000   0.0000   0.2830
  10.900   0.9317   0.10264   0.09956  -0.0410  0.0435  1.0000  -3.5137   0.0000   0.0000   0.0000   0.2842
  11.000   0.9243   0.10486   0.10181  -0.0421  0.0435  1.0000  -3.4776   0.0000   0.0000   0.0000   0.2857
  11.100   0.9171   0.10719   0.10417  -0.0434  0.0435  1.0000  -3.4394   0.0000   0.0000   0.0000   0.2873
  11.200   0.9102   0.10966   0.10667  -0.0449  0.0435  1.0000  -3.3986   0.0000   0.0000   0.0000   0.2892
  11.300   0.9037   0.11224   0.10928  -0.0465  0.0435  1.0000  -3.3555   0.0000   0.0000   0.0000   0.2913
  11.400   0.8977   0.11496   0.11203  -0.0484  0.0435  1.0000  -3.3097   0.0000   0.0000   0.0000   0.2936
  11.500   0.8922   0.11782   0.11490  -0.0504  0.0435  1.0000  -3.2609   0.0000   0.0000   0.0000   0.2961
  11.600   0.8874   0.12080   0.11790  -0.0526  0.0435  1.0000  -3.2094   0.0000   0.0000   0.0000   0.2988
  11.700   0.8833   0.12392   0.12103  -0.0549  0.0435  1.0000  -3.1548   0.0000   0.0000   0.0000   0.3016
  11.800   0.8800   0.12724   0.12436  -0.0574  0.0434  1.0000  -3.0950   0.0000   0.0000   0.0000   0.3046
  11.900   0.8776   0.13051   0.12762  -0.0597  0.0434  1.0000  -3.0375   0.0000   0.0000   0.0000   0.3074
  12.000   0.8760   0.13346   0.13056  -0.0618  0.0433  1.0000  -2.9884   0.0000   0.0000   0.0000   0.3099
  12.100   0.8752   0.13610   0.13320  -0.0638  0.0431  1.0000  -2.9456   0.0000   0.0000   0.0000   0.3122
  12.200   0.8798   0.13764   0.13473  -0.0672  0.0406  1.0000  -2.9085   0.0000   0.0000   0.0000   0.3155
  12.300   0.8786   0.14020   0.13729  -0.0689  0.0401  1.0000  -2.8655   0.0000   0.0000   0.0000   0.3175
  12.400   0.8777   0.14269   0.13976  -0.0704  0.0397  1.0000  -2.8258   0.0000   0.0000   0.0000   0.3193
  12.500   0.8769   0.14511   0.14217  -0.0719  0.0393  1.0000  -2.7888   0.0000   0.0000   0.0000   0.3209
  12.600   0.8763   0.14746   0.14452  -0.0733  0.0388  1.0000  -2.7545   0.0000   0.0000   0.0000   0.3225
  12.700   0.8759   0.14976   0.14680  -0.0746  0.0384  1.0000  -2.7227   0.0000   0.0000   0.0000   0.3240
  12.800   0.8756   0.15200   0.14904  -0.0759  0.0379  1.0000  -2.6932   0.0000   0.0000   0.0000   0.3253
  12.900   0.8755   0.15419   0.15122  -0.0771  0.0374  1.0000  -2.6659   0.0000   0.0000   0.0000   0.3267
  13.000   0.8755   0.15634   0.15337  -0.0783  0.0370  1.0000  -2.6403   0.0000   0.0000   0.0000   0.3279
  13.100   0.8756   0.15845   0.15547  -0.0795  0.0365  1.0000  -2.6165   0.0000   0.0000   0.0000   0.3292
  13.200   0.8759   0.16052   0.15753  -0.0806  0.0360  1.0000  -2.5949   0.0000   0.0000   0.0000   0.3303
  13.300   0.8763   0.16254   0.15954  -0.0817  0.0356  1.0000  -2.5753   0.0000   0.0000   0.0000   0.3314
  13.400   0.8769   0.16451   0.16151  -0.0827  0.0351  1.0000  -2.5577   0.0000   0.0000   0.0000   0.3324
  13.500   0.8777   0.16637   0.16337  -0.0837  0.0346  1.0000  -2.5422   0.0000   0.0000   0.0000   0.3334
  13.600   0.8786   0.16817   0.16516  -0.0847  0.0341  1.0000  -2.5286   0.0000   0.0000   0.0000   0.3343
  13.700   0.8796   0.16993   0.16691  -0.0856  0.0337  1.0000  -2.5169   0.0000   0.0000   0.0000   0.3351
  13.800   0.8807   0.17165   0.16863  -0.0866  0.0332  1.0000  -2.5070   0.0000   0.0000   0.0000   0.3360
  13.900   0.8820   0.17336   0.17033  -0.0875  0.0328  1.0000  -2.4990   0.0000   0.0000   0.0000   0.3367
  14.000   0.8834   0.17505   0.17202  -0.0883  0.0323  1.0000  -2.4930   0.0000   0.0000   0.0000   0.3374
  14.100   0.8849   0.17672   0.17369  -0.0891  0.0319  1.0000  -2.4891   0.0000   0.0000   0.0000   0.3380
  14.200   0.8865   0.17838   0.17535  -0.0899  0.0315  1.0000  -2.4874   0.0000   0.0000   0.0000   0.3386
  14.300   0.8883   0.18003   0.17700  -0.0907  0.0311  1.0000  -2.4882   0.0000   0.0000   0.0000   0.3391
  14.400   0.8902   0.18167   0.17863  -0.0914  0.0306  1.0000  -2.4918   0.0000   0.0000   0.0000   0.3396
  14.500   0.8923   0.18329   0.18025  -0.0920  0.0302  1.0000  -2.4984   0.0000   0.0000   0.0000   0.3400
  14.600   0.8945   0.18489   0.18185  -0.0926  0.0299  1.0000  -2.5083   0.0000   0.0000   0.0000   0.3402
  14.700   0.8969   0.18647   0.18343  -0.0931  0.0295  1.0000  -2.5227   0.0000   0.0000   0.0000   0.3404
  14.800   0.8994   0.18803   0.18500  -0.0936  0.0291  1.0000  -2.5412   0.0000   0.0000   0.0000   0.3405
  14.900   0.9021   0.18959   0.18656  -0.0939  0.0287  1.0000  -2.5645   0.0000   0.0000   0.0000   0.3404
  15.000   0.9049   0.19117   0.18815  -0.0942  0.0283  1.0000  -2.5902   0.0000   0.0000   0.0000   0.3403
  15.100   0.9076   0.19282   0.18980  -0.0945  0.0280  1.0000  -2.6180   0.0000   0.0000   0.0000   0.3401
  15.200   0.9105   0.19458   0.19157  -0.0945  0.0275  1.0000  -2.6529   0.0000   0.0000   0.0000   0.3396
  15.300   0.9112   0.19696   0.19395  -0.0951  0.0271  1.0000  -2.6488   0.0000   0.0000   0.0000   0.3401
  15.400   0.9095   0.20061   0.19759  -0.0960  0.0265  1.0000  -2.5981   0.0000   0.0000   0.0000   0.3411
  15.500   0.9038   0.20666   0.20357  -0.0976  0.0259  1.0000  -2.4418   0.0000   0.0000   0.0000   0.3436
  15.600   0.9056   0.20872   0.20563  -0.0986  0.0259  1.0000  -2.4230   0.0000   0.0000   0.0000   0.3443
  15.700   0.9075   0.21077   0.20768  -0.0995  0.0259  1.0000  -2.4045   0.0000   0.0000   0.0000   0.3450
  15.800   0.9093   0.21282   0.20972  -0.1005  0.0259  1.0000  -2.3863   0.0000   0.0000   0.0000   0.3457
  15.900   0.9112   0.21486   0.21176  -0.1014  0.0259  1.0000  -2.3684   0.0000   0.0000   0.0000   0.3464
  16.000   0.9131   0.21688   0.21379  -0.1024  0.0259  1.0000  -2.3507   0.0000   0.0000   0.0000   0.3471
  16.100   0.9149   0.21890   0.21580  -0.1033  0.0258  1.0000  -2.3334   0.0000   0.0000   0.0000   0.3478
  16.200   0.9168   0.22091   0.21781  -0.1043  0.0258  1.0000  -2.3164   0.0000   0.0000   0.0000   0.3485
  16.300   0.9187   0.22290   0.21979  -0.1052  0.0258  1.0000  -2.2998   0.0000   0.0000   0.0000   0.3492
  16.400   0.9207   0.22488   0.22177  -0.1062  0.0257  1.0000  -2.2835   0.0000   0.0000   0.0000   0.3498
  16.500   0.9226   0.22683   0.22372  -0.1071  0.0257  1.0000  -2.2675   0.0000   0.0000   0.0000   0.3505
  16.600   0.9245   0.22877   0.22566  -0.1081  0.0257  1.0000  -2.2519   0.0000   0.0000   0.0000   0.3512
  16.700   0.9265   0.23068   0.22756  -0.1090  0.0256  1.0000  -2.2367   0.0000   0.0000   0.0000   0.3518
  16.800   0.9285   0.23255   0.22944  -0.1100  0.0256  1.0000  -2.2219   0.0000   0.0000   0.0000   0.3525
  16.900   0.9305   0.23439   0.23127  -0.1110  0.0255  1.0000  -2.2075   0.0000   0.0000   0.0000   0.3531
  17.000   0.9326   0.23617   0.23305  -0.1119  0.0254  1.0000  -2.1934   0.0000   0.0000   0.0000   0.3538
  17.100   0.9347   0.23787   0.23475  -0.1129  0.0253  1.0000  -2.1797   0.0000   0.0000   0.0000   0.3544
  17.200   0.9368   0.23946   0.23634  -0.1140  0.0251  1.0000  -2.1661   0.0000   0.0000   0.0000   0.3551
  17.300   0.9386   0.24097   0.23785  -0.1152  0.0249  1.0000  -2.1455   0.0000   0.0000   0.0000   0.3560
  17.400   0.9396   0.24241   0.23928  -0.1165  0.0246  1.0000  -2.1172   0.0000   0.0000   0.0000   0.3572
  17.500   0.9407   0.24388   0.24075  -0.1180  0.0242  1.0000  -2.0863   0.0000   0.0000   0.0000   0.3584
  17.600   0.9422   0.24549   0.24235  -0.1193  0.0238  1.0000  -2.0562   0.0000   0.0000   0.0000   0.3595
  17.700   0.9440   0.24726   0.24413  -0.1205  0.0233  1.0000  -2.0295   0.0000   0.0000   0.0000   0.3605
  17.800   0.9459   0.24917   0.24603  -0.1216  0.0228  1.0000  -2.0077   0.0000   0.0000   0.0000   0.3612
  17.900   0.9478   0.25114   0.24800  -0.1226  0.0223  1.0000  -1.9900   0.0000   0.0000   0.0000   0.3618
  18.000   0.9498   0.25316   0.25002  -0.1235  0.0218  1.0000  -1.9753   0.0000   0.0000   0.0000   0.3624
  18.100   0.9517   0.25520   0.25206  -0.1244  0.0214  1.0000  -1.9628   0.0000   0.0000   0.0000   0.3629
  18.200   0.9536   0.25725   0.25412  -0.1252  0.0210  1.0000  -1.9519   0.0000   0.0000   0.0000   0.3634
  18.300   0.9555   0.25932   0.25618  -0.1261  0.0206  1.0000  -1.9420   0.0000   0.0000   0.0000   0.3639
  18.400   0.9573   0.26139   0.25825  -0.1269  0.0203  1.0000  -1.9330   0.0000   0.0000   0.0000   0.3644
  18.500   0.9591   0.26346   0.26033  -0.1277  0.0199  1.0000  -1.9247   0.0000   0.0000   0.0000   0.3648
  18.600   0.9609   0.26554   0.26241  -0.1285  0.0196  1.0000  -1.9171   0.0000   0.0000   0.0000   0.3652
  18.700   0.9627   0.26763   0.26450  -0.1292  0.0193  1.0000  -1.9101   0.0000   0.0000   0.0000   0.3656
  18.800   0.9645   0.26971   0.26659  -0.1300  0.0190  1.0000  -1.9037   0.0000   0.0000   0.0000   0.3660
  18.900   0.9662   0.27180   0.26868  -0.1308  0.0187  1.0000  -1.8978   0.0000   0.0000   0.0000   0.3664
  19.000   0.9679   0.27390   0.27078  -0.1315  0.0185  1.0000  -1.8924   0.0000   0.0000   0.0000   0.3668
  19.100   0.9696   0.27599   0.27288  -0.1323  0.0182  1.0000  -1.8875   0.0000   0.0000   0.0000   0.3672
  19.200   0.9712   0.27809   0.27498  -0.1330  0.0180  1.0000  -1.8830   0.0000   0.0000   0.0000   0.3676
  19.300   0.9728   0.28019   0.27709  -0.1337  0.0177  1.0000  -1.8790   0.0000   0.0000   0.0000   0.3680
  19.400   0.9744   0.28230   0.27919  -0.1344  0.0175  1.0000  -1.8754   0.0000   0.0000   0.0000   0.3683
  19.500   0.9759   0.28440   0.28130  -0.1352  0.0173  1.0000  -1.8723   0.0000   0.0000   0.0000   0.3687
  19.600   0.9774   0.28651   0.28341  -0.1358  0.0170  1.0000  -1.8697   0.0000   0.0000   0.0000   0.3690
  19.700   0.9789   0.28862   0.28553  -0.1365  0.0168  1.0000  -1.8675   0.0000   0.0000   0.0000   0.3694
  19.800   0.9803   0.29073   0.28764  -0.1372  0.0166  1.0000  -1.8658   0.0000   0.0000   0.0000   0.3697
  19.900   0.9816   0.29284   0.28975  -0.1379  0.0164  1.0000  -1.8645   0.0000   0.0000   0.0000   0.3700
  20.000   0.9829   0.29495   0.29187  -0.1385  0.0162  1.0000  -1.8638   0.0000   0.0000   0.0000   0.3704
  20.100   0.9842   0.29706   0.29398  -0.1392  0.0160  1.0000  -1.8636   0.0000   0.0000   0.0000   0.3707
  20.200   0.9854   0.29916   0.29610  -0.1398  0.0158  1.0000  -1.8639   0.0000   0.0000   0.0000   0.3710
  20.300   0.9865   0.30127   0.29821  -0.1404  0.0157  1.0000  -1.8648   0.0000   0.0000   0.0000   0.3713
  20.400   0.9875   0.30337   0.30032  -0.1410  0.0155  1.0000  -1.8662   0.0000   0.0000   0.0000   0.3716
  20.500   0.9885   0.30548   0.30243  -0.1416  0.0153  1.0000  -1.8683   0.0000   0.0000   0.0000   0.3719
  20.600   0.9894   0.30757   0.30453  -0.1421  0.0152  1.0000  -1.8710   0.0000   0.0000   0.0000   0.3721
  20.700   0.9902   0.30967   0.30663  -0.1427  0.0150  1.0000  -1.8744   0.0000   0.0000   0.0000   0.3724
  20.800   0.9909   0.31176   0.30873  -0.1432  0.0148  1.0000  -1.8784   0.0000   0.0000   0.0000   0.3727
  20.900   0.9915   0.31384   0.31082  -0.1437  0.0147  1.0000  -1.8831   0.0000   0.0000   0.0000   0.3729
  21.000   0.9920   0.31592   0.31291  -0.1441  0.0145  1.0000  -1.8886   0.0000   0.0000   0.0000   0.3731
  21.100   0.9923   0.31800   0.31500  -0.1445  0.0144  1.0000  -1.8950   0.0000   0.0000   0.0000   0.3734
  21.200   0.9925   0.32007   0.31708  -0.1449  0.0143  1.0000  -1.9021   0.0000   0.0000   0.0000   0.3736
  21.300   0.9925   0.32213   0.31915  -0.1452  0.0141  1.0000  -1.9099   0.0000   0.0000   0.0000   0.3737
  21.400   0.9923   0.32421   0.32133  -0.1455  0.0140  1.0000  -1.9178   0.0000   0.0000   0.0000   0.3739
  21.500   0.9919   0.32627   0.32341  -0.1457  0.0138  1.0000  -1.9265   0.0000   0.0000   0.0000   0.3740
  21.600   0.9911   0.32834   0.32549  -0.1458  0.0137  1.0000  -1.9354   0.0000   0.0000   0.0000   0.3741
  21.700   0.9899   0.33041   0.32759  -0.1459  0.0136  1.0000  -1.9438   0.0000   0.0000   0.0000   0.3742
  21.800   0.9882   0.33250   0.32969  -0.1457  0.0134  1.0000  -1.9507   0.0000   0.0000   0.0000   0.3742
  21.900   0.9856   0.33459   0.33181  -0.1455  0.0133  1.0000  -1.9541   0.0000   0.0000   0.0000   0.3742
  22.000   0.9076   0.31921   0.31660  -0.1383  0.0138  1.0000  -1.6446   0.0000   0.0000   0.0000   0.3802
  22.100   0.9018   0.31885   0.31625  -0.1379  0.0137  1.0000  -1.6320   0.0000   0.0000   0.0000   0.3807
  22.200   0.8969   0.31869   0.31612  -0.1375  0.0136  1.0000  -1.6240   0.0000   0.0000   0.0000   0.3811
  22.300   0.8928   0.31869   0.31613  -0.1372  0.0135  1.0000  -1.6196   0.0000   0.0000   0.0000   0.3813
  22.400   0.8893   0.31884   0.31631  -0.1369  0.0134  1.0000  -1.6179   0.0000   0.0000   0.0000   0.3815
  22.500   0.8864   0.31921   0.31670  -0.1365  0.0133  1.0000  -1.6183   0.0000   0.0000   0.0000   0.3816
  22.600   0.8839   0.31994   0.31745  -0.1361  0.0131  1.0000  -1.6185   0.0000   0.0000   0.0000   0.3814
  22.700   0.8799   0.32080   0.31833  -0.1358  0.0130  1.0000  -1.5880   0.0000   0.0000   0.0000   0.3818
  22.800   0.8731   0.32303   0.32057  -0.1354  0.0126  1.0000  -1.4901   0.0000   0.0000   0.0000   0.3826


