xflr5 v6.61

 Calculated polar for: EPPLER 420 AIRFOIL

 1 1 Reynolds number fixed          Mach number fixed         

 xtrf =   1.000 (top)        1.000 (bottom)
 Mach =   0.000     Re =     0.563 e 6     Ncrit =   9.000

  alpha     CL        CD       CDp       Cm    Top Xtr Bot Xtr   Cpmin    Chinge    XCp    
 ------- -------- --------- --------- -------- ------- ------- -------- --------- ---------
 -10.000   0.3742   0.09672   0.09255  -0.1600  0.6490  0.0248  -1.1096   0.0000   0.0000   0.0000   0.7118
  -9.900   0.3773   0.09600   0.09181  -0.1601  0.6453  0.0248  -1.1131   0.0000   0.0000   0.0000   0.7079
  -9.800   0.3804   0.09529   0.09107  -0.1602  0.6414  0.0248  -1.1165   0.0000   0.0000   0.0000   0.7041
  -9.700   0.3833   0.09458   0.09033  -0.1603  0.6369  0.0248  -1.1198   0.0000   0.0000   0.0000   0.7004
  -9.600   0.3865   0.09385   0.08958  -0.1604  0.6320  0.0249  -1.1231   0.0000   0.0000   0.0000   0.6967
  -9.500   0.3898   0.09311   0.08881  -0.1606  0.6271  0.0249  -1.1264   0.0000   0.0000   0.0000   0.6929
  -9.400   0.3935   0.09232   0.08802  -0.1608  0.6246  0.0249  -1.1300   0.0000   0.0000   0.0000   0.6892
  -9.300   0.3972   0.09150   0.08721  -0.1611  0.6236  0.0249  -1.1337   0.0000   0.0000   0.0000   0.6854
  -9.200   0.4009   0.09069   0.08641  -0.1614  0.6224  0.0249  -1.1373   0.0000   0.0000   0.0000   0.6818
  -9.100   0.4045   0.08989   0.08561  -0.1616  0.6210  0.0249  -1.1409   0.0000   0.0000   0.0000   0.6782
  -9.000   0.4082   0.08908   0.08481  -0.1618  0.6194  0.0250  -1.1444   0.0000   0.0000   0.0000   0.6746
  -8.900   0.4117   0.08828   0.08401  -0.1620  0.6176  0.0250  -1.1479   0.0000   0.0000   0.0000   0.6711
  -8.800   0.4153   0.08749   0.08321  -0.1622  0.6157  0.0250  -1.1514   0.0000   0.0000   0.0000   0.6677
  -8.700   0.4187   0.08670   0.08242  -0.1624  0.6136  0.0250  -1.1547   0.0000   0.0000   0.0000   0.6644
  -8.600   0.4221   0.08592   0.08164  -0.1626  0.6115  0.0250  -1.1581   0.0000   0.0000   0.0000   0.6611
  -8.500   0.4255   0.08515   0.08086  -0.1627  0.6092  0.0250  -1.1613   0.0000   0.0000   0.0000   0.6579
  -8.400   0.4287   0.08439   0.08009  -0.1628  0.6069  0.0250  -1.1646   0.0000   0.0000   0.0000   0.6548
  -8.300   0.4319   0.08363   0.07932  -0.1629  0.6045  0.0251  -1.1677   0.0000   0.0000   0.0000   0.6517
  -8.200   0.4350   0.08288   0.07856  -0.1630  0.6021  0.0251  -1.1708   0.0000   0.0000   0.0000   0.6487
  -8.100   0.4380   0.08214   0.07780  -0.1631  0.5995  0.0251  -1.1738   0.0000   0.0000   0.0000   0.6457
  -8.000   0.4409   0.08140   0.07705  -0.1631  0.5968  0.0251  -1.1767   0.0000   0.0000   0.0000   0.6428
  -7.900   0.4437   0.08067   0.07630  -0.1631  0.5938  0.0251  -1.1795   0.0000   0.0000   0.0000   0.6400
  -7.800   0.4466   0.07994   0.07553  -0.1631  0.5905  0.0251  -1.1822   0.0000   0.0000   0.0000   0.6372
  -7.700   0.4495   0.07921   0.07478  -0.1631  0.5871  0.0251  -1.1849   0.0000   0.0000   0.0000   0.6344
  -7.600   0.4526   0.07847   0.07402  -0.1631  0.5836  0.0251  -1.1877   0.0000   0.0000   0.0000   0.6316
  -7.500   0.4559   0.07772   0.07326  -0.1633  0.5801  0.0251  -1.1904   0.0000   0.0000   0.0000   0.6288
  -7.400   0.4592   0.07694   0.07248  -0.1634  0.5782  0.0251  -1.1933   0.0000   0.0000   0.0000   0.6260
  -7.300   0.4623   0.07615   0.07171  -0.1635  0.5777  0.0252  -1.1962   0.0000   0.0000   0.0000   0.6234
  -7.200   0.4654   0.07537   0.07094  -0.1635  0.5771  0.0252  -1.1990   0.0000   0.0000   0.0000   0.6207
  -7.100   0.4683   0.07459   0.07018  -0.1635  0.5765  0.0252  -1.2018   0.0000   0.0000   0.0000   0.6181
  -7.000   0.4711   0.07382   0.06942  -0.1635  0.5758  0.0252  -1.2044   0.0000   0.0000   0.0000   0.6156
  -6.900   0.4739   0.07306   0.06867  -0.1635  0.5750  0.0252  -1.2070   0.0000   0.0000   0.0000   0.6131
  -6.800   0.4765   0.07230   0.06792  -0.1634  0.5741  0.0252  -1.2095   0.0000   0.0000   0.0000   0.6107
  -6.700   0.4789   0.07155   0.06719  -0.1633  0.5732  0.0252  -1.2118   0.0000   0.0000   0.0000   0.6083
  -6.600   0.4812   0.07082   0.06646  -0.1632  0.5722  0.0252  -1.2140   0.0000   0.0000   0.0000   0.6060
  -6.500   0.4832   0.07009   0.06575  -0.1630  0.5712  0.0252  -1.2161   0.0000   0.0000   0.0000   0.6038
  -6.400   0.4849   0.06939   0.06506  -0.1627  0.5701  0.0252  -1.2180   0.0000   0.0000   0.0000   0.6017
  -6.300   0.4863   0.06871   0.06439  -0.1624  0.5689  0.0252  -1.2196   0.0000   0.0000   0.0000   0.5997
  -6.200   0.4874   0.06804   0.06373  -0.1620  0.5677  0.0252  -1.2211   0.0000   0.0000   0.0000   0.5977
  -6.100   0.4884   0.06740   0.06310  -0.1616  0.5664  0.0252  -1.2224   0.0000   0.0000   0.0000   0.5958
  -6.000   0.4899   0.06675   0.06245  -0.1613  0.5651  0.0252  -1.2240   0.0000   0.0000   0.0000   0.5939
  -5.900   0.4925   0.06600   0.06171  -0.1613  0.5638  0.0252  -1.2262   0.0000   0.0000   0.0000   0.5918
  -5.800   0.4954   0.06523   0.06094  -0.1614  0.5624  0.0253  -1.2285   0.0000   0.0000   0.0000   0.5897
  -5.700   0.4984   0.06446   0.06017  -0.1615  0.5610  0.0253  -1.2308   0.0000   0.0000   0.0000   0.5876
  -5.600   0.5014   0.06369   0.05940  -0.1617  0.5596  0.0253  -1.2331   0.0000   0.0000   0.0000   0.5855
  -5.500   0.5045   0.06290   0.05861  -0.1618  0.5582  0.0253  -1.2355   0.0000   0.0000   0.0000   0.5835
  -5.400   0.5078   0.06211   0.05782  -0.1620  0.5567  0.0253  -1.2378   0.0000   0.0000   0.0000   0.5814
  -5.300   0.5110   0.06132   0.05702  -0.1622  0.5552  0.0253  -1.2401   0.0000   0.0000   0.0000   0.5793
  -5.200   0.5144   0.06052   0.05622  -0.1624  0.5537  0.0253  -1.2425   0.0000   0.0000   0.0000   0.5773
  -5.100   0.5179   0.05971   0.05540  -0.1626  0.5521  0.0253  -1.2449   0.0000   0.0000   0.0000   0.5753
  -5.000   0.5214   0.05890   0.05459  -0.1629  0.5504  0.0253  -1.2472   0.0000   0.0000   0.0000   0.5733
  -4.900   0.5252   0.05807   0.05375  -0.1632  0.5486  0.0253  -1.2496   0.0000   0.0000   0.0000   0.5712
  -4.800   0.5294   0.05723   0.05290  -0.1636  0.5466  0.0253  -1.2522   0.0000   0.0000   0.0000   0.5692
  -4.700   0.5339   0.05636   0.05202  -0.1641  0.5445  0.0253  -1.2548   0.0000   0.0000   0.0000   0.5671
  -4.600   0.5285   0.05232   0.04801  -0.1669  0.5435  0.0260  -1.4055   0.0000   0.0000   0.0000   0.5755
  -4.500   0.5298   0.04979   0.04548  -0.1690  0.5418  0.0266  -1.5102   0.0000   0.0000   0.0000   0.5786
  -4.400   0.5357   0.04834   0.04401  -0.1706  0.5396  0.0269  -1.5449   0.0000   0.0000   0.0000   0.5776
  -4.300   0.5435   0.04712   0.04278  -0.1721  0.5374  0.0272  -1.5605   0.0000   0.0000   0.0000   0.5755
  -4.200   0.5525   0.04604   0.04168  -0.1738  0.5350  0.0276  -1.5641   0.0000   0.0000   0.0000   0.5729
  -4.100   0.5627   0.04503   0.04066  -0.1755  0.5327  0.0279  -1.5615   0.0000   0.0000   0.0000   0.5699
  -4.000   0.5727   0.04397   0.03959  -0.1772  0.5315  0.0281  -1.5638   0.0000   0.0000   0.0000   0.5670
  -3.700   0.7020   0.01895   0.01356  -0.2257  0.5309  0.0218  -2.8103   0.0000   0.0000   0.0000   0.5777
  -3.600   0.7191   0.01770   0.01209  -0.2279  0.5305  0.0220  -2.8091   0.0000   0.0000   0.0000   0.5727
  -3.500   0.7339   0.01687   0.01111  -0.2292  0.5302  0.0222  -2.7868   0.0000   0.0000   0.0000   0.5678
  -3.400   0.7478   0.01625   0.01035  -0.2301  0.5297  0.0224  -2.7541   0.0000   0.0000   0.0000   0.5629
  -3.300   0.7609   0.01579   0.00978  -0.2307  0.5292  0.0227  -2.7109   0.0000   0.0000   0.0000   0.5581
  -3.200   0.7734   0.01544   0.00935  -0.2312  0.5287  0.0231  -2.6602   0.0000   0.0000   0.0000   0.5535
  -3.100   0.7857   0.01515   0.00899  -0.2315  0.5282  0.0234  -2.6054   0.0000   0.0000   0.0000   0.5490
  -3.000   0.7977   0.01491   0.00869  -0.2318  0.5276  0.0238  -2.5481   0.0000   0.0000   0.0000   0.5446
  -2.900   0.8096   0.01470   0.00842  -0.2320  0.5269  0.0241  -2.4893   0.0000   0.0000   0.0000   0.5403
  -2.800   0.8213   0.01452   0.00819  -0.2322  0.5261  0.0244  -2.4291   0.0000   0.0000   0.0000   0.5361
  -2.700   0.8329   0.01436   0.00798  -0.2323  0.5253  0.0247  -2.3678   0.0000   0.0000   0.0000   0.5320
  -2.600   0.8444   0.01423   0.00781  -0.2324  0.5245  0.0250  -2.3054   0.0000   0.0000   0.0000   0.5281
  -2.500   0.8556   0.01414   0.00769  -0.2324  0.5236  0.0252  -2.2396   0.0000   0.0000   0.0000   0.5242
  -2.400   0.8683   0.01379   0.00724  -0.2328  0.5227  0.0258  -2.1948   0.0000   0.0000   0.0000   0.5205
  -2.300   0.8838   0.01296   0.00615  -0.2338  0.5217  0.0287  -2.2038   0.0000   0.0000   0.0000   0.5167
  -2.200   0.8963   0.01270   0.00581  -0.2341  0.5208  0.0317  -2.1663   0.0000   0.0000   0.0000   0.5131
  -2.100   0.9081   0.01257   0.00566  -0.2342  0.5198  0.0346  -2.1104   0.0000   0.0000   0.0000   0.5096
  -2.000   0.9195   0.01251   0.00559  -0.2342  0.5188  0.0375  -2.0474   0.0000   0.0000   0.0000   0.5062
  -1.900   0.9307   0.01246   0.00553  -0.2342  0.5179  0.0406  -1.9823   0.0000   0.0000   0.0000   0.5028
  -1.800   0.9418   0.01245   0.00550  -0.2342  0.5170  0.0433  -1.9142   0.0000   0.0000   0.0000   0.4996
  -1.600   0.9647   0.01231   0.00533  -0.2343  0.5152  0.0549  -1.7876   0.0000   0.0000   0.0000   0.4933
  -1.500   0.9758   0.01229   0.00533  -0.2343  0.5143  0.0612  -1.7170   0.0000   0.0000   0.0000   0.4904
  -1.400   0.9866   0.01231   0.00535  -0.2342  0.5133  0.0655  -1.6467   0.0000   0.0000   0.0000   0.4874
  -1.300   0.9972   0.01235   0.00538  -0.2341  0.5124  0.0683  -1.5793   0.0000   0.0000   0.0000   0.4846
  -1.200   1.0077   0.01242   0.00543  -0.2340  0.5114  0.0698  -1.5538   0.0000   0.0000   0.0000   0.4817
  -1.100   1.0188   0.01239   0.00537  -0.2340  0.5105  0.0745  -1.5636   0.0000   0.0000   0.0000   0.4790
  -1.000   1.0300   0.01233   0.00534  -0.2340  0.5095  0.0841  -1.5734   0.0000   0.0000   0.0000   0.4763
  -0.900   1.0407   0.01235   0.00537  -0.2339  0.5085  0.0892  -1.5831   0.0000   0.0000   0.0000   0.4737
  -0.800   1.0513   0.01239   0.00540  -0.2338  0.5076  0.0934  -1.5926   0.0000   0.0000   0.0000   0.4711
  -0.700   1.0618   0.01244   0.00544  -0.2337  0.5066  0.0967  -1.6021   0.0000   0.0000   0.0000   0.4685
  -0.600   1.0721   0.01250   0.00550  -0.2335  0.5055  0.0990  -1.6115   0.0000   0.0000   0.0000   0.4660
  -0.500   1.0824   0.01258   0.00557  -0.2333  0.5045  0.1003  -1.6209   0.0000   0.0000   0.0000   0.4636
  -0.400   1.0927   0.01266   0.00564  -0.2332  0.5034  0.1012  -1.6302   0.0000   0.0000   0.0000   0.4612
  -0.300   1.1044   0.01256   0.00552  -0.2333  0.5023  0.1144  -1.6402   0.0000   0.0000   0.0000   0.4589
  -0.200   1.1152   0.01260   0.00559  -0.2333  0.5011  0.1208  -1.6497   0.0000   0.0000   0.0000   0.4566
  -0.100   1.1259   0.01266   0.00567  -0.2332  0.4999  0.1257  -1.6593   0.0000   0.0000   0.0000   0.4543
   0.000   1.1368   0.01273   0.00573  -0.2332  0.4986  0.1295  -1.6689   0.0000   0.0000   0.0000   0.4521
   0.100   1.1479   0.01280   0.00579  -0.2332  0.4974  0.1325  -1.6785   0.0000   0.0000   0.0000   0.4499
   0.200   1.1590   0.01289   0.00586  -0.2332  0.4961  0.1346  -1.6882   0.0000   0.0000   0.0000   0.4478
   0.300   1.1703   0.01298   0.00594  -0.2332  0.4948  0.1361  -1.6979   0.0000   0.0000   0.0000   0.4457
   0.400   1.1818   0.01309   0.00603  -0.2333  0.4935  0.1370  -1.7077   0.0000   0.0000   0.0000   0.4436
   0.500   1.1940   0.01310   0.00602  -0.2336  0.4922  0.1435  -1.7178   0.0000   0.0000   0.0000   0.4416
   0.600   1.2061   0.01314   0.00609  -0.2338  0.4908  0.1526  -1.7279   0.0000   0.0000   0.0000   0.4397
   0.700   1.2181   0.01324   0.00622  -0.2341  0.4895  0.1585  -1.7379   0.0000   0.0000   0.0000   0.4378
   0.800   1.2301   0.01336   0.00636  -0.2343  0.4881  0.1634  -1.7478   0.0000   0.0000   0.0000   0.4359
   0.900   1.2421   0.01351   0.00652  -0.2346  0.4867  0.1677  -1.7575   0.0000   0.0000   0.0000   0.4341
   1.000   1.2539   0.01366   0.00668  -0.2347  0.4855  0.1713  -1.7672   0.0000   0.0000   0.0000   0.4323
   1.100   1.2643   0.01370   0.00672  -0.2346  0.4854  0.1743  -1.7768   0.0000   0.0000   0.0000   0.4304
   1.200   1.2747   0.01375   0.00677  -0.2345  0.4852  0.1765  -1.7863   0.0000   0.0000   0.0000   0.4286
   1.300   1.2850   0.01380   0.00683  -0.2343  0.4851  0.1780  -1.7957   0.0000   0.0000   0.0000   0.4268
   1.400   1.2952   0.01385   0.00688  -0.2341  0.4849  0.1790  -1.8052   0.0000   0.0000   0.0000   0.4250
   1.500   1.3058   0.01385   0.00687  -0.2340  0.4847  0.1825  -1.8148   0.0000   0.0000   0.0000   0.4233
   1.600   1.3167   0.01381   0.00683  -0.2340  0.4845  0.1918  -1.8245   0.0000   0.0000   0.0000   0.4216
   1.700   1.3272   0.01381   0.00687  -0.2339  0.4843  0.1984  -1.8341   0.0000   0.0000   0.0000   0.4200
   1.800   1.3375   0.01383   0.00691  -0.2338  0.4840  0.2034  -1.8435   0.0000   0.0000   0.0000   0.4183
   1.900   1.3477   0.01386   0.00695  -0.2337  0.4838  0.2077  -1.8535   0.0000   0.0000   0.0000   0.4167
   2.000   1.3578   0.01389   0.00699  -0.2335  0.4835  0.2117  -1.8641   0.0000   0.0000   0.0000   0.4151
   2.100   1.3678   0.01391   0.00703  -0.2333  0.4831  0.2152  -1.8747   0.0000   0.0000   0.0000   0.4135
   2.200   1.3777   0.01395   0.00706  -0.2330  0.4828  0.2186  -1.8852   0.0000   0.0000   0.0000   0.4119
   2.300   1.3874   0.01398   0.00710  -0.2328  0.4823  0.2215  -1.8956   0.0000   0.0000   0.0000   0.4103
   2.400   1.3969   0.01402   0.00714  -0.2325  0.4819  0.2238  -1.9058   0.0000   0.0000   0.0000   0.4087
   2.500   1.4064   0.01405   0.00718  -0.2322  0.4814  0.2254  -1.9160   0.0000   0.0000   0.0000   0.4072
   2.600   1.4157   0.01409   0.00722  -0.2318  0.4809  0.2265  -1.9262   0.0000   0.0000   0.0000   0.4057
   2.700   1.4251   0.01413   0.00726  -0.2315  0.4804  0.2273  -1.9363   0.0000   0.0000   0.0000   0.4042
   2.800   1.4346   0.01415   0.00729  -0.2312  0.4798  0.2296  -1.9464   0.0000   0.0000   0.0000   0.4027
   2.900   1.4445   0.01415   0.00728  -0.2310  0.4793  0.2372  -1.9569   0.0000   0.0000   0.0000   0.4013
   3.000   1.4544   0.01416   0.00732  -0.2308  0.4787  0.2449  -1.9672   0.0000   0.0000   0.0000   0.3999
   3.100   1.4642   0.01420   0.00737  -0.2306  0.4781  0.2513  -1.9774   0.0000   0.0000   0.0000   0.3985
   3.200   1.4738   0.01424   0.00744  -0.2304  0.4776  0.2566  -1.9876   0.0000   0.0000   0.0000   0.3971
   3.300   1.4835   0.01428   0.00751  -0.2302  0.4770  0.2615  -1.9978   0.0000   0.0000   0.0000   0.3957
   3.400   1.4931   0.01433   0.00757  -0.2299  0.4764  0.2660  -2.0080   0.0000   0.0000   0.0000   0.3944
   3.500   1.5028   0.01438   0.00764  -0.2297  0.4757  0.2702  -2.0182   0.0000   0.0000   0.0000   0.3930
   3.600   1.5124   0.01444   0.00770  -0.2294  0.4751  0.2738  -2.0283   0.0000   0.0000   0.0000   0.3917
   3.700   1.5219   0.01450   0.00777  -0.2292  0.4745  0.2768  -2.0385   0.0000   0.0000   0.0000   0.3904
   3.800   1.5315   0.01457   0.00784  -0.2289  0.4738  0.2792  -2.0486   0.0000   0.0000   0.0000   0.3891
   3.900   1.5410   0.01464   0.00791  -0.2287  0.4731  0.2810  -2.0587   0.0000   0.0000   0.0000   0.3878
   4.000   1.5506   0.01470   0.00798  -0.2284  0.4725  0.2854  -2.0688   0.0000   0.0000   0.0000   0.3865
   4.100   1.5605   0.01474   0.00804  -0.2283  0.4718  0.2981  -2.0792   0.0000   0.0000   0.0000   0.3853
   4.200   1.5702   0.01479   0.00813  -0.2281  0.4711  0.3095  -2.0894   0.0000   0.0000   0.0000   0.3841
   4.300   1.5799   0.01484   0.00821  -0.2279  0.4704  0.3183  -2.0996   0.0000   0.0000   0.0000   0.3829
   4.400   1.5895   0.01490   0.00830  -0.2277  0.4698  0.3261  -2.1097   0.0000   0.0000   0.0000   0.3817
   4.500   1.5990   0.01497   0.00838  -0.2274  0.4691  0.3332  -2.1197   0.0000   0.0000   0.0000   0.3805
   4.600   1.6083   0.01503   0.00845  -0.2272  0.4684  0.3389  -2.1297   0.0000   0.0000   0.0000   0.3793
   4.700   1.6178   0.01510   0.00853  -0.2269  0.4677  0.3508  -2.1397   0.0000   0.0000   0.0000   0.3781
   4.800   1.6274   0.01515   0.00863  -0.2268  0.4670  0.3743  -2.1499   0.0000   0.0000   0.0000   0.3770
   4.900   1.6369   0.01520   0.00873  -0.2265  0.4663  0.3945  -2.1599   0.0000   0.0000   0.0000   0.3758
   5.100   1.6536   0.01469   0.00905  -0.2258  0.4650  1.0000  -2.1784   0.0000   0.0000   0.0000   0.3736
   5.200   1.6626   0.01478   0.00913  -0.2254  0.4643  1.0000  -2.1881   0.0000   0.0000   0.0000   0.3724
   5.300   1.6716   0.01487   0.00922  -0.2251  0.4637  1.0000  -2.1978   0.0000   0.0000   0.0000   0.3713
   5.400   1.6805   0.01496   0.00930  -0.2248  0.4630  1.0000  -2.2074   0.0000   0.0000   0.0000   0.3702
   5.500   1.6895   0.01505   0.00939  -0.2244  0.4622  1.0000  -2.2170   0.0000   0.0000   0.0000   0.3691
   5.600   1.6984   0.01515   0.00948  -0.2241  0.4615  1.0000  -2.2266   0.0000   0.0000   0.0000   0.3680
   5.700   1.7073   0.01525   0.00957  -0.2238  0.4608  1.0000  -2.2361   0.0000   0.0000   0.0000   0.3669
   5.800   1.7160   0.01535   0.00966  -0.2234  0.4600  1.0000  -2.2455   0.0000   0.0000   0.0000   0.3658
   5.900   1.7246   0.01544   0.00976  -0.2230  0.4591  1.0000  -2.2549   0.0000   0.0000   0.0000   0.3648
   6.000   1.7331   0.01555   0.00985  -0.2226  0.4582  1.0000  -2.2642   0.0000   0.0000   0.0000   0.3637
   6.100   1.7416   0.01565   0.00995  -0.2222  0.4571  1.0000  -2.2747   0.0000   0.0000   0.0000   0.3626
   6.200   1.7500   0.01576   0.01006  -0.2218  0.4560  1.0000  -2.2853   0.0000   0.0000   0.0000   0.3616
   6.300   1.7586   0.01589   0.01017  -0.2215  0.4548  1.0000  -2.2960   0.0000   0.0000   0.0000   0.3606
   6.400   1.7673   0.01602   0.01029  -0.2211  0.4535  1.0000  -2.3067   0.0000   0.0000   0.0000   0.3595
   6.500   1.7763   0.01616   0.01043  -0.2209  0.4521  1.0000  -2.3176   0.0000   0.0000   0.0000   0.3585
   6.600   1.7857   0.01631   0.01058  -0.2207  0.4508  1.0000  -2.3287   0.0000   0.0000   0.0000   0.3576
   6.700   1.7953   0.01648   0.01075  -0.2206  0.4496  1.0000  -2.3400   0.0000   0.0000   0.0000   0.3567
   6.800   1.8052   0.01666   0.01093  -0.2205  0.4483  1.0000  -2.3513   0.0000   0.0000   0.0000   0.3557
   6.900   1.8152   0.01686   0.01114  -0.2205  0.4469  1.0000  -2.3628   0.0000   0.0000   0.0000   0.3548
   7.000   1.8255   0.01708   0.01137  -0.2205  0.4455  1.0000  -2.3742   0.0000   0.0000   0.0000   0.3540
   7.100   1.8359   0.01735   0.01166  -0.2206  0.4439  1.0000  -2.3856   0.0000   0.0000   0.0000   0.3531
   7.200   1.8463   0.01771   0.01204  -0.2207  0.4420  1.0000  -2.3968   0.0000   0.0000   0.0000   0.3523
   7.300   1.8553   0.01806   0.01242  -0.2206  0.4404  1.0000  -2.4071   0.0000   0.0000   0.0000   0.3515
   7.400   1.8634   0.01811   0.01248  -0.2201  0.4402  1.0000  -2.4191   0.0000   0.0000   0.0000   0.3505
   7.500   1.8714   0.01815   0.01253  -0.2197  0.4401  1.0000  -2.4310   0.0000   0.0000   0.0000   0.3495
   7.600   1.8788   0.01820   0.01259  -0.2191  0.4398  1.0000  -2.4424   0.0000   0.0000   0.0000   0.3485
   7.700   1.8860   0.01825   0.01266  -0.2185  0.4396  1.0000  -2.4537   0.0000   0.0000   0.0000   0.3476
   7.800   1.8932   0.01832   0.01274  -0.2178  0.4394  1.0000  -2.4649   0.0000   0.0000   0.0000   0.3466
   7.900   1.9004   0.01839   0.01283  -0.2172  0.4391  1.0000  -2.4761   0.0000   0.0000   0.0000   0.3456
   8.000   1.9077   0.01848   0.01293  -0.2167  0.4388  1.0000  -2.4873   0.0000   0.0000   0.0000   0.3446
   8.100   1.9150   0.01857   0.01304  -0.2161  0.4385  1.0000  -2.4985   0.0000   0.0000   0.0000   0.3437
   8.200   1.9222   0.01865   0.01314  -0.2155  0.4382  1.0000  -2.5096   0.0000   0.0000   0.0000   0.3428
   8.300   1.9293   0.01874   0.01323  -0.2149  0.4378  1.0000  -2.5223   0.0000   0.0000   0.0000   0.3418
   8.400   1.9364   0.01882   0.01333  -0.2143  0.4374  1.0000  -2.5349   0.0000   0.0000   0.0000   0.3409
   8.500   1.9433   0.01890   0.01343  -0.2137  0.4369  1.0000  -2.5475   0.0000   0.0000   0.0000   0.3399
   8.600   1.9503   0.01899   0.01354  -0.2131  0.4364  1.0000  -2.5600   0.0000   0.0000   0.0000   0.3390
   8.700   1.9571   0.01908   0.01365  -0.2124  0.4358  1.0000  -2.5724   0.0000   0.0000   0.0000   0.3381
   8.800   1.9636   0.01918   0.01377  -0.2118  0.4352  1.0000  -2.5853   0.0000   0.0000   0.0000   0.3372
   8.900   1.9698   0.01929   0.01389  -0.2110  0.4345  1.0000  -2.5989   0.0000   0.0000   0.0000   0.3362
   9.000   1.9760   0.01941   0.01403  -0.2103  0.4338  1.0000  -2.6124   0.0000   0.0000   0.0000   0.3353
   9.100   1.9823   0.01953   0.01417  -0.2096  0.4330  1.0000  -2.6261   0.0000   0.0000   0.0000   0.3344
   9.200   1.9886   0.01966   0.01431  -0.2089  0.4322  1.0000  -2.6398   0.0000   0.0000   0.0000   0.3335
   9.300   1.9951   0.01978   0.01445  -0.2083  0.4313  1.0000  -2.6536   0.0000   0.0000   0.0000   0.3326
   9.400   2.0016   0.01990   0.01459  -0.2077  0.4304  1.0000  -2.6676   0.0000   0.0000   0.0000   0.3317
   9.500   2.0082   0.02003   0.01473  -0.2070  0.4294  1.0000  -2.6816   0.0000   0.0000   0.0000   0.3308
   9.600   2.0149   0.02017   0.01488  -0.2065  0.4285  1.0000  -2.6959   0.0000   0.0000   0.0000   0.3300
   9.700   2.0217   0.02031   0.01504  -0.2059  0.4276  1.0000  -2.7120   0.0000   0.0000   0.0000   0.3291
   9.800   2.0284   0.02045   0.01523  -0.2053  0.4266  1.0000  -2.7282   0.0000   0.0000   0.0000   0.3283
   9.900   2.0348   0.02060   0.01540  -0.2047  0.4256  1.0000  -2.7440   0.0000   0.0000   0.0000   0.3274
  10.000   2.0407   0.02076   0.01557  -0.2040  0.4246  1.0000  -2.7594   0.0000   0.0000   0.0000   0.3266
  10.100   2.0465   0.02093   0.01575  -0.2033  0.4235  1.0000  -2.7746   0.0000   0.0000   0.0000   0.3257
  10.200   2.0522   0.02109   0.01592  -0.2026  0.4223  1.0000  -2.7898   0.0000   0.0000   0.0000   0.3249
  10.300   2.0580   0.02126   0.01610  -0.2019  0.4211  1.0000  -2.8050   0.0000   0.0000   0.0000   0.3240
  10.400   2.0637   0.02143   0.01628  -0.2012  0.4199  1.0000  -2.8201   0.0000   0.0000   0.0000   0.3232
  10.500   2.0695   0.02161   0.01647  -0.2005  0.4187  1.0000  -2.8354   0.0000   0.0000   0.0000   0.3223
  10.600   2.0752   0.02180   0.01666  -0.1998  0.4175  1.0000  -2.8525   0.0000   0.0000   0.0000   0.3215
  10.700   2.0808   0.02200   0.01687  -0.1992  0.4163  1.0000  -2.8698   0.0000   0.0000   0.0000   0.3207
  10.800   2.0860   0.02222   0.01710  -0.1984  0.4151  1.0000  -2.8867   0.0000   0.0000   0.0000   0.3198
  10.900   2.0903   0.02248   0.01737  -0.1976  0.4138  1.0000  -2.9024   0.0000   0.0000   0.0000   0.3190
  11.000   2.0941   0.02277   0.01766  -0.1967  0.4123  1.0000  -2.9175   0.0000   0.0000   0.0000   0.3182
  11.100   2.0979   0.02308   0.01797  -0.1958  0.4107  1.0000  -2.9326   0.0000   0.0000   0.0000   0.3173
  11.200   2.1019   0.02339   0.01828  -0.1949  0.4087  1.0000  -2.9479   0.0000   0.0000   0.0000   0.3165
  11.300   2.1064   0.02371   0.01860  -0.1942  0.4065  1.0000  -2.9639   0.0000   0.0000   0.0000   0.3157
  11.400   2.1120   0.02402   0.01891  -0.1936  0.4040  1.0000  -2.9811   0.0000   0.0000   0.0000   0.3149
  11.500   2.1189   0.02432   0.01921  -0.1932  0.4013  1.0000  -3.0020   0.0000   0.0000   0.0000   0.3142
  11.600   2.1267   0.02463   0.01953  -0.1930  0.3984  1.0000  -3.0249   0.0000   0.0000   0.0000   0.3135
  11.700   2.1333   0.02494   0.01986  -0.1925  0.3967  1.0000  -3.0462   0.0000   0.0000   0.0000   0.3128
  11.800   2.1380   0.02520   0.02015  -0.1919  0.3965  1.0000  -3.0653   0.0000   0.0000   0.0000   0.3121
  11.900   2.1420   0.02551   0.02049  -0.1911  0.3961  1.0000  -3.0833   0.0000   0.0000   0.0000   0.3113
  12.000   2.1450   0.02586   0.02088  -0.1902  0.3958  1.0000  -3.1002   0.0000   0.0000   0.0000   0.3105
  12.100   2.1483   0.02621   0.02126  -0.1893  0.3953  1.0000  -3.1172   0.0000   0.0000   0.0000   0.3097
  12.200   2.1517   0.02655   0.02164  -0.1885  0.3947  1.0000  -3.1347   0.0000   0.0000   0.0000   0.3089
  12.300   2.1553   0.02690   0.02202  -0.1877  0.3940  1.0000  -3.1523   0.0000   0.0000   0.0000   0.3082
  12.400   2.1590   0.02725   0.02241  -0.1870  0.3932  1.0000  -3.1700   0.0000   0.0000   0.0000   0.3074
  12.500   2.1626   0.02762   0.02281  -0.1862  0.3923  1.0000  -3.1901   0.0000   0.0000   0.0000   0.3067
  12.600   2.1649   0.02808   0.02330  -0.1854  0.3912  1.0000  -3.2089   0.0000   0.0000   0.0000   0.3059
  12.700   2.1671   0.02856   0.02382  -0.1845  0.3901  1.0000  -3.2274   0.0000   0.0000   0.0000   0.3052
  12.800   2.1702   0.02901   0.02429  -0.1838  0.3888  1.0000  -3.2472   0.0000   0.0000   0.0000   0.3045
  12.900   2.1737   0.02943   0.02475  -0.1831  0.3876  1.0000  -3.2679   0.0000   0.0000   0.0000   0.3038
  13.000   2.1775   0.02985   0.02520  -0.1825  0.3862  1.0000  -3.2889   0.0000   0.0000   0.0000   0.3031
  13.100   2.1812   0.03028   0.02566  -0.1818  0.3847  1.0000  -3.3098   0.0000   0.0000   0.0000   0.3024
  13.200   2.1847   0.03073   0.02613  -0.1812  0.3830  1.0000  -3.3304   0.0000   0.0000   0.0000   0.3017
  13.300   2.1869   0.03127   0.02676  -0.1804  0.3811  1.0000  -3.3490   0.0000   0.0000   0.0000   0.3010
  13.400   2.1877   0.03192   0.02742  -0.1796  0.3790  1.0000  -3.3655   0.0000   0.0000   0.0000   0.3003
  13.500   2.1893   0.03252   0.02803  -0.1788  0.3768  1.0000  -3.3830   0.0000   0.0000   0.0000   0.2996
  13.600   2.1909   0.03313   0.02864  -0.1780  0.3744  1.0000  -3.4007   0.0000   0.0000   0.0000   0.2989
  13.700   2.1917   0.03379   0.02929  -0.1772  0.3718  1.0000  -3.4171   0.0000   0.0000   0.0000   0.2982
  13.800   2.1911   0.03457   0.03006  -0.1762  0.3690  1.0000  -3.4311   0.0000   0.0000   0.0000   0.2975
  13.900   2.1869   0.03565   0.03115  -0.1750  0.3659  1.0000  -3.4392   0.0000   0.0000   0.0000   0.2969
  14.000   2.1818   0.03687   0.03236  -0.1738  0.3624  1.0000  -3.4455   0.0000   0.0000   0.0000   0.2962
  14.100   2.1814   0.03771   0.03319  -0.1730  0.3587  1.0000  -3.4614   0.0000   0.0000   0.0000   0.2956
  14.200   2.1847   0.03825   0.03373  -0.1724  0.3551  1.0000  -3.4854   0.0000   0.0000   0.0000   0.2949
  14.300   2.1867   0.03895   0.03447  -0.1719  0.3543  1.0000  -3.5070   0.0000   0.0000   0.0000   0.2943
  14.400   2.1884   0.03969   0.03527  -0.1713  0.3535  1.0000  -3.5281   0.0000   0.0000   0.0000   0.2937
  14.500   2.1898   0.04047   0.03609  -0.1707  0.3525  1.0000  -3.5487   0.0000   0.0000   0.0000   0.2932
  14.600   2.1889   0.04147   0.03715  -0.1701  0.3513  1.0000  -3.5650   0.0000   0.0000   0.0000   0.2926
  14.700   2.1865   0.04264   0.03837  -0.1693  0.3499  1.0000  -3.5783   0.0000   0.0000   0.0000   0.2920
  14.800   2.1866   0.04359   0.03936  -0.1687  0.3481  1.0000  -3.5963   0.0000   0.0000   0.0000   0.2915
  14.900   2.1871   0.04449   0.04029  -0.1682  0.3461  1.0000  -3.6154   0.0000   0.0000   0.0000   0.2909
  15.000   2.1874   0.04541   0.04124  -0.1676  0.3437  1.0000  -3.6338   0.0000   0.0000   0.0000   0.2904
  15.100   2.1868   0.04642   0.04227  -0.1670  0.3408  1.0000  -3.6508   0.0000   0.0000   0.0000   0.2899
  15.200   2.1847   0.04759   0.04344  -0.1664  0.3376  1.0000  -3.6647   0.0000   0.0000   0.0000   0.2893
  15.300   2.1749   0.04962   0.04549  -0.1654  0.3341  1.0000  -3.6636   0.0000   0.0000   0.0000   0.2889
  15.400   2.1681   0.05131   0.04718  -0.1646  0.3302  1.0000  -3.6692   0.0000   0.0000   0.0000   0.2885
  15.500   2.1603   0.05312   0.04896  -0.1637  0.3258  1.0000  -3.6740   0.0000   0.0000   0.0000   0.2880
  15.600   2.1506   0.05516   0.05098  -0.1628  0.3206  1.0000  -3.6745   0.0000   0.0000   0.0000   0.2876
  15.700   2.1423   0.05705   0.05287  -0.1620  0.3151  1.0000  -3.6779   0.0000   0.0000   0.0000   0.2872
  15.800   2.1339   0.05910   0.05497  -0.1613  0.3131  1.0000  -3.6807   0.0000   0.0000   0.0000   0.2869
  15.900   2.1315   0.06048   0.05640  -0.1609  0.3115  1.0000  -3.6969   0.0000   0.0000   0.0000   0.2865
  16.000   2.1298   0.06176   0.05772  -0.1605  0.3092  1.0000  -3.7146   0.0000   0.0000   0.0000   0.2861
  16.100   2.1277   0.06307   0.05906  -0.1601  0.3063  1.0000  -3.7315   0.0000   0.0000   0.0000   0.2857
  16.200   2.1242   0.06453   0.06054  -0.1597  0.3028  1.0000  -3.7453   0.0000   0.0000   0.0000   0.2853
  16.300   2.1181   0.06629   0.06231  -0.1592  0.2988  1.0000  -3.7531   0.0000   0.0000   0.0000   0.2850
  16.400   2.0982   0.06982   0.06585  -0.1584  0.2943  1.0000  -3.7293   0.0000   0.0000   0.0000   0.2850
  16.500   2.0874   0.07215   0.06817  -0.1579  0.2895  1.0000  -3.7261   0.0000   0.0000   0.0000   0.2848
  16.600   2.0754   0.07457   0.07056  -0.1573  0.2840  1.0000  -3.7198   0.0000   0.0000   0.0000   0.2847
  16.700   2.0649   0.07687   0.07283  -0.1568  0.2779  1.0000  -3.7169   0.0000   0.0000   0.0000   0.2845
  16.800   2.0613   0.07839   0.07437  -0.1565  0.2742  1.0000  -3.7294   0.0000   0.0000   0.0000   0.2842
  16.900   2.0563   0.08017   0.07620  -0.1563  0.2725  1.0000  -3.7387   0.0000   0.0000   0.0000   0.2839
  17.000   2.0379   0.08373   0.07983  -0.1559  0.2701  1.0000  -3.7163   0.0000   0.0000   0.0000   0.2842
  17.100   2.0350   0.08527   0.08139  -0.1558  0.2673  1.0000  -3.7302   0.0000   0.0000   0.0000   0.2839
  17.200   2.0326   0.08671   0.08284  -0.1556  0.2640  1.0000  -3.7455   0.0000   0.0000   0.0000   0.2836
  17.300   2.0294   0.08825   0.08437  -0.1554  0.2601  1.0000  -3.7589   0.0000   0.0000   0.0000   0.2833
  17.400   2.0246   0.08999   0.08610  -0.1552  0.2559  1.0000  -3.7683   0.0000   0.0000   0.0000   0.2831
  17.500   2.0162   0.09220   0.08828  -0.1550  0.2513  1.0000  -3.7691   0.0000   0.0000   0.0000   0.2830
  17.600   2.0010   0.09535   0.09141  -0.1549  0.2459  1.0000  -3.7529   0.0000   0.0000   0.0000   0.2832
  17.700   1.9742   0.10027   0.09634  -0.1549  0.2396  1.0000  -3.7074   0.0000   0.0000   0.0000   0.2840
  17.800   1.9728   0.10161   0.09770  -0.1549  0.2365  1.0000  -3.7241   0.0000   0.0000   0.0000   0.2837
  17.900   1.9721   0.10290   0.09903  -0.1549  0.2349  1.0000  -3.7425   0.0000   0.0000   0.0000   0.2834
  18.000   1.9717   0.10411   0.10027  -0.1549  0.2328  1.0000  -3.7617   0.0000   0.0000   0.0000   0.2832
  18.100   1.9712   0.10534   0.10151  -0.1549  0.2301  1.0000  -3.7807   0.0000   0.0000   0.0000   0.2829
  18.200   1.9702   0.10661   0.10279  -0.1549  0.2268  1.0000  -3.7983   0.0000   0.0000   0.0000   0.2826
  18.300   1.9682   0.10800   0.10417  -0.1549  0.2231  1.0000  -3.8136   0.0000   0.0000   0.0000   0.2824
  18.400   1.9644   0.10963   0.10577  -0.1550  0.2192  1.0000  -3.8243   0.0000   0.0000   0.0000   0.2823
  18.500   1.9578   0.11164   0.10776  -0.1551  0.2150  1.0000  -3.8290   0.0000   0.0000   0.0000   0.2823
  18.600   1.9470   0.11431   0.11041  -0.1553  0.2104  1.0000  -3.8229   0.0000   0.0000   0.0000   0.2825
  18.700   1.9175   0.11978   0.11592  -0.1560  0.2054  1.0000  -3.7625   0.0000   0.0000   0.0000   0.2838
  18.800   1.9163   0.12104   0.11717  -0.1561  0.2010  1.0000  -3.7821   0.0000   0.0000   0.0000   0.2836
  18.900   1.9167   0.12216   0.11833  -0.1562  0.2000  1.0000  -3.8077   0.0000   0.0000   0.0000   0.2834
  19.000   1.9176   0.12317   0.11937  -0.1564  0.1987  1.0000  -3.8351   0.0000   0.0000   0.0000   0.2831
  19.100   1.9188   0.12414   0.12036  -0.1565  0.1970  1.0000  -3.8632   0.0000   0.0000   0.0000   0.2828
  19.200   1.9200   0.12509   0.12134  -0.1566  0.1949  1.0000  -3.8913   0.0000   0.0000   0.0000   0.2825
  19.300   1.9209   0.12607   0.12232  -0.1567  0.1926  1.0000  -3.9189   0.0000   0.0000   0.0000   0.2822
  19.400   1.9215   0.12708   0.12333  -0.1569  0.1899  1.0000  -3.9454   0.0000   0.0000   0.0000   0.2819
  19.500   1.9215   0.12817   0.12440  -0.1570  0.1870  1.0000  -3.9703   0.0000   0.0000   0.0000   0.2817
  19.600   1.9208   0.12935   0.12556  -0.1572  0.1839  1.0000  -3.9930   0.0000   0.0000   0.0000   0.2815
  19.700   1.9188   0.13072   0.12690  -0.1574  0.1805  1.0000  -4.0118   0.0000   0.0000   0.0000   0.2814
  19.800   1.9154   0.13229   0.12846  -0.1577  0.1767  1.0000  -4.0259   0.0000   0.0000   0.0000   0.2814
  19.900   1.9124   0.13381   0.12995  -0.1580  0.1724  1.0000  -4.0408   0.0000   0.0000   0.0000   0.2814
  20.000   1.9119   0.13493   0.13105  -0.1582  0.1681  1.0000  -4.0636   0.0000   0.0000   0.0000   0.2812
  20.100   1.9128   0.13590   0.13205  -0.1584  0.1667  1.0000  -4.0906   0.0000   0.0000   0.0000   0.2809
  20.200   1.9124   0.13702   0.13322  -0.1587  0.1658  1.0000  -4.1138   0.0000   0.0000   0.0000   0.2808
  20.300   1.9097   0.13844   0.13468  -0.1591  0.1646  1.0000  -4.1293   0.0000   0.0000   0.0000   0.2808
  20.400   1.8904   0.14223   0.13856  -0.1603  0.1633  1.0000  -4.0905   0.0000   0.0000   0.0000   0.2820
  20.500   1.8898   0.14333   0.13968  -0.1606  0.1615  1.0000  -4.1126   0.0000   0.0000   0.0000   0.2819
  20.600   1.8899   0.14434   0.14070  -0.1609  0.1592  1.0000  -4.1370   0.0000   0.0000   0.0000   0.2817
  20.700   1.8900   0.14534   0.14169  -0.1612  0.1566  1.0000  -4.1615   0.0000   0.0000   0.0000   0.2815
  20.800   1.8898   0.14638   0.14271  -0.1616  0.1538  1.0000  -4.1851   0.0000   0.0000   0.0000   0.2814
  20.900   1.8890   0.14752   0.14381  -0.1619  0.1507  1.0000  -4.2065   0.0000   0.0000   0.0000   0.2813
  21.000   1.8875   0.14876   0.14503  -0.1623  0.1474  1.0000  -4.2258   0.0000   0.0000   0.0000   0.2812
  21.100   1.8856   0.15008   0.14632  -0.1627  0.1435  1.0000  -4.2434   0.0000   0.0000   0.0000   0.2812
  21.200   1.8851   0.15120   0.14741  -0.1631  0.1393  1.0000  -4.2684   0.0000   0.0000   0.0000   0.2811
  21.300   1.8865   0.15202   0.14822  -0.1633  0.1359  1.0000  -4.3042   0.0000   0.0000   0.0000   0.2808
  21.400   1.8893   0.15272   0.14895  -0.1636  0.1352  1.0000  -4.3458   0.0000   0.0000   0.0000   0.2805
  21.500   1.8917   0.15345   0.14979  -0.1638  0.1343  1.0000  -4.3863   0.0000   0.0000   0.0000   0.2802
  21.600   1.8937   0.15425   0.15061  -0.1641  0.1332  1.0000  -4.4253   0.0000   0.0000   0.0000   0.2799
  21.700   1.8953   0.15511   0.15150  -0.1644  0.1319  1.0000  -4.4626   0.0000   0.0000   0.0000   0.2797
  21.800   1.8962   0.15608   0.15248  -0.1648  0.1302  1.0000  -4.4975   0.0000   0.0000   0.0000   0.2795
  21.900   1.8964   0.15718   0.15359  -0.1651  0.1284  1.0000  -4.5291   0.0000   0.0000   0.0000   0.2793
  22.000   1.8953   0.15847   0.15490  -0.1656  0.1264  1.0000  -4.5559   0.0000   0.0000   0.0000   0.2793
  22.100   1.8922   0.16010   0.15653  -0.1662  0.1243  1.0000  -4.5748   0.0000   0.0000   0.0000   0.2794
  22.200   1.8736   0.16443   0.16092  -0.1678  0.1228  1.0000  -4.5289   0.0000   0.0000   0.0000   0.2809
  22.300   1.8693   0.16632   0.16280  -0.1685  0.1205  1.0000  -4.5420   0.0000   0.0000   0.0000   0.2811
  22.400   1.8664   0.16797   0.16443  -0.1691  0.1180  1.0000  -4.5607   0.0000   0.0000   0.0000   0.2813
  22.500   1.8641   0.16952   0.16597  -0.1697  0.1150  1.0000  -4.5816   0.0000   0.0000   0.0000   0.2814
  22.600   1.8631   0.17085   0.16729  -0.1702  0.1117  1.0000  -4.6077   0.0000   0.0000   0.0000   0.2813
  22.700   1.8637   0.17189   0.16830  -0.1706  0.1084  1.0000  -4.6405   0.0000   0.0000   0.0000   0.2812
  22.800   1.8660   0.17269   0.16912  -0.1709  0.1070  1.0000  -4.6806   0.0000   0.0000   0.0000   0.2809
  22.900   1.8685   0.17346   0.16994  -0.1713  0.1064  1.0000  -4.7224   0.0000   0.0000   0.0000   0.2806
  23.000   1.8708   0.17427   0.17078  -0.1716  0.1056  1.0000  -4.7634   0.0000   0.0000   0.0000   0.2803
  23.100   1.8727   0.17514   0.17167  -0.1720  0.1045  1.0000  -4.8029   0.0000   0.0000   0.0000   0.2800
  23.200   1.8743   0.17607   0.17262  -0.1724  0.1031  1.0000  -4.8409   0.0000   0.0000   0.0000   0.2798
  23.300   1.8753   0.17709   0.17365  -0.1728  0.1014  1.0000  -4.8768   0.0000   0.0000   0.0000   0.2796
  23.400   1.8757   0.17822   0.17478  -0.1733  0.0995  1.0000  -4.9101   0.0000   0.0000   0.0000   0.2795
  23.500   1.8754   0.17949   0.17604  -0.1738  0.0975  1.0000  -4.9401   0.0000   0.0000   0.0000   0.2794
  23.600   1.8740   0.18095   0.17749  -0.1744  0.0954  1.0000  -4.9655   0.0000   0.0000   0.0000   0.2795
  23.700   1.8712   0.18270   0.17922  -0.1751  0.0933  1.0000  -4.9845   0.0000   0.0000   0.0000   0.2797
  23.800   1.8661   0.18491   0.18143  -0.1760  0.0912  1.0000  -4.9925   0.0000   0.0000   0.0000   0.2801
  23.900   1.8490   0.18958   0.18616  -0.1779  0.0897  1.0000  -4.9449   0.0000   0.0000   0.0000   0.2817
  24.000   1.8434   0.19195   0.18854  -0.1789  0.0872  1.0000  -4.9498   0.0000   0.0000   0.0000   0.2822
  24.100   1.8417   0.19357   0.19015  -0.1796  0.0844  1.0000  -4.9716   0.0000   0.0000   0.0000   0.2823
  24.200   1.8419   0.19476   0.19134  -0.1801  0.0818  1.0000  -5.0024   0.0000   0.0000   0.0000   0.2822
  24.300   1.8435   0.19575   0.19237  -0.1805  0.0814  1.0000  -5.0406   0.0000   0.0000   0.0000   0.2820
  24.400   1.8451   0.19672   0.19338  -0.1810  0.0809  1.0000  -5.0792   0.0000   0.0000   0.0000   0.2818
  24.500   1.8468   0.19769   0.19438  -0.1814  0.0803  1.0000  -5.1223   0.0000   0.0000   0.0000   0.2815
  24.600   1.8483   0.19869   0.19541  -0.1819  0.0796  1.0000  -5.1712   0.0000   0.0000   0.0000   0.2813
  24.700   1.8497   0.19970   0.19644  -0.1823  0.0787  1.0000  -5.2199   0.0000   0.0000   0.0000   0.2811
  24.800   1.8509   0.20075   0.19751  -0.1828  0.0776  1.0000  -5.2676   0.0000   0.0000   0.0000   0.2809
  24.900   1.8518   0.20187   0.19864  -0.1833  0.0764  1.0000  -5.3136   0.0000   0.0000   0.0000   0.2808
  25.000   1.8523   0.20307   0.19985  -0.1839  0.0751  1.0000  -5.3620   0.0000   0.0000   0.0000   0.2807
  25.100   1.8523   0.20438   0.20116  -0.1845  0.0737  1.0000  -5.4199   0.0000   0.0000   0.0000   0.2806
  25.200   1.8516   0.20582   0.20259  -0.1851  0.0722  1.0000  -5.4734   0.0000   0.0000   0.0000   0.2806
  25.300   1.8501   0.20746   0.20422  -0.1858  0.0706  1.0000  -5.5207   0.0000   0.0000   0.0000   0.2807
  25.400   1.8473   0.20937   0.20613  -0.1867  0.0690  1.0000  -5.5592   0.0000   0.0000   0.0000   0.2810
  25.500   1.8427   0.21171   0.20846  -0.1877  0.0673  1.0000  -5.5840   0.0000   0.0000   0.0000   0.2814
  25.600   1.8307   0.21580   0.21260  -0.1894  0.0658  1.0000  -5.5524   0.0000   0.0000   0.0000   0.2827
  25.700   1.8213   0.21934   0.21617  -0.1909  0.0641  1.0000  -5.5392   0.0000   0.0000   0.0000   0.2838
  25.800   1.8186   0.22130   0.21813  -0.1917  0.0618  1.0000  -5.5762   0.0000   0.0000   0.0000   0.2840
  25.900   1.8183   0.22272   0.21956  -0.1923  0.0595  1.0000  -5.6298   0.0000   0.0000   0.0000   0.2840
  26.000   1.8189   0.22398   0.22085  -0.1929  0.0592  1.0000  -5.6930   0.0000   0.0000   0.0000   0.2839
  26.100   1.8196   0.22520   0.22211  -0.1935  0.0589  1.0000  -5.7577   0.0000   0.0000   0.0000   0.2838
  26.200   1.8204   0.22640   0.22335  -0.1941  0.0585  1.0000  -5.8231   0.0000   0.0000   0.0000   0.2836
  26.300   1.8212   0.22761   0.22459  -0.1946  0.0580  1.0000  -5.8887   0.0000   0.0000   0.0000   0.2835
  26.400   1.8219   0.22884   0.22585  -0.1952  0.0574  1.0000  -5.9536   0.0000   0.0000   0.0000   0.2834
  26.500   1.8225   0.23009   0.22713  -0.1958  0.0566  1.0000  -6.0183   0.0000   0.0000   0.0000   0.2833
  26.600   1.8228   0.23142   0.22848  -0.1964  0.0558  1.0000  -6.0807   0.0000   0.0000   0.0000   0.2832
  26.700   1.8226   0.23285   0.22992  -0.1971  0.0548  1.0000  -6.1400   0.0000   0.0000   0.0000   0.2832
  26.800   1.8219   0.23441   0.23149  -0.1978  0.0537  1.0000  -6.1953   0.0000   0.0000   0.0000   0.2832
  26.900   1.8205   0.23615   0.23323  -0.1986  0.0525  1.0000  -6.2449   0.0000   0.0000   0.0000   0.2833
  27.000   1.8180   0.23815   0.23523  -0.1995  0.0513  1.0000  -6.2865   0.0000   0.0000   0.0000   0.2836
  27.100   1.8141   0.24054   0.23762  -0.2005  0.0500  1.0000  -6.3158   0.0000   0.0000   0.0000   0.2840
  27.200   1.8077   0.24360   0.24068  -0.2018  0.0488  1.0000  -6.3239   0.0000   0.0000   0.0000   0.2848
  27.300   1.7920   0.24916   0.24631  -0.2040  0.0481  1.0000  -6.2541   0.0000   0.0000   0.0000   0.2867
  27.400   1.7868   0.25198   0.24912  -0.2052  0.0465  1.0000  -6.2710   0.0000   0.0000   0.0000   0.2874
  27.500   1.7829   0.25445   0.25159  -0.2063  0.0447  1.0000  -6.2982   0.0000   0.0000   0.0000   0.2878
  27.600   1.7805   0.25653   0.25366  -0.2071  0.0426  1.0000  -6.3368   0.0000   0.0000   0.0000   0.2881
  27.700   1.7797   0.25816   0.25530  -0.2078  0.0405  1.0000  -6.3880   0.0000   0.0000   0.0000   0.2881
  27.800   1.7797   0.25961   0.25678  -0.2085  0.0403  1.0000  -6.4507   0.0000   0.0000   0.0000   0.2880
  27.900   1.7798   0.26107   0.25828  -0.2092  0.0401  1.0000  -6.5130   0.0000   0.0000   0.0000   0.2880
  28.000   1.7798   0.26251   0.25975  -0.2098  0.0398  1.0000  -6.5763   0.0000   0.0000   0.0000   0.2879
  28.100   1.7798   0.26399   0.26127  -0.2105  0.0395  1.0000  -6.6385   0.0000   0.0000   0.0000   0.2879
  28.200   1.7795   0.26553   0.26289  -0.2112  0.0391  1.0000  -6.6989   0.0000   0.0000   0.0000   0.2879
  28.300   1.7789   0.26716   0.26456  -0.2119  0.0386  1.0000  -6.7564   0.0000   0.0000   0.0000   0.2879
  28.400   1.7778   0.26893   0.26636  -0.2127  0.0381  1.0000  -6.8098   0.0000   0.0000   0.0000   0.2880
  28.500   1.7760   0.27091   0.26837  -0.2135  0.0376  1.0000  -6.8568   0.0000   0.0000   0.0000   0.2882
  28.600   1.7730   0.27320   0.27069  -0.2144  0.0370  1.0000  -6.8942   0.0000   0.0000   0.0000   0.2885
  28.700   1.7683   0.27603   0.27355  -0.2156  0.0364  1.0000  -6.9151   0.0000   0.0000   0.0000   0.2891
  28.800   1.7522   0.28224   0.27984  -0.2178  0.0360  1.0000  -6.8325   0.0000   0.0000   0.0000   0.2912
  28.900   1.7483   0.28485   0.28248  -0.2189  0.0353  1.0000  -6.8607   0.0000   0.0000   0.0000   0.2917
  29.000   1.7453   0.28720   0.28483  -0.2198  0.0345  1.0000  -6.8975   0.0000   0.0000   0.0000   0.2921
  29.100   1.7425   0.28949   0.28712  -0.2207  0.0337  1.0000  -6.9360   0.0000   0.0000   0.0000   0.2924
  29.200   1.7395   0.29182   0.28945  -0.2216  0.0329  1.0000  -6.9734   0.0000   0.0000   0.0000   0.2927
  29.300   1.7362   0.29426   0.29188  -0.2226  0.0320  1.0000  -7.0076   0.0000   0.0000   0.0000   0.2931
  29.400   1.7326   0.29679   0.29441  -0.2235  0.0311  1.0000  -7.0390   0.0000   0.0000   0.0000   0.2935
  29.500   1.7283   0.29953   0.29715  -0.2245  0.0300  1.0000  -7.0638   0.0000   0.0000   0.0000   0.2940
  29.600   1.7237   0.30238   0.30000  -0.2256  0.0287  1.0000  -7.0846   0.0000   0.0000   0.0000   0.2945
  29.700   1.7196   0.30506   0.30269  -0.2265  0.0273  1.0000  -7.1093   0.0000   0.0000   0.0000   0.2950
  29.800   1.7168   0.30730   0.30496  -0.2273  0.0258  1.0000  -7.1445   0.0000   0.0000   0.0000   0.2952
  29.900   1.7139   0.30958   0.30727  -0.2281  0.0251  1.0000  -7.1818   0.0000   0.0000   0.0000   0.2954
  30.000   1.7096   0.31231   0.31005  -0.2290  0.0250  1.0000  -7.2089   0.0000   0.0000   0.0000   0.2959


