xflr5 v6.61

 Calculated polar for: EPPLER E852 AIRFOIL

 1 1 Reynolds number fixed          Mach number fixed         

 xtrf =   1.000 (top)        1.000 (bottom)
 Mach =   0.000     Re =     0.100 e 6     Ncrit =   9.000

  alpha     CL        CD       CDp       Cm    Top Xtr Bot Xtr   Cpmin    Chinge    XCp    
 ------- -------- --------- --------- -------- ------- ------- -------- --------- ---------
 -10.000  -0.4113   0.11225   0.10726  -0.0381  1.0000  0.0817  -1.8391   0.0000   0.0000   0.0000   0.1492
  -9.900  -0.4114   0.11106   0.10609  -0.0384  1.0000  0.0830  -1.8497   0.0000   0.0000   0.0000   0.1484
  -9.800  -0.4119   0.10989   0.10494  -0.0388  1.0000  0.0843  -1.8630   0.0000   0.0000   0.0000   0.1477
  -9.700  -0.4128   0.10876   0.10383  -0.0394  1.0000  0.0857  -1.8795   0.0000   0.0000   0.0000   0.1468
  -9.600  -0.4144   0.10771   0.10281  -0.0400  1.0000  0.0871  -1.9006   0.0000   0.0000   0.0000   0.1457
  -9.500  -0.4169   0.10679   0.10193  -0.0408  1.0000  0.0884  -1.9278   0.0000   0.0000   0.0000   0.1445
  -9.400  -0.4202   0.10614   0.10132  -0.0419  1.0000  0.0899  -1.9617   0.0000   0.0000   0.0000   0.1429
  -9.300  -0.4250   0.10577   0.10101  -0.0432  1.0000  0.0911  -2.0017   0.0000   0.0000   0.0000   0.1413
  -9.200  -0.4298   0.10549   0.10077  -0.0443  1.0000  0.0919  -2.0374   0.0000   0.0000   0.0000   0.1401
  -9.100  -0.4332   0.10504   0.10036  -0.0450  1.0000  0.0924  -2.0638   0.0000   0.0000   0.0000   0.1394
  -9.000  -0.4366   0.10433   0.09968  -0.0456  1.0000  0.0927  -2.0882   0.0000   0.0000   0.0000   0.1391
  -8.900  -0.4403   0.10346   0.09886  -0.0460  1.0000  0.0929  -2.1123   0.0000   0.0000   0.0000   0.1392
  -8.800  -0.4445   0.10252   0.09796  -0.0463  1.0000  0.0931  -2.1365   0.0000   0.0000   0.0000   0.1396
  -8.700  -0.4492   0.10155   0.09702  -0.0466  1.0000  0.0932  -2.1614   0.0000   0.0000   0.0000   0.1404
  -8.600  -0.4547   0.10057   0.09609  -0.0467  1.0000  0.0932  -2.1871   0.0000   0.0000   0.0000   0.1415
  -8.500  -0.4610   0.09960   0.09517  -0.0467  1.0000  0.0933  -2.2137   0.0000   0.0000   0.0000   0.1431
  -8.400  -0.4679   0.09861   0.09423  -0.0467  1.0000  0.0933  -2.2412   0.0000   0.0000   0.0000   0.1446
  -8.000  -0.4606   0.08706   0.08278  -0.0422  1.0000  0.0995  -2.1905   0.0000   0.0000   0.0000   0.1529
  -7.900  -0.4593   0.08606   0.08179  -0.0410  1.0000  0.1007  -2.1684   0.0000   0.0000   0.0000   0.1553
  -7.800  -0.4595   0.08515   0.08090  -0.0399  1.0000  0.1018  -2.1537   0.0000   0.0000   0.0000   0.1579
  -7.700  -0.4619   0.08431   0.08010  -0.0389  1.0000  0.1028  -2.1486   0.0000   0.0000   0.0000   0.1607
  -7.600  -0.4662   0.08354   0.07937  -0.0378  1.0000  0.1036  -2.1507   0.0000   0.0000   0.0000   0.1640
  -7.500  -0.4720   0.08283   0.07870  -0.0367  1.0000  0.1043  -2.1576   0.0000   0.0000   0.0000   0.1675
  -7.400  -0.4784   0.08212   0.07803  -0.0356  1.0000  0.1050  -2.1671   0.0000   0.0000   0.0000   0.1709
  -7.300  -0.4842   0.08131   0.07726  -0.0348  1.0000  0.1057  -2.1767   0.0000   0.0000   0.0000   0.1737
  -7.200  -0.4897   0.08042   0.07641  -0.0342  1.0000  0.1064  -2.1872   0.0000   0.0000   0.0000   0.1758
  -7.100  -0.4954   0.07948   0.07551  -0.0337  1.0000  0.1072  -2.1996   0.0000   0.0000   0.0000   0.1777
  -7.000  -0.5011   0.07848   0.07454  -0.0334  1.0000  0.1080  -2.2136   0.0000   0.0000   0.0000   0.1791
  -6.900  -0.5066   0.07739   0.07348  -0.0334  1.0000  0.1088  -2.2293   0.0000   0.0000   0.0000   0.1801
  -6.800  -0.5120   0.07620   0.07231  -0.0336  1.0000  0.1098  -2.2467   0.0000   0.0000   0.0000   0.1806
  -6.700  -0.5170   0.07491   0.07103  -0.0340  1.0000  0.1108  -2.2658   0.0000   0.0000   0.0000   0.1806
  -6.600  -0.5216   0.07354   0.06968  -0.0345  1.0000  0.1119  -2.2859   0.0000   0.0000   0.0000   0.1803
  -6.500  -0.5256   0.07216   0.06829  -0.0350  1.0000  0.1133  -2.3063   0.0000   0.0000   0.0000   0.1798
  -6.400  -0.5292   0.07075   0.06687  -0.0358  1.0000  0.1149  -2.3279   0.0000   0.0000   0.0000   0.1789
  -6.300  -0.5321   0.06933   0.06541  -0.0368  1.0000  0.1168  -2.3522   0.0000   0.0000   0.0000   0.1775
  -6.000  -0.5453   0.06415   0.05985  -0.0431  1.0000  0.1292  -2.4864   0.0000   0.0000   0.0000   0.1677
  -5.900  -0.5432   0.06192   0.05771  -0.0422  1.0000  0.1312  -2.4624   0.0000   0.0000   0.0000   0.1691
  -5.800  -0.5397   0.06058   0.05644  -0.0411  1.0000  0.1330  -2.4298   0.0000   0.0000   0.0000   0.1708
  -5.700  -0.5364   0.05942   0.05532  -0.0402  1.0000  0.1349  -2.4035   0.0000   0.0000   0.0000   0.1720
  -5.600  -0.5331   0.05839   0.05430  -0.0395  1.0000  0.1373  -2.3782   0.0000   0.0000   0.0000   0.1730
  -5.400  -0.5022   0.04736   0.04199  -0.0476  1.0000  0.0623  -2.9635   0.0000   0.0000   0.0000   0.1518
  -5.300  -0.4963   0.04431   0.03881  -0.0486  1.0000  0.0588  -3.0027   0.0000   0.0000   0.0000   0.1487
  -5.200  -0.4880   0.04194   0.03625  -0.0493  1.0000  0.0558  -3.0409   0.0000   0.0000   0.0000   0.1454
  -5.100  -0.4783   0.03977   0.03385  -0.0500  1.0000  0.0534  -3.0837   0.0000   0.0000   0.0000   0.1418
  -5.000  -0.4681   0.03791   0.03174  -0.0506  1.0000  0.0520  -3.1144   0.0000   0.0000   0.0000   0.1383
  -4.900  -0.4580   0.03645   0.03007  -0.0510  1.0000  0.0519  -3.1180   0.0000   0.0000   0.0000   0.1351
  -4.800  -0.4480   0.03519   0.02862  -0.0513  1.0000  0.0523  -3.1080   0.0000   0.0000   0.0000   0.1320
  -4.700  -0.4376   0.03395   0.02718  -0.0515  1.0000  0.0525  -3.1000   0.0000   0.0000   0.0000   0.1287
  -4.600  -0.4267   0.03265   0.02566  -0.0517  1.0000  0.0524  -3.1006   0.0000   0.0000   0.0000   0.1251
  -4.500  -0.4152   0.03130   0.02407  -0.0520  1.0000  0.0518  -3.1107   0.0000   0.0000   0.0000   0.1212
  -4.400  -0.4033   0.02997   0.02249  -0.0521  1.0000  0.0510  -3.1264   0.0000   0.0000   0.0000   0.1171
  -4.300  -0.3918   0.02881   0.02112  -0.0521  1.0000  0.0506  -3.1302   0.0000   0.0000   0.0000   0.1132
  -4.200  -0.3807   0.02779   0.01993  -0.0521  1.0000  0.0508  -3.1218   0.0000   0.0000   0.0000   0.1094
  -4.100  -0.3697   0.02687   0.01887  -0.0520  1.0000  0.0515  -3.1057   0.0000   0.0000   0.0000   0.1055
  -4.000  -0.3588   0.02604   0.01792  -0.0519  1.0000  0.0525  -3.0840   0.0000   0.0000   0.0000   0.1015
  -3.900  -0.3481   0.02528   0.01706  -0.0518  1.0000  0.0541  -3.0581   0.0000   0.0000   0.0000   0.0973
  -3.800  -0.3373   0.02459   0.01628  -0.0516  1.0000  0.0562  -3.0288   0.0000   0.0000   0.0000   0.0931
  -3.700  -0.3275   0.02426   0.01589  -0.0515  1.0000  0.0609  -2.9758   0.0000   0.0000   0.0000   0.0890
  -3.600  -0.3185   0.02444   0.01597  -0.0511  1.0000  0.0653  -2.9250   0.0000   0.0000   0.0000   0.0857
  -3.500  -0.3052   0.02257   0.01398  -0.0515  1.0000  0.0714  -2.9637   0.0000   0.0000   0.0000   0.0774
  -3.400  -0.2942   0.02187   0.01332  -0.0515  1.0000  0.0780  -2.9439   0.0000   0.0000   0.0000   0.0709
  -3.300  -0.2833   0.02139   0.01283  -0.0515  1.0000  0.0864  -2.9193   0.0000   0.0000   0.0000   0.0643
  -3.200  -0.2717   0.02076   0.01218  -0.0516  1.0000  0.0999  -2.8883   0.0000   0.0000   0.0000   0.0559
  -3.100  -0.2573   0.02024   0.01170  -0.0525  0.9992  0.1253  -2.8234   0.0000   0.0000   0.0000   0.0419
  -3.000  -0.2396   0.01774   0.01117  -0.0545  1.0000  0.4774  -2.8074   0.0000   0.0000   0.0000   0.0183
  -2.900  -0.2278   0.01803   0.01148  -0.0543  0.9984  0.5432  -2.6885   0.0000   0.0000   0.0000   0.0073
  -2.800  -0.2165   0.01832   0.01187  -0.0539  0.9967  0.5789  -2.5575   0.0000   0.0000   0.0000  -0.0032
  -2.700  -0.2060   0.01857   0.01212  -0.0535  0.9947  0.6062  -2.4308   0.0000   0.0000   0.0000  -0.0139
  -2.600  -0.1966   0.01882   0.01239  -0.0528  0.9929  0.6267  -2.3086   0.0000   0.0000   0.0000  -0.0231
  -2.500  -0.1848   0.01914   0.01260  -0.0528  0.9911  0.6453  -2.1765   0.0000   0.0000   0.0000  -0.0405
  -2.400  -0.1747   0.01924   0.01273  -0.0524  0.9896  0.6600  -2.0541   0.0000   0.0000   0.0000  -0.0545
  -2.300  -0.1639   0.01946   0.01295  -0.0520  0.9881  0.6735  -1.9291   0.0000   0.0000   0.0000  -0.0721
  -2.200  -0.1528   0.01967   0.01310  -0.0519  0.9866  0.6869  -1.8054   0.0000   0.0000   0.0000  -0.0948
  -2.100  -0.1423   0.01983   0.01316  -0.0519  0.9848  0.6979  -1.6888   0.0000   0.0000   0.0000  -0.1199
  -2.000  -0.1343   0.01981   0.01316  -0.0512  0.9830  0.7094  -1.5852   0.0000   0.0000   0.0000  -0.1365
  -1.900  -0.1268   0.01993   0.01329  -0.0502  0.9812  0.7216  -1.4845   0.0000   0.0000   0.0000  -0.1511
  -1.800  -0.1179   0.02009   0.01344  -0.0496  0.9794  0.7352  -1.3784   0.0000   0.0000   0.0000  -0.1763
  -1.700  -0.1065   0.02030   0.01357  -0.0497  0.9778  0.7480  -1.2633   0.0000   0.0000   0.0000  -0.2222
  -1.600  -0.0974   0.02029   0.01358  -0.0492  0.9763  0.7590  -1.1610   0.0000   0.0000   0.0000  -0.2607
  -1.500  -0.0876   0.02039   0.01367  -0.0488  0.9748  0.7688  -1.0566   0.0000   0.0000   0.0000  -0.3133
  -1.400  -0.0752   0.02053   0.01369  -0.0491  0.9735  0.7774  -0.9401   0.0000   0.0000   0.0000  -0.4096
  -1.300  -0.0635   0.02062   0.01373  -0.0494  0.9721  0.7852  -0.8355   0.0000   0.0000   0.0000  -0.5354
  -1.200  -0.0544   0.02064   0.01369  -0.0494  0.9703  0.7921  -0.7457   0.0000   0.0000   0.0000  -0.6659
  -1.100  -0.0441   0.02066   0.01366  -0.0496  0.9685  0.7985  -0.6810   0.0000   0.0000   0.0000  -0.8841
  -1.000  -0.0356   0.02059   0.01359  -0.0492  0.9663  0.8054  -0.6422   0.0000   0.0000   0.0000  -1.1449
  -0.900  -0.0256   0.02060   0.01358  -0.0491  0.9640  0.8123  -0.6010   0.0000   0.0000   0.0000  -1.6828
  -0.800  -0.0137   0.02065   0.01359  -0.0494  0.9617  0.8195  -0.5565   0.0000   0.0000   0.0000  -3.3830
  -0.700   0.0000   0.02073   0.01362  -0.0502  0.9595  0.8268  -0.5126   0.0000   0.0000   0.0000  3340.7761
  -0.600   0.0151   0.02083   0.01368  -0.0513  0.9575  0.8343  -0.4683   0.0000   0.0000   0.0000   3.6644
  -0.500   0.0312   0.02097   0.01376  -0.0526  0.9558  0.8415  -0.4230   0.0000   0.0000   0.0000   1.9405
  -0.400   0.0450   0.02105   0.01384  -0.0532  0.9543  0.8498  -0.3938   0.0000   0.0000   0.0000   1.4365
  -0.300   0.0534   0.02108   0.01386  -0.0528  0.9525  0.8591  -0.3716   0.0000   0.0000   0.0000   1.2411
  -0.200   0.0589   0.02104   0.01382  -0.0519  0.9502  0.8695  -0.3534   0.0000   0.0000   0.0000   1.1339
  -0.100   0.0669   0.02106   0.01383  -0.0517  0.9481  0.8806  -0.3325   0.0000   0.0000   0.0000   1.0237
   0.000   0.0737   0.02101   0.01378  -0.0510  0.9460  0.8931  -0.3209   0.0000   0.0000   0.0000   0.9423
   0.100   0.0826   0.02100   0.01379  -0.0507  0.9439  0.9087  -0.3248   0.0000   0.0000   0.0000   0.8649
   0.200   0.0947   0.02101   0.01382  -0.0513  0.9420  0.9273  -0.3300   0.0000   0.0000   0.0000   0.7911
   0.300   0.1123   0.02104   0.01386  -0.0530  0.9402  0.9536  -0.3375   0.0000   0.0000   0.0000   0.7216
   0.400   0.1306   0.02106   0.01386  -0.0552  0.9377  1.0000  -0.3450   0.0000   0.0000   0.0000   0.6718
   0.500   0.1502   0.02124   0.01398  -0.0576  0.9359  1.0000  -0.3537   0.0000   0.0000   0.0000   0.6326
   0.600   0.1705   0.02143   0.01411  -0.0601  0.9341  1.0000  -0.3636   0.0000   0.0000   0.0000   0.6013
   0.700   0.1913   0.02165   0.01428  -0.0625  0.9324  1.0000  -0.3738   0.0000   0.0000   0.0000   0.5758
   0.800   0.2124   0.02190   0.01447  -0.0650  0.9309  1.0000  -0.3843   0.0000   0.0000   0.0000   0.5547
   0.900   0.2311   0.02215   0.01467  -0.0670  0.9292  1.0000  -0.3936   0.0000   0.0000   0.0000   0.5384
   1.000   0.2352   0.02217   0.01466  -0.0663  0.9255  1.0000  -0.3953   0.0000   0.0000   0.0000   0.5305
   1.100   0.2444   0.02231   0.01477  -0.0665  0.9229  1.0000  -0.4002   0.0000   0.0000   0.0000   0.5207
   1.200   0.2550   0.02247   0.01490  -0.0670  0.9204  1.0000  -0.4062   0.0000   0.0000   0.0000   0.5111
   1.300   0.2665   0.02265   0.01505  -0.0676  0.9181  1.0000  -0.4127   0.0000   0.0000   0.0000   0.5018
   1.400   0.2789   0.02283   0.01522  -0.0683  0.9157  1.0000  -0.4197   0.0000   0.0000   0.0000   0.4929
   1.500   0.2926   0.02302   0.01538  -0.0692  0.9133  1.0000  -0.4283   0.0000   0.0000   0.0000   0.4844
   1.600   0.3076   0.02319   0.01554  -0.0702  0.9108  1.0000  -0.4379   0.0000   0.0000   0.0000   0.4762
   1.700   0.3241   0.02337   0.01571  -0.0715  0.9085  1.0000  -0.4484   0.0000   0.0000   0.0000   0.4685
   1.800   0.3420   0.02356   0.01589  -0.0730  0.9063  1.0000  -0.4608   0.0000   0.0000   0.0000   0.4613
   1.900   0.3606   0.02376   0.01609  -0.0746  0.9043  1.0000  -0.4740   0.0000   0.0000   0.0000   0.4547
   2.000   0.3800   0.02400   0.01635  -0.0763  0.9026  1.0000  -0.4889   0.0000   0.0000   0.0000   0.4486
   2.100   0.3996   0.02429   0.01664  -0.0781  0.9012  1.0000  -0.5049   0.0000   0.0000   0.0000   0.4431
   2.200   0.3952   0.02441   0.01675  -0.0758  0.8963  1.0000  -0.5062   0.0000   0.0000   0.0000   0.4394
   2.300   0.4000   0.02457   0.01692  -0.0751  0.8922  1.0000  -0.5150   0.0000   0.0000   0.0000   0.4352
   2.400   0.4091   0.02472   0.01708  -0.0750  0.8884  1.0000  -0.5279   0.0000   0.0000   0.0000   0.4308
   2.500   0.4211   0.02487   0.01724  -0.0754  0.8847  1.0000  -0.5465   0.0000   0.0000   0.0000   0.4265
   2.600   0.4354   0.02501   0.01740  -0.0762  0.8814  1.0000  -0.5704   0.0000   0.0000   0.0000   0.4223
   2.700   0.4512   0.02514   0.01756  -0.0772  0.8785  1.0000  -0.5961   0.0000   0.0000   0.0000   0.4183
   2.800   0.4683   0.02526   0.01771  -0.0784  0.8758  1.0000  -0.6235   0.0000   0.0000   0.0000   0.4145
   2.900   0.4868   0.02539   0.01792  -0.0798  0.8735  1.0000  -0.6527   0.0000   0.0000   0.0000   0.4110
   3.000   0.5067   0.02552   0.01810  -0.0814  0.8715  1.0000  -0.6919   0.0000   0.0000   0.0000   0.4076
   3.100   0.5285   0.02566   0.01829  -0.0833  0.8697  1.0000  -0.7341   0.0000   0.0000   0.0000   0.4045
   3.200   0.5366   0.02589   0.01856  -0.0829  0.8656  1.0000  -0.7577   0.0000   0.0000   0.0000   0.4015
   3.300   0.5317   0.02610   0.01877  -0.0806  0.8585  1.0000  -0.7631   0.0000   0.0000   0.0000   0.3983
   3.400   0.5398   0.02623   0.01893  -0.0802  0.8531  1.0000  -0.7946   0.0000   0.0000   0.0000   0.3953
   3.500   0.5526   0.02631   0.01906  -0.0806  0.8486  1.0000  -0.8357   0.0000   0.0000   0.0000   0.3925
   3.600   0.5689   0.02632   0.01913  -0.0814  0.8447  1.0000  -0.8843   0.0000   0.0000   0.0000   0.3897
   3.700   0.5888   0.02624   0.01913  -0.0828  0.8412  1.0000  -0.9408   0.0000   0.0000   0.0000   0.3870
   3.800   0.6122   0.02608   0.01905  -0.0845  0.8381  1.0000  -1.0051   0.0000   0.0000   0.0000   0.3845
   3.900   0.6380   0.02583   0.01891  -0.0866  0.8353  1.0000  -1.0899   0.0000   0.0000   0.0000   0.3821
   4.000   0.6692   0.02539   0.01868  -0.0892  0.8324  1.0000  -1.1997   0.0000   0.0000   0.0000   0.3797
   4.100   0.6553   0.02601   0.01927  -0.0856  0.8231  1.0000  -1.1874   0.0000   0.0000   0.0000   0.3768
   4.200   0.6621   0.02601   0.01932  -0.0847  0.8150  1.0000  -1.2662   0.0000   0.0000   0.0000   0.3741
   4.300   0.6837   0.02548   0.01890  -0.0857  0.8083  1.0000  -1.4507   0.0000   0.0000   0.0000   0.3714
   4.400   0.7199   0.02421   0.01780  -0.0882  0.8020  1.0000  -1.7328   0.0000   0.0000   0.0000   0.3685
   4.500   0.7733   0.02202   0.01585  -0.0925  0.7960  1.0000  -2.1413   0.0000   0.0000   0.0000   0.3656
   4.600   0.8034   0.02093   0.01492  -0.0941  0.7895  1.0000  -2.4103   0.0000   0.0000   0.0000   0.3631
   4.700   0.7960   0.02141   0.01543  -0.0912  0.7795  1.0000  -2.4282   0.0000   0.0000   0.0000   0.3604
   4.800   0.8105   0.02083   0.01496  -0.0907  0.7696  1.0000  -2.5986   0.0000   0.0000   0.0000   0.3577
   4.900   0.8443   0.01916   0.01346  -0.0922  0.7583  1.0000  -2.9113   0.0000   0.0000   0.0000   0.3549
   5.000   0.8698   0.01797   0.01239  -0.0927  0.7445  1.0000  -3.1705   0.0000   0.0000   0.0000   0.3522
   5.100   0.8729   0.01779   0.01229  -0.0906  0.7292  1.0000  -3.2690   0.0000   0.0000   0.0000   0.3494
   5.200   0.8984   0.01643   0.01097  -0.0908  0.7020  1.0000  -3.5357   0.0000   0.0000   0.0000   0.3465
   5.300   0.8990   0.01647   0.01112  -0.0886  0.6837  1.0000  -3.6148   0.0000   0.0000   0.0000   0.3438
   5.400   0.9103   0.01596   0.01071  -0.0873  0.6483  1.0000  -3.7719   0.0000   0.0000   0.0000   0.3411
   5.500   0.9177   0.01556   0.00996  -0.0848  0.5499  1.0000  -3.9023   0.0000   0.0000   0.0000   0.3375
   5.600   0.9126   0.01646   0.00975  -0.0810  0.3900  1.0000  -3.9466   0.0000   0.0000   0.0000   0.3337
   5.700   0.9045   0.01776   0.01025  -0.0778  0.2825  1.0000  -3.9593   0.0000   0.0000   0.0000   0.3309
   5.800   0.8987   0.01912   0.01092  -0.0752  0.1984  1.0000  -3.9742   0.0000   0.0000   0.0000   0.3285
   5.900   0.8976   0.02028   0.01166  -0.0733  0.1493  1.0000  -4.0011   0.0000   0.0000   0.0000   0.3263
   6.100   0.9033   0.02210   0.01323  -0.0702  0.1089  1.0000  -4.0764   0.0000   0.0000   0.0000   0.3222
   6.200   0.9062   0.02315   0.01415  -0.0688  0.0972  1.0000  -4.1102   0.0000   0.0000   0.0000   0.3204
   6.300   0.9131   0.02405   0.01507  -0.0679  0.0872  1.0000  -4.1521   0.0000   0.0000   0.0000   0.3187
   6.400   0.9196   0.02449   0.01548  -0.0672  0.0764  1.0000  -4.2338   0.0000   0.0000   0.0000   0.3173
   6.500   0.9272   0.02622   0.01708  -0.0667  0.0676  1.0000  -4.2487   0.0000   0.0000   0.0000   0.3160
   6.600   0.9397   0.02734   0.01828  -0.0665  0.0630  1.0000  -4.2628   0.0000   0.0000   0.0000   0.3148
   6.700   0.9516   0.02826   0.01928  -0.0662  0.0583  1.0000  -4.2812   0.0000   0.0000   0.0000   0.3135
   6.800   0.9597   0.02881   0.01984  -0.0657  0.0529  1.0000  -4.3364   0.0000   0.0000   0.0000   0.3123
   6.900   0.9670   0.02969   0.02069  -0.0654  0.0475  1.0000  -4.4101   0.0000   0.0000   0.0000   0.3114
   7.000   0.9864   0.03337   0.02448  -0.0666  0.0437  1.0000  -4.3522   0.0000   0.0000   0.0000   0.3112
   7.100   0.9969   0.03424   0.02550  -0.0661  0.0428  1.0000  -4.3976   0.0000   0.0000   0.0000   0.3099
   7.200   1.0075   0.03541   0.02683  -0.0657  0.0420  1.0000  -4.4297   0.0000   0.0000   0.0000   0.3087
   7.300   1.0177   0.03676   0.02834  -0.0652  0.0414  1.0000  -4.4519   0.0000   0.0000   0.0000   0.3074
   7.400   1.0270   0.03822   0.02998  -0.0646  0.0410  1.0000  -4.4666   0.0000   0.0000   0.0000   0.3062
   7.500   1.0352   0.03976   0.03171  -0.0639  0.0408  1.0000  -4.4749   0.0000   0.0000   0.0000   0.3049
   7.600   1.0424   0.04137   0.03351  -0.0631  0.0407  1.0000  -4.4776   0.0000   0.0000   0.0000   0.3037
   7.700   1.0487   0.04305   0.03538  -0.0623  0.0408  1.0000  -4.4756   0.0000   0.0000   0.0000   0.3024
   7.800   1.0541   0.04475   0.03727  -0.0613  0.0410  1.0000  -4.4720   0.0000   0.0000   0.0000   0.3011
   7.900   1.0587   0.04636   0.03907  -0.0603  0.0410  1.0000  -4.4713   0.0000   0.0000   0.0000   0.2998
   8.000   1.0627   0.04789   0.04077  -0.0592  0.0409  1.0000  -4.4734   0.0000   0.0000   0.0000   0.2985
   8.100   1.0662   0.04935   0.04240  -0.0582  0.0407  1.0000  -4.4779   0.0000   0.0000   0.0000   0.2972
   8.200   1.0692   0.05075   0.04397  -0.0570  0.0404  1.0000  -4.4833   0.0000   0.0000   0.0000   0.2960
   8.300   1.0717   0.05215   0.04553  -0.0559  0.0401  1.0000  -4.4880   0.0000   0.0000   0.0000   0.2947
   8.400   1.0736   0.05358   0.04712  -0.0547  0.0398  1.0000  -4.4903   0.0000   0.0000   0.0000   0.2934
   8.500   1.0748   0.05506   0.04875  -0.0536  0.0396  1.0000  -4.4894   0.0000   0.0000   0.0000   0.2922
   8.600   1.0754   0.05660   0.05044  -0.0524  0.0395  1.0000  -4.4845   0.0000   0.0000   0.0000   0.2910
   8.700   1.0752   0.05820   0.05218  -0.0512  0.0395  1.0000  -4.4757   0.0000   0.0000   0.0000   0.2898
   8.800   1.0743   0.05986   0.05398  -0.0500  0.0397  1.0000  -4.4630   0.0000   0.0000   0.0000   0.2887
   8.900   1.0726   0.06158   0.05582  -0.0488  0.0399  1.0000  -4.4471   0.0000   0.0000   0.0000   0.2875
   9.000   1.0701   0.06335   0.05772  -0.0476  0.0403  1.0000  -4.4283   0.0000   0.0000   0.0000   0.2865
   9.100   1.0668   0.06519   0.05966  -0.0464  0.0407  1.0000  -4.4070   0.0000   0.0000   0.0000   0.2854
   9.200   1.0627   0.06711   0.06168  -0.0453  0.0411  1.0000  -4.3829   0.0000   0.0000   0.0000   0.2844
   9.300   1.0579   0.06917   0.06383  -0.0442  0.0417  1.0000  -4.3549   0.0000   0.0000   0.0000   0.2835
   9.400   1.0519   0.07167   0.06640  -0.0433  0.0424  1.0000  -4.3165   0.0000   0.0000   0.0000   0.2828
   9.500   1.0475   0.07245   0.06767  -0.0401  0.0524  1.0000  -4.0633   0.0000   0.0000   0.0000   0.2800
   9.600   1.0364   0.07449   0.06982  -0.0387  0.0542  1.0000  -3.9840   0.0000   0.0000   0.0000   0.2789
   9.700   1.0268   0.07645   0.07188  -0.0376  0.0557  1.0000  -3.9262   0.0000   0.0000   0.0000   0.2782
   9.800   1.0177   0.07837   0.07387  -0.0368  0.0570  1.0000  -3.8801   0.0000   0.0000   0.0000   0.2776
   9.900   1.0089   0.08032   0.07588  -0.0362  0.0582  1.0000  -3.8395   0.0000   0.0000   0.0000   0.2772
  10.000   1.0004   0.08235   0.07795  -0.0358  0.0592  1.0000  -3.8017   0.0000   0.0000   0.0000   0.2771
  10.100   0.9920   0.08447   0.08012  -0.0357  0.0603  1.0000  -3.7655   0.0000   0.0000   0.0000   0.2771
  10.200   0.9839   0.08679   0.08247  -0.0357  0.0615  1.0000  -3.7298   0.0000   0.0000   0.0000   0.2773
  11.400   0.8693   0.13006   0.12605  -0.0641  0.1088  1.0000  -2.5756   0.0000   0.0000   0.0000   0.3142
  11.500   0.8680   0.13221   0.12819  -0.0652  0.1077  1.0000  -2.5568   0.0000   0.0000   0.0000   0.3154
  11.600   0.8672   0.13428   0.13025  -0.0661  0.1065  1.0000  -2.5419   0.0000   0.0000   0.0000   0.3164
  11.700   0.8670   0.13626   0.13222  -0.0668  0.1052  1.0000  -2.5315   0.0000   0.0000   0.0000   0.3172
  11.800   0.8675   0.13816   0.13411  -0.0675  0.1039  1.0000  -2.5263   0.0000   0.0000   0.0000   0.3178
  11.900   0.8690   0.13993   0.13588  -0.0678  0.1025  1.0000  -2.5295   0.0000   0.0000   0.0000   0.3180
  12.000   0.8725   0.14147   0.13743  -0.0676  0.1008  1.0000  -2.5503   0.0000   0.0000   0.0000   0.3173
  12.200   0.8888   0.14945   0.14541  -0.0606  0.0930  1.0000  -2.7157   0.0000   0.0000   0.0000   0.3078
  12.300   0.8865   0.15184   0.14779  -0.0623  0.0929  1.0000  -2.6808   0.0000   0.0000   0.0000   0.3098
  12.400   0.8845   0.15411   0.15004  -0.0640  0.0928  1.0000  -2.6477   0.0000   0.0000   0.0000   0.3118
  12.500   0.8827   0.15623   0.15216  -0.0656  0.0927  1.0000  -2.6160   0.0000   0.0000   0.0000   0.3137
  12.600   0.8811   0.15820   0.15411  -0.0672  0.0925  1.0000  -2.5850   0.0000   0.0000   0.0000   0.3155
  12.700   0.8794   0.15994   0.15584  -0.0689  0.0923  1.0000  -2.5539   0.0000   0.0000   0.0000   0.3175
  12.800   0.8777   0.16134   0.15722  -0.0707  0.0918  1.0000  -2.5209   0.0000   0.0000   0.0000   0.3197
  12.900   0.8750   0.16236   0.15822  -0.0730  0.0909  1.0000  -2.4793   0.0000   0.0000   0.0000   0.3224
  13.000   0.8713   0.16362   0.15945  -0.0754  0.0898  1.0000  -2.4294   0.0000   0.0000   0.0000   0.3254
  13.100   0.8687   0.16501   0.16082  -0.0776  0.0884  1.0000  -2.3845   0.0000   0.0000   0.0000   0.3281
  13.200   0.8668   0.16660   0.16240  -0.0795  0.0868  1.0000  -2.3480   0.0000   0.0000   0.0000   0.3303
  13.300   0.8660   0.16827   0.16405  -0.0810  0.0851  1.0000  -2.3206   0.0000   0.0000   0.0000   0.3321
  13.400   0.8658   0.16993   0.16570  -0.0822  0.0834  1.0000  -2.3010   0.0000   0.0000   0.0000   0.3334
  13.500   0.8663   0.17151   0.16727  -0.0833  0.0815  1.0000  -2.2887   0.0000   0.0000   0.0000   0.3345
  13.600   0.8674   0.17303   0.16879  -0.0841  0.0797  1.0000  -2.2837   0.0000   0.0000   0.0000   0.3352
  13.700   0.8692   0.17450   0.17026  -0.0848  0.0777  1.0000  -2.2869   0.0000   0.0000   0.0000   0.3356
  13.800   0.8717   0.17591   0.17167  -0.0852  0.0758  1.0000  -2.3004   0.0000   0.0000   0.0000   0.3357
  13.900   0.8755   0.17729   0.17306  -0.0852  0.0738  1.0000  -2.3283   0.0000   0.0000   0.0000   0.3352
  14.000   0.8804   0.17872   0.17449  -0.0848  0.0721  1.0000  -2.3706   0.0000   0.0000   0.0000   0.3341
  14.100   0.8859   0.18035   0.17614  -0.0843  0.0708  1.0000  -2.4166   0.0000   0.0000   0.0000   0.3327
  14.200   0.8922   0.18229   0.17810  -0.0834  0.0696  1.0000  -2.4705   0.0000   0.0000   0.0000   0.3310
  14.300   0.8997   0.18521   0.18104  -0.0819  0.0682  1.0000  -2.5415   0.0000   0.0000   0.0000   0.3283
  14.600   0.8971   0.19753   0.19329  -0.0843  0.0662  1.0000  -2.4440   0.0000   0.0000   0.0000   0.3311
  14.700   0.8981   0.19928   0.19503  -0.0854  0.0662  1.0000  -2.4257   0.0000   0.0000   0.0000   0.3321
  14.800   0.8992   0.20098   0.19672  -0.0865  0.0661  1.0000  -2.4076   0.0000   0.0000   0.0000   0.3331
  14.900   0.9003   0.20263   0.19837  -0.0877  0.0660  1.0000  -2.3896   0.0000   0.0000   0.0000   0.3341
  15.000   0.9014   0.20421   0.19994  -0.0888  0.0659  1.0000  -2.3716   0.0000   0.0000   0.0000   0.3352
  15.100   0.9025   0.20571   0.20143  -0.0900  0.0657  1.0000  -2.3534   0.0000   0.0000   0.0000   0.3362
  15.200   0.9036   0.20709   0.20280  -0.0912  0.0656  1.0000  -2.3348   0.0000   0.0000   0.0000   0.3373
  15.300   0.9046   0.20830   0.20401  -0.0925  0.0653  1.0000  -2.3144   0.0000   0.0000   0.0000   0.3385
  15.400   0.9044   0.20929   0.20498  -0.0941  0.0650  1.0000  -2.2840   0.0000   0.0000   0.0000   0.3402
  15.500   0.9041   0.21008   0.20575  -0.0959  0.0644  1.0000  -2.2500   0.0000   0.0000   0.0000   0.3421
  15.600   0.9034   0.21081   0.20647  -0.0978  0.0637  1.0000  -2.2113   0.0000   0.0000   0.0000   0.3442
  15.700   0.9026   0.21169   0.20733  -0.0996  0.0628  1.0000  -2.1739   0.0000   0.0000   0.0000   0.3461
  15.800   0.9023   0.21279   0.20843  -0.1012  0.0619  1.0000  -2.1431   0.0000   0.0000   0.0000   0.3477
  15.900   0.9029   0.21419   0.20982  -0.1025  0.0609  1.0000  -2.1195   0.0000   0.0000   0.0000   0.3490
  16.000   0.9039   0.21578   0.21140  -0.1037  0.0599  1.0000  -2.1014   0.0000   0.0000   0.0000   0.3500
  16.100   0.9053   0.21746   0.21308  -0.1047  0.0589  1.0000  -2.0871   0.0000   0.0000   0.0000   0.3509
  16.200   0.9069   0.21920   0.21482  -0.1057  0.0579  1.0000  -2.0757   0.0000   0.0000   0.0000   0.3516
  16.300   0.9086   0.22098   0.21659  -0.1066  0.0570  1.0000  -2.0665   0.0000   0.0000   0.0000   0.3522
  16.400   0.9105   0.22277   0.21838  -0.1074  0.0561  1.0000  -2.0591   0.0000   0.0000   0.0000   0.3528
  16.500   0.9124   0.22458   0.22019  -0.1082  0.0552  1.0000  -2.0534   0.0000   0.0000   0.0000   0.3533
  16.600   0.9144   0.22640   0.22201  -0.1090  0.0544  1.0000  -2.0492   0.0000   0.0000   0.0000   0.3537
  16.700   0.9164   0.22823   0.22384  -0.1097  0.0536  1.0000  -2.0465   0.0000   0.0000   0.0000   0.3542
  16.800   0.9186   0.23006   0.22567  -0.1104  0.0527  1.0000  -2.0455   0.0000   0.0000   0.0000   0.3545
  16.900   0.9208   0.23189   0.22751  -0.1111  0.0520  1.0000  -2.0463   0.0000   0.0000   0.0000   0.3548
  17.000   0.9231   0.23374   0.22935  -0.1117  0.0512  1.0000  -2.0490   0.0000   0.0000   0.0000   0.3550
  17.100   0.9255   0.23559   0.23122  -0.1123  0.0505  1.0000  -2.0540   0.0000   0.0000   0.0000   0.3552
  17.200   0.9280   0.23747   0.23310  -0.1128  0.0497  1.0000  -2.0616   0.0000   0.0000   0.0000   0.3553
  17.300   0.9307   0.23938   0.23501  -0.1132  0.0490  1.0000  -2.0727   0.0000   0.0000   0.0000   0.3552
  17.400   0.9336   0.24135   0.23699  -0.1135  0.0483  1.0000  -2.0880   0.0000   0.0000   0.0000   0.3550
  17.500   0.9370   0.24343   0.23908  -0.1137  0.0476  1.0000  -2.1093   0.0000   0.0000   0.0000   0.3547
  17.600   0.9410   0.24575   0.24141  -0.1137  0.0469  1.0000  -2.1397   0.0000   0.0000   0.0000   0.3539
  17.700   0.9468   0.24870   0.24438  -0.1131  0.0461  1.0000  -2.1886   0.0000   0.0000   0.0000   0.3525
  17.800   0.9551   0.25367   0.24938  -0.1115  0.0451  1.0000  -2.2664   0.0000   0.0000   0.0000   0.3497
  17.900   0.9541   0.26343   0.25909  -0.1114  0.0439  1.0000  -2.2154   0.0000   0.0000   0.0000   0.3497
  18.000   0.9557   0.26540   0.26106  -0.1123  0.0438  1.0000  -2.2008   0.0000   0.0000   0.0000   0.3503
  18.100   0.9572   0.26735   0.26301  -0.1132  0.0438  1.0000  -2.1863   0.0000   0.0000   0.0000   0.3509
  18.200   0.9587   0.26928   0.26494  -0.1141  0.0438  1.0000  -2.1718   0.0000   0.0000   0.0000   0.3516
  18.300   0.9602   0.27119   0.26685  -0.1150  0.0437  1.0000  -2.1574   0.0000   0.0000   0.0000   0.3522
  18.400   0.9617   0.27308   0.26874  -0.1159  0.0437  1.0000  -2.1430   0.0000   0.0000   0.0000   0.3528
  18.500   0.9631   0.27495   0.27061  -0.1168  0.0437  1.0000  -2.1287   0.0000   0.0000   0.0000   0.3534
  18.600   0.9645   0.27678   0.27244  -0.1177  0.0436  1.0000  -2.1143   0.0000   0.0000   0.0000   0.3540
  18.700   0.9659   0.27858   0.27424  -0.1187  0.0435  1.0000  -2.0999   0.0000   0.0000   0.0000   0.3547
  18.800   0.9672   0.28033   0.27600  -0.1196  0.0435  1.0000  -2.0854   0.0000   0.0000   0.0000   0.3553
  18.900   0.9684   0.28203   0.27769  -0.1205  0.0434  1.0000  -2.0702   0.0000   0.0000   0.0000   0.3560
  19.000   0.9691   0.28359   0.27925  -0.1215  0.0433  1.0000  -2.0508   0.0000   0.0000   0.0000   0.3568
  19.100   0.9696   0.28507   0.28073  -0.1226  0.0432  1.0000  -2.0309   0.0000   0.0000   0.0000   0.3577
  19.200   0.9700   0.28645   0.28211  -0.1237  0.0431  1.0000  -2.0099   0.0000   0.0000   0.0000   0.3586
  19.300   0.9697   0.28766   0.28331  -0.1248  0.0430  1.0000  -1.9857   0.0000   0.0000   0.0000   0.3596
  19.400   0.9693   0.28880   0.28445  -0.1260  0.0428  1.0000  -1.9603   0.0000   0.0000   0.0000   0.3607
  19.500   0.9689   0.28992   0.28557  -0.1272  0.0426  1.0000  -1.9343   0.0000   0.0000   0.0000   0.3619
  19.600   0.9687   0.29104   0.28668  -0.1285  0.0424  1.0000  -1.9076   0.0000   0.0000   0.0000   0.3630
  19.700   0.9686   0.29220   0.28785  -0.1297  0.0421  1.0000  -1.8806   0.0000   0.0000   0.0000   0.3642
  19.800   0.9688   0.29348   0.28912  -0.1310  0.0417  1.0000  -1.8543   0.0000   0.0000   0.0000   0.3652
  19.900   0.9693   0.29493   0.29058  -0.1321  0.0412  1.0000  -1.8297   0.0000   0.0000   0.0000   0.3662
  20.000   0.9701   0.29657   0.29222  -0.1332  0.0407  1.0000  -1.8082   0.0000   0.0000   0.0000   0.3670
  20.100   0.9710   0.29837   0.29402  -0.1341  0.0401  1.0000  -1.7896   0.0000   0.0000   0.0000   0.3677
  20.200   0.9719   0.30028   0.29593  -0.1350  0.0396  1.0000  -1.7735   0.0000   0.0000   0.0000   0.3683
  20.300   0.9727   0.30226   0.29792  -0.1358  0.0390  1.0000  -1.7592   0.0000   0.0000   0.0000   0.3689
  20.400   0.9736   0.30428   0.29995  -0.1365  0.0385  1.0000  -1.7464   0.0000   0.0000   0.0000   0.3694
  20.500   0.9743   0.30633   0.30200  -0.1372  0.0380  1.0000  -1.7346   0.0000   0.0000   0.0000   0.3699
  20.600   0.9749   0.30839   0.30407  -0.1379  0.0375  1.0000  -1.7236   0.0000   0.0000   0.0000   0.3703
  20.700   0.9755   0.31046   0.30615  -0.1385  0.0370  1.0000  -1.7131   0.0000   0.0000   0.0000   0.3707
  20.800   0.9759   0.31252   0.30822  -0.1391  0.0365  1.0000  -1.7031   0.0000   0.0000   0.0000   0.3711
  20.900   0.9762   0.31458   0.31029  -0.1397  0.0361  1.0000  -1.6934   0.0000   0.0000   0.0000   0.3715
  21.000   0.9763   0.31662   0.31234  -0.1402  0.0356  1.0000  -1.6840   0.0000   0.0000   0.0000   0.3719
  21.100   0.9763   0.31865   0.31438  -0.1407  0.0352  1.0000  -1.6746   0.0000   0.0000   0.0000   0.3723
  21.200   0.9761   0.32066   0.31640  -0.1412  0.0348  1.0000  -1.6653   0.0000   0.0000   0.0000   0.3727
  21.300   0.9756   0.32263   0.31839  -0.1417  0.0343  1.0000  -1.6559   0.0000   0.0000   0.0000   0.3731
  21.400   0.9748   0.32457   0.32033  -0.1421  0.0340  1.0000  -1.6462   0.0000   0.0000   0.0000   0.3735
  21.500   0.9737   0.32645   0.32223  -0.1424  0.0336  1.0000  -1.6362   0.0000   0.0000   0.0000   0.3739
  21.600   0.9721   0.32825   0.32405  -0.1427  0.0332  1.0000  -1.6254   0.0000   0.0000   0.0000   0.3743
  21.700   0.9699   0.32995   0.32576  -0.1429  0.0329  1.0000  -1.6135   0.0000   0.0000   0.0000   0.3747
  21.800   0.9667   0.33146   0.32730  -0.1429  0.0326  1.0000  -1.5994   0.0000   0.0000   0.0000   0.3752
  21.900   0.9045   0.32030   0.31635  -0.1355  0.0334  1.0000  -1.4399   0.0000   0.0000   0.0000   0.3781
  22.000   0.8969   0.31962   0.31570  -0.1350  0.0331  1.0000  -1.4150   0.0000   0.0000   0.0000   0.3788
  22.100   0.8910   0.31927   0.31538  -0.1346  0.0328  1.0000  -1.3946   0.0000   0.0000   0.0000   0.3794
  22.200   0.8861   0.31910   0.31524  -0.1344  0.0326  1.0000  -1.3770   0.0000   0.0000   0.0000   0.3799
  22.300   0.8820   0.31905   0.31521  -0.1343  0.0323  1.0000  -1.3614   0.0000   0.0000   0.0000   0.3804
  22.400   0.8783   0.31908   0.31539  -0.1342  0.0320  1.0000  -1.3471   0.0000   0.0000   0.0000   0.3809
  22.500   0.8750   0.31918   0.31551  -0.1342  0.0317  1.0000  -1.3345   0.0000   0.0000   0.0000   0.3813
  22.600   0.8721   0.31931   0.31566  -0.1341  0.0314  1.0000  -1.3232   0.0000   0.0000   0.0000   0.3818
  22.700   0.8694   0.31947   0.31585  -0.1342  0.0310  1.0000  -1.3131   0.0000   0.0000   0.0000   0.3822
  22.800   0.8669   0.31968   0.31607  -0.1342  0.0307  1.0000  -1.3041   0.0000   0.0000   0.0000   0.3825
  22.900   0.8647   0.31990   0.31631  -0.1342  0.0304  1.0000  -1.2963   0.0000   0.0000   0.0000   0.3829
  23.000   0.8626   0.32015   0.31658  -0.1343  0.0301  1.0000  -1.2896   0.0000   0.0000   0.0000   0.3833
  23.100   0.8607   0.32042   0.31687  -0.1343  0.0298  1.0000  -1.2841   0.0000   0.0000   0.0000   0.3836
  23.200   0.8589   0.32070   0.31717  -0.1344  0.0295  1.0000  -1.2799   0.0000   0.0000   0.0000   0.3839
  23.300   0.8573   0.32101   0.31750  -0.1345  0.0292  1.0000  -1.2771   0.0000   0.0000   0.0000   0.3841
  23.400   0.8558   0.32133   0.31784  -0.1345  0.0289  1.0000  -1.2759   0.0000   0.0000   0.0000   0.3843
  23.500   0.8544   0.32168   0.31821  -0.1345  0.0286  1.0000  -1.2764   0.0000   0.0000   0.0000   0.3845
  23.600   0.8532   0.32208   0.31862  -0.1345  0.0283  1.0000  -1.2791   0.0000   0.0000   0.0000   0.3846
  23.700   0.8521   0.32254   0.31910  -0.1344  0.0280  1.0000  -1.2843   0.0000   0.0000   0.0000   0.3846
  23.800   0.8513   0.32313   0.31971  -0.1343  0.0276  1.0000  -1.2976   0.0000   0.0000   0.0000   0.3845
  23.900   0.8510   0.32400   0.32060  -0.1341  0.0273  1.0000  -1.3173   0.0000   0.0000   0.0000   0.3842
  24.000   0.8519   0.32571   0.32233  -0.1336  0.0269  1.0000  -1.3479   0.0000   0.0000   0.0000   0.3834


