xflr5 v6.61

 Calculated polar for: EPPLER E852 AIRFOIL

 1 1 Reynolds number fixed          Mach number fixed         

 xtrf =   1.000 (top)        1.000 (bottom)
 Mach =   0.000     Re =     0.563 e 6     Ncrit =   9.000

  alpha     CL        CD       CDp       Cm    Top Xtr Bot Xtr   Cpmin    Chinge    XCp    
 ------- -------- --------- --------- -------- ------- ------- -------- --------- ---------
 -10.000  -0.4080   0.10375   0.10160  -0.0391  1.0000  0.0105  -2.1884   0.0000   0.0000   0.0000   0.1454
  -9.900  -0.4076   0.10239   0.10025  -0.0394  1.0000  0.0105  -2.2015   0.0000   0.0000   0.0000   0.1445
  -9.800  -0.4074   0.10101   0.09888  -0.0398  1.0000  0.0105  -2.2164   0.0000   0.0000   0.0000   0.1438
  -9.700  -0.4074   0.09961   0.09749  -0.0401  1.0000  0.0106  -2.2330   0.0000   0.0000   0.0000   0.1431
  -9.600  -0.4075   0.09820   0.09609  -0.0404  1.0000  0.0106  -2.2509   0.0000   0.0000   0.0000   0.1424
  -9.500  -0.4078   0.09677   0.09468  -0.0407  1.0000  0.0106  -2.2701   0.0000   0.0000   0.0000   0.1418
  -9.400  -0.4082   0.09532   0.09324  -0.0411  1.0000  0.0106  -2.2904   0.0000   0.0000   0.0000   0.1412
  -9.300  -0.4087   0.09386   0.09178  -0.0414  1.0000  0.0106  -2.3118   0.0000   0.0000   0.0000   0.1407
  -9.200  -0.4094   0.09239   0.09032  -0.0417  1.0000  0.0106  -2.3342   0.0000   0.0000   0.0000   0.1402
  -9.100  -0.4103   0.09091   0.08886  -0.0420  1.0000  0.0106  -2.3577   0.0000   0.0000   0.0000   0.1398
  -9.000  -0.4114   0.08943   0.08740  -0.0422  1.0000  0.0106  -2.3823   0.0000   0.0000   0.0000   0.1396
  -8.900  -0.4129   0.08796   0.08594  -0.0425  1.0000  0.0106  -2.4078   0.0000   0.0000   0.0000   0.1395
  -8.800  -0.4146   0.08650   0.08450  -0.0427  1.0000  0.0106  -2.4344   0.0000   0.0000   0.0000   0.1396
  -8.700  -0.4168   0.08506   0.08307  -0.0428  1.0000  0.0106  -2.4620   0.0000   0.0000   0.0000   0.1400
  -8.600  -0.4193   0.08364   0.08167  -0.0429  1.0000  0.0106  -2.4906   0.0000   0.0000   0.0000   0.1406
  -8.500  -0.4225   0.08227   0.08032  -0.0428  1.0000  0.0106  -2.5201   0.0000   0.0000   0.0000   0.1416
  -8.400  -0.4264   0.08096   0.07903  -0.0426  1.0000  0.0106  -2.5504   0.0000   0.0000   0.0000   0.1432
  -8.300  -0.4308   0.07968   0.07778  -0.0424  1.0000  0.0106  -2.5817   0.0000   0.0000   0.0000   0.1449
  -8.200  -0.4256   0.07679   0.07488  -0.0458  0.9990  0.0106  -2.6321   0.0000   0.0000   0.0000   0.1358
  -8.100  -0.4201   0.07350   0.07159  -0.0498  0.9978  0.0106  -2.6966   0.0000   0.0000   0.0000   0.1248
  -8.000  -0.4145   0.06952   0.06760  -0.0550  0.9965  0.0106  -2.7863   0.0000   0.0000   0.0000   0.1105
  -7.900  -0.4106   0.06597   0.06401  -0.0603  0.9941  0.0106  -2.8636   0.0000   0.0000   0.0000   0.0965
  -7.800  -0.4068   0.06254   0.06054  -0.0664  0.9909  0.0106  -2.9344   0.0000   0.0000   0.0000   0.0802
  -7.700  -0.3979   0.05862   0.05652  -0.0742  0.9882  0.0106  -3.0013   0.0000   0.0000   0.0000   0.0569
  -7.600  -0.3963   0.05484   0.05265  -0.0790  0.9846  0.0107  -3.1246   0.0000   0.0000   0.0000   0.0443
  -7.500  -0.4025   0.04862   0.04622  -0.0848  0.9787  0.0110  -3.4373   0.0000   0.0000   0.0000   0.0329
  -7.400  -0.4020   0.04342   0.04080  -0.0894  0.9755  0.0113  -3.6623   0.0000   0.0000   0.0000   0.0212
  -7.300  -0.3962   0.03979   0.03699  -0.0926  0.9739  0.0116  -3.7667   0.0000   0.0000   0.0000   0.0100
  -7.200  -0.3897   0.03732   0.03438  -0.0943  0.9716  0.0118  -3.8023   0.0000   0.0000   0.0000   0.0017
  -7.100  -0.3868   0.03568   0.03264  -0.0942  0.9663  0.0120  -3.8118   0.0000   0.0000   0.0000   0.0001
  -7.000  -0.3788   0.03384   0.03067  -0.0953  0.9634  0.0122  -3.8076   0.0000   0.0000   0.0000  -0.0078
  -6.900  -0.3692   0.03209   0.02880  -0.0964  0.9613  0.0124  -3.7946   0.0000   0.0000   0.0000  -0.0175
  -6.800  -0.3612   0.02663   0.02284  -0.0972  0.9589  0.0077  -4.4568   0.0000   0.0000   0.0000  -0.0258
  -6.700  -0.3496   0.02515   0.02124  -0.0982  0.9576  0.0075  -4.4315   0.0000   0.0000   0.0000  -0.0376
  -6.600  -0.3376   0.02357   0.01950  -0.0991  0.9565  0.0073  -4.4423   0.0000   0.0000   0.0000  -0.0505
  -6.500  -0.3252   0.02200   0.01774  -0.1000  0.9556  0.0071  -4.4688   0.0000   0.0000   0.0000  -0.0645
  -6.400  -0.3123   0.02049   0.01605  -0.1008  0.9547  0.0069  -4.4993   0.0000   0.0000   0.0000  -0.0799
  -6.300  -0.2988   0.01909   0.01447  -0.1016  0.9540  0.0068  -4.5229   0.0000   0.0000   0.0000  -0.0972
  -6.200  -0.2915   0.01811   0.01337  -0.1009  0.9499  0.0068  -4.5351   0.0000   0.0000   0.0000  -0.1036
  -6.100  -0.2815   0.01710   0.01222  -0.1008  0.9467  0.0068  -4.5388   0.0000   0.0000   0.0000  -0.1154
  -6.000  -0.2700   0.01613   0.01113  -0.1010  0.9442  0.0069  -4.5298   0.0000   0.0000   0.0000  -0.1314
  -5.900  -0.2580   0.01525   0.01012  -0.1012  0.9420  0.0070  -4.5059   0.0000   0.0000   0.0000  -0.1501
  -5.800  -0.2452   0.01444   0.00921  -0.1016  0.9401  0.0072  -4.4644   0.0000   0.0000   0.0000  -0.1724
  -5.700  -0.2318   0.01373   0.00839  -0.1022  0.9385  0.0074  -4.4017   0.0000   0.0000   0.0000  -0.1989
  -5.600  -0.2178   0.01327   0.00784  -0.1028  0.9369  0.0078  -4.2845   0.0000   0.0000   0.0000  -0.2304
  -5.400  -0.1897   0.01256   0.00710  -0.1045  0.9339  0.0088  -3.9339   0.0000   0.0000   0.0000  -0.3098
  -5.300  -0.1751   0.01247   0.00702  -0.1054  0.9324  0.0093  -3.7260   0.0000   0.0000   0.0000  -0.3613
  -5.200  -0.1608   0.01208   0.00660  -0.1062  0.9308  0.0096  -3.5996   0.0000   0.0000   0.0000  -0.4201
  -5.100  -0.1484   0.01174   0.00620  -0.1065  0.9284  0.0100  -3.4894   0.0000   0.0000   0.0000  -0.4782
  -5.000  -0.1386   0.01154   0.00598  -0.1062  0.9248  0.0104  -3.3793   0.0000   0.0000   0.0000  -0.5275
  -4.900  -0.1285   0.01092   0.00521  -0.1061  0.9212  0.0112  -3.3389   0.0000   0.0000   0.0000  -0.5870
  -4.800  -0.1178   0.00989   0.00399  -0.1061  0.9176  0.0158  -3.4299   0.0000   0.0000   0.0000  -0.6624
  -4.700  -0.1053   0.00968   0.00378  -0.1065  0.9148  0.0208  -3.2994   0.0000   0.0000   0.0000  -0.7739
  -4.600  -0.0924   0.00968   0.00379  -0.1069  0.9123  0.0236  -3.1117   0.0000   0.0000   0.0000  -0.9218
  -4.500  -0.0799   0.00918   0.00325  -0.1073  0.9095  0.0359  -3.0180   0.0000   0.0000   0.0000  -1.1084
  -4.400  -0.0670   0.00904   0.00308  -0.1077  0.9069  0.0420  -2.8567   0.0000   0.0000   0.0000  -1.3765
  -4.300  -0.0544   0.00875   0.00287  -0.1082  0.9041  0.0642  -2.7240   0.0000   0.0000   0.0000  -1.7628
  -4.100  -0.0320   0.00826   0.00259  -0.1087  0.8985  0.1238  -2.4529   0.0000   0.0000   0.0000  -3.1828
  -4.000  -0.0222   0.00797   0.00246  -0.1087  0.8958  0.1685  -2.3264   0.0000   0.0000   0.0000  -4.6887
  -3.900  -0.0126   0.00757   0.00231  -0.1088  0.8928  0.2350  -2.2022   0.0000   0.0000   0.0000  -8.4771
  -3.800  -0.0027   0.00717   0.00220  -0.1089  0.8899  0.3151  -2.0775   0.0000   0.0000   0.0000  -39.8496
  -3.700   0.0078   0.00692   0.00215  -0.1090  0.8871  0.3776  -1.9488   0.0000   0.0000   0.0000  14.3798
  -3.600   0.0188   0.00678   0.00213  -0.1091  0.8844  0.4170  -1.8188   0.0000   0.0000   0.0000   6.1086
  -3.500   0.0303   0.00675   0.00209  -0.1092  0.8817  0.4349  -1.6876   0.0000   0.0000   0.0000   3.8787
  -3.400   0.0419   0.00669   0.00206  -0.1093  0.8792  0.4525  -1.5596   0.0000   0.0000   0.0000   2.8820
  -3.300   0.0535   0.00665   0.00204  -0.1095  0.8765  0.4665  -1.4333   0.0000   0.0000   0.0000   2.3118
  -3.200   0.0654   0.00665   0.00201  -0.1096  0.8738  0.4765  -1.3084   0.0000   0.0000   0.0000   1.9394
  -3.100   0.0775   0.00667   0.00200  -0.1099  0.8709  0.4842  -1.1848   0.0000   0.0000   0.0000   1.6777
  -3.000   0.0897   0.00670   0.00198  -0.1101  0.8680  0.4904  -1.0633   0.0000   0.0000   0.0000   1.4863
  -2.900   0.1002   0.00664   0.00194  -0.1100  0.8665  0.5028  -0.9505   0.0000   0.0000   0.0000   1.3555
  -2.800   0.1108   0.00661   0.00193  -0.1099  0.8647  0.5110  -0.8442   0.0000   0.0000   0.0000   1.2484
  -2.700   0.1215   0.00660   0.00192  -0.1098  0.8627  0.5185  -0.7401   0.0000   0.0000   0.0000   1.1595
  -2.600   0.1323   0.00659   0.00192  -0.1098  0.8605  0.5253  -0.6555   0.0000   0.0000   0.0000   1.0844
  -2.500   0.1433   0.00659   0.00191  -0.1097  0.8582  0.5306  -0.6111   0.0000   0.0000   0.0000   1.0201
  -2.400   0.1543   0.00660   0.00189  -0.1097  0.8559  0.5341  -0.5671   0.0000   0.0000   0.0000   0.9647
  -2.300   0.1655   0.00661   0.00187  -0.1097  0.8536  0.5366  -0.5235   0.0000   0.0000   0.0000   0.9164
  -2.200   0.1768   0.00662   0.00185  -0.1098  0.8513  0.5390  -0.4845   0.0000   0.0000   0.0000   0.8738
  -2.100   0.1881   0.00665   0.00184  -0.1098  0.8491  0.5410  -0.4461   0.0000   0.0000   0.0000   0.8362
  -2.000   0.1993   0.00661   0.00182  -0.1098  0.8470  0.5506  -0.4313   0.0000   0.0000   0.0000   0.8034
  -1.900   0.2104   0.00658   0.00182  -0.1099  0.8449  0.5609  -0.4356   0.0000   0.0000   0.0000   0.7741
  -1.800   0.2216   0.00658   0.00183  -0.1099  0.8428  0.5687  -0.4399   0.0000   0.0000   0.0000   0.7476
  -1.700   0.2329   0.00659   0.00184  -0.1099  0.8405  0.5749  -0.4443   0.0000   0.0000   0.0000   0.7235
  -1.600   0.2444   0.00661   0.00184  -0.1100  0.8381  0.5799  -0.4487   0.0000   0.0000   0.0000   0.7015
  -1.500   0.2561   0.00664   0.00185  -0.1102  0.8355  0.5838  -0.4532   0.0000   0.0000   0.0000   0.6813
  -1.400   0.2680   0.00668   0.00187  -0.1104  0.8328  0.5869  -0.4576   0.0000   0.0000   0.0000   0.6629
  -1.300   0.2794   0.00671   0.00188  -0.1105  0.8310  0.5895  -0.4619   0.0000   0.0000   0.0000   0.6462
  -1.200   0.2904   0.00672   0.00188  -0.1105  0.8301  0.5915  -0.4661   0.0000   0.0000   0.0000   0.6311
  -1.100   0.3014   0.00673   0.00188  -0.1105  0.8290  0.5931  -0.4703   0.0000   0.0000   0.0000   0.6170
  -1.000   0.3125   0.00674   0.00189  -0.1105  0.8278  0.5944  -0.4745   0.0000   0.0000   0.0000   0.6040
  -0.900   0.3235   0.00671   0.00187  -0.1105  0.8266  0.5989  -0.4786   0.0000   0.0000   0.0000   0.5919
  -0.800   0.3345   0.00668   0.00186  -0.1105  0.8252  0.6048  -0.4827   0.0000   0.0000   0.0000   0.5806
  -0.700   0.3455   0.00666   0.00186  -0.1105  0.8238  0.6101  -0.4869   0.0000   0.0000   0.0000   0.5700
  -0.600   0.3565   0.00665   0.00186  -0.1105  0.8223  0.6146  -0.4910   0.0000   0.0000   0.0000   0.5600
  -0.500   0.3675   0.00664   0.00187  -0.1105  0.8207  0.6186  -0.4952   0.0000   0.0000   0.0000   0.5507
  -0.400   0.3786   0.00663   0.00188  -0.1105  0.8191  0.6224  -0.4994   0.0000   0.0000   0.0000   0.5418
  -0.300   0.3896   0.00663   0.00189  -0.1105  0.8174  0.6261  -0.5036   0.0000   0.0000   0.0000   0.5334
  -0.200   0.4007   0.00663   0.00190  -0.1106  0.8156  0.6297  -0.5078   0.0000   0.0000   0.0000   0.5255
  -0.100   0.4118   0.00663   0.00191  -0.1106  0.8137  0.6332  -0.5120   0.0000   0.0000   0.0000   0.5180
   0.000   0.4229   0.00664   0.00192  -0.1106  0.8117  0.6365  -0.5165   0.0000   0.0000   0.0000   0.5109
   0.100   0.4341   0.00665   0.00192  -0.1106  0.8097  0.6395  -0.5213   0.0000   0.0000   0.0000   0.5041
   0.200   0.4453   0.00666   0.00193  -0.1106  0.8076  0.6422  -0.5262   0.0000   0.0000   0.0000   0.4977
   0.300   0.4566   0.00668   0.00194  -0.1106  0.8054  0.6446  -0.5311   0.0000   0.0000   0.0000   0.4916
   0.400   0.4679   0.00671   0.00195  -0.1107  0.8031  0.6467  -0.5359   0.0000   0.0000   0.0000   0.4857
   0.500   0.4793   0.00673   0.00197  -0.1108  0.8006  0.6506  -0.5411   0.0000   0.0000   0.0000   0.4802
   0.600   0.4906   0.00674   0.00200  -0.1109  0.7976  0.6583  -0.5465   0.0000   0.0000   0.0000   0.4750
   0.700   0.5021   0.00677   0.00206  -0.1110  0.7942  0.6652  -0.5520   0.0000   0.0000   0.0000   0.4700
   0.800   0.5133   0.00680   0.00212  -0.1111  0.7914  0.6711  -0.5573   0.0000   0.0000   0.0000   0.4652
   0.900   0.5240   0.00678   0.00213  -0.1110  0.7903  0.6765  -0.5626   0.0000   0.0000   0.0000   0.4605
   1.000   0.5347   0.00676   0.00214  -0.1108  0.7889  0.6815  -0.5688   0.0000   0.0000   0.0000   0.4560
   1.100   0.5453   0.00674   0.00215  -0.1107  0.7871  0.6862  -0.5761   0.0000   0.0000   0.0000   0.4517
   1.200   0.5560   0.00673   0.00216  -0.1106  0.7849  0.6906  -0.5882   0.0000   0.0000   0.0000   0.4475
   1.300   0.5668   0.00672   0.00217  -0.1105  0.7824  0.6946  -0.6092   0.0000   0.0000   0.0000   0.4435
   1.400   0.5776   0.00672   0.00217  -0.1105  0.7796  0.6979  -0.6305   0.0000   0.0000   0.0000   0.4397
   1.600   0.5990   0.00667   0.00218  -0.1102  0.7734  0.7110  -0.6732   0.0000   0.0000   0.0000   0.4323
   1.700   0.6096   0.00665   0.00221  -0.1101  0.7700  0.7186  -0.6948   0.0000   0.0000   0.0000   0.4288
   1.800   0.6202   0.00664   0.00222  -0.1099  0.7661  0.7256  -0.7224   0.0000   0.0000   0.0000   0.4254
   1.900   0.6308   0.00664   0.00222  -0.1098  0.7613  0.7323  -0.7502   0.0000   0.0000   0.0000   0.4220
   2.000   0.6418   0.00667   0.00225  -0.1097  0.7556  0.7387  -0.7785   0.0000   0.0000   0.0000   0.4189
   2.100   0.6532   0.00673   0.00230  -0.1097  0.7491  0.7445  -0.8142   0.0000   0.0000   0.0000   0.4159
   2.200   0.6633   0.00670   0.00229  -0.1095  0.7465  0.7493  -0.8516   0.0000   0.0000   0.0000   0.4129
   2.300   0.6732   0.00664   0.00230  -0.1092  0.7429  0.7590  -0.8890   0.0000   0.0000   0.0000   0.4099
   2.400   0.6832   0.00660   0.00231  -0.1089  0.7387  0.7684  -0.9268   0.0000   0.0000   0.0000   0.4070
   2.500   0.6934   0.00657   0.00234  -0.1086  0.7347  0.7774  -0.9654   0.0000   0.0000   0.0000   0.4043
   2.600   0.7039   0.00657   0.00237  -0.1085  0.7312  0.7864  -1.0049   0.0000   0.0000   0.0000   0.4016
   2.700   0.7144   0.00657   0.00239  -0.1083  0.7267  0.7946  -1.0457   0.0000   0.0000   0.0000   0.3990
   2.800   0.7244   0.00656   0.00241  -0.1080  0.7212  0.8054  -1.0979   0.0000   0.0000   0.0000   0.3965
   2.900   0.7339   0.00656   0.00243  -0.1076  0.7147  0.8179  -1.1495   0.0000   0.0000   0.0000   0.3939
   3.000   0.7438   0.00660   0.00250  -0.1072  0.7078  0.8300  -1.2115   0.0000   0.0000   0.0000   0.3914
   3.100   0.7541   0.00661   0.00255  -0.1071  0.7038  0.8411  -1.3309   0.0000   0.0000   0.0000   0.3891
   3.200   0.7631   0.00655   0.00259  -0.1065  0.7004  0.8564  -1.4448   0.0000   0.0000   0.0000   0.3866
   3.300   0.7720   0.00651   0.00262  -0.1059  0.6942  0.8721  -1.5614   0.0000   0.0000   0.0000   0.3842
   3.400   0.7805   0.00648   0.00263  -0.1053  0.6850  0.8885  -1.6775   0.0000   0.0000   0.0000   0.3817
   3.500   0.7881   0.00647   0.00264  -0.1043  0.6749  0.9099  -1.7910   0.0000   0.0000   0.0000   0.3792
   3.600   0.7958   0.00647   0.00264  -0.1034  0.6640  0.9377  -1.9073   0.0000   0.0000   0.0000   0.3767
   3.700   0.8103   0.00646   0.00265  -0.1042  0.6513  0.9841  -2.0679   0.0000   0.0000   0.0000   0.3752
   3.800   0.8200   0.00654   0.00266  -0.1038  0.6290  1.0000  -2.2012   0.0000   0.0000   0.0000   0.3732
   3.900   0.8276   0.00670   0.00270  -0.1031  0.6017  1.0000  -2.3239   0.0000   0.0000   0.0000   0.3710
   4.000   0.8334   0.00696   0.00276  -0.1020  0.5609  1.0000  -2.4370   0.0000   0.0000   0.0000   0.3688
   4.100   0.8384   0.00731   0.00288  -0.1008  0.5117  1.0000  -2.5455   0.0000   0.0000   0.0000   0.3665
   4.200   0.8428   0.00773   0.00305  -0.0996  0.4594  1.0000  -2.6516   0.0000   0.0000   0.0000   0.3643
   4.300   0.8474   0.00818   0.00326  -0.0984  0.4069  1.0000  -2.7594   0.0000   0.0000   0.0000   0.3623
   4.400   0.8524   0.00863   0.00348  -0.0974  0.3562  1.0000  -2.8704   0.0000   0.0000   0.0000   0.3603
   4.500   0.8576   0.00909   0.00370  -0.0964  0.3079  1.0000  -2.9847   0.0000   0.0000   0.0000   0.3584
   4.600   0.8633   0.00953   0.00393  -0.0956  0.2629  1.0000  -3.1028   0.0000   0.0000   0.0000   0.3566
   4.700   0.8693   0.00995   0.00415  -0.0948  0.2216  1.0000  -3.2244   0.0000   0.0000   0.0000   0.3548
   4.800   0.8752   0.01039   0.00438  -0.0940  0.1812  1.0000  -3.3467   0.0000   0.0000   0.0000   0.3531
   4.900   0.8812   0.01083   0.00461  -0.0932  0.1435  1.0000  -3.4705   0.0000   0.0000   0.0000   0.3514
   5.000   0.8877   0.01123   0.00484  -0.0925  0.1119  1.0000  -3.5990   0.0000   0.0000   0.0000   0.3497
   5.100   0.8947   0.01160   0.00506  -0.0919  0.0872  1.0000  -3.7323   0.0000   0.0000   0.0000   0.3481
   5.200   0.9020   0.01194   0.00532  -0.0913  0.0676  1.0000  -3.8677   0.0000   0.0000   0.0000   0.3465
   5.300   0.9106   0.01216   0.00550  -0.0909  0.0574  1.0000  -4.0149   0.0000   0.0000   0.0000   0.3451
   5.400   0.9183   0.01248   0.00573  -0.0903  0.0438  1.0000  -4.1504   0.0000   0.0000   0.0000   0.3435
   5.500   0.9275   0.01265   0.00592  -0.0900  0.0395  1.0000  -4.3221   0.0000   0.0000   0.0000   0.3421
   5.600   0.9352   0.01297   0.00615  -0.0895  0.0316  1.0000  -4.4777   0.0000   0.0000   0.0000   0.3406
   5.700   0.9433   0.01327   0.00647  -0.0889  0.0252  1.0000  -4.6206   0.0000   0.0000   0.0000   0.3391
   5.800   0.9523   0.01345   0.00665  -0.0886  0.0210  1.0000  -4.7927   0.0000   0.0000   0.0000   0.3378
   5.900   0.9558   0.01424   0.00746  -0.0870  0.0124  1.0000  -4.7935   0.0000   0.0000   0.0000   0.3357
   6.000   0.9653   0.01437   0.00761  -0.0867  0.0114  1.0000  -4.9590   0.0000   0.0000   0.0000   0.3344
   6.100   0.9737   0.01464   0.00790  -0.0862  0.0100  1.0000  -5.0845   0.0000   0.0000   0.0000   0.3330
   6.200   0.9816   0.01494   0.00825  -0.0857  0.0088  1.0000  -5.1955   0.0000   0.0000   0.0000   0.3316
   6.300   0.9891   0.01530   0.00863  -0.0850  0.0079  1.0000  -5.2994   0.0000   0.0000   0.0000   0.3302
   6.400   0.9954   0.01579   0.00916  -0.0841  0.0072  1.0000  -5.3739   0.0000   0.0000   0.0000   0.3286
   6.500   1.0006   0.01640   0.00984  -0.0829  0.0067  1.0000  -5.4256   0.0000   0.0000   0.0000   0.3269
   6.600   1.0055   0.01709   0.01061  -0.0817  0.0064  1.0000  -5.4702   0.0000   0.0000   0.0000   0.3253
   6.700   1.0099   0.01791   0.01153  -0.0805  0.0062  1.0000  -5.5027   0.0000   0.0000   0.0000   0.3236
   6.800   1.0138   0.01905   0.01278  -0.0792  0.0059  1.0000  -5.5022   0.0000   0.0000   0.0000   0.3218
   6.900   1.0197   0.02036   0.01418  -0.0782  0.0056  1.0000  -5.5126   0.0000   0.0000   0.0000   0.3204
   7.000   1.0295   0.02023   0.01407  -0.0781  0.0055  1.0000  -5.7360   0.0000   0.0000   0.0000   0.3194
   7.100   1.0389   0.02033   0.01418  -0.0778  0.0053  1.0000  -5.9331   0.0000   0.0000   0.0000   0.3183
   7.200   1.0477   0.02059   0.01447  -0.0775  0.0050  1.0000  -6.1051   0.0000   0.0000   0.0000   0.3173
   7.300   1.0561   0.02107   0.01499  -0.0770  0.0049  1.0000  -6.2390   0.0000   0.0000   0.0000   0.3161
   7.400   1.0644   0.02176   0.01575  -0.0765  0.0048  1.0000  -6.3351   0.0000   0.0000   0.0000   0.3150
   7.500   1.0728   0.02250   0.01657  -0.0760  0.0047  1.0000  -6.4249   0.0000   0.0000   0.0000   0.3139
   7.600   1.0814   0.02330   0.01746  -0.0756  0.0046  1.0000  -6.5073   0.0000   0.0000   0.0000   0.3128
   7.700   1.0899   0.02416   0.01841  -0.0751  0.0045  1.0000  -6.5807   0.0000   0.0000   0.0000   0.3117
   7.800   1.0984   0.02510   0.01944  -0.0746  0.0044  1.0000  -6.6436   0.0000   0.0000   0.0000   0.3106
   7.900   1.1066   0.02611   0.02055  -0.0741  0.0044  1.0000  -6.6942   0.0000   0.0000   0.0000   0.3095
   8.000   1.1144   0.02721   0.02177  -0.0735  0.0043  1.0000  -6.7313   0.0000   0.0000   0.0000   0.3084
   8.100   1.1216   0.02840   0.02309  -0.0728  0.0043  1.0000  -6.7536   0.0000   0.0000   0.0000   0.3073
   8.200   1.1281   0.02970   0.02453  -0.0720  0.0043  1.0000  -6.7602   0.0000   0.0000   0.0000   0.3061
   8.300   1.1338   0.03110   0.02608  -0.0711  0.0043  1.0000  -6.7513   0.0000   0.0000   0.0000   0.3049
   8.400   1.1384   0.03259   0.02773  -0.0701  0.0043  1.0000  -6.7280   0.0000   0.0000   0.0000   0.3036
   8.500   1.1420   0.03417   0.02947  -0.0689  0.0044  1.0000  -6.6922   0.0000   0.0000   0.0000   0.3023
   8.600   1.1444   0.03582   0.03129  -0.0676  0.0044  1.0000  -6.6459   0.0000   0.0000   0.0000   0.3009
   8.700   1.1456   0.03754   0.03317  -0.0661  0.0045  1.0000  -6.5912   0.0000   0.0000   0.0000   0.2995
   8.800   1.1457   0.03931   0.03510  -0.0646  0.0046  1.0000  -6.5295   0.0000   0.0000   0.0000   0.2981
   8.900   1.1447   0.04113   0.03707  -0.0630  0.0047  1.0000  -6.4614   0.0000   0.0000   0.0000   0.2967
   9.000   1.1424   0.04298   0.03907  -0.0613  0.0048  1.0000  -6.3883   0.0000   0.0000   0.0000   0.2952
   9.100   1.1388   0.04486   0.04110  -0.0595  0.0049  1.0000  -6.3101   0.0000   0.0000   0.0000   0.2937
   9.200   1.1336   0.04677   0.04316  -0.0576  0.0050  1.0000  -6.2248   0.0000   0.0000   0.0000   0.2922
   9.300   1.1263   0.04868   0.04520  -0.0555  0.0051  1.0000  -6.1298   0.0000   0.0000   0.0000   0.2906
   9.400   1.1153   0.05070   0.04734  -0.0530  0.0053  1.0000  -6.0054   0.0000   0.0000   0.0000   0.2887
  10.300   1.0584   0.06774   0.06531  -0.0394  0.0083  1.0000  -5.0277   0.0000   0.0000   0.0000   0.2776
  10.400   1.0502   0.06944   0.06707  -0.0387  0.0083  1.0000  -4.9914   0.0000   0.0000   0.0000   0.2772
  10.500   1.0418   0.07124   0.06893  -0.0383  0.0083  1.0000  -4.9528   0.0000   0.0000   0.0000   0.2770
  10.600   1.0333   0.07315   0.07090  -0.0381  0.0084  1.0000  -4.9117   0.0000   0.0000   0.0000   0.2769
  10.700   1.0246   0.07517   0.07298  -0.0381  0.0084  1.0000  -4.8678   0.0000   0.0000   0.0000   0.2771
  10.800   1.0157   0.07730   0.07517  -0.0384  0.0084  1.0000  -4.8208   0.0000   0.0000   0.0000   0.2776
  10.900   1.0067   0.07956   0.07749  -0.0388  0.0085  1.0000  -4.7703   0.0000   0.0000   0.0000   0.2782
  11.000   0.9973   0.08196   0.07994  -0.0395  0.0085  1.0000  -4.7158   0.0000   0.0000   0.0000   0.2792
  11.100   0.9879   0.08446   0.08249  -0.0405  0.0086  1.0000  -4.6572   0.0000   0.0000   0.0000   0.2804
  11.200   0.9781   0.08715   0.08522  -0.0417  0.0086  1.0000  -4.5930   0.0000   0.0000   0.0000   0.2819
  11.300   0.9686   0.09009   0.08822  -0.0432  0.0087  1.0000  -4.5217   0.0000   0.0000   0.0000   0.2838
  11.400   0.9591   0.09334   0.09151  -0.0451  0.0088  1.0000  -4.4417   0.0000   0.0000   0.0000   0.2861
  11.500   0.9494   0.09696   0.09517  -0.0475  0.0089  1.0000  -4.3508   0.0000   0.0000   0.0000   0.2890
  11.600   0.9401   0.10107   0.09933  -0.0504  0.0091  1.0000  -4.2443   0.0000   0.0000   0.0000   0.2925
  11.700   0.9311   0.10597   0.10426  -0.0540  0.0092  1.0000  -4.1110   0.0000   0.0000   0.0000   0.2969
  11.800   0.9231   0.11242   0.11073  -0.0588  0.0095  1.0000  -3.9239   0.0000   0.0000   0.0000   0.3025
  11.900   0.9177   0.11716   0.11546  -0.0618  0.0097  1.0000  -3.7961   0.0000   0.0000   0.0000   0.3062
  12.000   0.9131   0.12111   0.11940  -0.0642  0.0099  1.0000  -3.6957   0.0000   0.0000   0.0000   0.3091
  12.100   0.9090   0.12469   0.12297  -0.0663  0.0100  1.0000  -3.6078   0.0000   0.0000   0.0000   0.3117
  12.200   0.9055   0.12804   0.12631  -0.0681  0.0102  1.0000  -3.5281   0.0000   0.0000   0.0000   0.3140
  12.300   0.9023   0.13121   0.12948  -0.0699  0.0103  1.0000  -3.4547   0.0000   0.0000   0.0000   0.3161
  12.400   0.8996   0.13425   0.13251  -0.0715  0.0105  1.0000  -3.3869   0.0000   0.0000   0.0000   0.3181
  12.500   0.8973   0.13715   0.13541  -0.0731  0.0106  1.0000  -3.3243   0.0000   0.0000   0.0000   0.3199
  12.600   0.8954   0.13994   0.13818  -0.0745  0.0106  1.0000  -3.2671   0.0000   0.0000   0.0000   0.3217
  12.700   0.8940   0.14261   0.14085  -0.0759  0.0107  1.0000  -3.2152   0.0000   0.0000   0.0000   0.3233
  12.800   0.8930   0.14518   0.14341  -0.0772  0.0107  1.0000  -3.1684   0.0000   0.0000   0.0000   0.3248
  12.900   0.8924   0.14765   0.14588  -0.0785  0.0106  1.0000  -3.1258   0.0000   0.0000   0.0000   0.3262
  13.000   0.8921   0.15006   0.14829  -0.0798  0.0106  1.0000  -3.0865   0.0000   0.0000   0.0000   0.3275
  13.100   0.8921   0.15242   0.15064  -0.0810  0.0105  1.0000  -3.0495   0.0000   0.0000   0.0000   0.3288
  13.200   0.8922   0.15472   0.15294  -0.0821  0.0104  1.0000  -3.0143   0.0000   0.0000   0.0000   0.3300
  13.300   0.8924   0.15699   0.15521  -0.0833  0.0103  1.0000  -2.9805   0.0000   0.0000   0.0000   0.3311
  13.400   0.8928   0.15923   0.15744  -0.0844  0.0102  1.0000  -2.9478   0.0000   0.0000   0.0000   0.3323
  13.500   0.8933   0.16145   0.15966  -0.0856  0.0101  1.0000  -2.9155   0.0000   0.0000   0.0000   0.3334
  13.600   0.8938   0.16360   0.16180  -0.0867  0.0100  1.0000  -2.8825   0.0000   0.0000   0.0000   0.3345
  13.700   0.8945   0.16564   0.16383  -0.0878  0.0099  1.0000  -2.8511   0.0000   0.0000   0.0000   0.3356
  13.800   0.8953   0.16762   0.16581  -0.0889  0.0098  1.0000  -2.8212   0.0000   0.0000   0.0000   0.3367
  13.900   0.8961   0.16957   0.16776  -0.0900  0.0096  1.0000  -2.7928   0.0000   0.0000   0.0000   0.3377
  14.000   0.8971   0.17151   0.16970  -0.0911  0.0095  1.0000  -2.7658   0.0000   0.0000   0.0000   0.3387
  14.100   0.8981   0.17346   0.17164  -0.0922  0.0094  1.0000  -2.7401   0.0000   0.0000   0.0000   0.3396
  14.200   0.8992   0.17541   0.17359  -0.0932  0.0092  1.0000  -2.7153   0.0000   0.0000   0.0000   0.3406
  14.300   0.9004   0.17736   0.17553  -0.0943  0.0091  1.0000  -2.6921   0.0000   0.0000   0.0000   0.3415
  14.400   0.9016   0.17931   0.17748  -0.0953  0.0090  1.0000  -2.6702   0.0000   0.0000   0.0000   0.3424
  14.500   0.9029   0.18125   0.17942  -0.0963  0.0089  1.0000  -2.6498   0.0000   0.0000   0.0000   0.3433
  14.600   0.9042   0.18319   0.18136  -0.0974  0.0087  1.0000  -2.6310   0.0000   0.0000   0.0000   0.3441
  14.700   0.9056   0.18512   0.18329  -0.0984  0.0086  1.0000  -2.6137   0.0000   0.0000   0.0000   0.3450
  14.800   0.9070   0.18704   0.18521  -0.0994  0.0085  1.0000  -2.5980   0.0000   0.0000   0.0000   0.3458
  14.900   0.9085   0.18896   0.18712  -0.1003  0.0084  1.0000  -2.5838   0.0000   0.0000   0.0000   0.3466
  15.000   0.9101   0.19086   0.18902  -0.1013  0.0082  1.0000  -2.5713   0.0000   0.0000   0.0000   0.3473
  15.100   0.9117   0.19276   0.19092  -0.1023  0.0081  1.0000  -2.5604   0.0000   0.0000   0.0000   0.3480
  15.200   0.9133   0.19465   0.19281  -0.1032  0.0080  1.0000  -2.5512   0.0000   0.0000   0.0000   0.3487
  15.300   0.9150   0.19654   0.19469  -0.1041  0.0079  1.0000  -2.5435   0.0000   0.0000   0.0000   0.3494
  15.400   0.9168   0.19842   0.19657  -0.1050  0.0078  1.0000  -2.5376   0.0000   0.0000   0.0000   0.3501
  15.500   0.9186   0.20029   0.19844  -0.1060  0.0077  1.0000  -2.5333   0.0000   0.0000   0.0000   0.3507
  15.600   0.9204   0.20215   0.20030  -0.1068  0.0076  1.0000  -2.5307   0.0000   0.0000   0.0000   0.3513
  15.700   0.9223   0.20400   0.20215  -0.1077  0.0075  1.0000  -2.5300   0.0000   0.0000   0.0000   0.3519
  15.800   0.9242   0.20584   0.20399  -0.1086  0.0074  1.0000  -2.5312   0.0000   0.0000   0.0000   0.3525
  15.900   0.9262   0.20768   0.20583  -0.1095  0.0073  1.0000  -2.5343   0.0000   0.0000   0.0000   0.3530
  16.000   0.9282   0.20950   0.20765  -0.1103  0.0072  1.0000  -2.5393   0.0000   0.0000   0.0000   0.3535
  16.100   0.9302   0.21132   0.20947  -0.1111  0.0071  1.0000  -2.5463   0.0000   0.0000   0.0000   0.3540
  16.200   0.9323   0.21313   0.21127  -0.1119  0.0070  1.0000  -2.5554   0.0000   0.0000   0.0000   0.3545
  16.300   0.9344   0.21492   0.21307  -0.1127  0.0069  1.0000  -2.5668   0.0000   0.0000   0.0000   0.3549
  16.400   0.9365   0.21670   0.21485  -0.1135  0.0068  1.0000  -2.5805   0.0000   0.0000   0.0000   0.3554
  16.500   0.9387   0.21847   0.21662  -0.1143  0.0067  1.0000  -2.5968   0.0000   0.0000   0.0000   0.3557
  16.600   0.9409   0.22023   0.21838  -0.1150  0.0067  1.0000  -2.6157   0.0000   0.0000   0.0000   0.3561
  16.700   0.9431   0.22197   0.22013  -0.1157  0.0066  1.0000  -2.6375   0.0000   0.0000   0.0000   0.3564
  16.800   0.9453   0.22373   0.22188  -0.1164  0.0065  1.0000  -2.6597   0.0000   0.0000   0.0000   0.3567
  16.900   0.9475   0.22551   0.22366  -0.1171  0.0064  1.0000  -2.6815   0.0000   0.0000   0.0000   0.3570
  17.000   0.9497   0.22730   0.22546  -0.1178  0.0064  1.0000  -2.7031   0.0000   0.0000   0.0000   0.3573
  17.100   0.9515   0.22928   0.22744  -0.1187  0.0063  1.0000  -2.7088   0.0000   0.0000   0.0000   0.3578
  17.200   0.9531   0.23134   0.22950  -0.1195  0.0062  1.0000  -2.7080   0.0000   0.0000   0.0000   0.3583
  17.300   0.9546   0.23351   0.23167  -0.1203  0.0061  1.0000  -2.6997   0.0000   0.0000   0.0000   0.3588
  17.400   0.9557   0.23590   0.23406  -0.1212  0.0060  1.0000  -2.6761   0.0000   0.0000   0.0000   0.3595
  17.500   0.9556   0.23897   0.23713  -0.1222  0.0059  1.0000  -2.6000   0.0000   0.0000   0.0000   0.3604
  17.600   0.9525   0.24432   0.24244  -0.1235  0.0057  1.0000  -2.3441   0.0000   0.0000   0.0000   0.3622
  17.700   0.9545   0.24649   0.24462  -0.1244  0.0057  1.0000  -2.3295   0.0000   0.0000   0.0000   0.3627
  17.800   0.9564   0.24867   0.24680  -0.1252  0.0057  1.0000  -2.3151   0.0000   0.0000   0.0000   0.3632
  17.900   0.9584   0.25086   0.24898  -0.1261  0.0057  1.0000  -2.3010   0.0000   0.0000   0.0000   0.3636
  18.000   0.9603   0.25305   0.25117  -0.1269  0.0057  1.0000  -2.2871   0.0000   0.0000   0.0000   0.3641
  18.100   0.9622   0.25524   0.25337  -0.1277  0.0057  1.0000  -2.2735   0.0000   0.0000   0.0000   0.3646
  18.200   0.9642   0.25744   0.25557  -0.1286  0.0057  1.0000  -2.2601   0.0000   0.0000   0.0000   0.3650
  18.300   0.9660   0.25965   0.25778  -0.1294  0.0057  1.0000  -2.2468   0.0000   0.0000   0.0000   0.3655
  18.400   0.9679   0.26186   0.25999  -0.1302  0.0056  1.0000  -2.2337   0.0000   0.0000   0.0000   0.3659
  18.500   0.9697   0.26408   0.26221  -0.1310  0.0056  1.0000  -2.2208   0.0000   0.0000   0.0000   0.3664
  18.600   0.9716   0.26630   0.26443  -0.1319  0.0056  1.0000  -2.2081   0.0000   0.0000   0.0000   0.3668
  18.700   0.9734   0.26853   0.26666  -0.1327  0.0056  1.0000  -2.1956   0.0000   0.0000   0.0000   0.3673
  18.800   0.9751   0.27076   0.26889  -0.1335  0.0056  1.0000  -2.1833   0.0000   0.0000   0.0000   0.3677
  18.900   0.9769   0.27300   0.27113  -0.1343  0.0056  1.0000  -2.1711   0.0000   0.0000   0.0000   0.3682
  19.000   0.9786   0.27524   0.27338  -0.1351  0.0056  1.0000  -2.1590   0.0000   0.0000   0.0000   0.3686
  19.100   0.9803   0.27749   0.27563  -0.1359  0.0056  1.0000  -2.1471   0.0000   0.0000   0.0000   0.3690
  19.200   0.9820   0.27974   0.27789  -0.1367  0.0056  1.0000  -2.1351   0.0000   0.0000   0.0000   0.3694
  19.300   0.9836   0.28200   0.28015  -0.1375  0.0056  1.0000  -2.1232   0.0000   0.0000   0.0000   0.3699
  19.400   0.9852   0.28427   0.28241  -0.1383  0.0056  1.0000  -2.1115   0.0000   0.0000   0.0000   0.3703
  19.500   0.9867   0.28654   0.28468  -0.1390  0.0056  1.0000  -2.0998   0.0000   0.0000   0.0000   0.3707
  19.600   0.9882   0.28881   0.28696  -0.1398  0.0056  1.0000  -2.0883   0.0000   0.0000   0.0000   0.3711
  19.700   0.9896   0.29109   0.28924  -0.1406  0.0056  1.0000  -2.0768   0.0000   0.0000   0.0000   0.3716
  19.800   0.9910   0.29337   0.29152  -0.1414  0.0056  1.0000  -2.0654   0.0000   0.0000   0.0000   0.3720
  19.900   0.9924   0.29565   0.29381  -0.1421  0.0056  1.0000  -2.0540   0.0000   0.0000   0.0000   0.3724
  20.000   0.9937   0.29794   0.29610  -0.1429  0.0056  1.0000  -2.0427   0.0000   0.0000   0.0000   0.3728
  20.100   0.9949   0.30023   0.29840  -0.1436  0.0056  1.0000  -2.0314   0.0000   0.0000   0.0000   0.3732
  20.200   0.9961   0.30253   0.30069  -0.1443  0.0056  1.0000  -2.0202   0.0000   0.0000   0.0000   0.3737
  20.300   0.9972   0.30482   0.30299  -0.1451  0.0056  1.0000  -2.0088   0.0000   0.0000   0.0000   0.3741
  20.400   0.9982   0.30712   0.30529  -0.1458  0.0056  1.0000  -1.9972   0.0000   0.0000   0.0000   0.3745
  20.500   0.9992   0.30941   0.30759  -0.1465  0.0056  1.0000  -1.9856   0.0000   0.0000   0.0000   0.3749
  20.600   1.0000   0.31171   0.30989  -0.1472  0.0056  1.0000  -1.9739   0.0000   0.0000   0.0000   0.3754
  20.700   1.0007   0.31400   0.31218  -0.1479  0.0056  1.0000  -1.9621   0.0000   0.0000   0.0000   0.3758
  20.800   1.0014   0.31629   0.31447  -0.1486  0.0056  1.0000  -1.9501   0.0000   0.0000   0.0000   0.3762
  20.900   1.0019   0.31857   0.31676  -0.1493  0.0056  1.0000  -1.9381   0.0000   0.0000   0.0000   0.3767
  21.000   1.0022   0.32084   0.31904  -0.1499  0.0056  1.0000  -1.9258   0.0000   0.0000   0.0000   0.3771
  21.100   1.0024   0.32310   0.32131  -0.1505  0.0056  1.0000  -1.9133   0.0000   0.0000   0.0000   0.3776
  21.200   1.0025   0.32535   0.32356  -0.1511  0.0056  1.0000  -1.9005   0.0000   0.0000   0.0000   0.3780
  21.300   1.0023   0.32758   0.32585  -0.1517  0.0055  1.0000  -1.8871   0.0000   0.0000   0.0000   0.3785
  21.400   1.0018   0.32978   0.32805  -0.1523  0.0055  1.0000  -1.8734   0.0000   0.0000   0.0000   0.3790
  21.500   1.0010   0.33193   0.33022  -0.1528  0.0055  1.0000  -1.8590   0.0000   0.0000   0.0000   0.3795
  21.600   0.9997   0.33404   0.33233  -0.1532  0.0055  1.0000  -1.8436   0.0000   0.0000   0.0000   0.3800
  21.700   0.9978   0.33605   0.33435  -0.1536  0.0055  1.0000  -1.8267   0.0000   0.0000   0.0000   0.3806
  21.800   0.9950   0.33793   0.33624  -0.1539  0.0055  1.0000  -1.8083   0.0000   0.0000   0.0000   0.3812


