xflr5 v6.61

 Calculated polar for: EPPLER 420 AIRFOIL

 1 1 Reynolds number fixed          Mach number fixed         

 xtrf =   1.000 (top)        1.000 (bottom)
 Mach =   0.000     Re =     0.300 e 6     Ncrit =   9.000

  alpha     CL        CD       CDp       Cm    Top Xtr Bot Xtr   Cpmin    Chinge    XCp    
 ------- -------- --------- --------- -------- ------- ------- -------- --------- ---------
 -10.000   0.3631   0.09451   0.08993  -0.1590  0.7114  0.0285  -1.1131   0.0000   0.0000   0.0000   0.7232
  -9.900   0.3670   0.09376   0.08917  -0.1590  0.7074  0.0287  -1.1014   0.0000   0.0000   0.0000   0.7180
  -9.800   0.3708   0.09303   0.08843  -0.1590  0.7032  0.0289  -1.1056   0.0000   0.0000   0.0000   0.7129
  -9.700   0.3745   0.09232   0.08770  -0.1590  0.6988  0.0292  -1.1098   0.0000   0.0000   0.0000   0.7080
  -9.600   0.3782   0.09161   0.08696  -0.1591  0.6943  0.0294  -1.1139   0.0000   0.0000   0.0000   0.7033
  -9.500   0.3818   0.09093   0.08624  -0.1591  0.6898  0.0296  -1.1178   0.0000   0.0000   0.0000   0.6987
  -9.400   0.3854   0.09025   0.08552  -0.1591  0.6851  0.0299  -1.1217   0.0000   0.0000   0.0000   0.6943
  -9.300   0.3889   0.08958   0.08481  -0.1591  0.6802  0.0302  -1.1255   0.0000   0.0000   0.0000   0.6900
  -9.200   0.3929   0.08891   0.08409  -0.1593  0.6748  0.0304  -1.1294   0.0000   0.0000   0.0000   0.6856
  -9.100   0.3971   0.08819   0.08335  -0.1595  0.6708  0.0307  -1.1334   0.0000   0.0000   0.0000   0.6813
  -9.000   0.4008   0.08747   0.08264  -0.1596  0.6689  0.0310  -1.1372   0.0000   0.0000   0.0000   0.6773
  -8.900   0.4044   0.08675   0.08194  -0.1597  0.6669  0.0314  -1.1409   0.0000   0.0000   0.0000   0.6734
  -8.800   0.4080   0.08604   0.08123  -0.1598  0.6646  0.0317  -1.1445   0.0000   0.0000   0.0000   0.6695
  -8.700   0.4117   0.08533   0.08053  -0.1599  0.6620  0.0320  -1.1481   0.0000   0.0000   0.0000   0.6658
  -8.600   0.4153   0.08463   0.07983  -0.1601  0.6594  0.0324  -1.1517   0.0000   0.0000   0.0000   0.6621
  -8.500   0.4188   0.08394   0.07913  -0.1602  0.6566  0.0328  -1.1552   0.0000   0.0000   0.0000   0.6586
  -8.400   0.4223   0.08325   0.07844  -0.1603  0.6539  0.0332  -1.1586   0.0000   0.0000   0.0000   0.6551
  -8.300   0.4258   0.08257   0.07774  -0.1603  0.6511  0.0336  -1.1620   0.0000   0.0000   0.0000   0.6517
  -8.200   0.4292   0.08190   0.07705  -0.1604  0.6483  0.0340  -1.1653   0.0000   0.0000   0.0000   0.6484
  -8.100   0.4325   0.08124   0.07637  -0.1605  0.6454  0.0344  -1.1685   0.0000   0.0000   0.0000   0.6451
  -8.000   0.4358   0.08058   0.07569  -0.1605  0.6426  0.0349  -1.1716   0.0000   0.0000   0.0000   0.6420
  -7.900   0.4390   0.07992   0.07498  -0.1606  0.6396  0.0353  -1.1746   0.0000   0.0000   0.0000   0.6389
  -7.800   0.4422   0.07927   0.07430  -0.1607  0.6364  0.0359  -1.1776   0.0000   0.0000   0.0000   0.6359
  -7.700   0.4458   0.07862   0.07363  -0.1608  0.6330  0.0364  -1.1806   0.0000   0.0000   0.0000   0.6329
  -7.600   0.4499   0.07796   0.07294  -0.1612  0.6292  0.0370  -1.1837   0.0000   0.0000   0.0000   0.6299
  -7.400   0.4577   0.07663   0.07160  -0.1618  0.6243  0.0384  -1.1896   0.0000   0.0000   0.0000   0.6241
  -7.300   0.4607   0.07599   0.07098  -0.1619  0.6233  0.0391  -1.1922   0.0000   0.0000   0.0000   0.6215
  -7.200   0.4636   0.07540   0.07041  -0.1620  0.6221  0.0399  -1.1946   0.0000   0.0000   0.0000   0.6191
  -7.100   0.4665   0.07489   0.06992  -0.1621  0.6209  0.0407  -1.1967   0.0000   0.0000   0.0000   0.6169
  -7.000   0.4690   0.07456   0.06959  -0.1623  0.6195  0.0417  -1.1983   0.0000   0.0000   0.0000   0.6150
  -6.900   0.4709   0.07447   0.06953  -0.1626  0.6180  0.0425  -1.1992   0.0000   0.0000   0.0000   0.6136
  -6.800   0.4722   0.07449   0.06956  -0.1627  0.6164  0.0432  -1.1997   0.0000   0.0000   0.0000   0.6126
  -6.700   0.4732   0.07441   0.06950  -0.1627  0.6148  0.0436  -1.2003   0.0000   0.0000   0.0000   0.6115
  -6.600   0.4752   0.07413   0.06924  -0.1626  0.6131  0.0438  -1.2019   0.0000   0.0000   0.0000   0.6093
  -6.500   0.4773   0.07376   0.06887  -0.1624  0.6114  0.0440  -1.2037   0.0000   0.0000   0.0000   0.6070
  -6.400   0.4793   0.07333   0.06845  -0.1622  0.6097  0.0442  -1.2054   0.0000   0.0000   0.0000   0.6048
  -6.300   0.4810   0.07288   0.06801  -0.1619  0.6080  0.0443  -1.2071   0.0000   0.0000   0.0000   0.6026
  -6.200   0.4829   0.07242   0.06755  -0.1618  0.6062  0.0444  -1.2087   0.0000   0.0000   0.0000   0.6006
  -6.100   0.4859   0.07185   0.06698  -0.1619  0.6045  0.0444  -1.2110   0.0000   0.0000   0.0000   0.5983
  -6.000   0.4894   0.07122   0.06635  -0.1621  0.6028  0.0445  -1.2135   0.0000   0.0000   0.0000   0.5959
  -5.900   0.4930   0.07057   0.06569  -0.1623  0.6010  0.0446  -1.2161   0.0000   0.0000   0.0000   0.5936
  -5.800   0.4968   0.06989   0.06500  -0.1626  0.5993  0.0446  -1.2187   0.0000   0.0000   0.0000   0.5913
  -5.700   0.5007   0.06919   0.06429  -0.1630  0.5975  0.0447  -1.2214   0.0000   0.0000   0.0000   0.5890
  -5.600   0.5048   0.06847   0.06356  -0.1633  0.5957  0.0447  -1.2241   0.0000   0.0000   0.0000   0.5867
  -5.500   0.5091   0.06773   0.06281  -0.1637  0.5939  0.0447  -1.2268   0.0000   0.0000   0.0000   0.5844
  -5.400   0.5137   0.06697   0.06203  -0.1642  0.5919  0.0448  -1.2297   0.0000   0.0000   0.0000   0.5821
  -5.300   0.5186   0.06619   0.06124  -0.1648  0.5898  0.0448  -1.2326   0.0000   0.0000   0.0000   0.5797
  -5.200   0.5241   0.06539   0.06042  -0.1655  0.5876  0.0448  -1.2358   0.0000   0.0000   0.0000   0.5774
  -5.100   0.5303   0.06455   0.05957  -0.1664  0.5852  0.0449  -1.2392   0.0000   0.0000   0.0000   0.5750
  -5.000   0.5372   0.06369   0.05870  -0.1674  0.5826  0.0449  -1.2427   0.0000   0.0000   0.0000   0.5725
  -4.900   0.5447   0.06281   0.05781  -0.1686  0.5800  0.0449  -1.2464   0.0000   0.0000   0.0000   0.5701
  -4.800   0.5517   0.06193   0.05693  -0.1697  0.5782  0.0449  -1.2500   0.0000   0.0000   0.0000   0.5677
  -4.700   0.5572   0.06104   0.05605  -0.1704  0.5777  0.0450  -1.2533   0.0000   0.0000   0.0000   0.5655
  -4.600   0.5630   0.06013   0.05515  -0.1710  0.5772  0.0450  -1.2567   0.0000   0.0000   0.0000   0.5632
  -4.500   0.5689   0.05921   0.05424  -0.1718  0.5766  0.0450  -1.2601   0.0000   0.0000   0.0000   0.5610
  -4.400   0.5750   0.05827   0.05331  -0.1725  0.5760  0.0450  -1.2636   0.0000   0.0000   0.0000   0.5588
  -4.300   0.5814   0.05731   0.05236  -0.1733  0.5753  0.0450  -1.2673   0.0000   0.0000   0.0000   0.5565
  -4.200   0.5881   0.05634   0.05139  -0.1742  0.5746  0.0451  -1.2710   0.0000   0.0000   0.0000   0.5543
  -4.100   0.5950   0.05535   0.05041  -0.1751  0.5738  0.0451  -1.2749   0.0000   0.0000   0.0000   0.5521
  -4.000   0.6022   0.05435   0.04941  -0.1761  0.5729  0.0451  -1.2788   0.0000   0.0000   0.0000   0.5498
  -3.900   0.6097   0.05331   0.04838  -0.1771  0.5720  0.0451  -1.2830   0.0000   0.0000   0.0000   0.5476
  -3.800   0.6176   0.05226   0.04732  -0.1783  0.5711  0.0451  -1.2872   0.0000   0.0000   0.0000   0.5453
  -3.700   0.6260   0.05118   0.04624  -0.1795  0.5701  0.0451  -1.2922   0.0000   0.0000   0.0000   0.5431
  -3.600   0.6347   0.05008   0.04514  -0.1807  0.5690  0.0452  -1.2979   0.0000   0.0000   0.0000   0.5409
  -3.500   0.6418   0.04527   0.04033  -0.1861  0.5683  0.0463  -1.2988   0.0000   0.0000   0.0000   0.5459
  -3.400   0.6525   0.04374   0.03879  -0.1882  0.5673  0.0464  -1.3223   0.0000   0.0000   0.0000   0.5440
  -3.300   0.6641   0.04283   0.03786  -0.1896  0.5662  0.0462  -1.3226   0.0000   0.0000   0.0000   0.5408
  -3.000   0.7700   0.02342   0.01760  -0.2239  0.5633  0.0353  -2.1148   0.0000   0.0000   0.0000   0.5451
  -2.900   0.7911   0.02150   0.01537  -0.2275  0.5622  0.0360  -2.1494   0.0000   0.0000   0.0000   0.5415
  -2.800   0.8074   0.02045   0.01410  -0.2292  0.5610  0.0367  -2.1458   0.0000   0.0000   0.0000   0.5376
  -2.700   0.8224   0.01963   0.01310  -0.2305  0.5598  0.0375  -2.1330   0.0000   0.0000   0.0000   0.5336
  -2.600   0.8366   0.01898   0.01228  -0.2314  0.5587  0.0383  -2.1130   0.0000   0.0000   0.0000   0.5297
  -2.500   0.8500   0.01848   0.01163  -0.2320  0.5575  0.0393  -2.0853   0.0000   0.0000   0.0000   0.5259
  -2.400   0.8628   0.01809   0.01112  -0.2325  0.5563  0.0404  -2.0515   0.0000   0.0000   0.0000   0.5221
  -2.300   0.8751   0.01779   0.01071  -0.2328  0.5550  0.0417  -2.0121   0.0000   0.0000   0.0000   0.5184
  -2.200   0.8871   0.01757   0.01041  -0.2330  0.5537  0.0429  -1.9665   0.0000   0.0000   0.0000   0.5148
  -2.100   0.8985   0.01747   0.01024  -0.2330  0.5523  0.0440  -1.9130   0.0000   0.0000   0.0000   0.5112
  -2.000   0.9092   0.01752   0.01026  -0.2329  0.5509  0.0449  -1.8487   0.0000   0.0000   0.0000   0.5078
  -1.900   0.9247   0.01654   0.00903  -0.2341  0.5496  0.0514  -1.8484   0.0000   0.0000   0.0000   0.5045
  -1.800   0.9362   0.01646   0.00894  -0.2342  0.5482  0.0561  -1.7935   0.0000   0.0000   0.0000   0.5013
  -1.700   0.9473   0.01650   0.00896  -0.2341  0.5467  0.0607  -1.7365   0.0000   0.0000   0.0000   0.4981
  -1.600   0.9584   0.01657   0.00901  -0.2341  0.5453  0.0657  -1.6786   0.0000   0.0000   0.0000   0.4950
  -1.500   0.9694   0.01672   0.00912  -0.2340  0.5438  0.0691  -1.6157   0.0000   0.0000   0.0000   0.4919
  -1.400   0.9823   0.01645   0.00875  -0.2345  0.5424  0.0764  -1.5731   0.0000   0.0000   0.0000   0.4890
  -1.300   0.9943   0.01646   0.00878  -0.2347  0.5409  0.0833  -1.5255   0.0000   0.0000   0.0000   0.4861
  -1.200   1.0056   0.01664   0.00897  -0.2348  0.5393  0.0885  -1.5350   0.0000   0.0000   0.0000   0.4833
  -1.100   1.0171   0.01685   0.00919  -0.2349  0.5377  0.0936  -1.5444   0.0000   0.0000   0.0000   0.4805
  -1.000   1.0286   0.01710   0.00942  -0.2350  0.5360  0.0978  -1.5536   0.0000   0.0000   0.0000   0.4778
  -0.900   1.0401   0.01740   0.00971  -0.2351  0.5342  0.1002  -1.5627   0.0000   0.0000   0.0000   0.4752
  -0.800   1.0531   0.01730   0.00956  -0.2357  0.5324  0.1087  -1.5720   0.0000   0.0000   0.0000   0.4728
  -0.700   1.0641   0.01741   0.00971  -0.2357  0.5315  0.1151  -1.5809   0.0000   0.0000   0.0000   0.4703
  -0.600   1.0745   0.01750   0.00984  -0.2356  0.5312  0.1199  -1.5901   0.0000   0.0000   0.0000   0.4678
  -0.500   1.0848   0.01758   0.00994  -0.2354  0.5309  0.1245  -1.5993   0.0000   0.0000   0.0000   0.4654
  -0.400   1.0953   0.01764   0.01000  -0.2353  0.5306  0.1287  -1.6084   0.0000   0.0000   0.0000   0.4629
  -0.300   1.1057   0.01769   0.01003  -0.2351  0.5303  0.1322  -1.6176   0.0000   0.0000   0.0000   0.4606
  -0.200   1.1161   0.01775   0.01008  -0.2350  0.5299  0.1348  -1.6267   0.0000   0.0000   0.0000   0.4582
  -0.100   1.1263   0.01783   0.01015  -0.2348  0.5295  0.1366  -1.6357   0.0000   0.0000   0.0000   0.4559
   0.000   1.1379   0.01759   0.00987  -0.2350  0.5291  0.1446  -1.6452   0.0000   0.0000   0.0000   0.4538
   0.100   1.1485   0.01756   0.00987  -0.2349  0.5286  0.1512  -1.6544   0.0000   0.0000   0.0000   0.4516
   0.200   1.1587   0.01761   0.00995  -0.2347  0.5281  0.1558  -1.6633   0.0000   0.0000   0.0000   0.4495
   0.300   1.1689   0.01768   0.01003  -0.2346  0.5276  0.1599  -1.6722   0.0000   0.0000   0.0000   0.4474
   0.400   1.1791   0.01774   0.01010  -0.2344  0.5271  0.1641  -1.6811   0.0000   0.0000   0.0000   0.4453
   0.500   1.1893   0.01781   0.01016  -0.2342  0.5265  0.1681  -1.6900   0.0000   0.0000   0.0000   0.4432
   0.600   1.1993   0.01789   0.01025  -0.2340  0.5259  0.1721  -1.6988   0.0000   0.0000   0.0000   0.4412
   0.700   1.2093   0.01799   0.01035  -0.2338  0.5253  0.1753  -1.7075   0.0000   0.0000   0.0000   0.4392
   0.800   1.2191   0.01811   0.01047  -0.2335  0.5246  0.1777  -1.7161   0.0000   0.0000   0.0000   0.4373
   0.900   1.2289   0.01824   0.01061  -0.2333  0.5239  0.1792  -1.7247   0.0000   0.0000   0.0000   0.4353
   1.000   1.2402   0.01803   0.01038  -0.2335  0.5232  0.1904  -1.7341   0.0000   0.0000   0.0000   0.4335
   1.100   1.2504   0.01806   0.01044  -0.2333  0.5225  0.1963  -1.7428   0.0000   0.0000   0.0000   0.4317
   1.200   1.2605   0.01812   0.01053  -0.2332  0.5217  0.2008  -1.7515   0.0000   0.0000   0.0000   0.4299
   1.300   1.2705   0.01820   0.01062  -0.2330  0.5210  0.2051  -1.7601   0.0000   0.0000   0.0000   0.4281
   1.400   1.2804   0.01827   0.01070  -0.2328  0.5202  0.2093  -1.7701   0.0000   0.0000   0.0000   0.4263
   1.500   1.2904   0.01835   0.01078  -0.2326  0.5194  0.2134  -1.7801   0.0000   0.0000   0.0000   0.4246
   1.600   1.3004   0.01843   0.01085  -0.2324  0.5185  0.2171  -1.7902   0.0000   0.0000   0.0000   0.4229
   1.700   1.3103   0.01851   0.01093  -0.2322  0.5177  0.2205  -1.8002   0.0000   0.0000   0.0000   0.4212
   1.800   1.3202   0.01861   0.01102  -0.2320  0.5169  0.2234  -1.8101   0.0000   0.0000   0.0000   0.4195
   1.900   1.3300   0.01872   0.01113  -0.2318  0.5160  0.2257  -1.8201   0.0000   0.0000   0.0000   0.4178
   2.000   1.3396   0.01884   0.01126  -0.2315  0.5151  0.2273  -1.8299   0.0000   0.0000   0.0000   0.4162
   2.100   1.3504   0.01876   0.01117  -0.2316  0.5143  0.2374  -1.8404   0.0000   0.0000   0.0000   0.4147
   2.200   1.3607   0.01878   0.01122  -0.2315  0.5134  0.2451  -1.8506   0.0000   0.0000   0.0000   0.4131
   2.300   1.3707   0.01884   0.01129  -0.2313  0.5125  0.2506  -1.8607   0.0000   0.0000   0.0000   0.4116
   2.400   1.3807   0.01890   0.01136  -0.2312  0.5115  0.2552  -1.8709   0.0000   0.0000   0.0000   0.4100
   2.500   1.3906   0.01896   0.01142  -0.2310  0.5106  0.2596  -1.8811   0.0000   0.0000   0.0000   0.4085
   2.600   1.4006   0.01901   0.01147  -0.2308  0.5095  0.2639  -1.8913   0.0000   0.0000   0.0000   0.4070
   2.700   1.4105   0.01907   0.01152  -0.2306  0.5085  0.2679  -1.9016   0.0000   0.0000   0.0000   0.4055
   2.800   1.4205   0.01913   0.01157  -0.2304  0.5075  0.2717  -1.9119   0.0000   0.0000   0.0000   0.4040
   2.900   1.4304   0.01919   0.01162  -0.2302  0.5065  0.2751  -1.9222   0.0000   0.0000   0.0000   0.4026
   3.000   1.4403   0.01926   0.01168  -0.2300  0.5056  0.2779  -1.9325   0.0000   0.0000   0.0000   0.4011
   3.100   1.4502   0.01934   0.01175  -0.2298  0.5046  0.2801  -1.9427   0.0000   0.0000   0.0000   0.3997
   3.200   1.4599   0.01943   0.01183  -0.2296  0.5038  0.2818  -1.9527   0.0000   0.0000   0.0000   0.3983
   3.300   1.4703   0.01944   0.01185  -0.2296  0.5029  0.2924  -1.9631   0.0000   0.0000   0.0000   0.3970
   3.400   1.4804   0.01950   0.01193  -0.2295  0.5021  0.3026  -1.9732   0.0000   0.0000   0.0000   0.3957
   3.500   1.4903   0.01958   0.01204  -0.2294  0.5013  0.3108  -1.9832   0.0000   0.0000   0.0000   0.3943
   3.600   1.5001   0.01968   0.01216  -0.2292  0.5004  0.3182  -1.9931   0.0000   0.0000   0.0000   0.3930
   3.700   1.5099   0.01979   0.01228  -0.2290  0.4995  0.3249  -2.0030   0.0000   0.0000   0.0000   0.3917
   3.800   1.5197   0.01991   0.01241  -0.2289  0.4986  0.3309  -2.0129   0.0000   0.0000   0.0000   0.3905
   3.900   1.5296   0.02005   0.01254  -0.2287  0.4977  0.3359  -2.0228   0.0000   0.0000   0.0000   0.3892
   4.000   1.5395   0.02021   0.01269  -0.2286  0.4967  0.3398  -2.0326   0.0000   0.0000   0.0000   0.3880
   4.100   1.5496   0.02036   0.01285  -0.2286  0.4957  0.3492  -2.0424   0.0000   0.0000   0.0000   0.3868
   4.200   1.5599   0.02052   0.01305  -0.2286  0.4946  0.3660  -2.0523   0.0000   0.0000   0.0000   0.3856
   4.300   1.5701   0.02072   0.01331  -0.2286  0.4934  0.3806  -2.0619   0.0000   0.0000   0.0000   0.3845
   4.400   1.5802   0.02097   0.01360  -0.2286  0.4921  0.3953  -2.0713   0.0000   0.0000   0.0000   0.3833
   4.600   1.5991   0.02165   0.01448  -0.2285  0.4892  0.4741  -2.0879   0.0000   0.0000   0.0000   0.3812
   4.800   1.6052   0.02256   0.01608  -0.2261  0.4855  1.0000  -2.0918   0.0000   0.0000   0.0000   0.3788
   4.900   1.6139   0.02268   0.01619  -0.2257  0.4853  1.0000  -2.1007   0.0000   0.0000   0.0000   0.3776
   5.000   1.6225   0.02280   0.01631  -0.2254  0.4851  1.0000  -2.1096   0.0000   0.0000   0.0000   0.3765
   5.100   1.6310   0.02293   0.01643  -0.2250  0.4848  1.0000  -2.1183   0.0000   0.0000   0.0000   0.3753
   5.200   1.6393   0.02305   0.01656  -0.2245  0.4846  1.0000  -2.1269   0.0000   0.0000   0.0000   0.3742
   5.300   1.6475   0.02318   0.01669  -0.2241  0.4843  1.0000  -2.1369   0.0000   0.0000   0.0000   0.3730
   5.400   1.6556   0.02332   0.01683  -0.2236  0.4840  1.0000  -2.1468   0.0000   0.0000   0.0000   0.3719
   5.500   1.6635   0.02345   0.01697  -0.2232  0.4837  1.0000  -2.1565   0.0000   0.0000   0.0000   0.3707
   5.600   1.6713   0.02359   0.01712  -0.2227  0.4833  1.0000  -2.1661   0.0000   0.0000   0.0000   0.3696
   5.700   1.6789   0.02374   0.01728  -0.2221  0.4829  1.0000  -2.1756   0.0000   0.0000   0.0000   0.3685
   5.800   1.6864   0.02389   0.01744  -0.2216  0.4825  1.0000  -2.1849   0.0000   0.0000   0.0000   0.3674
   5.900   1.6937   0.02403   0.01759  -0.2210  0.4821  1.0000  -2.1942   0.0000   0.0000   0.0000   0.3663
   6.000   1.7006   0.02416   0.01772  -0.2203  0.4816  1.0000  -2.2031   0.0000   0.0000   0.0000   0.3651
   6.100   1.7073   0.02427   0.01785  -0.2196  0.4810  1.0000  -2.2120   0.0000   0.0000   0.0000   0.3640
   6.200   1.7138   0.02439   0.01798  -0.2189  0.4804  1.0000  -2.2207   0.0000   0.0000   0.0000   0.3629
   6.300   1.7199   0.02451   0.01811  -0.2180  0.4797  1.0000  -2.2291   0.0000   0.0000   0.0000   0.3617
   6.400   1.7257   0.02464   0.01825  -0.2172  0.4789  1.0000  -2.2372   0.0000   0.0000   0.0000   0.3606
   6.500   1.7313   0.02477   0.01840  -0.2163  0.4781  1.0000  -2.2451   0.0000   0.0000   0.0000   0.3595
   6.600   1.7368   0.02492   0.01856  -0.2154  0.4773  1.0000  -2.2528   0.0000   0.0000   0.0000   0.3583
   6.700   1.7422   0.02509   0.01875  -0.2145  0.4765  1.0000  -2.2604   0.0000   0.0000   0.0000   0.3572
   6.800   1.7475   0.02528   0.01896  -0.2136  0.4757  1.0000  -2.2678   0.0000   0.0000   0.0000   0.3561
   6.900   1.7527   0.02550   0.01919  -0.2127  0.4749  1.0000  -2.2750   0.0000   0.0000   0.0000   0.3551
   7.000   1.7580   0.02572   0.01943  -0.2118  0.4741  1.0000  -2.2829   0.0000   0.0000   0.0000   0.3540
   7.100   1.7632   0.02594   0.01967  -0.2109  0.4733  1.0000  -2.2915   0.0000   0.0000   0.0000   0.3529
   7.200   1.7682   0.02617   0.01992  -0.2100  0.4724  1.0000  -2.3000   0.0000   0.0000   0.0000   0.3519
   7.300   1.7731   0.02640   0.02018  -0.2091  0.4715  1.0000  -2.3084   0.0000   0.0000   0.0000   0.3508
   7.400   1.7780   0.02664   0.02043  -0.2082  0.4707  1.0000  -2.3167   0.0000   0.0000   0.0000   0.3498
   7.500   1.7829   0.02688   0.02070  -0.2073  0.4697  1.0000  -2.3251   0.0000   0.0000   0.0000   0.3487
   7.600   1.7880   0.02712   0.02095  -0.2064  0.4688  1.0000  -2.3336   0.0000   0.0000   0.0000   0.3477
   7.700   1.7934   0.02734   0.02119  -0.2056  0.4679  1.0000  -2.3424   0.0000   0.0000   0.0000   0.3467
   7.800   1.7991   0.02754   0.02140  -0.2048  0.4668  1.0000  -2.3517   0.0000   0.0000   0.0000   0.3457
   7.900   1.8053   0.02771   0.02158  -0.2042  0.4658  1.0000  -2.3613   0.0000   0.0000   0.0000   0.3447
   8.000   1.8117   0.02786   0.02174  -0.2035  0.4647  1.0000  -2.3714   0.0000   0.0000   0.0000   0.3437
   8.100   1.8184   0.02799   0.02188  -0.2029  0.4637  1.0000  -2.3818   0.0000   0.0000   0.0000   0.3428
   8.200   1.8253   0.02811   0.02201  -0.2023  0.4626  1.0000  -2.3939   0.0000   0.0000   0.0000   0.3418
   8.300   1.8324   0.02823   0.02213  -0.2018  0.4615  1.0000  -2.4063   0.0000   0.0000   0.0000   0.3408
   8.400   1.8397   0.02835   0.02225  -0.2013  0.4605  1.0000  -2.4189   0.0000   0.0000   0.0000   0.3399
   8.500   1.8470   0.02848   0.02239  -0.2008  0.4595  1.0000  -2.4313   0.0000   0.0000   0.0000   0.3390
   8.600   1.8540   0.02864   0.02255  -0.2003  0.4586  1.0000  -2.4436   0.0000   0.0000   0.0000   0.3381
   8.700   1.8610   0.02882   0.02274  -0.1997  0.4577  1.0000  -2.4556   0.0000   0.0000   0.0000   0.3372
   8.800   1.8680   0.02900   0.02293  -0.1992  0.4568  1.0000  -2.4677   0.0000   0.0000   0.0000   0.3363
   8.900   1.8755   0.02915   0.02309  -0.1988  0.4559  1.0000  -2.4815   0.0000   0.0000   0.0000   0.3354
   9.000   1.8833   0.02929   0.02323  -0.1984  0.4549  1.0000  -2.4963   0.0000   0.0000   0.0000   0.3345
   9.100   1.8912   0.02941   0.02336  -0.1980  0.4539  1.0000  -2.5114   0.0000   0.0000   0.0000   0.3337
   9.200   1.8991   0.02953   0.02349  -0.1977  0.4528  1.0000  -2.5265   0.0000   0.0000   0.0000   0.3328
   9.300   1.9068   0.02968   0.02363  -0.1973  0.4516  1.0000  -2.5413   0.0000   0.0000   0.0000   0.3319
   9.400   1.9142   0.02987   0.02382  -0.1968  0.4503  1.0000  -2.5557   0.0000   0.0000   0.0000   0.3311
   9.500   1.9220   0.03010   0.02405  -0.1965  0.4488  1.0000  -2.5705   0.0000   0.0000   0.0000   0.3303
   9.600   1.9296   0.03045   0.02441  -0.1962  0.4471  1.0000  -2.5848   0.0000   0.0000   0.0000   0.3295
   9.700   1.9347   0.03111   0.02508  -0.1957  0.4449  1.0000  -2.5959   0.0000   0.0000   0.0000   0.3287
   9.800   1.9099   0.03400   0.02810  -0.1914  0.4404  1.0000  -2.5719   0.0000   0.0000   0.0000   0.3276
   9.900   1.9120   0.03430   0.02844  -0.1903  0.4400  1.0000  -2.5822   0.0000   0.0000   0.0000   0.3267
  10.000   1.9141   0.03461   0.02878  -0.1892  0.4397  1.0000  -2.5926   0.0000   0.0000   0.0000   0.3258
  10.100   1.9154   0.03496   0.02916  -0.1881  0.4392  1.0000  -2.6021   0.0000   0.0000   0.0000   0.3249
  10.200   1.9159   0.03535   0.02959  -0.1868  0.4387  1.0000  -2.6107   0.0000   0.0000   0.0000   0.3239
  10.300   1.9165   0.03576   0.03003  -0.1856  0.4380  1.0000  -2.6193   0.0000   0.0000   0.0000   0.3230
  10.400   1.9169   0.03620   0.03051  -0.1844  0.4373  1.0000  -2.6277   0.0000   0.0000   0.0000   0.3222
  10.500   1.9156   0.03676   0.03111  -0.1830  0.4365  1.0000  -2.6339   0.0000   0.0000   0.0000   0.3213
  10.600   1.9100   0.03760   0.03200  -0.1813  0.4355  1.0000  -2.6349   0.0000   0.0000   0.0000   0.3204
  10.700   1.9047   0.03849   0.03293  -0.1796  0.4344  1.0000  -2.6360   0.0000   0.0000   0.0000   0.3195
  10.800   1.8960   0.03967   0.03417  -0.1777  0.4330  1.0000  -2.6327   0.0000   0.0000   0.0000   0.3187
  10.900   1.8855   0.04105   0.03560  -0.1758  0.4315  1.0000  -2.6269   0.0000   0.0000   0.0000   0.3179
  11.000   1.8720   0.04273   0.03735  -0.1737  0.4297  1.0000  -2.6171   0.0000   0.0000   0.0000   0.3172
  11.100   1.8530   0.04497   0.03966  -0.1714  0.4274  1.0000  -2.5999   0.0000   0.0000   0.0000   0.3166
  11.200   1.8312   0.04766   0.04243  -0.1691  0.4246  1.0000  -2.5784   0.0000   0.0000   0.0000   0.3162
  11.300   1.8192   0.04963   0.04444  -0.1677  0.4221  1.0000  -2.5693   0.0000   0.0000   0.0000   0.3157
  11.400   1.8174   0.05069   0.04554  -0.1669  0.4203  1.0000  -2.5737   0.0000   0.0000   0.0000   0.3152
  11.500   1.8185   0.05148   0.04635  -0.1664  0.4186  1.0000  -2.5836   0.0000   0.0000   0.0000   0.3145
  11.600   1.8261   0.05162   0.04653  -0.1661  0.4174  1.0000  -2.6026   0.0000   0.0000   0.0000   0.3138
  11.700   1.8391   0.05122   0.04613  -0.1662  0.4165  1.0000  -2.6292   0.0000   0.0000   0.0000   0.3129
  11.800   1.8541   0.05061   0.04551  -0.1664  0.4157  1.0000  -2.6588   0.0000   0.0000   0.0000   0.3120
  11.900   1.8688   0.05003   0.04493  -0.1665  0.4149  1.0000  -2.6881   0.0000   0.0000   0.0000   0.3112
  12.000   1.8828   0.04954   0.04443  -0.1667  0.4140  1.0000  -2.7163   0.0000   0.0000   0.0000   0.3103
  12.100   1.8957   0.04915   0.04404  -0.1667  0.4130  1.0000  -2.7432   0.0000   0.0000   0.0000   0.3095
  12.200   1.9072   0.04892   0.04381  -0.1667  0.4120  1.0000  -2.7680   0.0000   0.0000   0.0000   0.3088
  12.300   1.9169   0.04887   0.04375  -0.1666  0.4110  1.0000  -2.7912   0.0000   0.0000   0.0000   0.3080
  12.400   1.9260   0.04886   0.04375  -0.1665  0.4099  1.0000  -2.8158   0.0000   0.0000   0.0000   0.3073
  12.500   1.9352   0.04884   0.04374  -0.1664  0.4088  1.0000  -2.8407   0.0000   0.0000   0.0000   0.3065
  12.600   1.9448   0.04878   0.04367  -0.1663  0.4076  1.0000  -2.8662   0.0000   0.0000   0.0000   0.3058
  12.700   1.9570   0.04849   0.04337  -0.1663  0.4063  1.0000  -2.8957   0.0000   0.0000   0.0000   0.3051
  12.800   1.9699   0.04814   0.04301  -0.1664  0.4048  1.0000  -2.9265   0.0000   0.0000   0.0000   0.3043
  12.900   1.9826   0.04786   0.04271  -0.1665  0.4029  1.0000  -2.9568   0.0000   0.0000   0.0000   0.3035
  13.000   1.9930   0.04790   0.04275  -0.1664  0.4003  1.0000  -2.9834   0.0000   0.0000   0.0000   0.3028
  13.100   1.9797   0.05032   0.04523  -0.1649  0.3965  1.0000  -2.9734   0.0000   0.0000   0.0000   0.3024
  13.400   1.7091   0.08500   0.08042  -0.1563  0.3694  1.0000  -2.5679   0.0000   0.0000   0.0000   0.3094
  13.500   1.7244   0.08405   0.07947  -0.1562  0.3693  1.0000  -2.6029   0.0000   0.0000   0.0000   0.3083
  13.600   1.7414   0.08287   0.07830  -0.1561  0.3693  1.0000  -2.6408   0.0000   0.0000   0.0000   0.3071
  13.700   1.7586   0.08169   0.07712  -0.1560  0.3692  1.0000  -2.6791   0.0000   0.0000   0.0000   0.3059
  13.800   1.7738   0.08079   0.07623  -0.1559  0.3689  1.0000  -2.7142   0.0000   0.0000   0.0000   0.3048
  13.900   1.7879   0.08006   0.07550  -0.1559  0.3684  1.0000  -2.7472   0.0000   0.0000   0.0000   0.3038
  14.000   1.8004   0.07955   0.07499  -0.1558  0.3677  1.0000  -2.7777   0.0000   0.0000   0.0000   0.3029
  14.100   1.8122   0.07912   0.07457  -0.1557  0.3670  1.0000  -2.8079   0.0000   0.0000   0.0000   0.3020
  14.200   1.8247   0.07861   0.07406  -0.1556  0.3662  1.0000  -2.8425   0.0000   0.0000   0.0000   0.3011
  14.300   1.8395   0.07780   0.07326  -0.1556  0.3656  1.0000  -2.8815   0.0000   0.0000   0.0000   0.3001
  14.400   1.8559   0.07679   0.07224  -0.1555  0.3649  1.0000  -2.9235   0.0000   0.0000   0.0000   0.2991
  14.500   1.8744   0.07552   0.07096  -0.1556  0.3643  1.0000  -2.9696   0.0000   0.0000   0.0000   0.2980
  14.600   1.8966   0.07381   0.06923  -0.1556  0.3639  1.0000  -3.0224   0.0000   0.0000   0.0000   0.2968
  14.700   1.9176   0.07227   0.06768  -0.1557  0.3631  1.0000  -3.0732   0.0000   0.0000   0.0000   0.2957
  14.800   1.9347   0.07122   0.06661  -0.1558  0.3617  1.0000  -3.1171   0.0000   0.0000   0.0000   0.2947
  14.900   1.9501   0.07039   0.06576  -0.1558  0.3600  1.0000  -3.1579   0.0000   0.0000   0.0000   0.2938
  15.000   1.9641   0.06974   0.06510  -0.1557  0.3579  1.0000  -3.1961   0.0000   0.0000   0.0000   0.2929
  15.100   1.9773   0.06919   0.06464  -0.1555  0.3552  1.0000  -3.2327   0.0000   0.0000   0.0000   0.2921
  15.200   1.7519   0.10041   0.09614  -0.1541  0.3317  1.0000  -2.8225   0.0000   0.0000   0.0000   0.3010
  15.300   1.7646   0.09979   0.09552  -0.1540  0.3308  1.0000  -2.8585   0.0000   0.0000   0.0000   0.3000
  15.400   1.7771   0.09920   0.09493  -0.1538  0.3299  1.0000  -2.8942   0.0000   0.0000   0.0000   0.2990
  15.500   1.7908   0.09843   0.09417  -0.1537  0.3292  1.0000  -2.9322   0.0000   0.0000   0.0000   0.2980
  15.600   1.8064   0.09740   0.09314  -0.1536  0.3287  1.0000  -2.9740   0.0000   0.0000   0.0000   0.2969
  15.700   1.8211   0.09650   0.09224  -0.1534  0.3279  1.0000  -3.0143   0.0000   0.0000   0.0000   0.2958
  15.800   1.8354   0.09567   0.09140  -0.1533  0.3270  1.0000  -3.0539   0.0000   0.0000   0.0000   0.2948
  15.900   1.8506   0.09472   0.09045  -0.1532  0.3258  1.0000  -3.1007   0.0000   0.0000   0.0000   0.2938
  16.000   1.8663   0.09369   0.08950  -0.1530  0.3245  1.0000  -3.1490   0.0000   0.0000   0.0000   0.2927
  16.100   1.8822   0.09264   0.08842  -0.1529  0.3229  1.0000  -3.1981   0.0000   0.0000   0.0000   0.2916
  16.200   1.8981   0.09156   0.08732  -0.1528  0.3209  1.0000  -3.2474   0.0000   0.0000   0.0000   0.2906
  16.300   1.9145   0.09042   0.08615  -0.1526  0.3185  1.0000  -3.2977   0.0000   0.0000   0.0000   0.2895
  16.400   1.9324   0.08907   0.08478  -0.1524  0.3160  1.0000  -3.3512   0.0000   0.0000   0.0000   0.2884
  16.700   1.8226   0.10812   0.10411  -0.1531  0.2995  1.0000  -3.1589   0.0000   0.0000   0.0000   0.2927
  16.800   1.8254   0.10891   0.10491  -0.1531  0.2966  1.0000  -3.1799   0.0000   0.0000   0.0000   0.2923
  16.900   1.8328   0.10902   0.10503  -0.1531  0.2943  1.0000  -3.2111   0.0000   0.0000   0.0000   0.2916
  17.000   1.8415   0.10895   0.10494  -0.1530  0.2922  1.0000  -3.2452   0.0000   0.0000   0.0000   0.2909
  17.100   1.8512   0.10872   0.10470  -0.1529  0.2901  1.0000  -3.2817   0.0000   0.0000   0.0000   0.2901
  17.200   1.8613   0.10842   0.10438  -0.1527  0.2879  1.0000  -3.3218   0.0000   0.0000   0.0000   0.2892
  17.300   1.8713   0.10811   0.10404  -0.1526  0.2855  1.0000  -3.3656   0.0000   0.0000   0.0000   0.2884
  17.400   1.8812   0.10780   0.10370  -0.1524  0.2828  1.0000  -3.4093   0.0000   0.0000   0.0000   0.2876
  17.500   1.8925   0.10726   0.10313  -0.1522  0.2797  1.0000  -3.4565   0.0000   0.0000   0.0000   0.2867
  17.600   1.9078   0.10615   0.10198  -0.1519  0.2763  1.0000  -3.5138   0.0000   0.0000   0.0000   0.2856
  17.700   1.9000   0.10843   0.10431  -0.1520  0.2735  1.0000  -3.5132   0.0000   0.0000   0.0000   0.2857
  17.800   1.8850   0.11179   0.10776  -0.1524  0.2709  1.0000  -3.4945   0.0000   0.0000   0.0000   0.2862
  17.900   1.8729   0.11472   0.11075  -0.1527  0.2676  1.0000  -3.4826   0.0000   0.0000   0.0000   0.2866
  18.000   1.8636   0.11721   0.11328  -0.1531  0.2640  1.0000  -3.4778   0.0000   0.0000   0.0000   0.2869
  18.100   1.8603   0.11883   0.11491  -0.1532  0.2604  1.0000  -3.4882   0.0000   0.0000   0.0000   0.2869
  18.200   1.8569   0.12047   0.11654  -0.1534  0.2567  1.0000  -3.4983   0.0000   0.0000   0.0000   0.2868
  18.300   1.8631   0.12068   0.11673  -0.1534  0.2535  1.0000  -3.5335   0.0000   0.0000   0.0000   0.2862
  18.400   1.8721   0.12045   0.11645  -0.1532  0.2504  1.0000  -3.5763   0.0000   0.0000   0.0000   0.2854
  18.500   1.8799   0.12038   0.11632  -0.1531  0.2469  1.0000  -3.6159   0.0000   0.0000   0.0000   0.2847
  18.600   1.8877   0.12029   0.11617  -0.1530  0.2430  1.0000  -3.6555   0.0000   0.0000   0.0000   0.2839
  18.700   1.9000   0.11952   0.11535  -0.1527  0.2390  1.0000  -3.7069   0.0000   0.0000   0.0000   0.2829
  18.800   1.8997   0.12067   0.11653  -0.1528  0.2363  1.0000  -3.7246   0.0000   0.0000   0.0000   0.2827
  18.900   1.8752   0.12548   0.12146  -0.1537  0.2341  1.0000  -3.6782   0.0000   0.0000   0.0000   0.2840
  19.000   1.8678   0.12775   0.12379  -0.1542  0.2317  1.0000  -3.6766   0.0000   0.0000   0.0000   0.2843
  19.100   1.8642   0.12942   0.12551  -0.1545  0.2292  1.0000  -3.6853   0.0000   0.0000   0.0000   0.2843
  19.200   1.8630   0.13072   0.12683  -0.1547  0.2264  1.0000  -3.7048   0.0000   0.0000   0.0000   0.2842
  19.300   1.8635   0.13175   0.12787  -0.1549  0.2234  1.0000  -3.7299   0.0000   0.0000   0.0000   0.2840
  19.400   1.8652   0.13257   0.12868  -0.1551  0.2204  1.0000  -3.7590   0.0000   0.0000   0.0000   0.2836
  19.500   1.8678   0.13322   0.12930  -0.1552  0.2172  1.0000  -3.7910   0.0000   0.0000   0.0000   0.2833
  19.600   1.8706   0.13381   0.12984  -0.1553  0.2139  1.0000  -3.8239   0.0000   0.0000   0.0000   0.2829
  19.700   1.8732   0.13440   0.13037  -0.1554  0.2101  1.0000  -3.8559   0.0000   0.0000   0.0000   0.2825
  19.800   1.8777   0.13466   0.13057  -0.1553  0.2056  1.0000  -3.8940   0.0000   0.0000   0.0000   0.2819
  19.900   1.8856   0.13441   0.13027  -0.1551  0.2010  1.0000  -3.9427   0.0000   0.0000   0.0000   0.2811
  20.000   1.8815   0.13606   0.13200  -0.1556  0.1998  1.0000  -3.9531   0.0000   0.0000   0.0000   0.2813
  20.100   1.8771   0.13775   0.13375  -0.1561  0.1981  1.0000  -3.9626   0.0000   0.0000   0.0000   0.2814
  20.200   1.8728   0.13944   0.13550  -0.1566  0.1961  1.0000  -3.9724   0.0000   0.0000   0.0000   0.2816
  20.300   1.8685   0.14117   0.13728  -0.1572  0.1938  1.0000  -3.9818   0.0000   0.0000   0.0000   0.2817
  20.400   1.8636   0.14298   0.13912  -0.1577  0.1912  1.0000  -3.9893   0.0000   0.0000   0.0000   0.2820
  20.500   1.8546   0.14545   0.14162  -0.1585  0.1884  1.0000  -3.9830   0.0000   0.0000   0.0000   0.2825
  20.600   1.8535   0.14670   0.14287  -0.1589  0.1857  1.0000  -4.0027   0.0000   0.0000   0.0000   0.2824
  20.700   1.8541   0.14767   0.14382  -0.1592  0.1829  1.0000  -4.0283   0.0000   0.0000   0.0000   0.2822
  20.800   1.8552   0.14857   0.14468  -0.1594  0.1800  1.0000  -4.0555   0.0000   0.0000   0.0000   0.2820
  20.900   1.8561   0.14946   0.14553  -0.1597  0.1769  1.0000  -4.0824   0.0000   0.0000   0.0000   0.2818
  21.000   1.8583   0.15014   0.14616  -0.1599  0.1733  1.0000  -4.1130   0.0000   0.0000   0.0000   0.2814
  21.100   1.8647   0.15009   0.14606  -0.1598  0.1691  1.0000  -4.1576   0.0000   0.0000   0.0000   0.2807
  21.200   1.8668   0.15082   0.14682  -0.1600  0.1668  1.0000  -4.1877   0.0000   0.0000   0.0000   0.2804
  21.300   1.8645   0.15237   0.14843  -0.1605  0.1658  1.0000  -4.2030   0.0000   0.0000   0.0000   0.2805
  21.400   1.8628   0.15380   0.14992  -0.1610  0.1644  1.0000  -4.2220   0.0000   0.0000   0.0000   0.2805
  21.500   1.8616   0.15516   0.15133  -0.1615  0.1628  1.0000  -4.2470   0.0000   0.0000   0.0000   0.2805
  21.600   1.8606   0.15650   0.15271  -0.1620  0.1610  1.0000  -4.2729   0.0000   0.0000   0.0000   0.2805
  21.700   1.8597   0.15779   0.15403  -0.1625  0.1588  1.0000  -4.2996   0.0000   0.0000   0.0000   0.2804
  21.800   1.8595   0.15899   0.15525  -0.1629  0.1565  1.0000  -4.3288   0.0000   0.0000   0.0000   0.2804
  21.900   1.8594   0.16016   0.15651  -0.1633  0.1539  1.0000  -4.3589   0.0000   0.0000   0.0000   0.2803
  22.000   1.8593   0.16132   0.15765  -0.1637  0.1513  1.0000  -4.3893   0.0000   0.0000   0.0000   0.2801
  22.100   1.8590   0.16251   0.15880  -0.1642  0.1485  1.0000  -4.4188   0.0000   0.0000   0.0000   0.2801
  22.200   1.8578   0.16384   0.16009  -0.1647  0.1455  1.0000  -4.4448   0.0000   0.0000   0.0000   0.2800
  22.300   1.8573   0.16504   0.16124  -0.1651  0.1420  1.0000  -4.4729   0.0000   0.0000   0.0000   0.2799
  22.400   1.8622   0.16519   0.16134  -0.1651  0.1376  1.0000  -4.5232   0.0000   0.0000   0.0000   0.2793
  22.500   1.8630   0.16621   0.16238  -0.1655  0.1355  1.0000  -4.5565   0.0000   0.0000   0.0000   0.2792
  22.600   1.8588   0.16823   0.16447  -0.1663  0.1346  1.0000  -4.5690   0.0000   0.0000   0.0000   0.2795
  22.700   1.8491   0.17128   0.16760  -0.1675  0.1335  1.0000  -4.5579   0.0000   0.0000   0.0000   0.2803
  22.800   1.8449   0.17331   0.16970  -0.1683  0.1322  1.0000  -4.5700   0.0000   0.0000   0.0000   0.2806
  22.900   1.8430   0.17492   0.17136  -0.1689  0.1307  1.0000  -4.5918   0.0000   0.0000   0.0000   0.2807
  23.000   1.8421   0.17635   0.17283  -0.1695  0.1290  1.0000  -4.6176   0.0000   0.0000   0.0000   0.2808
  23.100   1.8417   0.17768   0.17418  -0.1700  0.1271  1.0000  -4.6459   0.0000   0.0000   0.0000   0.2807
  23.200   1.8416   0.17892   0.17544  -0.1705  0.1251  1.0000  -4.6759   0.0000   0.0000   0.0000   0.2806
  23.300   1.8417   0.18013   0.17664  -0.1710  0.1231  1.0000  -4.7068   0.0000   0.0000   0.0000   0.2806
  23.400   1.8417   0.18135   0.17785  -0.1716  0.1209  1.0000  -4.7373   0.0000   0.0000   0.0000   0.2805
  23.500   1.8415   0.18262   0.17909  -0.1721  0.1187  1.0000  -4.7667   0.0000   0.0000   0.0000   0.2804
  23.600   1.8408   0.18396   0.18040  -0.1726  0.1164  1.0000  -4.7940   0.0000   0.0000   0.0000   0.2804
  23.700   1.8405   0.18522   0.18162  -0.1731  0.1136  1.0000  -4.8228   0.0000   0.0000   0.0000   0.2803
  23.800   1.8429   0.18589   0.18225  -0.1734  0.1102  1.0000  -4.8629   0.0000   0.0000   0.0000   0.2800
  23.900   1.8468   0.18625   0.18259  -0.1735  0.1072  1.0000  -4.9093   0.0000   0.0000   0.0000   0.2794
  24.000   1.8452   0.18791   0.18431  -0.1742  0.1066  1.0000  -4.9320   0.0000   0.0000   0.0000   0.2796
  24.100   1.8431   0.18966   0.18613  -0.1750  0.1058  1.0000  -4.9528   0.0000   0.0000   0.0000   0.2797
  24.200   1.8405   0.19153   0.18806  -0.1758  0.1049  1.0000  -4.9708   0.0000   0.0000   0.0000   0.2800
  24.300   1.8372   0.19354   0.19013  -0.1766  0.1038  1.0000  -4.9857   0.0000   0.0000   0.0000   0.2803
  24.400   1.8307   0.19627   0.19293  -0.1778  0.1026  1.0000  -4.9847   0.0000   0.0000   0.0000   0.2809
  24.500   1.8245   0.19894   0.19565  -0.1789  0.1013  1.0000  -4.9855   0.0000   0.0000   0.0000   0.2815
  24.600   1.8218   0.20087   0.19762  -0.1797  0.0998  1.0000  -5.0025   0.0000   0.0000   0.0000   0.2818
  24.700   1.8204   0.20252   0.19930  -0.1805  0.0981  1.0000  -5.0258   0.0000   0.0000   0.0000   0.2819
  24.800   1.8195   0.20404   0.20082  -0.1811  0.0963  1.0000  -5.0586   0.0000   0.0000   0.0000   0.2820
  24.900   1.8188   0.20550   0.20227  -0.1818  0.0944  1.0000  -5.0953   0.0000   0.0000   0.0000   0.2820
  25.000   1.8179   0.20702   0.20376  -0.1825  0.0925  1.0000  -5.1306   0.0000   0.0000   0.0000   0.2820
  25.100   1.8166   0.20861   0.20532  -0.1832  0.0904  1.0000  -5.1636   0.0000   0.0000   0.0000   0.2821
  25.200   1.8153   0.21019   0.20685  -0.1839  0.0880  1.0000  -5.1964   0.0000   0.0000   0.0000   0.2822
  25.300   1.8164   0.21119   0.20781  -0.1843  0.0849  1.0000  -5.2415   0.0000   0.0000   0.0000   0.2820
  25.400   1.8198   0.21164   0.20824  -0.1844  0.0817  1.0000  -5.2983   0.0000   0.0000   0.0000   0.2815
  25.500   1.8179   0.21347   0.21012  -0.1853  0.0812  1.0000  -5.3279   0.0000   0.0000   0.0000   0.2817
  25.600   1.8156   0.21539   0.21210  -0.1861  0.0806  1.0000  -5.3549   0.0000   0.0000   0.0000   0.2819
  25.700   1.8132   0.21737   0.21414  -0.1870  0.0799  1.0000  -5.3874   0.0000   0.0000   0.0000   0.2822
  25.800   1.8104   0.21945   0.21628  -0.1879  0.0791  1.0000  -5.4229   0.0000   0.0000   0.0000   0.2825
  25.900   1.8070   0.22168   0.21857  -0.1889  0.0782  1.0000  -5.4539   0.0000   0.0000   0.0000   0.2828
  26.000   1.8008   0.22462   0.22157  -0.1901  0.0772  1.0000  -5.4632   0.0000   0.0000   0.0000   0.2836
  26.100   1.7939   0.22775   0.22477  -0.1915  0.0761  1.0000  -5.4671   0.0000   0.0000   0.0000   0.2844
  26.200   1.7905   0.23002   0.22707  -0.1924  0.0750  1.0000  -5.4979   0.0000   0.0000   0.0000   0.2848
  26.300   1.7883   0.23201   0.22909  -0.1933  0.0737  1.0000  -5.5375   0.0000   0.0000   0.0000   0.2850
  26.400   1.7867   0.23383   0.23093  -0.1941  0.0724  1.0000  -5.5823   0.0000   0.0000   0.0000   0.2852
  26.500   1.7854   0.23557   0.23268  -0.1949  0.0710  1.0000  -5.6296   0.0000   0.0000   0.0000   0.2853
  26.600   1.7842   0.23729   0.23438  -0.1956  0.0696  1.0000  -5.6781   0.0000   0.0000   0.0000   0.2854
  26.700   1.7826   0.23911   0.23619  -0.1965  0.0681  1.0000  -5.7232   0.0000   0.0000   0.0000   0.2856
  26.800   1.7806   0.24102   0.23807  -0.1973  0.0666  1.0000  -5.7654   0.0000   0.0000   0.0000   0.2858
  26.900   1.7789   0.24285   0.23988  -0.1981  0.0647  1.0000  -5.8088   0.0000   0.0000   0.0000   0.2860
  27.000   1.7792   0.24410   0.24109  -0.1986  0.0624  1.0000  -5.8677   0.0000   0.0000   0.0000   0.2858
  27.100   1.7814   0.24478   0.24177  -0.1988  0.0594  1.0000  -5.9374   0.0000   0.0000   0.0000   0.2854
  27.200   1.7786   0.24701   0.24406  -0.1998  0.0591  1.0000  -5.9730   0.0000   0.0000   0.0000   0.2857
  27.300   1.7751   0.24942   0.24654  -0.2008  0.0587  1.0000  -6.0028   0.0000   0.0000   0.0000   0.2861
  27.400   1.7711   0.25202   0.24919  -0.2019  0.0583  1.0000  -6.0279   0.0000   0.0000   0.0000   0.2866
  27.500   1.7660   0.25491   0.25215  -0.2031  0.0578  1.0000  -6.0442   0.0000   0.0000   0.0000   0.2873
  27.600   1.7553   0.25941   0.25673  -0.2049  0.0572  1.0000  -6.0127   0.0000   0.0000   0.0000   0.2887
  27.700   1.7491   0.26268   0.26007  -0.2062  0.0566  1.0000  -6.0180   0.0000   0.0000   0.0000   0.2895
  27.800   1.7448   0.26542   0.26286  -0.2073  0.0558  1.0000  -6.0394   0.0000   0.0000   0.0000   0.2901
  27.900   1.7411   0.26798   0.26547  -0.2083  0.0550  1.0000  -6.0661   0.0000   0.0000   0.0000   0.2906
  28.000   1.7377   0.27048   0.26800  -0.2093  0.0541  1.0000  -6.0951   0.0000   0.0000   0.0000   0.2910
  28.100   1.7343   0.27296   0.27052  -0.2103  0.0531  1.0000  -6.1246   0.0000   0.0000   0.0000   0.2914
  28.200   1.7308   0.27549   0.27308  -0.2113  0.0522  1.0000  -6.1531   0.0000   0.0000   0.0000   0.2919
  28.300   1.7270   0.27810   0.27573  -0.2123  0.0513  1.0000  -6.1794   0.0000   0.0000   0.0000   0.2924
  28.400   1.7232   0.28072   0.27837  -0.2133  0.0504  1.0000  -6.2057   0.0000   0.0000   0.0000   0.2928
  28.500   1.7197   0.28326   0.28092  -0.2143  0.0494  1.0000  -6.2351   0.0000   0.0000   0.0000   0.2933
  28.600   1.7160   0.28583   0.28351  -0.2153  0.0484  1.0000  -6.2636   0.0000   0.0000   0.0000   0.2937
  28.700   1.7058   0.29045   0.28815  -0.2170  0.0475  1.0000  -6.2327   0.0000   0.0000   0.0000   0.2951
  28.800   1.7007   0.29348   0.29118  -0.2181  0.0464  1.0000  -6.2476   0.0000   0.0000   0.0000   0.2958
  28.900   1.6977   0.29585   0.29353  -0.2189  0.0450  1.0000  -6.2807   0.0000   0.0000   0.0000   0.2961
  29.000   1.6961   0.29773   0.29539  -0.2196  0.0433  1.0000  -6.3246   0.0000   0.0000   0.0000   0.2962
  29.100   1.6894   0.30106   0.29878  -0.2205  0.0409  1.0000  -6.3167   0.0000   0.0000   0.0000   0.2969
  29.200   1.6802   0.30540   0.30318  -0.2219  0.0403  1.0000  -6.2923   0.0000   0.0000   0.0000   0.2981
  29.300   1.6729   0.30913   0.30698  -0.2231  0.0401  1.0000  -6.2892   0.0000   0.0000   0.0000   0.2991
  29.400   1.6641   0.31334   0.31125  -0.2244  0.0398  1.0000  -6.2718   0.0000   0.0000   0.0000   0.3003
  29.500   1.6508   0.31886   0.31685  -0.2260  0.0394  1.0000  -6.2155   0.0000   0.0000   0.0000   0.3021


