xflr5 v6.61

 Calculated polar for: EPPLER E852 AIRFOIL

 1 1 Reynolds number fixed          Mach number fixed         

 xtrf =   1.000 (top)        1.000 (bottom)
 Mach =   0.000     Re =     0.500 e 6     Ncrit =   9.000

  alpha     CL        CD       CDp       Cm    Top Xtr Bot Xtr   Cpmin    Chinge    XCp    
 ------- -------- --------- --------- -------- ------- ------- -------- --------- ---------
 -10.000  -0.4266   0.09930   0.09707  -0.0415  1.0000  0.0114  -2.6060   0.0000   0.0000   0.0000   0.1439
  -9.900  -0.4285   0.09756   0.09535  -0.0419  1.0000  0.0115  -2.6460   0.0000   0.0000   0.0000   0.1436
  -9.800  -0.4302   0.09590   0.09370  -0.0423  1.0000  0.0116  -2.6794   0.0000   0.0000   0.0000   0.1432
  -9.700  -0.4318   0.09427   0.09209  -0.0426  1.0000  0.0117  -2.7086   0.0000   0.0000   0.0000   0.1429
  -9.600  -0.4333   0.09268   0.09051  -0.0430  1.0000  0.0118  -2.7350   0.0000   0.0000   0.0000   0.1425
  -9.500  -0.4349   0.09112   0.08896  -0.0433  1.0000  0.0118  -2.7598   0.0000   0.0000   0.0000   0.1423
  -9.400  -0.4365   0.08957   0.08743  -0.0436  1.0000  0.0119  -2.7839   0.0000   0.0000   0.0000   0.1420
  -9.300  -0.4383   0.08804   0.08591  -0.0439  1.0000  0.0120  -2.8080   0.0000   0.0000   0.0000   0.1418
  -9.200  -0.4402   0.08651   0.08439  -0.0443  1.0000  0.0120  -2.8326   0.0000   0.0000   0.0000   0.1417
  -9.100  -0.4424   0.08499   0.08289  -0.0445  1.0000  0.0121  -2.8584   0.0000   0.0000   0.0000   0.1417
  -9.000  -0.4449   0.08347   0.08139  -0.0448  1.0000  0.0121  -2.8857   0.0000   0.0000   0.0000   0.1419
  -8.900  -0.4477   0.08197   0.07990  -0.0450  1.0000  0.0122  -2.9150   0.0000   0.0000   0.0000   0.1422
  -8.800  -0.4510   0.08047   0.07842  -0.0452  1.0000  0.0122  -2.9467   0.0000   0.0000   0.0000   0.1427
  -8.700  -0.4549   0.07899   0.07696  -0.0453  1.0000  0.0122  -2.9813   0.0000   0.0000   0.0000   0.1435
  -8.600  -0.4594   0.07753   0.07552  -0.0453  1.0000  0.0122  -3.0191   0.0000   0.0000   0.0000   0.1446
  -8.500  -0.4650   0.07613   0.07415  -0.0451  1.0000  0.0122  -3.0607   0.0000   0.0000   0.0000   0.1464
  -8.400  -0.4719   0.07483   0.07289  -0.0446  1.0000  0.0122  -3.1066   0.0000   0.0000   0.0000   0.1489
  -8.300  -0.4723   0.07227   0.07033  -0.0471  0.9992  0.0122  -3.1681   0.0000   0.0000   0.0000   0.1439
  -8.200  -0.4679   0.06756   0.06562  -0.0535  0.9974  0.0122  -3.2942   0.0000   0.0000   0.0000   0.1291
  -8.100  -0.4651   0.06306   0.06107  -0.0607  0.9945  0.0121  -3.4208   0.0000   0.0000   0.0000   0.1132
  -8.000  -0.4585   0.05850   0.05642  -0.0694  0.9906  0.0121  -3.5206   0.0000   0.0000   0.0000   0.0924
  -7.900  -0.4514   0.05510   0.05292  -0.0749  0.9884  0.0122  -3.5697   0.0000   0.0000   0.0000   0.0778
  -7.800  -0.4454   0.05236   0.05009  -0.0787  0.9864  0.0124  -3.5970   0.0000   0.0000   0.0000   0.0671
  -7.700  -0.4415   0.05016   0.04781  -0.0809  0.9825  0.0125  -3.6117   0.0000   0.0000   0.0000   0.0606
  -7.600  -0.4351   0.04793   0.04549  -0.0834  0.9796  0.0126  -3.6150   0.0000   0.0000   0.0000   0.0521
  -7.500  -0.4273   0.04578   0.04324  -0.0859  0.9774  0.0128  -3.6087   0.0000   0.0000   0.0000   0.0429
  -7.400  -0.4184   0.04371   0.04107  -0.0883  0.9757  0.0130  -3.5951   0.0000   0.0000   0.0000   0.0330
  -7.300  -0.4087   0.04177   0.03902  -0.0904  0.9743  0.0133  -3.5724   0.0000   0.0000   0.0000   0.0226
  -7.200  -0.3981   0.03999   0.03715  -0.0924  0.9733  0.0135  -3.5369   0.0000   0.0000   0.0000   0.0117
  -7.100  -0.3932   0.03864   0.03572  -0.0926  0.9693  0.0137  -3.5146   0.0000   0.0000   0.0000   0.0083
  -7.000  -0.3861   0.03720   0.03419  -0.0933  0.9657  0.0139  -3.4882   0.0000   0.0000   0.0000   0.0023
  -6.900  -0.3767   0.03567   0.03256  -0.0943  0.9632  0.0142  -3.4583   0.0000   0.0000   0.0000  -0.0065
  -6.700  -0.3582   0.02565   0.02150  -0.0962  0.9583  0.0079  -4.5869   0.0000   0.0000   0.0000  -0.0251
  -6.600  -0.3464   0.02414   0.01987  -0.0972  0.9572  0.0077  -4.5640   0.0000   0.0000   0.0000  -0.0372
  -6.500  -0.3339   0.02271   0.01828  -0.0981  0.9563  0.0076  -4.5574   0.0000   0.0000   0.0000  -0.0505
  -6.400  -0.3210   0.02132   0.01673  -0.0989  0.9554  0.0075  -4.5582   0.0000   0.0000   0.0000  -0.0650
  -6.300  -0.3078   0.02000   0.01525  -0.0997  0.9547  0.0075  -4.5604   0.0000   0.0000   0.0000  -0.0809
  -6.200  -0.2943   0.01878   0.01386  -0.1004  0.9540  0.0075  -4.5579   0.0000   0.0000   0.0000  -0.0986
  -6.100  -0.2868   0.01791   0.01287  -0.0998  0.9502  0.0075  -4.5516   0.0000   0.0000   0.0000  -0.1052
  -6.000  -0.2770   0.01703   0.01187  -0.0996  0.9471  0.0076  -4.5354   0.0000   0.0000   0.0000  -0.1168
  -5.900  -0.2653   0.01617   0.01089  -0.0998  0.9449  0.0077  -4.5039   0.0000   0.0000   0.0000  -0.1336
  -5.800  -0.2528   0.01542   0.01003  -0.1001  0.9429  0.0078  -4.4497   0.0000   0.0000   0.0000  -0.1537
  -5.600  -0.2268   0.01474   0.00932  -0.1013  0.9394  0.0088  -4.0925   0.0000   0.0000   0.0000  -0.2049
  -5.500  -0.2121   0.01513   0.00980  -0.1023  0.9381  0.0096  -3.7965   0.0000   0.0000   0.0000  -0.2406
  -5.400  -0.1974   0.01513   0.00979  -0.1031  0.9367  0.0102  -3.6097   0.0000   0.0000   0.0000  -0.2808
  -5.300  -0.1833   0.01463   0.00921  -0.1038  0.9354  0.0104  -3.5085   0.0000   0.0000   0.0000  -0.3251
  -5.200  -0.1693   0.01403   0.00854  -0.1044  0.9341  0.0105  -3.4237   0.0000   0.0000   0.0000  -0.3763
  -5.100  -0.1555   0.01325   0.00768  -0.1050  0.9327  0.0108  -3.3654   0.0000   0.0000   0.0000  -0.4352
  -5.000  -0.1432   0.01178   0.00604  -0.1055  0.9310  0.0115  -3.4253   0.0000   0.0000   0.0000  -0.4977
  -4.900  -0.1314   0.01078   0.00486  -0.1058  0.9286  0.0139  -3.4687   0.0000   0.0000   0.0000  -0.5663
  -4.800  -0.1220   0.01043   0.00444  -0.1055  0.9250  0.0170  -3.4032   0.0000   0.0000   0.0000  -0.6261
  -4.700  -0.1111   0.01028   0.00428  -0.1055  0.9218  0.0211  -3.2754   0.0000   0.0000   0.0000  -0.7123
  -4.600  -0.0991   0.01029   0.00430  -0.1057  0.9191  0.0236  -3.1005   0.0000   0.0000   0.0000  -0.8300
  -4.500  -0.0873   0.00967   0.00362  -0.1059  0.9162  0.0357  -3.0373   0.0000   0.0000   0.0000  -0.9782
  -4.400  -0.0746   0.00952   0.00345  -0.1063  0.9138  0.0418  -2.8857   0.0000   0.0000   0.0000  -1.1924
  -4.300  -0.0621   0.00918   0.00319  -0.1068  0.9113  0.0639  -2.7610   0.0000   0.0000   0.0000  -1.4907
  -4.200  -0.0494   0.00889   0.00300  -0.1074  0.9090  0.0931  -2.6206   0.0000   0.0000   0.0000  -1.9455
  -4.100  -0.0369   0.00857   0.00282  -0.1080  0.9066  0.1346  -2.4780   0.0000   0.0000   0.0000  -2.7083
  -4.000  -0.0246   0.00816   0.00263  -0.1086  0.9040  0.1965  -2.3372   0.0000   0.0000   0.0000  -4.2119
  -3.800  -0.0034   0.00733   0.00241  -0.1092  0.8987  0.3611  -2.0782   0.0000   0.0000   0.0000  -31.9992
  -3.700   0.0064   0.00717   0.00239  -0.1091  0.8961  0.4065  -1.9533   0.0000   0.0000   0.0000  17.3295
  -3.600   0.0170   0.00711   0.00238  -0.1090  0.8935  0.4327  -1.8259   0.0000   0.0000   0.0000   6.7231
  -3.500   0.0278   0.00706   0.00235  -0.1090  0.8909  0.4504  -1.6996   0.0000   0.0000   0.0000   4.2056
  -3.400   0.0388   0.00701   0.00234  -0.1090  0.8883  0.4657  -1.5744   0.0000   0.0000   0.0000   3.0852
  -3.300   0.0502   0.00699   0.00231  -0.1091  0.8858  0.4766  -1.4491   0.0000   0.0000   0.0000   2.4400
  -3.200   0.0619   0.00700   0.00227  -0.1092  0.8833  0.4840  -1.3250   0.0000   0.0000   0.0000   2.0276
  -3.100   0.0737   0.00700   0.00224  -0.1093  0.8810  0.4911  -1.2029   0.0000   0.0000   0.0000   1.7444
  -3.000   0.0852   0.00695   0.00222  -0.1094  0.8786  0.5051  -1.0846   0.0000   0.0000   0.0000   1.5428
  -2.900   0.0970   0.00693   0.00218  -0.1096  0.8762  0.5143  -0.9646   0.0000   0.0000   0.0000   1.3874
  -2.800   0.1089   0.00693   0.00217  -0.1097  0.8737  0.5217  -0.8516   0.0000   0.0000   0.0000   1.2641
  -2.700   0.1210   0.00695   0.00216  -0.1100  0.8708  0.5286  -0.7408   0.0000   0.0000   0.0000   1.1640
  -2.600   0.1332   0.00699   0.00216  -0.1102  0.8679  0.5337  -0.6535   0.0000   0.0000   0.0000   1.0823
  -2.500   0.1438   0.00700   0.00214  -0.1101  0.8663  0.5369  -0.6097   0.0000   0.0000   0.0000   1.0198
  -2.400   0.1545   0.00700   0.00213  -0.1100  0.8644  0.5391  -0.5664   0.0000   0.0000   0.0000   0.9656
  -2.300   0.1654   0.00702   0.00211  -0.1099  0.8623  0.5409  -0.5234   0.0000   0.0000   0.0000   0.9181
  -2.200   0.1761   0.00698   0.00208  -0.1099  0.8602  0.5481  -0.4856   0.0000   0.0000   0.0000   0.8768
  -2.100   0.1869   0.00694   0.00207  -0.1098  0.8580  0.5574  -0.4484   0.0000   0.0000   0.0000   0.8403
  -2.000   0.1976   0.00693   0.00209  -0.1098  0.8560  0.5661  -0.4296   0.0000   0.0000   0.0000   0.8077
  -1.900   0.2085   0.00693   0.00210  -0.1097  0.8540  0.5735  -0.4338   0.0000   0.0000   0.0000   0.7781
  -1.800   0.2196   0.00693   0.00211  -0.1097  0.8520  0.5795  -0.4380   0.0000   0.0000   0.0000   0.7513
  -1.700   0.2308   0.00695   0.00212  -0.1097  0.8500  0.5842  -0.4423   0.0000   0.0000   0.0000   0.7269
  -1.600   0.2421   0.00697   0.00210  -0.1097  0.8480  0.5877  -0.4467   0.0000   0.0000   0.0000   0.7047
  -1.500   0.2535   0.00699   0.00210  -0.1098  0.8461  0.5905  -0.4511   0.0000   0.0000   0.0000   0.6843
  -1.400   0.2650   0.00701   0.00209  -0.1099  0.8441  0.5925  -0.4555   0.0000   0.0000   0.0000   0.6657
  -1.300   0.2765   0.00704   0.00209  -0.1100  0.8421  0.5940  -0.4599   0.0000   0.0000   0.0000   0.6486
  -1.200   0.2880   0.00704   0.00207  -0.1101  0.8400  0.5975  -0.4643   0.0000   0.0000   0.0000   0.6330
  -1.100   0.2996   0.00702   0.00206  -0.1102  0.8378  0.6037  -0.4687   0.0000   0.0000   0.0000   0.6186
  -1.000   0.3112   0.00702   0.00206  -0.1104  0.8354  0.6093  -0.4730   0.0000   0.0000   0.0000   0.6052
  -0.900   0.3229   0.00704   0.00209  -0.1106  0.8329  0.6141  -0.4773   0.0000   0.0000   0.0000   0.5928
  -0.800   0.3342   0.00705   0.00212  -0.1107  0.8310  0.6181  -0.4815   0.0000   0.0000   0.0000   0.5814
  -0.700   0.3450   0.00704   0.00212  -0.1106  0.8301  0.6218  -0.4856   0.0000   0.0000   0.0000   0.5708
  -0.600   0.3559   0.00703   0.00213  -0.1106  0.8290  0.6253  -0.4896   0.0000   0.0000   0.0000   0.5609
  -0.500   0.3668   0.00703   0.00214  -0.1106  0.8279  0.6288  -0.4937   0.0000   0.0000   0.0000   0.5515
  -0.400   0.3777   0.00703   0.00215  -0.1106  0.8266  0.6322  -0.4977   0.0000   0.0000   0.0000   0.5426
  -0.300   0.3887   0.00704   0.00217  -0.1106  0.8251  0.6354  -0.5018   0.0000   0.0000   0.0000   0.5342
  -0.200   0.3997   0.00704   0.00217  -0.1106  0.8235  0.6384  -0.5059   0.0000   0.0000   0.0000   0.5263
  -0.100   0.4107   0.00705   0.00218  -0.1106  0.8217  0.6412  -0.5102   0.0000   0.0000   0.0000   0.5188
   0.000   0.4217   0.00706   0.00219  -0.1106  0.8199  0.6437  -0.5150   0.0000   0.0000   0.0000   0.5117
   0.100   0.4329   0.00707   0.00220  -0.1106  0.8179  0.6458  -0.5197   0.0000   0.0000   0.0000   0.5049
   0.200   0.4440   0.00709   0.00221  -0.1106  0.8160  0.6476  -0.5245   0.0000   0.0000   0.0000   0.4984
   0.300   0.4550   0.00706   0.00221  -0.1106  0.8140  0.6541  -0.5292   0.0000   0.0000   0.0000   0.4923
   0.400   0.4659   0.00704   0.00222  -0.1106  0.8121  0.6612  -0.5339   0.0000   0.0000   0.0000   0.4865
   0.500   0.4768   0.00703   0.00224  -0.1105  0.8101  0.6673  -0.5392   0.0000   0.0000   0.0000   0.4809
   0.600   0.4878   0.00702   0.00225  -0.1105  0.8080  0.6729  -0.5446   0.0000   0.0000   0.0000   0.4755
   0.700   0.4989   0.00702   0.00228  -0.1105  0.8057  0.6780  -0.5500   0.0000   0.0000   0.0000   0.4704
   0.800   0.5101   0.00703   0.00230  -0.1105  0.8033  0.6830  -0.5554   0.0000   0.0000   0.0000   0.4655
   0.900   0.5214   0.00706   0.00233  -0.1105  0.8006  0.6875  -0.5610   0.0000   0.0000   0.0000   0.4608
   1.000   0.5329   0.00710   0.00236  -0.1106  0.7975  0.6918  -0.5676   0.0000   0.0000   0.0000   0.4563
   1.100   0.5445   0.00717   0.00243  -0.1108  0.7936  0.6955  -0.5754   0.0000   0.0000   0.0000   0.4521
   1.200   0.5557   0.00721   0.00247  -0.1108  0.7910  0.6986  -0.5873   0.0000   0.0000   0.0000   0.4480
   1.300   0.5662   0.00717   0.00247  -0.1107  0.7894  0.7042  -0.6081   0.0000   0.0000   0.0000   0.4440
   1.400   0.5765   0.00713   0.00248  -0.1105  0.7875  0.7123  -0.6288   0.0000   0.0000   0.0000   0.4401
   1.500   0.5868   0.00709   0.00249  -0.1103  0.7852  0.7194  -0.6497   0.0000   0.0000   0.0000   0.4363
   1.600   0.5972   0.00706   0.00250  -0.1101  0.7824  0.7261  -0.6709   0.0000   0.0000   0.0000   0.4326
   1.700   0.6077   0.00704   0.00253  -0.1099  0.7793  0.7326  -0.6922   0.0000   0.0000   0.0000   0.4291
   1.800   0.6183   0.00702   0.00254  -0.1098  0.7760  0.7389  -0.7193   0.0000   0.0000   0.0000   0.4257
   1.900   0.6290   0.00701   0.00254  -0.1096  0.7723  0.7446  -0.7470   0.0000   0.0000   0.0000   0.4223
   2.000   0.6397   0.00700   0.00253  -0.1095  0.7680  0.7493  -0.7752   0.0000   0.0000   0.0000   0.4191
   2.100   0.6502   0.00698   0.00252  -0.1093  0.7634  0.7585  -0.8082   0.0000   0.0000   0.0000   0.4160
   2.200   0.6606   0.00697   0.00253  -0.1090  0.7576  0.7675  -0.8461   0.0000   0.0000   0.0000   0.4129
   2.300   0.6718   0.00703   0.00259  -0.1090  0.7496  0.7761  -0.8855   0.0000   0.0000   0.0000   0.4100
   2.400   0.6815   0.00698   0.00259  -0.1086  0.7468  0.7849  -0.9229   0.0000   0.0000   0.0000   0.4071
   2.500   0.6915   0.00695   0.00260  -0.1083  0.7433  0.7932  -0.9611   0.0000   0.0000   0.0000   0.4043
   2.600   0.7015   0.00692   0.00262  -0.1080  0.7397  0.8028  -0.9997   0.0000   0.0000   0.0000   0.4015
   2.700   0.7112   0.00688   0.00266  -0.1077  0.7365  0.8150  -1.0380   0.0000   0.0000   0.0000   0.3989
   2.800   0.7210   0.00685   0.00269  -0.1073  0.7324  0.8273  -1.0879   0.0000   0.0000   0.0000   0.3962
   2.900   0.7310   0.00684   0.00270  -0.1070  0.7271  0.8388  -1.1406   0.0000   0.0000   0.0000   0.3937
   3.000   0.7401   0.00681   0.00274  -0.1065  0.7212  0.8524  -1.1919   0.0000   0.0000   0.0000   0.3911
   3.100   0.7490   0.00680   0.00276  -0.1059  0.7152  0.8679  -1.2999   0.0000   0.0000   0.0000   0.3885
   3.300   0.7664   0.00680   0.00283  -0.1046  0.7037  0.9030  -1.5257   0.0000   0.0000   0.0000   0.3835
   3.400   0.7745   0.00673   0.00284  -0.1038  0.6988  0.9272  -1.6391   0.0000   0.0000   0.0000   0.3809
   3.500   0.7868   0.00667   0.00283  -0.1039  0.6898  0.9613  -1.7797   0.0000   0.0000   0.0000   0.3789
   3.600   0.8004   0.00667   0.00282  -0.1044  0.6788  1.0000  -1.9305   0.0000   0.0000   0.0000   0.3772
   3.700   0.8101   0.00673   0.00284  -0.1041  0.6670  1.0000  -2.0613   0.0000   0.0000   0.0000   0.3752
   3.800   0.8198   0.00680   0.00287  -0.1038  0.6545  1.0000  -2.1940   0.0000   0.0000   0.0000   0.3732
   3.900   0.8292   0.00686   0.00290  -0.1034  0.6346  1.0000  -2.3278   0.0000   0.0000   0.0000   0.3712
   4.000   0.8365   0.00702   0.00292  -0.1026  0.6064  1.0000  -2.4500   0.0000   0.0000   0.0000   0.3690
   4.100   0.8423   0.00727   0.00298  -0.1015  0.5655  1.0000  -2.5647   0.0000   0.0000   0.0000   0.3668
   4.200   0.8469   0.00762   0.00309  -0.1002  0.5158  1.0000  -2.6730   0.0000   0.0000   0.0000   0.3645
   4.300   0.8509   0.00805   0.00327  -0.0989  0.4621  1.0000  -2.7774   0.0000   0.0000   0.0000   0.3623
   4.400   0.8550   0.00852   0.00348  -0.0976  0.4079  1.0000  -2.8832   0.0000   0.0000   0.0000   0.3602
   4.500   0.8595   0.00900   0.00372  -0.0965  0.3553  1.0000  -2.9918   0.0000   0.0000   0.0000   0.3582
   4.600   0.8643   0.00948   0.00396  -0.0955  0.3052  1.0000  -3.1039   0.0000   0.0000   0.0000   0.3563
   4.700   0.8695   0.00995   0.00420  -0.0945  0.2585  1.0000  -3.2198   0.0000   0.0000   0.0000   0.3545
   4.800   0.8751   0.01041   0.00444  -0.0937  0.2155  1.0000  -3.3391   0.0000   0.0000   0.0000   0.3527
   4.900   0.8807   0.01087   0.00468  -0.0928  0.1745  1.0000  -3.4596   0.0000   0.0000   0.0000   0.3510
   5.000   0.8865   0.01132   0.00493  -0.0920  0.1372  1.0000  -3.5820   0.0000   0.0000   0.0000   0.3493
   5.100   0.8929   0.01174   0.00517  -0.0913  0.1065  1.0000  -3.7098   0.0000   0.0000   0.0000   0.3477
   5.200   0.8999   0.01210   0.00540  -0.0907  0.0832  1.0000  -3.8432   0.0000   0.0000   0.0000   0.3461
   5.300   0.9073   0.01243   0.00567  -0.0901  0.0647  1.0000  -3.9779   0.0000   0.0000   0.0000   0.3446
   5.400   0.9151   0.01273   0.00588  -0.0896  0.0533  1.0000  -4.1185   0.0000   0.0000   0.0000   0.3431
   5.500   0.9233   0.01300   0.00612  -0.0891  0.0426  1.0000  -4.2555   0.0000   0.0000   0.0000   0.3416
   5.600   0.9318   0.01324   0.00634  -0.0887  0.0368  1.0000  -4.4185   0.0000   0.0000   0.0000   0.3402
   5.700   0.9372   0.01380   0.00687  -0.0876  0.0259  1.0000  -4.5104   0.0000   0.0000   0.0000   0.3383
   5.800   0.9473   0.01388   0.00697  -0.0875  0.0238  1.0000  -4.6970   0.0000   0.0000   0.0000   0.3371
   5.900   0.9550   0.01421   0.00724  -0.0869  0.0179  1.0000  -4.8303   0.0000   0.0000   0.0000   0.3356
   6.000   0.9578   0.01506   0.00819  -0.0852  0.0123  1.0000  -4.8114   0.0000   0.0000   0.0000   0.3335
   6.100   0.9670   0.01524   0.00838  -0.0848  0.0114  1.0000  -4.9619   0.0000   0.0000   0.0000   0.3322
   6.200   0.9750   0.01554   0.00873  -0.0842  0.0102  1.0000  -5.0741   0.0000   0.0000   0.0000   0.3308
   6.300   0.9824   0.01590   0.00915  -0.0836  0.0092  1.0000  -5.1652   0.0000   0.0000   0.0000   0.3293
   6.400   0.9898   0.01627   0.00955  -0.0829  0.0085  1.0000  -5.2678   0.0000   0.0000   0.0000   0.3279
   6.500   0.9969   0.01668   0.00999  -0.0821  0.0080  1.0000  -5.3723   0.0000   0.0000   0.0000   0.3264
   6.600   1.0035   0.01714   0.01049  -0.0813  0.0076  1.0000  -5.4690   0.0000   0.0000   0.0000   0.3250
   6.700   1.0098   0.01767   0.01106  -0.0804  0.0073  1.0000  -5.5549   0.0000   0.0000   0.0000   0.3235
   6.800   1.0159   0.01825   0.01171  -0.0795  0.0071  1.0000  -5.6336   0.0000   0.0000   0.0000   0.3220
   6.900   1.0221   0.01889   0.01241  -0.0786  0.0068  1.0000  -5.7103   0.0000   0.0000   0.0000   0.3205
   7.000   1.0283   0.01964   0.01322  -0.0777  0.0066  1.0000  -5.7812   0.0000   0.0000   0.0000   0.3191
   7.100   1.0344   0.02066   0.01432  -0.0769  0.0063  1.0000  -5.8261   0.0000   0.0000   0.0000   0.3177
   7.200   1.0411   0.02252   0.01634  -0.0761  0.0059  1.0000  -5.7870   0.0000   0.0000   0.0000   0.3164
   7.300   1.0498   0.02381   0.01773  -0.0757  0.0056  1.0000  -5.8404   0.0000   0.0000   0.0000   0.3153
   7.400   1.0586   0.02374   0.01769  -0.0753  0.0054  1.0000  -6.0457   0.0000   0.0000   0.0000   0.3143
   7.500   1.0674   0.02415   0.01815  -0.0750  0.0053  1.0000  -6.1914   0.0000   0.0000   0.0000   0.3132
   7.600   1.0762   0.02495   0.01904  -0.0745  0.0052  1.0000  -6.2806   0.0000   0.0000   0.0000   0.3122
   7.700   1.0847   0.02583   0.02001  -0.0741  0.0051  1.0000  -6.3587   0.0000   0.0000   0.0000   0.3111
   7.800   1.0930   0.02678   0.02106  -0.0736  0.0051  1.0000  -6.4252   0.0000   0.0000   0.0000   0.3100
   7.900   1.1009   0.02780   0.02220  -0.0730  0.0050  1.0000  -6.4793   0.0000   0.0000   0.0000   0.3089
   8.000   1.1083   0.02891   0.02343  -0.0724  0.0050  1.0000  -6.5201   0.0000   0.0000   0.0000   0.3078
   8.100   1.1150   0.03010   0.02475  -0.0716  0.0049  1.0000  -6.5473   0.0000   0.0000   0.0000   0.3066
   8.200   1.1209   0.03138   0.02617  -0.0708  0.0049  1.0000  -6.5613   0.0000   0.0000   0.0000   0.3054
   8.300   1.1260   0.03274   0.02767  -0.0698  0.0049  1.0000  -6.5624   0.0000   0.0000   0.0000   0.3042
   8.400   1.1300   0.03419   0.02927  -0.0688  0.0049  1.0000  -6.5512   0.0000   0.0000   0.0000   0.3029
   8.500   1.1331   0.03571   0.03095  -0.0676  0.0049  1.0000  -6.5284   0.0000   0.0000   0.0000   0.3016
   8.600   1.1350   0.03731   0.03270  -0.0662  0.0050  1.0000  -6.4949   0.0000   0.0000   0.0000   0.3003
   8.700   1.1357   0.03898   0.03453  -0.0648  0.0050  1.0000  -6.4507   0.0000   0.0000   0.0000   0.2989
   8.800   1.1352   0.04074   0.03645  -0.0633  0.0051  1.0000  -6.3952   0.0000   0.0000   0.0000   0.2975
   8.900   1.1331   0.04259   0.03846  -0.0616  0.0052  1.0000  -6.3261   0.0000   0.0000   0.0000   0.2960
   9.000   1.1289   0.04463   0.04065  -0.0598  0.0053  1.0000  -6.2326   0.0000   0.0000   0.0000   0.2945
   9.200   1.1403   0.04609   0.04213  -0.0585  0.0061  1.0000  -6.3764   0.0000   0.0000   0.0000   0.2927
   9.300   1.1039   0.05661   0.05345  -0.0515  0.0103  1.0000  -4.9820   0.0000   0.0000   0.0000   0.2881
   9.400   1.0963   0.05814   0.05506  -0.0495  0.0104  1.0000  -4.9368   0.0000   0.0000   0.0000   0.2866
   9.500   1.0884   0.05958   0.05658  -0.0476  0.0106  1.0000  -4.8966   0.0000   0.0000   0.0000   0.2851
   9.600   1.0800   0.06101   0.05809  -0.0458  0.0107  1.0000  -4.8584   0.0000   0.0000   0.0000   0.2836
   9.700   1.0713   0.06248   0.05963  -0.0442  0.0108  1.0000  -4.8199   0.0000   0.0000   0.0000   0.2824
   9.800   1.0619   0.06401   0.06123  -0.0427  0.0109  1.0000  -4.7787   0.0000   0.0000   0.0000   0.2812
  13.400   0.8757   0.16217   0.16025  -0.0847  0.0125  1.0000  -2.7632   0.0000   0.0000   0.0000   0.3344
  13.500   0.8766   0.16420   0.16227  -0.0858  0.0124  1.0000  -2.7343   0.0000   0.0000   0.0000   0.3355
  13.600   0.8775   0.16617   0.16424  -0.0868  0.0124  1.0000  -2.7068   0.0000   0.0000   0.0000   0.3365
  13.700   0.8786   0.16812   0.16619  -0.0879  0.0124  1.0000  -2.6805   0.0000   0.0000   0.0000   0.3375
  13.800   0.8798   0.17006   0.16813  -0.0889  0.0124  1.0000  -2.6553   0.0000   0.0000   0.0000   0.3384
  13.900   0.8811   0.17200   0.17006  -0.0900  0.0124  1.0000  -2.6313   0.0000   0.0000   0.0000   0.3393
  14.000   0.8824   0.17393   0.17199  -0.0910  0.0124  1.0000  -2.6085   0.0000   0.0000   0.0000   0.3402
  14.100   0.8839   0.17586   0.17391  -0.0920  0.0124  1.0000  -2.5871   0.0000   0.0000   0.0000   0.3411
  14.200   0.8855   0.17777   0.17582  -0.0930  0.0123  1.0000  -2.5671   0.0000   0.0000   0.0000   0.3419
  14.300   0.8872   0.17967   0.17772  -0.0940  0.0123  1.0000  -2.5490   0.0000   0.0000   0.0000   0.3427
  14.400   0.8890   0.18154   0.17958  -0.0950  0.0122  1.0000  -2.5332   0.0000   0.0000   0.0000   0.3435
  14.500   0.8911   0.18335   0.18140  -0.0959  0.0122  1.0000  -2.5210   0.0000   0.0000   0.0000   0.3442
  14.600   0.8936   0.18506   0.18310  -0.0969  0.0121  1.0000  -2.5156   0.0000   0.0000   0.0000   0.3449
  14.700   0.8971   0.18647   0.18452  -0.0978  0.0118  1.0000  -2.5273   0.0000   0.0000   0.0000   0.3454
  14.800   0.9012   0.18786   0.18591  -0.0987  0.0113  1.0000  -2.5403   0.0000   0.0000   0.0000   0.3457
  14.900   0.9042   0.18959   0.18763  -0.0996  0.0110  1.0000  -2.5328   0.0000   0.0000   0.0000   0.3463
  15.000   0.9063   0.19153   0.18957  -0.1007  0.0107  1.0000  -2.5112   0.0000   0.0000   0.0000   0.3471
  15.100   0.9082   0.19351   0.19155  -0.1017  0.0105  1.0000  -2.4874   0.0000   0.0000   0.0000   0.3479
  15.200   0.9099   0.19550   0.19353  -0.1028  0.0103  1.0000  -2.4635   0.0000   0.0000   0.0000   0.3487
  15.300   0.9116   0.19749   0.19552  -0.1038  0.0101  1.0000  -2.4412   0.0000   0.0000   0.0000   0.3495
  15.400   0.9134   0.19948   0.19751  -0.1048  0.0099  1.0000  -2.4208   0.0000   0.0000   0.0000   0.3503
  15.500   0.9152   0.20146   0.19949  -0.1058  0.0097  1.0000  -2.4020   0.0000   0.0000   0.0000   0.3510
  15.600   0.9170   0.20344   0.20147  -0.1068  0.0095  1.0000  -2.3848   0.0000   0.0000   0.0000   0.3517
  15.700   0.9189   0.20542   0.20345  -0.1077  0.0093  1.0000  -2.3692   0.0000   0.0000   0.0000   0.3524
  15.800   0.9207   0.20740   0.20542  -0.1087  0.0092  1.0000  -2.3551   0.0000   0.0000   0.0000   0.3531
  15.900   0.9226   0.20937   0.20739  -0.1096  0.0090  1.0000  -2.3425   0.0000   0.0000   0.0000   0.3537
  16.000   0.9245   0.21134   0.20936  -0.1105  0.0089  1.0000  -2.3311   0.0000   0.0000   0.0000   0.3543
  16.100   0.9265   0.21330   0.21133  -0.1114  0.0087  1.0000  -2.3211   0.0000   0.0000   0.0000   0.3549
  16.200   0.9284   0.21526   0.21329  -0.1123  0.0086  1.0000  -2.3122   0.0000   0.0000   0.0000   0.3555
  16.300   0.9304   0.21722   0.21525  -0.1132  0.0084  1.0000  -2.3046   0.0000   0.0000   0.0000   0.3561
  16.400   0.9324   0.21918   0.21720  -0.1141  0.0083  1.0000  -2.2981   0.0000   0.0000   0.0000   0.3567
  16.500   0.9343   0.22113   0.21915  -0.1150  0.0082  1.0000  -2.2929   0.0000   0.0000   0.0000   0.3572
  16.600   0.9364   0.22309   0.22111  -0.1158  0.0080  1.0000  -2.2887   0.0000   0.0000   0.0000   0.3577
  16.700   0.9384   0.22503   0.22305  -0.1167  0.0079  1.0000  -2.2858   0.0000   0.0000   0.0000   0.3582
  16.800   0.9404   0.22698   0.22500  -0.1175  0.0078  1.0000  -2.2840   0.0000   0.0000   0.0000   0.3587
  16.900   0.9424   0.22892   0.22695  -0.1184  0.0077  1.0000  -2.2834   0.0000   0.0000   0.0000   0.3592
  17.000   0.9445   0.23087   0.22889  -0.1192  0.0076  1.0000  -2.2839   0.0000   0.0000   0.0000   0.3597
  17.100   0.9465   0.23280   0.23083  -0.1200  0.0075  1.0000  -2.2858   0.0000   0.0000   0.0000   0.3602
  17.200   0.9486   0.23474   0.23276  -0.1209  0.0074  1.0000  -2.2888   0.0000   0.0000   0.0000   0.3606
  17.300   0.9507   0.23667   0.23469  -0.1217  0.0073  1.0000  -2.2933   0.0000   0.0000   0.0000   0.3610
  17.400   0.9527   0.23860   0.23662  -0.1225  0.0072  1.0000  -2.2993   0.0000   0.0000   0.0000   0.3614
  17.500   0.9548   0.24052   0.23854  -0.1233  0.0071  1.0000  -2.3067   0.0000   0.0000   0.0000   0.3618
  17.600   0.9569   0.24243   0.24046  -0.1240  0.0070  1.0000  -2.3156   0.0000   0.0000   0.0000   0.3622
  17.700   0.9589   0.24435   0.24237  -0.1248  0.0069  1.0000  -2.3260   0.0000   0.0000   0.0000   0.3626
  17.800   0.9610   0.24625   0.24428  -0.1256  0.0068  1.0000  -2.3382   0.0000   0.0000   0.0000   0.3629
  17.900   0.9631   0.24816   0.24619  -0.1263  0.0067  1.0000  -2.3520   0.0000   0.0000   0.0000   0.3633
  18.000   0.9652   0.25006   0.24809  -0.1270  0.0067  1.0000  -2.3678   0.0000   0.0000   0.0000   0.3636
  18.100   0.9673   0.25195   0.24999  -0.1277  0.0066  1.0000  -2.3855   0.0000   0.0000   0.0000   0.3638
  18.200   0.9694   0.25384   0.25188  -0.1284  0.0065  1.0000  -2.4052   0.0000   0.0000   0.0000   0.3641
  18.300   0.9715   0.25573   0.25378  -0.1290  0.0064  1.0000  -2.4271   0.0000   0.0000   0.0000   0.3643
  18.400   0.9736   0.25763   0.25567  -0.1297  0.0064  1.0000  -2.4511   0.0000   0.0000   0.0000   0.3645
  18.500   0.9757   0.25954   0.25759  -0.1303  0.0063  1.0000  -2.4773   0.0000   0.0000   0.0000   0.3647
  18.600   0.9777   0.26152   0.25957  -0.1308  0.0062  1.0000  -2.4995   0.0000   0.0000   0.0000   0.3648
  18.700   0.9793   0.26373   0.26178  -0.1316  0.0061  1.0000  -2.5007   0.0000   0.0000   0.0000   0.3652
  18.800   0.9806   0.26608   0.26414  -0.1323  0.0061  1.0000  -2.4927   0.0000   0.0000   0.0000   0.3656
  18.900   0.9814   0.26873   0.26679  -0.1331  0.0060  1.0000  -2.4662   0.0000   0.0000   0.0000   0.3662
  19.000   0.9776   0.27483   0.27286  -0.1341  0.0057  1.0000  -2.2105   0.0000   0.0000   0.0000   0.3678
  19.100   0.9793   0.27709   0.27512  -0.1349  0.0057  1.0000  -2.1978   0.0000   0.0000   0.0000   0.3682
  19.200   0.9809   0.27935   0.27738  -0.1357  0.0057  1.0000  -2.1852   0.0000   0.0000   0.0000   0.3686
  19.300   0.9825   0.28162   0.27965  -0.1365  0.0057  1.0000  -2.1727   0.0000   0.0000   0.0000   0.3690
  19.400   0.9841   0.28389   0.28193  -0.1373  0.0057  1.0000  -2.1603   0.0000   0.0000   0.0000   0.3695
  19.500   0.9856   0.28617   0.28421  -0.1381  0.0057  1.0000  -2.1481   0.0000   0.0000   0.0000   0.3699
  19.600   0.9871   0.28845   0.28649  -0.1388  0.0057  1.0000  -2.1359   0.0000   0.0000   0.0000   0.3703
  19.700   0.9885   0.29074   0.28878  -0.1396  0.0057  1.0000  -2.1238   0.0000   0.0000   0.0000   0.3707
  19.800   0.9899   0.29303   0.29107  -0.1404  0.0057  1.0000  -2.1116   0.0000   0.0000   0.0000   0.3711
  19.900   0.9912   0.29532   0.29337  -0.1411  0.0056  1.0000  -2.0995   0.0000   0.0000   0.0000   0.3716
  20.000   0.9925   0.29762   0.29567  -0.1419  0.0056  1.0000  -2.0873   0.0000   0.0000   0.0000   0.3720
  20.100   0.9937   0.29992   0.29797  -0.1426  0.0056  1.0000  -2.0752   0.0000   0.0000   0.0000   0.3724
  20.200   0.9949   0.30222   0.30027  -0.1433  0.0056  1.0000  -2.0631   0.0000   0.0000   0.0000   0.3728
  20.300   0.9959   0.30452   0.30258  -0.1441  0.0056  1.0000  -2.0510   0.0000   0.0000   0.0000   0.3733
  20.400   0.9969   0.30682   0.30488  -0.1448  0.0056  1.0000  -2.0389   0.0000   0.0000   0.0000   0.3737
  20.500   0.9978   0.30912   0.30719  -0.1455  0.0056  1.0000  -2.0267   0.0000   0.0000   0.0000   0.3741
  20.600   0.9986   0.31143   0.30949  -0.1462  0.0056  1.0000  -2.0144   0.0000   0.0000   0.0000   0.3745
  20.700   0.9993   0.31372   0.31180  -0.1468  0.0056  1.0000  -2.0021   0.0000   0.0000   0.0000   0.3750
  20.800   0.9999   0.31602   0.31409  -0.1475  0.0056  1.0000  -1.9896   0.0000   0.0000   0.0000   0.3754
  20.900   1.0004   0.31830   0.31639  -0.1482  0.0056  1.0000  -1.9769   0.0000   0.0000   0.0000   0.3758
  21.000   1.0007   0.32058   0.31867  -0.1488  0.0056  1.0000  -1.9640   0.0000   0.0000   0.0000   0.3763
  21.100   1.0009   0.32285   0.32094  -0.1494  0.0056  1.0000  -1.9509   0.0000   0.0000   0.0000   0.3767
  21.200   1.0008   0.32510   0.32319  -0.1500  0.0056  1.0000  -1.9372   0.0000   0.0000   0.0000   0.3772
  21.300   1.0005   0.32733   0.32549  -0.1506  0.0056  1.0000  -1.9229   0.0000   0.0000   0.0000   0.3777
  21.400   1.0000   0.32953   0.32770  -0.1511  0.0056  1.0000  -1.9082   0.0000   0.0000   0.0000   0.3781
  21.500   0.9990   0.33168   0.32986  -0.1516  0.0056  1.0000  -1.8927   0.0000   0.0000   0.0000   0.3786
  21.600   0.9976   0.33377   0.33196  -0.1520  0.0056  1.0000  -1.8762   0.0000   0.0000   0.0000   0.3792
  21.700   0.9956   0.33577   0.33396  -0.1524  0.0056  1.0000  -1.8582   0.0000   0.0000   0.0000   0.3797
  21.800   0.9925   0.33761   0.33582  -0.1527  0.0056  1.0000  -1.8376   0.0000   0.0000   0.0000   0.3804
  22.600   0.8804   0.32032   0.31876  -0.1431  0.0056  1.0000  -1.5117   0.0000   0.0000   0.0000   0.3900
  22.700   0.8782   0.32066   0.31910  -0.1433  0.0056  1.0000  -1.5037   0.0000   0.0000   0.0000   0.3905
  22.800   0.8762   0.32102   0.31947  -0.1435  0.0056  1.0000  -1.4961   0.0000   0.0000   0.0000   0.3909
  22.900   0.8743   0.32141   0.31986  -0.1437  0.0056  1.0000  -1.4888   0.0000   0.0000   0.0000   0.3914
  23.000   0.8726   0.32181   0.32027  -0.1439  0.0056  1.0000  -1.4819   0.0000   0.0000   0.0000   0.3919
  23.100   0.8709   0.32223   0.32070  -0.1441  0.0056  1.0000  -1.4752   0.0000   0.0000   0.0000   0.3924
  23.200   0.8694   0.32266   0.32114  -0.1443  0.0056  1.0000  -1.4687   0.0000   0.0000   0.0000   0.3928
  23.300   0.8679   0.32311   0.32160  -0.1446  0.0056  1.0000  -1.4619   0.0000   0.0000   0.0000   0.3933
  23.400   0.8665   0.32357   0.32207  -0.1448  0.0056  1.0000  -1.4553   0.0000   0.0000   0.0000   0.3937
  23.500   0.8653   0.32404   0.32254  -0.1451  0.0056  1.0000  -1.4488   0.0000   0.0000   0.0000   0.3942
  23.600   0.8640   0.32453   0.32303  -0.1454  0.0056  1.0000  -1.4425   0.0000   0.0000   0.0000   0.3946
  23.700   0.8629   0.32502   0.32353  -0.1457  0.0056  1.0000  -1.4362   0.0000   0.0000   0.0000   0.3950
  23.800   0.8618   0.32552   0.32404  -0.1459  0.0056  1.0000  -1.4300   0.0000   0.0000   0.0000   0.3954
  23.900   0.8608   0.32603   0.32456  -0.1462  0.0056  1.0000  -1.4238   0.0000   0.0000   0.0000   0.3959
  24.000   0.8598   0.32655   0.32508  -0.1465  0.0055  1.0000  -1.4176   0.0000   0.0000   0.0000   0.3963
  24.100   0.8589   0.32708   0.32561  -0.1468  0.0055  1.0000  -1.4115   0.0000   0.0000   0.0000   0.3967
  24.200   0.8581   0.32761   0.32615  -0.1471  0.0055  1.0000  -1.4053   0.0000   0.0000   0.0000   0.3971
  24.300   0.8572   0.32815   0.32670  -0.1475  0.0055  1.0000  -1.3991   0.0000   0.0000   0.0000   0.3975
  24.400   0.8565   0.32869   0.32724  -0.1478  0.0055  1.0000  -1.3929   0.0000   0.0000   0.0000   0.3978
  24.500   0.8557   0.32924   0.32780  -0.1481  0.0055  1.0000  -1.3865   0.0000   0.0000   0.0000   0.3982
  24.600   0.8550   0.32980   0.32836  -0.1484  0.0055  1.0000  -1.3801   0.0000   0.0000   0.0000   0.3986
  24.700   0.8544   0.33036   0.32893  -0.1488  0.0055  1.0000  -1.3736   0.0000   0.0000   0.0000   0.3990
  24.800   0.8538   0.33093   0.32951  -0.1491  0.0055  1.0000  -1.3669   0.0000   0.0000   0.0000   0.3994
  24.900   0.8532   0.33150   0.33008  -0.1494  0.0055  1.0000  -1.3602   0.0000   0.0000   0.0000   0.3997


