xflr5 v6.61

 Calculated polar for: EPPLER 393 AIRFOIL

 1 1 Reynolds number fixed          Mach number fixed         

 xtrf =   1.000 (top)        1.000 (bottom)
 Mach =   0.000     Re =     0.200 e 6     Ncrit =   9.000

  alpha     CL        CD       CDp       Cm    Top Xtr Bot Xtr   Cpmin    Chinge    XCp    
 ------- -------- --------- --------- -------- ------- ------- -------- --------- ---------
 -10.000  -0.3021   0.11367   0.11006  -0.0459  1.0000  0.0314  -1.5869   0.0000   0.0000   0.0000   0.0853
  -9.900  -0.3014   0.11240   0.10881  -0.0461  1.0000  0.0314  -1.5959   0.0000   0.0000   0.0000   0.0844
  -9.800  -0.3081   0.10878   0.10526  -0.0469  1.0000  0.0319  -1.6932   0.0000   0.0000   0.0000   0.0857
  -9.700  -0.3143   0.10542   0.10192  -0.0472  1.0000  0.0326  -1.7645   0.0000   0.0000   0.0000   0.0878
  -9.600  -0.3159   0.10361   0.10013  -0.0472  1.0000  0.0329  -1.7795   0.0000   0.0000   0.0000   0.0888
  -9.500  -0.3167   0.10214   0.09868  -0.0471  1.0000  0.0333  -1.7835   0.0000   0.0000   0.0000   0.0895
  -9.400  -0.3171   0.10083   0.09739  -0.0470  1.0000  0.0336  -1.7829   0.0000   0.0000   0.0000   0.0903
  -9.300  -0.3161   0.09971   0.09628  -0.0466  1.0000  0.0339  -1.7660   0.0000   0.0000   0.0000   0.0911
  -9.200  -0.3153   0.09866   0.09525  -0.0463  1.0000  0.0342  -1.7501   0.0000   0.0000   0.0000   0.0920
  -9.100  -0.3147   0.09765   0.09426  -0.0459  1.0000  0.0344  -1.7361   0.0000   0.0000   0.0000   0.0931
  -9.000  -0.3145   0.09668   0.09330  -0.0456  1.0000  0.0347  -1.7242   0.0000   0.0000   0.0000   0.0942
  -8.900  -0.3146   0.09573   0.09238  -0.0452  1.0000  0.0350  -1.7144   0.0000   0.0000   0.0000   0.0956
  -8.800  -0.3150   0.09481   0.09148  -0.0448  1.0000  0.0353  -1.7065   0.0000   0.0000   0.0000   0.0972
  -8.700  -0.3157   0.09392   0.09061  -0.0444  1.0000  0.0355  -1.6988   0.0000   0.0000   0.0000   0.0991
  -8.600  -0.3168   0.09306   0.08978  -0.0439  1.0000  0.0358  -1.6934   0.0000   0.0000   0.0000   0.1014
  -8.500  -0.3185   0.09223   0.08898  -0.0433  1.0000  0.0360  -1.6904   0.0000   0.0000   0.0000   0.1041
  -8.400  -0.3209   0.09146   0.08823  -0.0427  1.0000  0.0362  -1.6899   0.0000   0.0000   0.0000   0.1074
  -8.300  -0.3242   0.09075   0.08756  -0.0419  1.0000  0.0364  -1.6918   0.0000   0.0000   0.0000   0.1114
  -8.200  -0.3286   0.09013   0.08698  -0.0409  1.0000  0.0366  -1.6964   0.0000   0.0000   0.0000   0.1164
  -8.100  -0.3344   0.08964   0.08653  -0.0397  1.0000  0.0367  -1.7040   0.0000   0.0000   0.0000   0.1224
  -8.000  -0.3419   0.08933   0.08626  -0.0382  1.0000  0.0368  -1.7151   0.0000   0.0000   0.0000   0.1298
  -7.900  -0.3434   0.08845   0.08541  -0.0382  0.9992  0.0371  -1.7166   0.0000   0.0000   0.0000   0.1303
  -7.800  -0.3349   0.08660   0.08356  -0.0408  0.9973  0.0376  -1.7048   0.0000   0.0000   0.0000   0.1198
  -7.700  -0.3269   0.08473   0.08169  -0.0433  0.9951  0.0382  -1.6973   0.0000   0.0000   0.0000   0.1088
  -7.600  -0.3190   0.08282   0.07978  -0.0460  0.9925  0.0388  -1.6934   0.0000   0.0000   0.0000   0.0971
  -7.500  -0.3110   0.08084   0.07780  -0.0490  0.9899  0.0394  -1.6929   0.0000   0.0000   0.0000   0.0837
  -7.400  -0.3026   0.07877   0.07573  -0.0522  0.9877  0.0400  -1.6958   0.0000   0.0000   0.0000   0.0685
  -7.300  -0.2965   0.07682   0.07379  -0.0550  0.9834  0.0405  -1.7034   0.0000   0.0000   0.0000   0.0557
  -7.200  -0.2897   0.07471   0.07168  -0.0582  0.9789  0.0410  -1.7142   0.0000   0.0000   0.0000   0.0401
  -7.100  -0.2803   0.07221   0.06917  -0.0624  0.9754  0.0416  -1.7284   0.0000   0.0000   0.0000   0.0181
  -7.000  -0.2681   0.06919   0.06614  -0.0680  0.9728  0.0422  -1.7485   0.0000   0.0000   0.0000  -0.0129
  -6.900  -0.2622   0.06664   0.06359  -0.0719  0.9662  0.0426  -1.7753   0.0000   0.0000   0.0000  -0.0338
  -6.800  -0.2526   0.06332   0.06025  -0.0779  0.9609  0.0429  -1.8144   0.0000   0.0000   0.0000  -0.0682
  -6.700  -0.2403   0.05914   0.05601  -0.0857  0.9570  0.0431  -1.8717   0.0000   0.0000   0.0000  -0.1164
  -6.600  -0.2277   0.05523   0.05201  -0.0922  0.9544  0.0430  -1.9261   0.0000   0.0000   0.0000  -0.1655
  -6.400  -0.2115   0.04457   0.04079  -0.1028  0.9414  0.0290  -2.3879   0.0000   0.0000   0.0000  -0.2477
  -6.300  -0.2034   0.04102   0.03706  -0.1062  0.9375  0.0274  -2.4572   0.0000   0.0000   0.0000  -0.2840
  -6.200  -0.1921   0.03786   0.03368  -0.1092  0.9347  0.0260  -2.5168   0.0000   0.0000   0.0000  -0.3311
  -6.100  -0.1795   0.03487   0.03044  -0.1118  0.9323  0.0247  -2.5789   0.0000   0.0000   0.0000  -0.3864
  -6.000  -0.1658   0.03199   0.02727  -0.1142  0.9303  0.0234  -2.6459   0.0000   0.0000   0.0000  -0.4530
  -5.900  -0.1513   0.02931   0.02427  -0.1162  0.9286  0.0224  -2.7121   0.0000   0.0000   0.0000  -0.5335
  -5.800  -0.1423   0.02746   0.02217  -0.1165  0.9238  0.0217  -2.7563   0.0000   0.0000   0.0000  -0.5859
  -5.700  -0.1333   0.02589   0.02035  -0.1166  0.9184  0.0213  -2.7862   0.0000   0.0000   0.0000  -0.6427
  -5.600  -0.1211   0.02441   0.01865  -0.1172  0.9146  0.0210  -2.7954   0.0000   0.0000   0.0000  -0.7372
  -5.500  -0.1077   0.02311   0.01714  -0.1179  0.9115  0.0209  -2.7881   0.0000   0.0000   0.0000  -0.8656
  -5.400  -0.0938   0.02197   0.01581  -0.1186  0.9087  0.0211  -2.7692   0.0000   0.0000   0.0000  -1.0384
  -5.300  -0.0795   0.02089   0.01445  -0.1193  0.9061  0.0218  -2.7629   0.0000   0.0000   0.0000  -1.2792
  -5.200  -0.0647   0.02000   0.01341  -0.1200  0.9038  0.0223  -2.7221   0.0000   0.0000   0.0000  -1.6407
  -5.100  -0.0494   0.01920   0.01249  -0.1208  0.9015  0.0232  -2.6744   0.0000   0.0000   0.0000  -2.2376
  -5.000  -0.0341   0.01850   0.01167  -0.1216  0.8993  0.0243  -2.6216   0.0000   0.0000   0.0000  -3.3813
  -4.900  -0.0240   0.01803   0.01113  -0.1214  0.8944  0.0254  -2.5745   0.0000   0.0000   0.0000  -4.8928
  -4.800  -0.0142   0.01763   0.01067  -0.1211  0.8889  0.0267  -2.5212   0.0000   0.0000   0.0000  -8.4351
  -4.700  -0.0027   0.01727   0.01025  -0.1211  0.8842  0.0282  -2.4547   0.0000   0.0000   0.0000  -44.6003
  -4.600   0.0095   0.01698   0.00991  -0.1212  0.8799  0.0296  -2.3751   0.0000   0.0000   0.0000  13.2239
  -4.500   0.0226   0.01680   0.00967  -0.1215  0.8761  0.0307  -2.2815   0.0000   0.0000   0.0000   5.7066
  -4.400   0.0361   0.01655   0.00939  -0.1218  0.8725  0.0316  -2.1876   0.0000   0.0000   0.0000   3.6772
  -4.300   0.0484   0.01541   0.00812  -0.1221  0.8692  0.0339  -2.1551   0.0000   0.0000   0.0000   2.8119
  -4.200   0.0615   0.01480   0.00746  -0.1226  0.8659  0.0364  -2.0864   0.0000   0.0000   0.0000   2.2711
  -4.100   0.0717   0.01460   0.00728  -0.1225  0.8616  0.0401  -1.9940   0.0000   0.0000   0.0000   1.9828
  -4.000   0.0816   0.01458   0.00730  -0.1224  0.8570  0.0445  -1.8908   0.0000   0.0000   0.0000   1.7697
  -3.900   0.0923   0.01456   0.00727  -0.1224  0.8525  0.0489  -1.7930   0.0000   0.0000   0.0000   1.5928
  -3.800   0.1035   0.01455   0.00723  -0.1223  0.8482  0.0519  -1.7001   0.0000   0.0000   0.0000   1.4468
  -3.700   0.1146   0.01351   0.00621  -0.1224  0.8443  0.0675  -1.7350   0.0000   0.0000   0.0000   1.3316
  -3.600   0.1267   0.01261   0.00555  -0.1228  0.8406  0.1303  -1.7912   0.0000   0.0000   0.0000   1.2311
  -3.500   0.1387   0.01225   0.00533  -0.1232  0.8371  0.1695  -1.7404   0.0000   0.0000   0.0000   1.1480
  -3.400   0.1508   0.01191   0.00517  -0.1236  0.8336  0.2235  -1.6813   0.0000   0.0000   0.0000   1.0787
  -3.300   0.1627   0.01153   0.00509  -0.1241  0.8300  0.2984  -1.6199   0.0000   0.0000   0.0000   1.0206
  -3.200   0.1738   0.01132   0.00510  -0.1243  0.8264  0.3649  -1.5595   0.0000   0.0000   0.0000   0.9723
  -3.100   0.1837   0.01119   0.00513  -0.1241  0.8230  0.4111  -1.5016   0.0000   0.0000   0.0000   0.9320
  -3.000   0.1940   0.01112   0.00515  -0.1239  0.8194  0.4446  -1.4428   0.0000   0.0000   0.0000   0.8949
  -2.900   0.2046   0.01111   0.00515  -0.1238  0.8157  0.4740  -1.3829   0.0000   0.0000   0.0000   0.8604
  -2.800   0.2149   0.01106   0.00519  -0.1235  0.8120  0.4993  -1.3239   0.0000   0.0000   0.0000   0.8297
  -2.700   0.2257   0.01107   0.00520  -0.1234  0.8084  0.5209  -1.2642   0.0000   0.0000   0.0000   0.8010
  -2.600   0.2368   0.01108   0.00517  -0.1233  0.8049  0.5361  -1.2046   0.0000   0.0000   0.0000   0.7745
  -2.500   0.2475   0.01104   0.00517  -0.1230  0.8014  0.5518  -1.1466   0.0000   0.0000   0.0000   0.7508
  -2.400   0.2586   0.01104   0.00516  -0.1229  0.7979  0.5652  -1.0881   0.0000   0.0000   0.0000   0.7284
  -2.300   0.2702   0.01108   0.00513  -0.1228  0.7944  0.5778  -1.0298   0.0000   0.0000   0.0000   0.7076
  -2.200   0.2820   0.01116   0.00513  -0.1228  0.7906  0.5887  -0.9723   0.0000   0.0000   0.0000   0.6884
  -2.100   0.2925   0.01117   0.00518  -0.1226  0.7866  0.6024  -0.9197   0.0000   0.0000   0.0000   0.6716
  -2.000   0.3023   0.01116   0.00513  -0.1222  0.7840  0.6144  -0.8822   0.0000   0.0000   0.0000   0.6566
  -1.900   0.3126   0.01118   0.00515  -0.1220  0.7810  0.6255  -0.8294   0.0000   0.0000   0.0000   0.6423
  -1.800   0.3233   0.01122   0.00515  -0.1218  0.7778  0.6352  -0.7764   0.0000   0.0000   0.0000   0.6287
  -1.700   0.3341   0.01124   0.00515  -0.1217  0.7747  0.6438  -0.7240   0.0000   0.0000   0.0000   0.6160
  -1.600   0.3441   0.01120   0.00515  -0.1214  0.7716  0.6545  -0.6739   0.0000   0.0000   0.0000   0.6043
  -1.500   0.3543   0.01119   0.00517  -0.1211  0.7685  0.6641  -0.6406   0.0000   0.0000   0.0000   0.5931
  -1.400   0.3648   0.01120   0.00518  -0.1209  0.7655  0.6737  -0.6466   0.0000   0.0000   0.0000   0.5824
  -1.300   0.3757   0.01123   0.00517  -0.1208  0.7626  0.6827  -0.6529   0.0000   0.0000   0.0000   0.5723
  -1.200   0.3869   0.01127   0.00517  -0.1207  0.7598  0.6908  -0.6600   0.0000   0.0000   0.0000   0.5627
  -1.100   0.3977   0.01126   0.00515  -0.1206  0.7569  0.6998  -0.6671   0.0000   0.0000   0.0000   0.5537
  -1.000   0.4078   0.01125   0.00515  -0.1202  0.7541  0.7095  -0.6739   0.0000   0.0000   0.0000   0.5451
  -0.900   0.4183   0.01128   0.00518  -0.1200  0.7512  0.7185  -0.6808   0.0000   0.0000   0.0000   0.5370
  -0.800   0.4292   0.01136   0.00523  -0.1198  0.7480  0.7275  -0.6879   0.0000   0.0000   0.0000   0.5293
  -0.600   0.4512   0.01154   0.00537  -0.1198  0.7425  0.7439  -0.7018   0.0000   0.0000   0.0000   0.5154
  -0.500   0.4609   0.01150   0.00537  -0.1195  0.7405  0.7531  -0.7081   0.0000   0.0000   0.0000   0.5090
  -0.400   0.4700   0.01149   0.00541  -0.1190  0.7384  0.7626  -0.7143   0.0000   0.0000   0.0000   0.5027
  -0.300   0.4796   0.01149   0.00544  -0.1186  0.7360  0.7723  -0.7206   0.0000   0.0000   0.0000   0.4968
  -0.200   0.4897   0.01151   0.00547  -0.1184  0.7335  0.7820  -0.7272   0.0000   0.0000   0.0000   0.4911
  -0.100   0.5004   0.01154   0.00550  -0.1183  0.7310  0.7911  -0.7341   0.0000   0.0000   0.0000   0.4856
   0.000   0.5098   0.01153   0.00551  -0.1178  0.7284  0.8007  -0.7404   0.0000   0.0000   0.0000   0.4803
   0.100   0.5186   0.01151   0.00553  -0.1172  0.7258  0.8109  -0.7464   0.0000   0.0000   0.0000   0.4751
   0.200   0.5278   0.01151   0.00555  -0.1167  0.7231  0.8215  -0.7527   0.0000   0.0000   0.0000   0.4701
   0.300   0.5378   0.01152   0.00555  -0.1164  0.7204  0.8325  -0.7594   0.0000   0.0000   0.0000   0.4653
   0.400   0.5471   0.01150   0.00552  -0.1159  0.7176  0.8436  -0.7657   0.0000   0.0000   0.0000   0.4606
   0.500   0.5548   0.01147   0.00550  -0.1150  0.7149  0.8558  -0.7714   0.0000   0.0000   0.0000   0.4559
   0.600   0.5634   0.01145   0.00549  -0.1143  0.7122  0.8695  -0.7774   0.0000   0.0000   0.0000   0.4514
   0.700   0.5722   0.01145   0.00548  -0.1137  0.7094  0.8832  -0.7836   0.0000   0.0000   0.0000   0.4471
   0.800   0.5799   0.01144   0.00547  -0.1128  0.7065  0.8992  -0.7892   0.0000   0.0000   0.0000   0.4428
   0.900   0.5888   0.01149   0.00550  -0.1122  0.7033  0.9170  -0.7952   0.0000   0.0000   0.0000   0.4388
   1.000   0.5991   0.01159   0.00560  -0.1120  0.6997  0.9384  -0.8025   0.0000   0.0000   0.0000   0.4350
   1.100   0.6140   0.01160   0.00562  -0.1128  0.6977  0.9655  -0.8124   0.0000   0.0000   0.0000   0.4318
   1.200   0.6304   0.01158   0.00560  -0.1142  0.6961  1.0000  -0.8232   0.0000   0.0000   0.0000   0.4290
   1.300   0.6431   0.01163   0.00563  -0.1148  0.6943  1.0000  -0.8320   0.0000   0.0000   0.0000   0.4263
   1.400   0.6554   0.01169   0.00568  -0.1152  0.6923  1.0000  -0.8407   0.0000   0.0000   0.0000   0.4235
   1.500   0.6674   0.01176   0.00573  -0.1156  0.6902  1.0000  -0.8492   0.0000   0.0000   0.0000   0.4208
   1.600   0.6793   0.01182   0.00578  -0.1159  0.6879  1.0000  -0.8576   0.0000   0.0000   0.0000   0.4182
   1.700   0.6911   0.01189   0.00587  -0.1162  0.6856  1.0000  -0.8660   0.0000   0.0000   0.0000   0.4156
   1.800   0.7027   0.01196   0.00592  -0.1165  0.6832  1.0000  -0.8749   0.0000   0.0000   0.0000   0.4131
   1.900   0.7143   0.01202   0.00597  -0.1167  0.6809  1.0000  -0.8844   0.0000   0.0000   0.0000   0.4106
   2.000   0.7259   0.01209   0.00602  -0.1169  0.6784  1.0000  -0.8946   0.0000   0.0000   0.0000   0.4081
   2.100   0.7375   0.01214   0.00606  -0.1170  0.6759  1.0000  -0.9055   0.0000   0.0000   0.0000   0.4057
   2.200   0.7491   0.01220   0.00608  -0.1172  0.6733  1.0000  -0.9164   0.0000   0.0000   0.0000   0.4034
   2.300   0.7606   0.01224   0.00611  -0.1173  0.6707  1.0000  -0.9274   0.0000   0.0000   0.0000   0.4011
   2.400   0.7722   0.01229   0.00613  -0.1174  0.6681  1.0000  -0.9385   0.0000   0.0000   0.0000   0.3988
   2.500   0.7837   0.01234   0.00615  -0.1175  0.6654  1.0000  -0.9498   0.0000   0.0000   0.0000   0.3966
   2.600   0.7952   0.01242   0.00619  -0.1176  0.6627  1.0000  -0.9623   0.0000   0.0000   0.0000   0.3944
   2.700   0.8068   0.01253   0.00627  -0.1177  0.6600  1.0000  -0.9755   0.0000   0.0000   0.0000   0.3924
   2.800   0.8183   0.01269   0.00641  -0.1179  0.6570  1.0000  -0.9897   0.0000   0.0000   0.0000   0.3904
   2.900   0.8295   0.01296   0.00666  -0.1181  0.6534  1.0000  -1.0035   0.0000   0.0000   0.0000   0.3886
   3.000   0.8403   0.01314   0.00684  -0.1181  0.6509  1.0000  -1.0171   0.0000   0.0000   0.0000   0.3868
   3.100   0.8510   0.01316   0.00688  -0.1181  0.6493  1.0000  -1.0308   0.0000   0.0000   0.0000   0.3849
   3.200   0.8617   0.01320   0.00693  -0.1181  0.6473  1.0000  -1.0459   0.0000   0.0000   0.0000   0.3830
   3.300   0.8723   0.01323   0.00698  -0.1181  0.6449  1.0000  -1.0619   0.0000   0.0000   0.0000   0.3812
   3.400   0.8830   0.01326   0.00703  -0.1180  0.6422  1.0000  -1.0791   0.0000   0.0000   0.0000   0.3794
   3.500   0.8937   0.01330   0.00707  -0.1180  0.6392  1.0000  -1.0981   0.0000   0.0000   0.0000   0.3777
   3.600   0.9045   0.01334   0.00712  -0.1180  0.6363  1.0000  -1.1173   0.0000   0.0000   0.0000   0.3760
   3.700   0.9155   0.01338   0.00717  -0.1180  0.6333  1.0000  -1.1366   0.0000   0.0000   0.0000   0.3743
   3.800   0.9265   0.01342   0.00721  -0.1179  0.6303  1.0000  -1.1562   0.0000   0.0000   0.0000   0.3726
   3.900   0.9375   0.01345   0.00725  -0.1179  0.6274  1.0000  -1.1777   0.0000   0.0000   0.0000   0.3710
   4.000   0.9487   0.01349   0.00728  -0.1179  0.6245  1.0000  -1.2011   0.0000   0.0000   0.0000   0.3694
   4.100   0.9598   0.01352   0.00730  -0.1179  0.6216  1.0000  -1.2248   0.0000   0.0000   0.0000   0.3679
   4.200   0.9710   0.01354   0.00731  -0.1179  0.6185  1.0000  -1.2486   0.0000   0.0000   0.0000   0.3663
   4.300   0.9822   0.01358   0.00733  -0.1179  0.6152  1.0000  -1.2727   0.0000   0.0000   0.0000   0.3648
   4.400   0.9936   0.01367   0.00739  -0.1179  0.6113  1.0000  -1.2976   0.0000   0.0000   0.0000   0.3633
   4.500   1.0048   0.01389   0.00758  -0.1180  0.6067  1.0000  -1.3271   0.0000   0.0000   0.0000   0.3620
   4.600   1.0154   0.01410   0.00780  -0.1180  0.6031  1.0000  -1.3556   0.0000   0.0000   0.0000   0.3606
   4.700   1.0256   0.01409   0.00784  -0.1178  0.6011  1.0000  -1.3843   0.0000   0.0000   0.0000   0.3592
   4.800   1.0359   0.01410   0.00788  -0.1177  0.5987  1.0000  -1.4183   0.0000   0.0000   0.0000   0.3578
   4.900   1.0462   0.01412   0.00819  -0.1175  0.5958  1.0000  -1.4539   0.0000   0.0000   0.0000   0.3564
   5.000   1.0565   0.01413   0.00825  -0.1174  0.5923  1.0000  -1.4890   0.0000   0.0000   0.0000   0.3551
   5.100   1.0670   0.01412   0.00828  -0.1172  0.5884  1.0000  -1.5253   0.0000   0.0000   0.0000   0.3537
   5.200   1.0775   0.01411   0.00828  -0.1171  0.5842  1.0000  -1.5625   0.0000   0.0000   0.0000   0.3524
   5.300   1.0882   0.01409   0.00828  -0.1169  0.5800  1.0000  -1.6003   0.0000   0.0000   0.0000   0.3511
   5.400   1.0990   0.01408   0.00828  -0.1168  0.5761  1.0000  -1.6386   0.0000   0.0000   0.0000   0.3498
   5.500   1.1097   0.01408   0.00828  -0.1167  0.5723  1.0000  -1.6774   0.0000   0.0000   0.0000   0.3485
   5.600   1.1207   0.01410   0.00828  -0.1166  0.5683  1.0000  -1.7168   0.0000   0.0000   0.0000   0.3473
   5.700   1.1317   0.01416   0.00832  -0.1165  0.5639  1.0000  -1.7583   0.0000   0.0000   0.0000   0.3461
   5.800   1.1429   0.01432   0.00845  -0.1165  0.5584  1.0000  -1.8332   0.0000   0.0000   0.0000   0.3450
   5.900   1.1532   0.01442   0.00858  -0.1164  0.5542  1.0000  -1.9235   0.0000   0.0000   0.0000   0.3438
   6.000   1.1627   0.01439   0.00861  -0.1161  0.5509  1.0000  -2.0228   0.0000   0.0000   0.0000   0.3426
   6.100   1.1723   0.01437   0.00865  -0.1158  0.5467  1.0000  -2.1241   0.0000   0.0000   0.0000   0.3414
   6.200   1.1821   0.01436   0.00869  -0.1155  0.5418  1.0000  -2.2277   0.0000   0.0000   0.0000   0.3402
   6.300   1.1920   0.01435   0.00871  -0.1153  0.5365  1.0000  -2.3336   0.0000   0.0000   0.0000   0.3391
   6.400   1.2020   0.01433   0.00871  -0.1150  0.5308  1.0000  -2.4419   0.0000   0.0000   0.0000   0.3379
   6.500   1.2121   0.01432   0.00869  -0.1148  0.5249  1.0000  -2.5528   0.0000   0.0000   0.0000   0.3368
   6.600   1.2223   0.01435   0.00869  -0.1145  0.5190  1.0000  -2.6653   0.0000   0.0000   0.0000   0.3356
   6.700   1.2326   0.01443   0.00873  -0.1143  0.5128  1.0000  -2.7795   0.0000   0.0000   0.0000   0.3346
   6.800   1.2427   0.01455   0.00885  -0.1141  0.5065  1.0000  -2.8938   0.0000   0.0000   0.0000   0.3335
   6.900   1.2516   0.01455   0.00894  -0.1138  0.5016  1.0000  -3.0034   0.0000   0.0000   0.0000   0.3324
   7.000   1.2606   0.01457   0.00903  -0.1134  0.4948  1.0000  -3.1150   0.0000   0.0000   0.0000   0.3313
   7.100   1.2697   0.01459   0.00907  -0.1130  0.4863  1.0000  -3.2285   0.0000   0.0000   0.0000   0.3302
   7.200   1.2785   0.01462   0.00909  -0.1125  0.4768  1.0000  -3.3430   0.0000   0.0000   0.0000   0.3291
   7.300   1.2870   0.01471   0.00909  -0.1120  0.4666  1.0000  -3.4568   0.0000   0.0000   0.0000   0.3280
   7.400   1.2955   0.01483   0.00920  -0.1115  0.4573  1.0000  -3.5708   0.0000   0.0000   0.0000   0.3269
   7.500   1.3041   0.01490   0.00934  -0.1111  0.4479  1.0000  -3.6859   0.0000   0.0000   0.0000   0.3259
   7.600   1.3120   0.01500   0.00943  -0.1105  0.4351  1.0000  -3.7990   0.0000   0.0000   0.0000   0.3248
   7.700   1.3186   0.01518   0.00951  -0.1097  0.4205  1.0000  -3.9063   0.0000   0.0000   0.0000   0.3236
   7.800   1.3257   0.01536   0.00966  -0.1090  0.4067  1.0000  -4.0161   0.0000   0.0000   0.0000   0.3225
   7.900   1.3326   0.01555   0.00983  -0.1083  0.3887  1.0000  -4.1254   0.0000   0.0000   0.0000   0.3214
   8.000   1.3366   0.01588   0.01000  -0.1071  0.3692  1.0000  -4.2193   0.0000   0.0000   0.0000   0.3201
   8.100   1.3426   0.01615   0.01023  -0.1063  0.3499  1.0000  -4.3244   0.0000   0.0000   0.0000   0.3190
   8.200   1.3455   0.01657   0.01050  -0.1051  0.3280  1.0000  -4.4119   0.0000   0.0000   0.0000   0.3178
   8.300   1.3458   0.01714   0.01104  -0.1034  0.2958  1.0000  -4.4781   0.0000   0.0000   0.0000   0.3164
   8.400   1.3414   0.01797   0.01153  -0.1012  0.2552  1.0000  -4.5075   0.0000   0.0000   0.0000   0.3149
   8.500   1.3400   0.01867   0.01202  -0.0995  0.2286  1.0000  -4.5639   0.0000   0.0000   0.0000   0.3135
   8.600   1.3386   0.01936   0.01252  -0.0978  0.2045  1.0000  -4.6218   0.0000   0.0000   0.0000   0.3122
   8.700   1.3387   0.01991   0.01295  -0.0962  0.1850  1.0000  -4.6890   0.0000   0.0000   0.0000   0.3109
   8.800   1.3372   0.02055   0.01344  -0.0945  0.1676  1.0000  -4.7468   0.0000   0.0000   0.0000   0.3096
   8.900   1.3388   0.02105   0.01387  -0.0933  0.1533  1.0000  -4.8236   0.0000   0.0000   0.0000   0.3084
   9.000   1.3398   0.02159   0.01433  -0.0919  0.1410  1.0000  -4.8964   0.0000   0.0000   0.0000   0.3072
   9.100   1.3404   0.02216   0.01483  -0.0906  0.1310  1.0000  -4.9663   0.0000   0.0000   0.0000   0.3060
   9.200   1.3443   0.02255   0.01523  -0.0897  0.1235  1.0000  -5.0569   0.0000   0.0000   0.0000   0.3050
   9.300   1.3470   0.02302   0.01567  -0.0887  0.1155  1.0000  -5.1403   0.0000   0.0000   0.0000   0.3040
   9.400   1.3479   0.02360   0.01620  -0.0875  0.1074  1.0000  -5.2117   0.0000   0.0000   0.0000   0.3029
   9.500   1.3489   0.02419   0.01675  -0.0863  0.0989  1.0000  -5.2824   0.0000   0.0000   0.0000   0.3018
   9.600   1.3518   0.02466   0.01722  -0.0854  0.0916  1.0000  -5.3660   0.0000   0.0000   0.0000   0.3009
   9.700   1.3529   0.02526   0.01778  -0.0843  0.0838  1.0000  -5.4376   0.0000   0.0000   0.0000   0.2999
   9.800   1.3532   0.02594   0.01839  -0.0832  0.0766  1.0000  -5.5020   0.0000   0.0000   0.0000   0.2989
   9.900   1.3555   0.02649   0.01896  -0.0823  0.0706  1.0000  -5.5762   0.0000   0.0000   0.0000   0.2980
  10.000   1.3573   0.02709   0.01956  -0.0814  0.0642  1.0000  -5.6456   0.0000   0.0000   0.0000   0.2971
  10.100   1.3568   0.02787   0.02028  -0.0804  0.0570  1.0000  -5.6981   0.0000   0.0000   0.0000   0.2962
  10.200   1.3564   0.02869   0.02107  -0.0793  0.0491  1.0000  -5.7421   0.0000   0.0000   0.0000   0.2953
  10.300   1.3552   0.02958   0.02191  -0.0783  0.0403  1.0000  -5.7721   0.0000   0.0000   0.0000   0.2944
  10.400   1.3501   0.03082   0.02307  -0.0769  0.0308  1.0000  -5.7568   0.0000   0.0000   0.0000   0.2934
  10.500   1.3449   0.03209   0.02429  -0.0756  0.0243  1.0000  -5.7220   0.0000   0.0000   0.0000   0.2925
  10.600   1.3367   0.03370   0.02589  -0.0741  0.0197  1.0000  -5.6494   0.0000   0.0000   0.0000   0.2915
  10.700   1.3273   0.03548   0.02776  -0.0726  0.0176  1.0000  -5.5653   0.0000   0.0000   0.0000   0.2907
  10.800   1.3282   0.03634   0.02870  -0.0720  0.0170  1.0000  -5.5998   0.0000   0.0000   0.0000   0.2900
  10.900   1.3285   0.03730   0.02972  -0.0714  0.0164  1.0000  -5.6262   0.0000   0.0000   0.0000   0.2893
  11.000   1.3283   0.03831   0.03081  -0.0707  0.0158  1.0000  -5.6492   0.0000   0.0000   0.0000   0.2887
  11.100   1.3276   0.03939   0.03196  -0.0701  0.0153  1.0000  -5.6700   0.0000   0.0000   0.0000   0.2880
  11.200   1.3266   0.04050   0.03315  -0.0695  0.0149  1.0000  -5.6901   0.0000   0.0000   0.0000   0.2874
  11.300   1.3257   0.04163   0.03434  -0.0689  0.0145  1.0000  -5.7111   0.0000   0.0000   0.0000   0.2869
  11.400   1.3250   0.04275   0.03553  -0.0683  0.0142  1.0000  -5.7332   0.0000   0.0000   0.0000   0.2863
  11.500   1.3244   0.04387   0.03671  -0.0678  0.0139  1.0000  -5.7562   0.0000   0.0000   0.0000   0.2857
  11.600   1.3236   0.04502   0.03794  -0.0673  0.0137  1.0000  -5.7785   0.0000   0.0000   0.0000   0.2852
  11.700   1.3228   0.04619   0.03916  -0.0668  0.0135  1.0000  -5.8013   0.0000   0.0000   0.0000   0.2847
  11.800   1.3222   0.04734   0.04038  -0.0663  0.0133  1.0000  -5.8251   0.0000   0.0000   0.0000   0.2841
  11.900   1.3218   0.04847   0.04158  -0.0658  0.0131  1.0000  -5.8499   0.0000   0.0000   0.0000   0.2836
  12.000   1.3215   0.04959   0.04276  -0.0653  0.0129  1.0000  -5.8748   0.0000   0.0000   0.0000   0.2831
  12.100   1.3212   0.05069   0.04392  -0.0648  0.0128  1.0000  -5.9001   0.0000   0.0000   0.0000   0.2825
  12.200   1.3212   0.05179   0.04509  -0.0643  0.0127  1.0000  -5.9261   0.0000   0.0000   0.0000   0.2819
  12.300   1.3212   0.05292   0.04629  -0.0638  0.0125  1.0000  -5.9521   0.0000   0.0000   0.0000   0.2814
  12.400   1.3215   0.05407   0.04750  -0.0633  0.0124  1.0000  -5.9783   0.0000   0.0000   0.0000   0.2809
  12.500   1.3219   0.05523   0.04874  -0.0629  0.0123  1.0000  -6.0049   0.0000   0.0000   0.0000   0.2804
  12.600   1.3226   0.05640   0.04997  -0.0625  0.0123  1.0000  -6.0320   0.0000   0.0000   0.0000   0.2798
  12.700   1.3235   0.05758   0.05122  -0.0620  0.0122  1.0000  -6.0593   0.0000   0.0000   0.0000   0.2793
  12.800   1.3246   0.05876   0.05249  -0.0616  0.0121  1.0000  -6.0864   0.0000   0.0000   0.0000   0.2788
  12.900   1.3258   0.05997   0.05377  -0.0612  0.0121  1.0000  -6.1127   0.0000   0.0000   0.0000   0.2782
  13.000   1.3268   0.06122   0.05511  -0.0608  0.0120  1.0000  -6.1375   0.0000   0.0000   0.0000   0.2777
  13.100   1.3277   0.06251   0.05649  -0.0605  0.0120  1.0000  -6.1604   0.0000   0.0000   0.0000   0.2773
  13.200   1.3284   0.06384   0.05791  -0.0601  0.0120  1.0000  -6.1812   0.0000   0.0000   0.0000   0.2768
  13.300   1.3289   0.06522   0.05939  -0.0598  0.0120  1.0000  -6.1996   0.0000   0.0000   0.0000   0.2764
  13.400   1.3290   0.06666   0.06093  -0.0596  0.0120  1.0000  -6.2153   0.0000   0.0000   0.0000   0.2760
  13.500   1.3287   0.06815   0.06252  -0.0593  0.0120  1.0000  -6.2280   0.0000   0.0000   0.0000   0.2757
  13.600   1.3280   0.06971   0.06418  -0.0592  0.0120  1.0000  -6.2374   0.0000   0.0000   0.0000   0.2754
  13.700   1.3265   0.07136   0.06593  -0.0591  0.0120  1.0000  -6.2424   0.0000   0.0000   0.0000   0.2752
  13.800   1.3244   0.07308   0.06776  -0.0591  0.0121  1.0000  -6.2436   0.0000   0.0000   0.0000   0.2751
  13.900   1.3220   0.07485   0.06964  -0.0591  0.0121  1.0000  -6.2421   0.0000   0.0000   0.0000   0.2750
  14.000   1.3192   0.07667   0.07156  -0.0593  0.0121  1.0000  -6.2381   0.0000   0.0000   0.0000   0.2750
  14.100   1.3161   0.07852   0.07352  -0.0594  0.0122  1.0000  -6.2316   0.0000   0.0000   0.0000   0.2751
  14.200   1.3127   0.08043   0.07553  -0.0597  0.0122  1.0000  -6.2226   0.0000   0.0000   0.0000   0.2752
  14.300   1.3089   0.08239   0.07760  -0.0600  0.0123  1.0000  -6.2108   0.0000   0.0000   0.0000   0.2754
  14.400   1.3042   0.08446   0.07978  -0.0604  0.0123  1.0000  -6.1938   0.0000   0.0000   0.0000   0.2757
  14.500   1.2989   0.08663   0.08205  -0.0611  0.0123  1.0000  -6.1728   0.0000   0.0000   0.0000   0.2762
  14.600   1.2936   0.08882   0.08434  -0.0617  0.0124  1.0000  -6.1503   0.0000   0.0000   0.0000   0.2767
  14.700   1.2882   0.09103   0.08665  -0.0624  0.0124  1.0000  -6.1262   0.0000   0.0000   0.0000   0.2773
  14.800   1.2826   0.09329   0.08902  -0.0632  0.0125  1.0000  -6.0999   0.0000   0.0000   0.0000   0.2779
  14.900   1.2763   0.09559   0.09141  -0.0642  0.0125  1.0000  -6.0700   0.0000   0.0000   0.0000   0.2788
  15.000   1.2697   0.09792   0.09384  -0.0653  0.0126  1.0000  -6.0375   0.0000   0.0000   0.0000   0.2797
  15.100   1.2633   0.10028   0.09629  -0.0664  0.0127  1.0000  -6.0040   0.0000   0.0000   0.0000   0.2807
  15.200   1.2569   0.10271   0.09881  -0.0676  0.0127  1.0000  -5.9686   0.0000   0.0000   0.0000   0.2817
  15.300   1.2502   0.10529   0.10148  -0.0690  0.0128  1.0000  -5.9302   0.0000   0.0000   0.0000   0.2829
  15.400   1.2429   0.10805   0.10433  -0.0706  0.0128  1.0000  -5.8878   0.0000   0.0000   0.0000   0.2844
  15.500   1.2359   0.11086   0.10722  -0.0722  0.0129  1.0000  -5.8442   0.0000   0.0000   0.0000   0.2858
  15.600   1.2291   0.11376   0.11022  -0.0739  0.0129  1.0000  -5.7983   0.0000   0.0000   0.0000   0.2873
  15.700   1.2216   0.11687   0.11341  -0.0758  0.0130  1.0000  -5.7477   0.0000   0.0000   0.0000   0.2891
  15.800   1.2140   0.12014   0.11676  -0.0778  0.0130  1.0000  -5.6932   0.0000   0.0000   0.0000   0.2910
  15.900   1.2066   0.12349   0.12019  -0.0799  0.0131  1.0000  -5.6362   0.0000   0.0000   0.0000   0.2930
  16.000   1.1988   0.12704   0.12381  -0.0821  0.0131  1.0000  -5.5738   0.0000   0.0000   0.0000   0.2952
  16.100   1.1906   0.13085   0.12769  -0.0846  0.0132  1.0000  -5.5048   0.0000   0.0000   0.0000   0.2976
  16.200   1.1826   0.13476   0.13167  -0.0871  0.0133  1.0000  -5.4317   0.0000   0.0000   0.0000   0.3000
  16.300   1.1739   0.13901   0.13599  -0.0899  0.0133  1.0000  -5.3486   0.0000   0.0000   0.0000   0.3029
  16.400   1.1651   0.14348   0.14053  -0.0927  0.0134  1.0000  -5.2576   0.0000   0.0000   0.0000   0.3058
  16.500   1.1558   0.14833   0.14544  -0.0958  0.0135  1.0000  -5.1536   0.0000   0.0000   0.0000   0.3090
  16.600   1.1461   0.15353   0.15070  -0.0990  0.0136  1.0000  -5.0352   0.0000   0.0000   0.0000   0.3125
  16.700   1.1355   0.15936   0.15658  -0.1025  0.0137  1.0000  -4.8928   0.0000   0.0000   0.0000   0.3164
  16.800   1.1241   0.16572   0.16298  -0.1061  0.0138  1.0000  -4.7240   0.0000   0.0000   0.0000   0.3206
  16.900   1.1119   0.17289   0.17018  -0.1100  0.0140  1.0000  -4.5163   0.0000   0.0000   0.0000   0.3252
  17.000   1.0993   0.18064   0.17795  -0.1137  0.0143  1.0000  -4.2719   0.0000   0.0000   0.0000   0.3299
  17.100   1.0884   0.18809   0.18539  -0.1170  0.0146  1.0000  -4.0281   0.0000   0.0000   0.0000   0.3341
  17.200   1.0807   0.19437   0.19165  -0.1194  0.0149  1.0000  -3.8287   0.0000   0.0000   0.0000   0.3373
  17.300   1.0751   0.19968   0.19695  -0.1215  0.0152  1.0000  -3.6757   0.0000   0.0000   0.0000   0.3398
  17.400   1.0706   0.20444   0.20170  -0.1234  0.0154  1.0000  -3.5496   0.0000   0.0000   0.0000   0.3420
  17.500   1.0670   0.20887   0.20612  -0.1251  0.0157  1.0000  -3.4404   0.0000   0.0000   0.0000   0.3439
  17.600   1.0639   0.21307   0.21030  -0.1266  0.0159  1.0000  -3.3429   0.0000   0.0000   0.0000   0.3457
  17.700   1.0612   0.21710   0.21433  -0.1281  0.0162  1.0000  -3.2534   0.0000   0.0000   0.0000   0.3473
  17.800   1.0586   0.22105   0.21827  -0.1294  0.0164  1.0000  -3.1687   0.0000   0.0000   0.0000   0.3488
  17.900   1.0560   0.22500   0.22221  -0.1308  0.0167  1.0000  -3.0845   0.0000   0.0000   0.0000   0.3503
  18.000   1.0521   0.22943   0.22662  -0.1320  0.0172  1.0000  -2.9766   0.0000   0.0000   0.0000   0.3519
  18.200   1.0605   0.23147   0.22873  -0.1323  0.0184  1.0000  -3.0588   0.0000   0.0000   0.0000   0.3506
  18.300   1.0443   0.24799   0.24517  -0.1371  0.0281  1.0000  -2.3361   0.0000   0.0000   0.0000   0.3580
  18.900   1.0396   0.26796   0.26517  -0.1394  0.0321  1.0000  -2.1913   0.0000   0.0000   0.0000   0.3600
  19.000   1.0394   0.27075   0.26796  -0.1402  0.0321  1.0000  -2.1711   0.0000   0.0000   0.0000   0.3606
  19.100   1.0392   0.27352   0.27074  -0.1409  0.0320  1.0000  -2.1513   0.0000   0.0000   0.0000   0.3613
  19.200   1.0388   0.27626   0.27349  -0.1417  0.0320  1.0000  -2.1316   0.0000   0.0000   0.0000   0.3619
  19.300   1.0384   0.27898   0.27621  -0.1424  0.0320  1.0000  -2.1121   0.0000   0.0000   0.0000   0.3625
  19.400   1.0378   0.28167   0.27891  -0.1431  0.0320  1.0000  -2.0926   0.0000   0.0000   0.0000   0.3631
  19.500   1.0371   0.28433   0.28157  -0.1437  0.0320  1.0000  -2.0732   0.0000   0.0000   0.0000   0.3638
  19.600   1.0362   0.28694   0.28419  -0.1444  0.0320  1.0000  -2.0564   0.0000   0.0000   0.0000   0.3644
  19.700   1.0351   0.28952   0.28677  -0.1450  0.0320  1.0000  -2.0464   0.0000   0.0000   0.0000   0.3650
  19.800   1.0338   0.29204   0.28930  -0.1456  0.0319  1.0000  -2.0360   0.0000   0.0000   0.0000   0.3656
  19.900   1.0323   0.29450   0.29177  -0.1462  0.0319  1.0000  -2.0250   0.0000   0.0000   0.0000   0.3663
  20.000   1.0304   0.29688   0.29416  -0.1467  0.0319  1.0000  -2.0133   0.0000   0.0000   0.0000   0.3669
  20.100   1.0280   0.29917   0.29646  -0.1471  0.0319  1.0000  -2.0006   0.0000   0.0000   0.0000   0.3676
  20.200   1.0252   0.30134   0.29863  -0.1475  0.0318  1.0000  -1.9865   0.0000   0.0000   0.0000   0.3683
  20.300   1.0215   0.30333   0.30064  -0.1478  0.0318  1.0000  -1.9705   0.0000   0.0000   0.0000   0.3690
  20.400   1.0153   0.30482   0.30215  -0.1478  0.0318  1.0000  -1.9474   0.0000   0.0000   0.0000   0.3698
  20.500   0.9671   0.29703   0.29447  -0.1428  0.0318  1.0000  -1.8083   0.0000   0.0000   0.0000   0.3725
  20.600   0.9586   0.29685   0.29431  -0.1424  0.0318  1.0000  -1.7799   0.0000   0.0000   0.0000   0.3734
  20.700   0.9520   0.29696   0.29443  -0.1422  0.0318  1.0000  -1.7568   0.0000   0.0000   0.0000   0.3742
  20.800   0.9464   0.29721   0.29470  -0.1422  0.0317  1.0000  -1.7366   0.0000   0.0000   0.0000   0.3750
  20.900   0.9415   0.29755   0.29505  -0.1422  0.0317  1.0000  -1.7185   0.0000   0.0000   0.0000   0.3758
  21.000   0.9372   0.29795   0.29547  -0.1423  0.0316  1.0000  -1.7020   0.0000   0.0000   0.0000   0.3765
  21.100   0.9333   0.29838   0.29591  -0.1424  0.0316  1.0000  -1.6867   0.0000   0.0000   0.0000   0.3772
  21.200   0.9297   0.29882   0.29637  -0.1426  0.0315  1.0000  -1.6721   0.0000   0.0000   0.0000   0.3780
  21.300   0.9266   0.29929   0.29685  -0.1429  0.0314  1.0000  -1.6584   0.0000   0.0000   0.0000   0.3787
  21.400   0.9235   0.29975   0.29732  -0.1432  0.0312  1.0000  -1.6436   0.0000   0.0000   0.0000   0.3795
  21.500   0.9198   0.30018   0.29776  -0.1438  0.0310  1.0000  -1.6201   0.0000   0.0000   0.0000   0.3806
  21.600   0.9162   0.30067   0.29826  -0.1444  0.0307  1.0000  -1.5922   0.0000   0.0000   0.0000   0.3818
  21.700   0.9131   0.30134   0.29893  -0.1452  0.0303  1.0000  -1.5626   0.0000   0.0000   0.0000   0.3831
  21.800   0.9107   0.30218   0.29978  -0.1460  0.0297  1.0000  -1.5346   0.0000   0.0000   0.0000   0.3843
  21.900   0.9086   0.30305   0.30066  -0.1466  0.0291  1.0000  -1.5126   0.0000   0.0000   0.0000   0.3853
  22.000   0.9066   0.30387   0.30149  -0.1470  0.0285  1.0000  -1.4962   0.0000   0.0000   0.0000   0.3860
  22.100   0.9046   0.30464   0.30227  -0.1474  0.0279  1.0000  -1.4836   0.0000   0.0000   0.0000   0.3867
  22.200   0.9028   0.30538   0.30301  -0.1477  0.0274  1.0000  -1.4735   0.0000   0.0000   0.0000   0.3873
  22.300   0.9011   0.30609   0.30373  -0.1480  0.0269  1.0000  -1.4652   0.0000   0.0000   0.0000   0.3878
  22.400   0.8994   0.30679   0.30444  -0.1483  0.0264  1.0000  -1.4581   0.0000   0.0000   0.0000   0.3883
  22.500   0.8978   0.30748   0.30514  -0.1486  0.0260  1.0000  -1.4522   0.0000   0.0000   0.0000   0.3888
  22.600   0.8964   0.30816   0.30583  -0.1489  0.0255  1.0000  -1.4470   0.0000   0.0000   0.0000   0.3893
  22.700   0.8950   0.30883   0.30652  -0.1491  0.0251  1.0000  -1.4427   0.0000   0.0000   0.0000   0.3897
  22.800   0.8937   0.30950   0.30720  -0.1494  0.0247  1.0000  -1.4389   0.0000   0.0000   0.0000   0.3901
  22.900   0.8924   0.31017   0.30787  -0.1497  0.0243  1.0000  -1.4357   0.0000   0.0000   0.0000   0.3905
  23.000   0.8913   0.31083   0.30854  -0.1499  0.0239  1.0000  -1.4330   0.0000   0.0000   0.0000   0.3909
  23.100   0.8902   0.31148   0.30920  -0.1502  0.0236  1.0000  -1.4308   0.0000   0.0000   0.0000   0.3913
  23.200   0.8891   0.31213   0.30986  -0.1505  0.0232  1.0000  -1.4291   0.0000   0.0000   0.0000   0.3916
  23.300   0.8882   0.31277   0.31051  -0.1507  0.0229  1.0000  -1.4278   0.0000   0.0000   0.0000   0.3920
  23.400   0.8872   0.31341   0.31116  -0.1510  0.0226  1.0000  -1.4270   0.0000   0.0000   0.0000   0.3923
  23.500   0.8864   0.31404   0.31180  -0.1513  0.0222  1.0000  -1.4267   0.0000   0.0000   0.0000   0.3926
  23.600   0.8856   0.31466   0.31243  -0.1515  0.0219  1.0000  -1.4268   0.0000   0.0000   0.0000   0.3929
  23.700   0.8849   0.31527   0.31304  -0.1518  0.0216  1.0000  -1.4276   0.0000   0.0000   0.0000   0.3931
  23.800   0.8842   0.31586   0.31365  -0.1520  0.0213  1.0000  -1.4293   0.0000   0.0000   0.0000   0.3934
  23.900   0.8836   0.31641   0.31420  -0.1522  0.0210  1.0000  -1.4341   0.0000   0.0000   0.0000   0.3936
  24.000   0.8832   0.31688   0.31469  -0.1524  0.0206  1.0000  -1.4443   0.0000   0.0000   0.0000   0.3937
  24.100   0.8830   0.31724   0.31506  -0.1525  0.0202  1.0000  -1.4630   0.0000   0.0000   0.0000   0.3936
  24.200   0.8831   0.31744   0.31527  -0.1524  0.0197  1.0000  -1.4950   0.0000   0.0000   0.0000   0.3933
  24.300   0.8839   0.31744   0.31528  -0.1521  0.0191  1.0000  -1.5476   0.0000   0.0000   0.0000   0.3926
  24.400   0.8855   0.31790   0.31577  -0.1508  0.0182  1.0000  -1.6304   0.0000   0.0000   0.0000   0.3905
  24.900   0.8748   0.32396   0.32181  -0.1522  0.0176  1.0000  -1.4266   0.0000   0.0000   0.0000   0.3938
  25.000   0.8741   0.32474   0.32260  -0.1526  0.0176  1.0000  -1.4090   0.0000   0.0000   0.0000   0.3942
  25.100   0.8734   0.32552   0.32338  -0.1530  0.0175  1.0000  -1.3918   0.0000   0.0000   0.0000   0.3946
  25.200   0.8727   0.32629   0.32416  -0.1534  0.0175  1.0000  -1.3750   0.0000   0.0000   0.0000   0.3951
  25.300   0.8721   0.32706   0.32494  -0.1537  0.0175  1.0000  -1.3586   0.0000   0.0000   0.0000   0.3955
  25.400   0.8715   0.32782   0.32570  -0.1541  0.0175  1.0000  -1.3423   0.0000   0.0000   0.0000   0.3959
  25.500   0.8709   0.32856   0.32651  -0.1545  0.0175  1.0000  -1.3271   0.0000   0.0000   0.0000   0.3963
  25.600   0.8703   0.32931   0.32727  -0.1549  0.0174  1.0000  -1.3117   0.0000   0.0000   0.0000   0.3967
  25.700   0.8697   0.33006   0.32802  -0.1553  0.0174  1.0000  -1.2967   0.0000   0.0000   0.0000   0.3971
  25.800   0.8692   0.33080   0.32877  -0.1557  0.0174  1.0000  -1.2821   0.0000   0.0000   0.0000   0.3975
  25.900   0.8687   0.33154   0.32951  -0.1561  0.0173  1.0000  -1.2676   0.0000   0.0000   0.0000   0.3979
  26.000   0.8682   0.33227   0.33025  -0.1566  0.0173  1.0000  -1.2530   0.0000   0.0000   0.0000   0.3984
  26.100   0.8677   0.33300   0.33098  -0.1570  0.0173  1.0000  -1.2388   0.0000   0.0000   0.0000   0.3988
  26.200   0.8670   0.33372   0.33170  -0.1575  0.0172  1.0000  -1.2224   0.0000   0.0000   0.0000   0.3993
  26.300   0.8664   0.33444   0.33243  -0.1580  0.0172  1.0000  -1.2059   0.0000   0.0000   0.0000   0.3998
  26.400   0.8658   0.33517   0.33317  -0.1585  0.0171  1.0000  -1.1895   0.0000   0.0000   0.0000   0.4004
  26.500   0.8653   0.33592   0.33392  -0.1590  0.0170  1.0000  -1.1732   0.0000   0.0000   0.0000   0.4009
  26.600   0.8649   0.33668   0.33469  -0.1596  0.0170  1.0000  -1.1568   0.0000   0.0000   0.0000   0.4014
  26.700   0.8646   0.33748   0.33549  -0.1601  0.0169  1.0000  -1.1401   0.0000   0.0000   0.0000   0.4020
  26.800   0.8644   0.33832   0.33634  -0.1607  0.0167  1.0000  -1.1228   0.0000   0.0000   0.0000   0.4025


