xflr5 v6.61

 Calculated polar for: EPPLER 420 AIRFOIL

 1 1 Reynolds number fixed          Mach number fixed         

 xtrf =   1.000 (top)        1.000 (bottom)
 Mach =   0.000     Re =     0.100 e 6     Ncrit =   9.000

  alpha     CL        CD       CDp       Cm    Top Xtr Bot Xtr   Cpmin    Chinge    XCp    
 ------- -------- --------- --------- -------- ------- ------- -------- --------- ---------
 -10.000   0.2857   0.11534   0.11019  -0.1419  0.8518  0.0688  -1.0315   0.0000   0.0000   0.0000   0.7890
  -9.900   0.2961   0.11506   0.10984  -0.1453  0.8477  0.0691  -1.0373   0.0000   0.0000   0.0000   0.7811
  -9.800   0.3076   0.11453   0.10925  -0.1488  0.8437  0.0694  -1.0439   0.0000   0.0000   0.0000   0.7726
  -9.700   0.3187   0.11387   0.10853  -0.1520  0.8394  0.0695  -1.0502   0.0000   0.0000   0.0000   0.7646
  -9.600   0.3189   0.11373   0.10840  -0.1517  0.8321  0.0696  -1.0505   0.0000   0.0000   0.0000   0.7628
  -9.500   0.3225   0.11331   0.10796  -0.1523  0.8256  0.0697  -1.0528   0.0000   0.0000   0.0000   0.7587
  -9.400   0.3282   0.11264   0.10727  -0.1534  0.8200  0.0698  -1.0566   0.0000   0.0000   0.0000   0.7529
  -9.300   0.3360   0.11175   0.10634  -0.1549  0.8151  0.0699  -1.0616   0.0000   0.0000   0.0000   0.7456
  -9.200   0.3448   0.11076   0.10529  -0.1567  0.8107  0.0700  -1.0673   0.0000   0.0000   0.0000   0.7380
  -9.100   0.3545   0.10968   0.10415  -0.1588  0.8064  0.0701  -1.0735   0.0000   0.0000   0.0000   0.7302
  -9.000   0.3649   0.10857   0.10297  -0.1610  0.8022  0.0701  -1.0800   0.0000   0.0000   0.0000   0.7224
  -8.900   0.3655   0.10818   0.10259  -0.1605  0.7973  0.0702  -1.0805   0.0000   0.0000   0.0000   0.7201
  -8.800   0.3662   0.10776   0.10219  -0.1601  0.7923  0.0702  -1.0812   0.0000   0.0000   0.0000   0.7178
  -8.700   0.3681   0.10723   0.10166  -0.1601  0.7875  0.0703  -1.0826   0.0000   0.0000   0.0000   0.7147
  -8.600   0.3710   0.10661   0.10104  -0.1602  0.7830  0.0703  -1.0846   0.0000   0.0000   0.0000   0.7113
  -8.500   0.3745   0.10594   0.10035  -0.1606  0.7788  0.0703  -1.0870   0.0000   0.0000   0.0000   0.7075
  -8.400   0.3781   0.10523   0.09962  -0.1609  0.7749  0.0704  -1.0896   0.0000   0.0000   0.0000   0.7037
  -8.300   0.3828   0.10445   0.09881  -0.1615  0.7711  0.0704  -1.0927   0.0000   0.0000   0.0000   0.6995
  -8.200   0.3912   0.09574   0.09011  -0.1623  0.7703  0.0724  -1.1022   0.0000   0.0000   0.0000   0.6920
  -8.100   0.4073   0.09233   0.08662  -0.1627  0.7674  0.0734  -1.1160   0.0000   0.0000   0.0000   0.6757
  -8.000   0.4200   0.09018   0.08441  -0.1633  0.7640  0.0743  -1.1264   0.0000   0.0000   0.0000   0.6642
  -7.900   0.4311   0.08863   0.08278  -0.1641  0.7602  0.0752  -1.1348   0.0000   0.0000   0.0000   0.6553
  -7.800   0.4329   0.08789   0.08202  -0.1632  0.7571  0.0757  -1.1369   0.0000   0.0000   0.0000   0.6512
  -7.700   0.4350   0.08718   0.08134  -0.1624  0.7536  0.0763  -1.1392   0.0000   0.0000   0.0000   0.6471
  -7.600   0.4376   0.08650   0.08067  -0.1618  0.7500  0.0770  -1.1417   0.0000   0.0000   0.0000   0.6431
  -7.500   0.4405   0.08582   0.08000  -0.1614  0.7463  0.0777  -1.1443   0.0000   0.0000   0.0000   0.6392
  -7.400   0.4437   0.08515   0.07933  -0.1610  0.7428  0.0784  -1.1470   0.0000   0.0000   0.0000   0.6353
  -7.300   0.4473   0.08447   0.07865  -0.1608  0.7394  0.0791  -1.1499   0.0000   0.0000   0.0000   0.6315
  -7.200   0.4510   0.08379   0.07796  -0.1607  0.7361  0.0799  -1.1529   0.0000   0.0000   0.0000   0.6278
  -7.100   0.4550   0.08312   0.07727  -0.1607  0.7331  0.0808  -1.1559   0.0000   0.0000   0.0000   0.6242
  -7.000   0.4590   0.08246   0.07659  -0.1607  0.7302  0.0816  -1.1590   0.0000   0.0000   0.0000   0.6207
  -6.900   0.4631   0.08182   0.07593  -0.1608  0.7275  0.0826  -1.1619   0.0000   0.0000   0.0000   0.6174
  -6.800   0.4675   0.08119   0.07527  -0.1610  0.7249  0.0835  -1.1650   0.0000   0.0000   0.0000   0.6140
  -6.700   0.4722   0.08058   0.07463  -0.1613  0.7222  0.0845  -1.1680   0.0000   0.0000   0.0000   0.6108
  -6.600   0.4770   0.08002   0.07405  -0.1617  0.7194  0.0857  -1.1708   0.0000   0.0000   0.0000   0.6078
  -6.500   0.4811   0.07961   0.07361  -0.1620  0.7165  0.0868  -1.1727   0.0000   0.0000   0.0000   0.6051
  -6.400   0.4805   0.07930   0.07335  -0.1612  0.7146  0.0877  -1.1720   0.0000   0.0000   0.0000   0.6035
  -6.300   0.4797   0.07903   0.07312  -0.1604  0.7126  0.0886  -1.1710   0.0000   0.0000   0.0000   0.6020
  -6.200   0.4787   0.07880   0.07293  -0.1595  0.7104  0.0896  -1.1698   0.0000   0.0000   0.0000   0.6006
  -6.100   0.4774   0.07862   0.07279  -0.1586  0.7081  0.0906  -1.1683   0.0000   0.0000   0.0000   0.5994
  -6.000   0.4756   0.07851   0.07271  -0.1577  0.7058  0.0916  -1.1665   0.0000   0.0000   0.0000   0.5984
  -5.900   0.4733   0.07849   0.07273  -0.1567  0.7034  0.0926  -1.1642   0.0000   0.0000   0.0000   0.5977
  -5.800   0.4703   0.07860   0.07287  -0.1557  0.7010  0.0937  -1.1614   0.0000   0.0000   0.0000   0.5975
  -5.700   0.4671   0.07884   0.07314  -0.1548  0.6986  0.0948  -1.1582   0.0000   0.0000   0.0000   0.5976
  -5.600   0.4651   0.07926   0.07359  -0.1546  0.6962  0.0961  -1.1551   0.0000   0.0000   0.0000   0.5983
  -5.500   0.4633   0.08009   0.07444  -0.1551  0.6937  0.0974  -1.1513   0.0000   0.0000   0.0000   0.6002
  -5.400   0.4633   0.08124   0.07561  -0.1564  0.6913  0.0986  -1.1477   0.0000   0.0000   0.0000   0.6026
  -5.300   0.4667   0.08209   0.07645  -0.1581  0.6890  0.0994  -1.1466   0.0000   0.0000   0.0000   0.6034
  -5.200   0.4720   0.08241   0.07676  -0.1598  0.6869  0.0999  -1.1473   0.0000   0.0000   0.0000   0.6027
  -5.100   0.4785   0.08227   0.07660  -0.1610  0.6850  0.1002  -1.1498   0.0000   0.0000   0.0000   0.6002
  -5.000   0.4855   0.08193   0.07624  -0.1622  0.6831  0.1005  -1.1539   0.0000   0.0000   0.0000   0.5975
  -4.900   0.4928   0.08146   0.07575  -0.1635  0.6814  0.1006  -1.1583   0.0000   0.0000   0.0000   0.5946
  -4.800   0.5005   0.08090   0.07517  -0.1648  0.6796  0.1008  -1.1629   0.0000   0.0000   0.0000   0.5917
  -4.700   0.5080   0.08032   0.07455  -0.1660  0.6778  0.1009  -1.1674   0.0000   0.0000   0.0000   0.5888
  -4.600   0.5152   0.07976   0.07397  -0.1672  0.6760  0.1010  -1.1715   0.0000   0.0000   0.0000   0.5860
  -4.500   0.5217   0.07931   0.07350  -0.1681  0.6739  0.1011  -1.1750   0.0000   0.0000   0.0000   0.5834
  -4.400   0.5122   0.07551   0.06979  -0.1675  0.6722  0.1025  -1.1684   0.0000   0.0000   0.0000   0.5883
  -4.300   0.5073   0.07417   0.06849  -0.1655  0.6708  0.1033  -1.1662   0.0000   0.0000   0.0000   0.5873
  -4.200   0.5035   0.07331   0.06768  -0.1633  0.6696  0.1038  -1.1650   0.0000   0.0000   0.0000   0.5851
  -4.100   0.4998   0.07270   0.06712  -0.1611  0.6683  0.1044  -1.1634   0.0000   0.0000   0.0000   0.5829
  -4.000   0.4958   0.07226   0.06673  -0.1589  0.6669  0.1048  -1.1615   0.0000   0.0000   0.0000   0.5810
  -3.900   0.4915   0.07196   0.06648  -0.1567  0.6653  0.1053  -1.1591   0.0000   0.0000   0.0000   0.5791
  -3.800   0.4865   0.07179   0.06636  -0.1544  0.6636  0.1057  -1.1560   0.0000   0.0000   0.0000   0.5775
  -3.700   0.4808   0.07173   0.06636  -0.1521  0.6618  0.1060  -1.1521   0.0000   0.0000   0.0000   0.5763
  -3.600   0.4742   0.07179   0.06647  -0.1498  0.6599  0.1064  -1.1474   0.0000   0.0000   0.0000   0.5755
  -3.500   0.4667   0.07195   0.06669  -0.1473  0.6578  0.1067  -1.1417   0.0000   0.0000   0.0000   0.5752
  -3.400   0.4579   0.07225   0.06704  -0.1447  0.6557  0.1069  -1.1348   0.0000   0.0000   0.0000   0.5755
  -3.300   0.4477   0.07267   0.06751  -0.1420  0.6535  0.1070  -1.1266   0.0000   0.0000   0.0000   0.5765
  -3.200   0.4357   0.07326   0.06816  -0.1390  0.6512  0.1071  -1.1168   0.0000   0.0000   0.0000   0.5784
  -3.100   0.4176   0.07436   0.06933  -0.1353  0.6485  0.1068  -1.1016   0.0000   0.0000   0.0000   0.5833
  -3.000   0.3895   0.07634   0.07140  -0.1304  0.6452  0.1060  -1.0849   0.0000   0.0000   0.0000   0.5943
  -2.900   0.3773   0.07696   0.07205  -0.1276  0.6427  0.1060  -1.0928   0.0000   0.0000   0.0000   0.5977
  -2.800   0.3742   0.07672   0.07183  -0.1258  0.6408  0.1065  -1.0870   0.0000   0.0000   0.0000   0.5957
  -2.700   0.3757   0.07609   0.07121  -0.1247  0.6393  0.1073  -1.0746   0.0000   0.0000   0.0000   0.5910
  -2.600   0.3807   0.07526   0.07037  -0.1242  0.6379  0.1083  -1.0705   0.0000   0.0000   0.0000   0.5847
  -2.500   0.3884   0.07431   0.06941  -0.1241  0.6367  0.1096  -1.0768   0.0000   0.0000   0.0000   0.5777
  -2.400   0.3984   0.07329   0.06837  -0.1246  0.6356  0.1111  -1.0846   0.0000   0.0000   0.0000   0.5704
  -2.300   0.4109   0.07219   0.06725  -0.1257  0.6346  0.1129  -1.0938   0.0000   0.0000   0.0000   0.5630
  -2.200   0.4257   0.07106   0.06607  -0.1274  0.6336  0.1151  -1.1042   0.0000   0.0000   0.0000   0.5558
  -2.100   0.4434   0.06986   0.06483  -0.1299  0.6327  0.1179  -1.1161   0.0000   0.0000   0.0000   0.5489
  -2.000   0.4657   0.06855   0.06346  -0.1335  0.6318  0.1215  -1.1305   0.0000   0.0000   0.0000   0.5421
  -1.900   0.2349   0.09297   0.08850  -0.1077  0.6147  0.1046  -1.2177   0.0000   0.0000   0.0000   0.7217
  -1.800   0.2172   0.09588   0.09145  -0.1067  0.6122  0.1041  -1.2387   0.0000   0.0000   0.0000   0.7556
  -1.700   0.2077   0.09715   0.09276  -0.1058  0.6107  0.1042  -1.2448   0.0000   0.0000   0.0000   0.7745
  -1.600   0.2008   0.09790   0.09354  -0.1049  0.6095  0.1044  -1.2461   0.0000   0.0000   0.0000   0.7882
  -1.500   0.1954   0.09841   0.09407  -0.1041  0.6086  0.1047  -1.2446   0.0000   0.0000   0.0000   0.7988
  -1.400   0.1901   0.09895   0.09464  -0.1034  0.6079  0.1050  -1.2429   0.0000   0.0000   0.0000   0.8098
  -1.300   0.1856   0.09943   0.09514  -0.1027  0.6074  0.1053  -1.2401   0.0000   0.0000   0.0000   0.8196
  -1.200   0.1817   0.09985   0.09558  -0.1019  0.6071  0.1057  -1.2358   0.0000   0.0000   0.0000   0.8278
  -1.100   0.1785   0.10022   0.09598  -0.1013  0.6069  0.1061  -1.2305   0.0000   0.0000   0.0000   0.8344
  -1.000   0.1759   0.10056   0.09634  -0.1007  0.6068  0.1065  -1.2245   0.0000   0.0000   0.0000   0.8395
  -0.900   0.1741   0.10086   0.09666  -0.1003  0.6067  0.1070  -1.2178   0.0000   0.0000   0.0000   0.8429
  -0.800   0.1735   0.10098   0.09680  -0.0999  0.6061  0.1076  -1.2094   0.0000   0.0000   0.0000   0.8423
  -0.700   0.1743   0.10093   0.09675  -0.0996  0.6049  0.1083  -1.1995   0.0000   0.0000   0.0000   0.8374
  -0.600   0.1768   0.10073   0.09657  -0.0994  0.6034  0.1091  -1.1880   0.0000   0.0000   0.0000   0.8279
  -0.500   0.1812   0.10043   0.09626  -0.0995  0.6019  0.1101  -1.1754   0.0000   0.0000   0.0000   0.8142
  -0.400   0.0971   0.11426   0.11037  -0.0996  0.6541  0.1048  -1.3097   0.0000   0.0000   0.0000   1.3141
  -0.300   0.0980   0.11410   0.11024  -0.0993  0.6563  0.1055  -1.2966   0.0000   0.0000   0.0000   1.2996
  -0.200   0.0990   0.11380   0.10995  -0.0987  0.6564  0.1061  -1.2832   0.0000   0.0000   0.0000   1.2841
  -0.100   0.1001   0.11340   0.10957  -0.0983  0.6551  0.1068  -1.2701   0.0000   0.0000   0.0000   1.2665
   0.100   0.1703   0.10703   0.10305  -0.1023  0.6350  0.1135  -1.1617   0.0000   0.0000   0.0000   0.8674
   0.200   0.1873   0.10645   0.10245  -0.1044  0.6340  0.1159  -1.1427   0.0000   0.0000   0.0000   0.8220
   0.300   0.2063   0.10595   0.10191  -0.1071  0.6332  0.1188  -1.1259   0.0000   0.0000   0.0000   0.7817
   0.400   0.2280   0.10556   0.10146  -0.1105  0.6325  0.1224  -1.1118   0.0000   0.0000   0.0000   0.7455
   0.500   0.2571   0.10556   0.10138  -0.1159  0.6318  0.1283  -1.1034   0.0000   0.0000   0.0000   0.7096
   0.600   0.3180   0.11004   0.10556  -0.1272  0.6310  0.1369  -1.1066   0.0000   0.0000   0.0000   0.6565
   0.700   0.3417   0.10986   0.10529  -0.1308  0.6304  0.1373  -1.1012   0.0000   0.0000   0.0000   0.6381
   0.900   0.3702   0.10325   0.09875  -0.1372  0.6299  0.1438  -1.0971   0.0000   0.0000   0.0000   0.6248
   1.000   0.3838   0.10292   0.09842  -0.1380  0.6293  0.1457  -1.0710   0.0000   0.0000   0.0000   0.6134
   1.100   0.4008   0.10276   0.09824  -0.1397  0.6288  0.1474  -1.0500   0.0000   0.0000   0.0000   0.6017
   1.200   0.4213   0.10271   0.09814  -0.1422  0.6283  0.1490  -1.0341   0.0000   0.0000   0.0000   0.5903
   1.300   0.4480   0.10262   0.09795  -0.1465  0.6278  0.1493  -1.0299   0.0000   0.0000   0.0000   0.5791
   1.400   0.5480   0.09675   0.09110  -0.1698  0.6290  0.0994  -1.3694   0.0000   0.0000   0.0000   0.5609
   1.500   0.5727   0.09689   0.09100  -0.1729  0.6286  0.1010  -1.3785   0.0000   0.0000   0.0000   0.5527
   1.600   0.3762   0.10643   0.10201  -0.1385  0.6323  0.1486  -1.0568   0.0000   0.0000   0.0000   0.6214
   1.700   0.4069   0.10605   0.10151  -0.1433  0.6316  0.1488  -1.0530   0.0000   0.0000   0.0000   0.6046
   1.900   0.6371   0.08903   0.08265  -0.1742  0.5860  0.1286  -1.2546   0.0000   0.0000   0.0000   0.5220
   2.000   0.6547   0.08927   0.08266  -0.1756  0.5854  0.1344  -1.2408   0.0000   0.0000   0.0000   0.5165
   2.100   0.6744   0.08913   0.08225  -0.1780  0.5851  0.1408  -1.2265   0.0000   0.0000   0.0000   0.5120
   2.200   0.6853   0.08954   0.08276  -0.1782  0.5844  0.1485  -1.1620   0.0000   0.0000   0.0000   0.5076
   2.300   0.6941   0.09036   0.08367  -0.1774  0.5836  0.1568  -1.0914   0.0000   0.0000   0.0000   0.5030
   2.400   0.7058   0.09107   0.08436  -0.1774  0.5830  0.1659  -1.0406   0.0000   0.0000   0.0000   0.4985
   2.500   0.7209   0.09164   0.08477  -0.1782  0.5825  0.1728  -1.0511   0.0000   0.0000   0.0000   0.4941
   2.600   0.7342   0.09244   0.08545  -0.1787  0.5820  0.1776  -1.0604   0.0000   0.0000   0.0000   0.4899
   2.700   0.7465   0.09293   0.08578  -0.1802  0.5819  0.1833  -1.0655   0.0000   0.0000   0.0000   0.4877
   2.800   0.7511   0.09392   0.08676  -0.1806  0.5819  0.1875  -1.0640   0.0000   0.0000   0.0000   0.4867
   2.900   0.7512   0.09526   0.08812  -0.1805  0.5820  0.1901  -1.0579   0.0000   0.0000   0.0000   0.4864
   3.000   0.7526   0.09655   0.08943  -0.1804  0.5820  0.1930  -1.0536   0.0000   0.0000   0.0000   0.4856
   3.100   0.7586   0.09768   0.09057  -0.1804  0.5818  0.1972  -1.0549   0.0000   0.0000   0.0000   0.4836
   3.200   0.7689   0.09872   0.09159  -0.1807  0.5813  0.2029  -1.0614   0.0000   0.0000   0.0000   0.4805
   3.300   0.7805   0.09991   0.09275  -0.1809  0.5808  0.2109  -1.0695   0.0000   0.0000   0.0000   0.4771
   3.400   0.7923   0.10140   0.09420  -0.1811  0.5802  0.2201  -1.0780   0.0000   0.0000   0.0000   0.4736
   3.500   0.6402   0.10811   0.10149  -0.1737  0.5916  0.1746  -1.0266   0.0000   0.0000   0.0000   0.5178
   3.600   0.6523   0.10886   0.10213  -0.1738  0.5903  0.1787  -0.9827   0.0000   0.0000   0.0000   0.5127
   3.700   0.6723   0.10885   0.10197  -0.1761  0.5893  0.1882  -0.9381   0.0000   0.0000   0.0000   0.5079
   3.800   0.6844   0.10950   0.10263  -0.1764  0.5882  0.1942  -0.9295   0.0000   0.0000   0.0000   0.5034
   3.900   0.6970   0.11024   0.10334  -0.1767  0.5872  0.2005  -0.9404   0.0000   0.0000   0.0000   0.4989
   4.000   0.7100   0.11103   0.10411  -0.1771  0.5863  0.2081  -0.9517   0.0000   0.0000   0.0000   0.4945
   4.100   0.7228   0.11197   0.10501  -0.1773  0.5855  0.2178  -0.9631   0.0000   0.0000   0.0000   0.4901
   4.200   0.7355   0.11305   0.10603  -0.1773  0.5847  0.2254  -0.9744   0.0000   0.0000   0.0000   0.4856
   4.300   0.7538   0.11361   0.10648  -0.1789  0.5840  0.2357  -0.9892   0.0000   0.0000   0.0000   0.4815
   4.400   0.7689   0.11450   0.10736  -0.1796  0.5833  0.2432  -1.0024   0.0000   0.0000   0.0000   0.4775
   4.500   0.7837   0.11557   0.10842  -0.1801  0.5826  0.2504  -1.0155   0.0000   0.0000   0.0000   0.4735
   4.600   0.7995   0.11681   0.10961  -0.1807  0.5819  0.2583  -1.0294   0.0000   0.0000   0.0000   0.4695
   4.700   0.8171   0.11831   0.11106  -0.1815  0.5812  0.2669  -1.0454   0.0000   0.0000   0.0000   0.4652
   4.800   0.8365   0.12054   0.11322  -0.1823  0.5802  0.2753  -1.0629   0.0000   0.0000   0.0000   0.4608
   5.000   0.8530   0.12813   0.12074  -0.1836  0.5781  0.2886  -1.0680   0.0000   0.0000   0.0000   0.4577
   5.100   0.8533   0.12892   0.12155  -0.1835  0.5779  0.2940  -1.0632   0.0000   0.0000   0.0000   0.4575
   5.200   0.8467   0.12968   0.12233  -0.1830  0.5776  0.2955  -1.0510   0.0000   0.0000   0.0000   0.4583
   5.300   0.8381   0.13021   0.12289  -0.1823  0.5771  0.2962  -1.0390   0.0000   0.0000   0.0000   0.4596
   5.400   0.7450   0.12200   0.11493  -0.1747  0.5542  0.2666  -0.9406   0.0000   0.0000   0.0000   0.4767
   5.500   0.7536   0.12256   0.11544  -0.1747  0.5516  0.2722  -0.9486   0.0000   0.0000   0.0000   0.4738
   5.600   0.7628   0.12317   0.11601  -0.1747  0.5493  0.2775  -0.9574   0.0000   0.0000   0.0000   0.4708
   5.700   0.7718   0.12385   0.11666  -0.1745  0.5473  0.2819  -0.9666   0.0000   0.0000   0.0000   0.4676
   5.800   0.7862   0.12432   0.11711  -0.1756  0.5457  0.2967  -0.9795   0.0000   0.0000   0.0000   0.4646
   5.900   0.7974   0.12499   0.11780  -0.1759  0.5441  0.3061  -0.9909   0.0000   0.0000   0.0000   0.4615
   6.000   0.8093   0.12571   0.11851  -0.1761  0.5428  0.3150  -1.0028   0.0000   0.0000   0.0000   0.4583
   6.100   0.8220   0.12648   0.11925  -0.1764  0.5415  0.3231  -1.0155   0.0000   0.0000   0.0000   0.4550
   6.200   0.8352   0.12732   0.12003  -0.1767  0.5404  0.3308  -1.0288   0.0000   0.0000   0.0000   0.4517
   6.300   0.8488   0.12823   0.12089  -0.1770  0.5394  0.3373  -1.0427   0.0000   0.0000   0.0000   0.4484
   6.400   0.8634   0.12918   0.12178  -0.1774  0.5385  0.3443  -1.0574   0.0000   0.0000   0.0000   0.4451
   6.500   0.8782   0.13006   0.12261  -0.1779  0.5376  0.3573  -1.0726   0.0000   0.0000   0.0000   0.4419
   6.600   0.8931   0.13112   0.12364  -0.1782  0.5369  0.3692  -1.0882   0.0000   0.0000   0.0000   0.4387
   6.700   0.9081   0.13231   0.12481  -0.1786  0.5361  0.3828  -1.1040   0.0000   0.0000   0.0000   0.4355
   6.800   0.9235   0.13366   0.12613  -0.1790  0.5354  0.3961  -1.1203   0.0000   0.0000   0.0000   0.4324
   6.900   0.9396   0.13522   0.12766  -0.1794  0.5346  0.4085  -1.1371   0.0000   0.0000   0.0000   0.4292
   7.000   0.9564   0.13720   0.12967  -0.1799  0.5338  0.4295  -1.1545   0.0000   0.0000   0.0000   0.4262
   7.100   0.9768   0.14107   0.13356  -0.1808  0.5326  0.4520  -1.1751   0.0000   0.0000   0.0000   0.4229
   7.200   0.9735   0.14620   0.13872  -0.1810  0.5315  0.4575  -1.1630   0.0000   0.0000   0.0000   0.4237
   7.300   0.9720   0.14730   0.13983  -0.1810  0.5312  0.4648  -1.1577   0.0000   0.0000   0.0000   0.4238
   7.400   0.9651   0.14823   0.14079  -0.1807  0.5309  0.4680  -1.1468   0.0000   0.0000   0.0000   0.4247
   7.500   0.9540   0.14877   0.14136  -0.1802  0.5303  0.4679  -1.1308   0.0000   0.0000   0.0000   0.4262
   7.600   0.8663   0.14000   0.13264  -0.1752  0.5083  0.4084  -1.0263   0.0000   0.0000   0.0000   0.4398
   7.700   0.8743   0.14050   0.13317  -0.1752  0.5054  0.4241  -1.0355   0.0000   0.0000   0.0000   0.4377
   7.800   0.8832   0.14106   0.13377  -0.1753  0.5030  0.4392  -1.0459   0.0000   0.0000   0.0000   0.4354
   7.900   0.8930   0.14166   0.13438  -0.1753  0.5008  0.4555  -1.0574   0.0000   0.0000   0.0000   0.4330
   8.200   0.9240   0.14265   0.13605  -0.1749  0.4958  1.0000  -1.0955   0.0000   0.0000   0.0000   0.4253
   8.300   0.9368   0.14348   0.13677  -0.1750  0.4945  1.0000  -1.1108   0.0000   0.0000   0.0000   0.4225
   8.400   0.9501   0.14439   0.13758  -0.1751  0.4933  1.0000  -1.1270   0.0000   0.0000   0.0000   0.4197
   8.500   0.9641   0.14538   0.13849  -0.1752  0.4922  1.0000  -1.1443   0.0000   0.0000   0.0000   0.4168
   8.600   0.9790   0.14649   0.13953  -0.1754  0.4912  1.0000  -1.1628   0.0000   0.0000   0.0000   0.4140
   8.700   0.9950   0.14775   0.14072  -0.1756  0.4903  1.0000  -1.1827   0.0000   0.0000   0.0000   0.4110
   8.800   1.0121   0.14920   0.14211  -0.1759  0.4894  1.0000  -1.2041   0.0000   0.0000   0.0000   0.4081
   8.900   1.0296   0.15083   0.14368  -0.1761  0.4885  1.0000  -1.2263   0.0000   0.0000   0.0000   0.4051
   9.000   1.0482   0.15308   0.14589  -0.1764  0.4875  1.0000  -1.2498   0.0000   0.0000   0.0000   0.4020
   9.500   0.9548   0.15671   0.14980  -0.1755  0.4706  1.0000  -1.0996   0.0000   0.0000   0.0000   0.4173
   9.600   0.9589   0.15669   0.14976  -0.1753  0.4643  1.0000  -1.1063   0.0000   0.0000   0.0000   0.4160
   9.700   0.9659   0.15711   0.15015  -0.1751  0.4606  1.0000  -1.1166   0.0000   0.0000   0.0000   0.4143
   9.800   0.9741   0.15760   0.15062  -0.1750  0.4577  1.0000  -1.1286   0.0000   0.0000   0.0000   0.4124
   9.900   0.9834   0.15812   0.15111  -0.1749  0.4552  1.0000  -1.1424   0.0000   0.0000   0.0000   0.4103
  10.000   0.9939   0.15866   0.15162  -0.1747  0.4531  1.0000  -1.1581   0.0000   0.0000   0.0000   0.4079
  10.100   1.0058   0.15923   0.15216  -0.1746  0.4511  1.0000  -1.1760   0.0000   0.0000   0.0000   0.4054
  10.200   1.0193   0.15983   0.15273  -0.1744  0.4494  1.0000  -1.1965   0.0000   0.0000   0.0000   0.4026
  10.300   1.0351   0.16048   0.15334  -0.1742  0.4477  1.0000  -1.2210   0.0000   0.0000   0.0000   0.3995
  10.400   1.0562   0.16112   0.15394  -0.1739  0.4461  1.0000  -1.2543   0.0000   0.0000   0.0000   0.3955
  10.500   1.0586   0.16221   0.15499  -0.1732  0.4357  1.0000  -1.2619   0.0000   0.0000   0.0000   0.3941
  10.600   1.0592   0.16399   0.15680  -0.1735  0.4357  1.0000  -1.2587   0.0000   0.0000   0.0000   0.3942
  10.700   1.0635   0.16595   0.15877  -0.1739  0.4362  1.0000  -1.2611   0.0000   0.0000   0.0000   0.3937
  10.800   1.0723   0.16820   0.16101  -0.1742  0.4369  1.0000  -1.2705   0.0000   0.0000   0.0000   0.3924
  10.900   1.0847   0.17077   0.16358  -0.1745  0.4377  1.0000  -1.2856   0.0000   0.0000   0.0000   0.3907
  11.000   1.0984   0.17357   0.16638  -0.1749  0.4385  1.0000  -1.3025   0.0000   0.0000   0.0000   0.3888
  11.100   1.1083   0.17637   0.16918  -0.1753  0.4390  1.0000  -1.3134   0.0000   0.0000   0.0000   0.3875
  11.200   1.1126   0.17885   0.17168  -0.1757  0.4392  1.0000  -1.3148   0.0000   0.0000   0.0000   0.3870
  11.300   1.1121   0.18093   0.17379  -0.1761  0.4391  1.0000  -1.3103   0.0000   0.0000   0.0000   0.3874
  11.400   1.1087   0.18265   0.17553  -0.1765  0.4389  1.0000  -1.3024   0.0000   0.0000   0.0000   0.3881
  11.500   1.1024   0.18395   0.17686  -0.1769  0.4386  1.0000  -1.2897   0.0000   0.0000   0.0000   0.3893
  11.600   1.0580   0.17187   0.16481  -0.1756  0.4114  1.0000  -1.2322   0.0000   0.0000   0.0000   0.3946
  11.700   1.1046   0.16893   0.16176  -0.1731  0.4040  1.0000  -1.3259   0.0000   0.0000   0.0000   0.3844
  11.800   1.1567   0.16632   0.15905  -0.1711  0.4005  1.0000  -1.4266   0.0000   0.0000   0.0000   0.3748
  11.900   1.1864   0.16575   0.15844  -0.1701  0.3989  1.0000  -1.4837   0.0000   0.0000   0.0000   0.3697
  12.000   1.1049   0.17000   0.16283  -0.1730  0.3851  1.0000  -1.3322   0.0000   0.0000   0.0000   0.3835
  12.100   1.1028   0.17105   0.16390  -0.1735  0.3821  1.0000  -1.3265   0.0000   0.0000   0.0000   0.3841
  12.200   1.1033   0.17213   0.16500  -0.1738  0.3799  1.0000  -1.3254   0.0000   0.0000   0.0000   0.3842
  12.300   1.1049   0.17318   0.16607  -0.1741  0.3780  1.0000  -1.3264   0.0000   0.0000   0.0000   0.3840
  12.400   1.1077   0.17413   0.16703  -0.1744  0.3760  1.0000  -1.3296   0.0000   0.0000   0.0000   0.3836
  12.500   1.1115   0.17496   0.16787  -0.1745  0.3740  1.0000  -1.3352   0.0000   0.0000   0.0000   0.3830
  12.600   1.1167   0.17564   0.16856  -0.1746  0.3719  1.0000  -1.3437   0.0000   0.0000   0.0000   0.3821
  12.700   1.1235   0.17614   0.16905  -0.1745  0.3697  1.0000  -1.3560   0.0000   0.0000   0.0000   0.3808
  12.800   1.1324   0.17640   0.16931  -0.1743  0.3676  1.0000  -1.3730   0.0000   0.0000   0.0000   0.3790
  12.900   1.1438   0.17640   0.16932  -0.1739  0.3655  1.0000  -1.3956   0.0000   0.0000   0.0000   0.3768
  13.000   1.1577   0.17620   0.16911  -0.1733  0.3636  1.0000  -1.4240   0.0000   0.0000   0.0000   0.3741
  13.100   1.1737   0.17588   0.16878  -0.1726  0.3619  1.0000  -1.4568   0.0000   0.0000   0.0000   0.3711
  13.200   1.1911   0.17556   0.16845  -0.1719  0.3605  1.0000  -1.4926   0.0000   0.0000   0.0000   0.3679
  13.300   1.2094   0.17531   0.16820  -0.1712  0.3593  1.0000  -1.5303   0.0000   0.0000   0.0000   0.3646
  13.400   1.2267   0.17517   0.16806  -0.1705  0.3582  1.0000  -1.5660   0.0000   0.0000   0.0000   0.3616
  13.500   1.2434   0.17519   0.16808  -0.1698  0.3572  1.0000  -1.6029   0.0000   0.0000   0.0000   0.3588
  13.600   1.2543   0.17652   0.16942  -0.1692  0.3558  1.0000  -1.6284   0.0000   0.0000   0.0000   0.3569
  13.700   1.1792   0.18284   0.17584  -0.1744  0.3454  1.0000  -1.4625   0.0000   0.0000   0.0000   0.3706
  13.800   1.1727   0.18459   0.17762  -0.1754  0.3418  1.0000  -1.4469   0.0000   0.0000   0.0000   0.3722
  13.900   1.1719   0.18579   0.17885  -0.1759  0.3385  1.0000  -1.4445   0.0000   0.0000   0.0000   0.3725
  14.000   1.1745   0.18663   0.17970  -0.1761  0.3354  1.0000  -1.4500   0.0000   0.0000   0.0000   0.3722
  14.100   1.1794   0.18718   0.18026  -0.1762  0.3325  1.0000  -1.4613   0.0000   0.0000   0.0000   0.3713
  14.200   1.1861   0.18750   0.18059  -0.1761  0.3299  1.0000  -1.4771   0.0000   0.0000   0.0000   0.3701
  14.300   1.1943   0.18765   0.18076  -0.1759  0.3276  1.0000  -1.4963   0.0000   0.0000   0.0000   0.3685
  14.400   1.2035   0.18771   0.18082  -0.1756  0.3257  1.0000  -1.5181   0.0000   0.0000   0.0000   0.3668
  14.500   1.2134   0.18773   0.18085  -0.1752  0.3240  1.0000  -1.5415   0.0000   0.0000   0.0000   0.3650
  14.600   1.2247   0.18760   0.18072  -0.1747  0.3225  1.0000  -1.5684   0.0000   0.0000   0.0000   0.3629
  14.700   1.2373   0.18733   0.18047  -0.1742  0.3212  1.0000  -1.5986   0.0000   0.0000   0.0000   0.3606
  14.800   1.2510   0.18698   0.18013  -0.1735  0.3200  1.0000  -1.6316   0.0000   0.0000   0.0000   0.3581
  14.900   1.2652   0.18659   0.17975  -0.1729  0.3190  1.0000  -1.6659   0.0000   0.0000   0.0000   0.3556
  15.000   1.2791   0.18621   0.17938  -0.1722  0.3180  1.0000  -1.6998   0.0000   0.0000   0.0000   0.3532
  15.100   1.2924   0.18597   0.17915  -0.1715  0.3170  1.0000  -1.7326   0.0000   0.0000   0.0000   0.3509
  15.200   1.3029   0.18630   0.17952  -0.1710  0.3158  1.0000  -1.7592   0.0000   0.0000   0.0000   0.3490
  15.300   1.2625   0.19325   0.18649  -0.1748  0.3088  1.0000  -1.6542   0.0000   0.0000   0.0000   0.3567
  15.400   1.2390   0.19773   0.19103  -0.1774  0.3042  1.0000  -1.5898   0.0000   0.0000   0.0000   0.3616
  15.500   1.2331   0.20019   0.19353  -0.1786  0.3016  1.0000  -1.5733   0.0000   0.0000   0.0000   0.3631
  15.600   1.2307   0.20218   0.19554  -0.1794  0.2993  1.0000  -1.5661   0.0000   0.0000   0.0000   0.3640
  15.700   1.2308   0.20372   0.19711  -0.1800  0.2968  1.0000  -1.5658   0.0000   0.0000   0.0000   0.3642
  15.800   1.2331   0.20482   0.19823  -0.1804  0.2942  1.0000  -1.5723   0.0000   0.0000   0.0000   0.3640
  15.900   1.2379   0.20546   0.19889  -0.1805  0.2916  1.0000  -1.5859   0.0000   0.0000   0.0000   0.3632
  16.000   1.2450   0.20566   0.19910  -0.1803  0.2891  1.0000  -1.6065   0.0000   0.0000   0.0000   0.3619
  16.100   1.2543   0.20545   0.19892  -0.1799  0.2868  1.0000  -1.6338   0.0000   0.0000   0.0000   0.3601
  16.200   1.2655   0.20491   0.19839  -0.1793  0.2848  1.0000  -1.6668   0.0000   0.0000   0.0000   0.3579
  16.300   1.2784   0.20412   0.19761  -0.1785  0.2831  1.0000  -1.7047   0.0000   0.0000   0.0000   0.3555
  16.400   1.2925   0.20317   0.19667  -0.1777  0.2816  1.0000  -1.7463   0.0000   0.0000   0.0000   0.3528
  16.500   1.3066   0.20218   0.19570  -0.1768  0.2804  1.0000  -1.7881   0.0000   0.0000   0.0000   0.3502
  16.600   1.3207   0.20120   0.19474  -0.1759  0.2793  1.0000  -1.8300   0.0000   0.0000   0.0000   0.3476
  16.700   1.3333   0.20047   0.19403  -0.1751  0.2782  1.0000  -1.8683   0.0000   0.0000   0.0000   0.3453
  16.800   1.3438   0.20024   0.19382  -0.1744  0.2770  1.0000  -1.9009   0.0000   0.0000   0.0000   0.3434
  16.900   1.3524   0.20093   0.19459  -0.1739  0.2756  1.0000  -1.9277   0.0000   0.0000   0.0000   0.3418
  17.000   1.3030   0.21147   0.20512  -0.1798  0.2682  1.0000  -1.7761   0.0000   0.0000   0.0000   0.3519
  17.100   1.2872   0.21601   0.20970  -0.1822  0.2644  1.0000  -1.7248   0.0000   0.0000   0.0000   0.3555
  17.200   1.2817   0.21883   0.21255  -0.1835  0.2617  1.0000  -1.7045   0.0000   0.0000   0.0000   0.3570
  17.300   1.2795   0.22109   0.21484  -0.1844  0.2594  1.0000  -1.6940   0.0000   0.0000   0.0000   0.3578
  17.400   1.2791   0.22300   0.21678  -0.1851  0.2573  1.0000  -1.6891   0.0000   0.0000   0.0000   0.3582
  17.500   1.2800   0.22467   0.21848  -0.1857  0.2554  1.0000  -1.6882   0.0000   0.0000   0.0000   0.3583
  17.600   1.2819   0.22612   0.21995  -0.1861  0.2536  1.0000  -1.6938   0.0000   0.0000   0.0000   0.3582
  17.700   1.2854   0.22719   0.22104  -0.1864  0.2517  1.0000  -1.7062   0.0000   0.0000   0.0000   0.3577
  17.800   1.2914   0.22764   0.22152  -0.1863  0.2498  1.0000  -1.7274   0.0000   0.0000   0.0000   0.3567
  17.900   1.3001   0.22744   0.22139  -0.1859  0.2478  1.0000  -1.7586   0.0000   0.0000   0.0000   0.3550
  18.000   1.3115   0.22662   0.22059  -0.1852  0.2459  1.0000  -1.7997   0.0000   0.0000   0.0000   0.3527
  18.100   1.3254   0.22529   0.21927  -0.1841  0.2442  1.0000  -1.8494   0.0000   0.0000   0.0000   0.3499
  18.200   1.3397   0.22377   0.21778  -0.1831  0.2428  1.0000  -1.9013   0.0000   0.0000   0.0000   0.3471
  18.300   1.3545   0.22211   0.21613  -0.1819  0.2416  1.0000  -1.9556   0.0000   0.0000   0.0000   0.3442
  18.400   1.3672   0.22087   0.21492  -0.1809  0.2403  1.0000  -2.0035   0.0000   0.0000   0.0000   0.3417
  18.500   1.3783   0.22014   0.21421  -0.1800  0.2389  1.0000  -2.0468   0.0000   0.0000   0.0000   0.3395
  18.600   1.3621   0.22585   0.21993  -0.1823  0.2346  1.0000  -1.9934   0.0000   0.0000   0.0000   0.3429
  18.700   1.3325   0.23438   0.22850  -0.1868  0.2292  1.0000  -1.8845   0.0000   0.0000   0.0000   0.3496
  18.800   1.3221   0.23870   0.23286  -0.1888  0.2263  1.0000  -1.8450   0.0000   0.0000   0.0000   0.3522
  18.900   1.3172   0.24183   0.23602  -0.1901  0.2239  1.0000  -1.8250   0.0000   0.0000   0.0000   0.3537
  19.000   1.3149   0.24439   0.23861  -0.1911  0.2218  1.0000  -1.8143   0.0000   0.0000   0.0000   0.3545
  19.100   1.3142   0.24657   0.24082  -0.1919  0.2198  1.0000  -1.8094   0.0000   0.0000   0.0000   0.3550
  19.200   1.3147   0.24845   0.24273  -0.1925  0.2180  1.0000  -1.8092   0.0000   0.0000   0.0000   0.3551
  19.300   1.3164   0.25006   0.24436  -0.1930  0.2162  1.0000  -1.8131   0.0000   0.0000   0.0000   0.3550
  19.400   1.3191   0.25137   0.24570  -0.1933  0.2146  1.0000  -1.8214   0.0000   0.0000   0.0000   0.3547
  19.500   1.3231   0.25235   0.24670  -0.1935  0.2130  1.0000  -1.8348   0.0000   0.0000   0.0000   0.3540
  19.600   1.3287   0.25291   0.24729  -0.1934  0.2114  1.0000  -1.8564   0.0000   0.0000   0.0000   0.3530
  19.700   1.3362   0.25292   0.24733  -0.1931  0.2099  1.0000  -1.8901   0.0000   0.0000   0.0000   0.3515
  19.800   1.3462   0.25229   0.24672  -0.1924  0.2084  1.0000  -1.9344   0.0000   0.0000   0.0000   0.3495
  19.900   1.3577   0.25122   0.24567  -0.1916  0.2071  1.0000  -1.9855   0.0000   0.0000   0.0000   0.3472
  20.000   1.3705   0.24970   0.24418  -0.1905  0.2058  1.0000  -2.0433   0.0000   0.0000   0.0000   0.3445
  20.100   1.3835   0.24812   0.24262  -0.1894  0.2046  1.0000  -2.1026   0.0000   0.0000   0.0000   0.3418
  20.200   1.3933   0.24742   0.24196  -0.1885  0.2032  1.0000  -2.1508   0.0000   0.0000   0.0000   0.3397
  20.300   1.3933   0.25061   0.24516  -0.1885  0.2009  1.0000  -2.1588   0.0000   0.0000   0.0000   0.3395
  20.400   1.3654   0.25934   0.25391  -0.1933  0.1969  1.0000  -2.0384   0.0000   0.0000   0.0000   0.3462
  20.500   1.3475   0.26609   0.26069  -0.1965  0.1933  1.0000  -1.9609   0.0000   0.0000   0.0000   0.3506
  20.600   1.3388   0.27038   0.26501  -0.1984  0.1903  1.0000  -1.9241   0.0000   0.0000   0.0000   0.3529
  20.700   1.3350   0.27348   0.26814  -0.1996  0.1879  1.0000  -1.9079   0.0000   0.0000   0.0000   0.3541
  20.800   1.3328   0.27631   0.27100  -0.2005  0.1862  1.0000  -1.8975   0.0000   0.0000   0.0000   0.3549
  20.900   1.3314   0.27892   0.27365  -0.2014  0.1846  1.0000  -1.8905   0.0000   0.0000   0.0000   0.3554
  21.000   1.3308   0.28134   0.27609  -0.2021  0.1832  1.0000  -1.8867   0.0000   0.0000   0.0000   0.3558
  21.100   1.3308   0.28360   0.27838  -0.2028  0.1819  1.0000  -1.8852   0.0000   0.0000   0.0000   0.3561
  21.200   1.3312   0.28572   0.28053  -0.2033  0.1806  1.0000  -1.8859   0.0000   0.0000   0.0000   0.3562
  21.300   1.3320   0.28774   0.28257  -0.2038  0.1795  1.0000  -1.8884   0.0000   0.0000   0.0000   0.3562
  21.400   1.3331   0.28964   0.28451  -0.2043  0.1784  1.0000  -1.8925   0.0000   0.0000   0.0000   0.3561
  21.500   1.3351   0.29130   0.28620  -0.2046  0.1774  1.0000  -1.9005   0.0000   0.0000   0.0000   0.3559
  21.600   1.3428   0.29099   0.28591  -0.2041  0.1755  1.0000  -1.9379   0.0000   0.0000   0.0000   0.3542
  21.700   1.3694   0.28443   0.27938  -0.2011  0.1724  1.0000  -2.0719   0.0000   0.0000   0.0000   0.3480
  21.800   1.3882   0.28049   0.27546  -0.1990  0.1708  1.0000  -2.1671   0.0000   0.0000   0.0000   0.3438
  21.900   1.3965   0.28000   0.27515  -0.1982  0.1695  1.0000  -2.2195   0.0000   0.0000   0.0000   0.3418
  22.000   1.3990   0.28219   0.27738  -0.1980  0.1681  1.0000  -2.2430   0.0000   0.0000   0.0000   0.3410
  22.100   1.3864   0.28904   0.28423  -0.2000  0.1665  1.0000  -2.1855   0.0000   0.0000   0.0000   0.3438
  22.200   1.3749   0.29457   0.28964  -0.2024  0.1652  1.0000  -2.1281   0.0000   0.0000   0.0000   0.3468
  22.300   1.3642   0.30005   0.29516  -0.2045  0.1638  1.0000  -2.0746   0.0000   0.0000   0.0000   0.3496
  22.400   1.3514   0.30602   0.30116  -0.2068  0.1624  1.0000  -2.0119   0.0000   0.0000   0.0000   0.3528
  22.500   1.3402   0.31136   0.30653  -0.2088  0.1607  1.0000  -1.9588   0.0000   0.0000   0.0000   0.3555
  22.600   1.3321   0.31586   0.31106  -0.2103  0.1588  1.0000  -1.9210   0.0000   0.0000   0.0000   0.3575
  22.700   1.3264   0.31965   0.31488  -0.2114  0.1569  1.0000  -1.8960   0.0000   0.0000   0.0000   0.3589
  22.800   1.3221   0.32314   0.31840  -0.2123  0.1556  1.0000  -1.8775   0.0000   0.0000   0.0000   0.3600
  22.900   1.3174   0.32697   0.32227  -0.2131  0.1559  1.0000  -1.8560   0.0000   0.0000   0.0000   0.3610
  23.000   1.3126   0.33089   0.32622  -0.2137  0.1570  1.0000  -1.8340   0.0000   0.0000   0.0000   0.3619
  23.100   1.3086   0.33459   0.32997  -0.2141  0.1590  1.0000  -1.8174   0.0000   0.0000   0.0000   0.3626
  23.200   1.3075   0.33770   0.33312  -0.2140  0.1614  1.0000  -1.8159   0.0000   0.0000   0.0000   0.3624
  23.300   1.3128   0.34012   0.33558  -0.2132  0.1638  1.0000  -1.8438   0.0000   0.0000   0.0000   0.3608
  23.500   1.1957   0.34203   0.33804  -0.1962  0.1671  1.0000  -1.6018   0.0000   0.0000   0.0000   0.3641
  23.600   1.1756   0.34101   0.33709  -0.1950  0.1669  1.0000  -1.5453   0.0000   0.0000   0.0000   0.3661
  23.700   1.1545   0.33934   0.33550  -0.1941  0.1667  1.0000  -1.4832   0.0000   0.0000   0.0000   0.3685
  23.800   1.1279   0.33588   0.33210  -0.1931  0.1663  1.0000  -1.4029   0.0000   0.0000   0.0000   0.3719
  23.900   1.0942   0.33024   0.32652  -0.1927  0.1651  1.0000  -1.2951   0.0000   0.0000   0.0000   0.3773
  24.000   1.0700   0.32843   0.32474  -0.1948  0.1573  1.0000  -1.1985   0.0000   0.0000   0.0000   0.3836
  24.100   1.0669   0.32875   0.32508  -0.1949  0.1534  1.0000  -1.1899   0.0000   0.0000   0.0000   0.3840
  24.200   1.0655   0.32885   0.32521  -0.1949  0.1502  1.0000  -1.1895   0.0000   0.0000   0.0000   0.3839
  24.300   1.0654   0.32879   0.32518  -0.1947  0.1474  1.0000  -1.1960   0.0000   0.0000   0.0000   0.3834
  24.400   1.0669   0.32855   0.32496  -0.1943  0.1449  1.0000  -1.2100   0.0000   0.0000   0.0000   0.3825
  24.500   1.0702   0.32816   0.32460  -0.1938  0.1427  1.0000  -1.2355   0.0000   0.0000   0.0000   0.3810
  24.600   1.0758   0.32776   0.32435  -0.1932  0.1408  1.0000  -1.2785   0.0000   0.0000   0.0000   0.3789
  24.700   1.0843   0.32778   0.32441  -0.1923  0.1392  1.0000  -1.3343   0.0000   0.0000   0.0000   0.3761
  24.800   1.0956   0.32919   0.32585  -0.1915  0.1380  1.0000  -1.3972   0.0000   0.0000   0.0000   0.3730
  24.900   1.1099   0.33383   0.33052  -0.1910  0.1368  1.0000  -1.4630   0.0000   0.0000   0.0000   0.3697
  25.000   1.1045   0.33952   0.33621  -0.1911  0.1359  1.0000  -1.4395   0.0000   0.0000   0.0000   0.3706
  25.100   1.0992   0.34001   0.33674  -0.1913  0.1358  1.0000  -1.4242   0.0000   0.0000   0.0000   0.3715
  25.200   1.0940   0.34039   0.33715  -0.1914  0.1357  1.0000  -1.4084   0.0000   0.0000   0.0000   0.3723
  25.300   1.0879   0.34045   0.33724  -0.1916  0.1356  1.0000  -1.3892   0.0000   0.0000   0.0000   0.3733
  25.400   1.0791   0.33979   0.33661  -0.1917  0.1354  1.0000  -1.3599   0.0000   0.0000   0.0000   0.3749
  25.500   1.0681   0.33838   0.33523  -0.1919  0.1351  1.0000  -1.3219   0.0000   0.0000   0.0000   0.3769
  25.600   1.0555   0.33645   0.33333  -0.1922  0.1347  1.0000  -1.2760   0.0000   0.0000   0.0000   0.3794
  25.700   1.0410   0.33438   0.33127  -0.1931  0.1337  1.0000  -1.2163   0.0000   0.0000   0.0000   0.3829
  25.800   1.0288   0.33483   0.33173  -0.1953  0.1284  1.0000  -1.1497   0.0000   0.0000   0.0000   0.3873
  25.900   1.0265   0.33558   0.33250  -0.1958  0.1244  1.0000  -1.1416   0.0000   0.0000   0.0000   0.3880
  26.000   1.0254   0.33601   0.33296  -0.1959  0.1215  1.0000  -1.1418   0.0000   0.0000   0.0000   0.3880
  26.100   1.0249   0.33628   0.33326  -0.1960  0.1191  1.0000  -1.1456   0.0000   0.0000   0.0000   0.3879
  26.200   1.0248   0.33646   0.33346  -0.1960  0.1171  1.0000  -1.1522   0.0000   0.0000   0.0000   0.3876
  26.300   1.0250   0.33656   0.33358  -0.1959  0.1155  1.0000  -1.1612   0.0000   0.0000   0.0000   0.3871
  26.400   1.0256   0.33660   0.33365  -0.1957  0.1141  1.0000  -1.1723   0.0000   0.0000   0.0000   0.3865
  26.500   1.0266   0.33662   0.33370  -0.1955  0.1129  1.0000  -1.1854   0.0000   0.0000   0.0000   0.3857
  26.600   1.0279   0.33666   0.33376  -0.1953  0.1119  1.0000  -1.2008   0.0000   0.0000   0.0000   0.3849
  26.700   1.0297   0.33677   0.33390  -0.1950  0.1110  1.0000  -1.2184   0.0000   0.0000   0.0000   0.3838
  26.800   1.0321   0.33709   0.33424  -0.1946  0.1102  1.0000  -1.2389   0.0000   0.0000   0.0000   0.3826
  26.900   1.0367   0.33791   0.33510  -0.1940  0.1094  1.0000  -1.2700   0.0000   0.0000   0.0000   0.3808
  27.000   1.0491   0.34223   0.33946  -0.1932  0.1082  1.0000  -1.3313   0.0000   0.0000   0.0000   0.3771
  27.100   1.0481   0.34835   0.34557  -0.1933  0.1072  1.0000  -1.3147   0.0000   0.0000   0.0000   0.3773
  27.200   1.0436   0.34819   0.34543  -0.1936  0.1071  1.0000  -1.2946   0.0000   0.0000   0.0000   0.3783
  27.300   1.0363   0.34724   0.34449  -0.1940  0.1069  1.0000  -1.2634   0.0000   0.0000   0.0000   0.3798
  27.400   1.0278   0.34588   0.34315  -0.1944  0.1067  1.0000  -1.2267   0.0000   0.0000   0.0000   0.3817


