xflr5 v6.61

 Calculated polar for: EPPLER E854 AIRFOIL

 1 1 Reynolds number fixed          Mach number fixed         

 xtrf =   1.000 (top)        1.000 (bottom)
 Mach =   0.000     Re =     0.100 e 6     Ncrit =   9.000

  alpha     CL        CD       CDp       Cm    Top Xtr Bot Xtr   Cpmin    Chinge    XCp    
 ------- -------- --------- --------- -------- ------- ------- -------- --------- ---------
 -10.000  -0.3566   0.11007   0.10523  -0.0419  1.0000  0.1033  -1.8094   0.0000   0.0000   0.0000   0.1187
  -9.900  -0.3578   0.10893   0.10412  -0.0422  1.0000  0.1053  -1.8208   0.0000   0.0000   0.0000   0.1184
  -9.800  -0.3598   0.10781   0.10303  -0.0426  1.0000  0.1072  -1.8379   0.0000   0.0000   0.0000   0.1181
  -9.700  -0.3629   0.10675   0.10201  -0.0432  1.0000  0.1090  -1.8612   0.0000   0.0000   0.0000   0.1177
  -9.600  -0.3672   0.10585   0.10114  -0.0441  1.0000  0.1108  -1.8914   0.0000   0.0000   0.0000   0.1172
  -9.500  -0.3735   0.10522   0.10057  -0.0452  1.0000  0.1125  -1.9312   0.0000   0.0000   0.0000   0.1167
  -9.400  -0.3814   0.10523   0.10063  -0.0464  1.0000  0.1142  -1.9751   0.0000   0.0000   0.0000   0.1163
  -9.300  -0.3872   0.10505   0.10050  -0.0472  1.0000  0.1150  -2.0059   0.0000   0.0000   0.0000   0.1165
  -9.200  -0.3921   0.10428   0.09978  -0.0477  1.0000  0.1154  -2.0317   0.0000   0.0000   0.0000   0.1171
  -9.100  -0.3970   0.10330   0.09883  -0.0480  1.0000  0.1156  -2.0567   0.0000   0.0000   0.0000   0.1180
  -9.000  -0.4021   0.10219   0.09777  -0.0483  1.0000  0.1157  -2.0820   0.0000   0.0000   0.0000   0.1192
  -8.900  -0.4077   0.10103   0.09665  -0.0485  1.0000  0.1158  -2.1080   0.0000   0.0000   0.0000   0.1207
  -8.800  -0.4140   0.09984   0.09550  -0.0486  1.0000  0.1159  -2.1350   0.0000   0.0000   0.0000   0.1226
  -8.700  -0.4212   0.09867   0.09437  -0.0486  1.0000  0.1160  -2.1630   0.0000   0.0000   0.0000   0.1249
  -8.500  -0.3896   0.09092   0.08659  -0.0430  1.0000  0.1258  -1.9943   0.0000   0.0000   0.0000   0.1290
  -8.400  -0.3879   0.09002   0.08571  -0.0422  1.0000  0.1275  -1.9790   0.0000   0.0000   0.0000   0.1309
  -8.300  -0.3890   0.08904   0.08476  -0.0416  1.0000  0.1288  -1.9779   0.0000   0.0000   0.0000   0.1329
  -8.200  -0.3917   0.08803   0.08379  -0.0411  1.0000  0.1299  -1.9834   0.0000   0.0000   0.0000   0.1352
  -8.100  -0.3955   0.08702   0.08283  -0.0405  1.0000  0.1309  -1.9932   0.0000   0.0000   0.0000   0.1378
  -8.000  -0.4004   0.08604   0.08188  -0.0399  1.0000  0.1316  -2.0060   0.0000   0.0000   0.0000   0.1408
  -7.900  -0.4697   0.07683   0.07279  -0.0478  1.0000  0.0800  -2.6006   0.0000   0.0000   0.0000   0.1398
  -7.800  -0.4776   0.07534   0.07134  -0.0469  1.0000  0.0780  -2.6261   0.0000   0.0000   0.0000   0.1436
  -7.700  -0.4874   0.07381   0.06985  -0.0466  1.0000  0.0763  -2.6637   0.0000   0.0000   0.0000   0.1464
  -7.600  -0.4983   0.07221   0.06829  -0.0466  1.0000  0.0747  -2.7097   0.0000   0.0000   0.0000   0.1487
  -7.500  -0.5098   0.07053   0.06662  -0.0468  1.0000  0.0730  -2.7635   0.0000   0.0000   0.0000   0.1507
  -7.400  -0.5221   0.06868   0.06476  -0.0469  1.0000  0.0710  -2.8293   0.0000   0.0000   0.0000   0.1528
  -7.300  -0.5352   0.06660   0.06265  -0.0474  1.0000  0.0691  -2.9090   0.0000   0.0000   0.0000   0.1544
  -7.200  -0.5516   0.06273   0.05836  -0.0496  1.0000  0.0558  -3.2196   0.0000   0.0000   0.0000   0.1530
  -7.100  -0.5569   0.06092   0.05652  -0.0494  1.0000  0.0550  -3.2506   0.0000   0.0000   0.0000   0.1543
  -7.000  -0.5611   0.05921   0.05477  -0.0493  1.0000  0.0543  -3.2786   0.0000   0.0000   0.0000   0.1552
  -6.900  -0.5604   0.05688   0.05235  -0.0505  0.9990  0.0533  -3.3108   0.0000   0.0000   0.0000   0.1531
  -6.800  -0.5511   0.05359   0.04887  -0.0538  0.9961  0.0518  -3.3509   0.0000   0.0000   0.0000   0.1455
  -6.700  -0.5408   0.05070   0.04577  -0.0566  0.9928  0.0509  -3.3820   0.0000   0.0000   0.0000   0.1385
  -6.600  -0.5288   0.04818   0.04302  -0.0592  0.9898  0.0506  -3.3989   0.0000   0.0000   0.0000   0.1311
  -6.500  -0.5149   0.04600   0.04061  -0.0616  0.9874  0.0510  -3.3993   0.0000   0.0000   0.0000   0.1232
  -6.400  -0.5025   0.04420   0.03859  -0.0634  0.9842  0.0517  -3.3903   0.0000   0.0000   0.0000   0.1167
  -6.300  -0.4896   0.04253   0.03670  -0.0650  0.9808  0.0525  -3.3769   0.0000   0.0000   0.0000   0.1099
  -6.200  -0.4755   0.04085   0.03479  -0.0667  0.9779  0.0532  -3.3629   0.0000   0.0000   0.0000   0.1023
  -6.100  -0.4604   0.03911   0.03280  -0.0685  0.9755  0.0536  -3.3515   0.0000   0.0000   0.0000   0.0938
  -6.000  -0.4444   0.03730   0.03074  -0.0702  0.9736  0.0537  -3.3438   0.0000   0.0000   0.0000   0.0844
  -5.900  -0.4290   0.03565   0.02883  -0.0717  0.9717  0.0539  -3.3337   0.0000   0.0000   0.0000   0.0752
  -5.800  -0.4176   0.03434   0.02732  -0.0722  0.9680  0.0543  -3.3209   0.0000   0.0000   0.0000   0.0693
  -5.700  -0.4038   0.03309   0.02587  -0.0730  0.9648  0.0549  -3.3002   0.0000   0.0000   0.0000   0.0613
  -5.600  -0.3886   0.03199   0.02457  -0.0739  0.9620  0.0559  -3.2780   0.0000   0.0000   0.0000   0.0516
  -5.500  -0.3721   0.03110   0.02349  -0.0750  0.9595  0.0572  -3.2624   0.0000   0.0000   0.0000   0.0401
  -5.400  -0.3552   0.03008   0.02231  -0.0762  0.9574  0.0588  -3.2494   0.0000   0.0000   0.0000   0.0271
  -5.300  -0.3417   0.02768   0.01981  -0.0773  0.9564  0.0643  -3.2667   0.0000   0.0000   0.0000   0.0151
  -5.200  -0.3238   0.02724   0.01945  -0.0791  0.9544  0.0724  -3.1743   0.0000   0.0000   0.0000  -0.0032
  -5.100  -0.3089   0.02667   0.01880  -0.0798  0.9515  0.0783  -3.1362   0.0000   0.0000   0.0000  -0.0174
  -5.000  -0.2983   0.02611   0.01815  -0.0796  0.9468  0.0824  -3.1128   0.0000   0.0000   0.0000  -0.0262
  -4.900  -0.2847   0.02507   0.01705  -0.0800  0.9436  0.0879  -3.0950   0.0000   0.0000   0.0000  -0.0404
  -4.800  -0.2707   0.02406   0.01616  -0.0809  0.9406  0.0993  -3.0403   0.0000   0.0000   0.0000  -0.0584
  -4.700  -0.2534   0.02379   0.01583  -0.0823  0.9374  0.1140  -2.9472   0.0000   0.0000   0.0000  -0.0847
  -4.600  -0.2374   0.02264   0.01484  -0.0833  0.9353  0.1320  -2.8943   0.0000   0.0000   0.0000  -0.1114
  -4.500  -0.2193   0.02187   0.01408  -0.0847  0.9332  0.1581  -2.8205   0.0000   0.0000   0.0000  -0.1474
  -4.400  -0.2013   0.02060   0.01328  -0.0868  0.9316  0.2263  -2.7390   0.0000   0.0000   0.0000  -0.1929
  -4.300  -0.1844   0.01980   0.01353  -0.0884  0.9300  0.4186  -2.6325   0.0000   0.0000   0.0000  -0.2418
  -4.200  -0.1793   0.02005   0.01390  -0.0870  0.9238  0.4564  -2.5591   0.0000   0.0000   0.0000  -0.2473
  -4.100  -0.1691   0.02026   0.01407  -0.0866  0.9185  0.4814  -2.4636   0.0000   0.0000   0.0000  -0.2744
  -4.000  -0.1573   0.02053   0.01437  -0.0862  0.9145  0.5001  -2.3567   0.0000   0.0000   0.0000  -0.3111
  -3.900  -0.1426   0.02084   0.01450  -0.0865  0.9110  0.5199  -2.2392   0.0000   0.0000   0.0000  -0.3706
  -3.800  -0.1283   0.02099   0.01466  -0.0866  0.9082  0.5355  -2.1229   0.0000   0.0000   0.0000  -0.4399
  -3.700  -0.1140   0.02125   0.01496  -0.0865  0.9057  0.5488  -2.0052   0.0000   0.0000   0.0000  -0.5248
  -3.600  -0.0976   0.02147   0.01512  -0.0869  0.9037  0.5618  -1.8829   0.0000   0.0000   0.0000  -0.6591
  -3.500  -0.0793   0.02167   0.01521  -0.0880  0.9020  0.5744  -1.7564   0.0000   0.0000   0.0000  -0.8809
  -3.400  -0.0615   0.02168   0.01514  -0.0890  0.9006  0.5849  -1.6344   0.0000   0.0000   0.0000  -1.2251
  -3.300  -0.0664   0.02180   0.01524  -0.0861  0.8921  0.5891  -1.6104   0.0000   0.0000   0.0000  -1.0715
  -3.200  -0.0582   0.02191   0.01537  -0.0852  0.8876  0.5961  -1.5294   0.0000   0.0000   0.0000  -1.2401
  -3.100  -0.0474   0.02203   0.01548  -0.0847  0.8838  0.6039  -1.4388   0.0000   0.0000   0.0000  -1.5678
  -3.000  -0.0344   0.02212   0.01553  -0.0847  0.8808  0.6126  -1.3412   0.0000   0.0000   0.0000  -2.2564
  -2.900  -0.0193   0.02218   0.01553  -0.0852  0.8782  0.6217  -1.2385   0.0000   0.0000   0.0000  -4.2350
  -2.800  -0.0026   0.02229   0.01554  -0.0860  0.8760  0.6304  -1.1318   0.0000   0.0000   0.0000  -33.2519
  -2.700   0.0132   0.02211   0.01532  -0.0867  0.8742  0.6389  -1.0306   0.0000   0.0000   0.0000   6.9092
  -2.600   0.0272   0.02202   0.01524  -0.0866  0.8725  0.6469  -0.9358   0.0000   0.0000   0.0000   3.4852
  -2.500   0.0424   0.02203   0.01525  -0.0867  0.8710  0.6547  -0.8392   0.0000   0.0000   0.0000   2.3250
  -2.400   0.0593   0.02203   0.01521  -0.0874  0.8697  0.6625  -0.7746   0.0000   0.0000   0.0000   1.7424
  -2.300   0.0779   0.02200   0.01512  -0.0885  0.8684  0.6700  -0.7201   0.0000   0.0000   0.0000   1.4009
  -2.200   0.0762   0.02220   0.01530  -0.0865  0.8614  0.6744  -0.7048   0.0000   0.0000   0.0000   1.3987
  -2.100   0.0805   0.02231   0.01537  -0.0855  0.8553  0.6790  -0.6785   0.0000   0.0000   0.0000   1.3236
  -2.000   0.0929   0.02232   0.01531  -0.0858  0.8513  0.6837  -0.6376   0.0000   0.0000   0.0000   1.1838
  -1.900   0.1086   0.02229   0.01521  -0.0868  0.8481  0.6872  -0.5951   0.0000   0.0000   0.0000   1.0577
  -1.800   0.1233   0.02188   0.01477  -0.0875  0.8455  0.6921  -0.5615   0.0000   0.0000   0.0000   0.9667
  -1.700   0.1387   0.02165   0.01451  -0.0882  0.8431  0.6960  -0.5349   0.0000   0.0000   0.0000   0.8915
  -1.600   0.1542   0.02147   0.01430  -0.0888  0.8409  0.7001  -0.5436   0.0000   0.0000   0.0000   0.8306
  -1.500   0.1700   0.02131   0.01408  -0.0894  0.8388  0.7044  -0.5532   0.0000   0.0000   0.0000   0.7800
  -1.400   0.1865   0.02117   0.01391  -0.0902  0.8369  0.7089  -0.5633   0.0000   0.0000   0.0000   0.7369
  -1.300   0.2037   0.02104   0.01373  -0.0912  0.8352  0.7135  -0.5736   0.0000   0.0000   0.0000   0.7005
  -1.200   0.2213   0.02092   0.01356  -0.0924  0.8335  0.7177  -0.5840   0.0000   0.0000   0.0000   0.6697
  -1.100   0.2393   0.02082   0.01341  -0.0937  0.8318  0.7216  -0.5945   0.0000   0.0000   0.0000   0.6435
  -1.000   0.2522   0.02083   0.01338  -0.0943  0.8291  0.7252  -0.6019   0.0000   0.0000   0.0000   0.6253
  -0.900   0.2496   0.02110   0.01365  -0.0923  0.8227  0.7282  -0.5998   0.0000   0.0000   0.0000   0.6211
  -0.800   0.2557   0.02122   0.01375  -0.0918  0.8179  0.7314  -0.6030   0.0000   0.0000   0.0000   0.6099
  -0.700   0.2659   0.02127   0.01376  -0.0919  0.8141  0.7345  -0.6087   0.0000   0.0000   0.0000   0.5964
  -0.600   0.2784   0.02128   0.01373  -0.0924  0.8108  0.7374  -0.6158   0.0000   0.0000   0.0000   0.5825
  -0.500   0.2912   0.02117   0.01360  -0.0929  0.8079  0.7407  -0.6233   0.0000   0.0000   0.0000   0.5693
  -0.400   0.3033   0.02101   0.01343  -0.0931  0.8053  0.7448  -0.6306   0.0000   0.0000   0.0000   0.5570
  -0.300   0.3158   0.02090   0.01330  -0.0932  0.8029  0.7490  -0.6383   0.0000   0.0000   0.0000   0.5451
  -0.200   0.3291   0.02081   0.01320  -0.0934  0.8008  0.7533  -0.6464   0.0000   0.0000   0.0000   0.5338
  -0.100   0.3430   0.02073   0.01311  -0.0938  0.7987  0.7578  -0.6549   0.0000   0.0000   0.0000   0.5232
   0.000   0.3575   0.02066   0.01303  -0.0944  0.7968  0.7624  -0.6638   0.0000   0.0000   0.0000   0.5134
   0.100   0.3727   0.02061   0.01295  -0.0950  0.7949  0.7670  -0.6729   0.0000   0.0000   0.0000   0.5043
   0.200   0.3882   0.02058   0.01290  -0.0959  0.7930  0.7715  -0.6822   0.0000   0.0000   0.0000   0.4961
   0.300   0.4037   0.02062   0.01290  -0.0968  0.7909  0.7756  -0.6914   0.0000   0.0000   0.0000   0.4887
   0.400   0.4111   0.02081   0.01309  -0.0965  0.7878  0.7795  -0.6950   0.0000   0.0000   0.0000   0.4836
   0.500   0.4138   0.02107   0.01336  -0.0955  0.7837  0.7833  -0.6955   0.0000   0.0000   0.0000   0.4795
   0.600   0.4191   0.02130   0.01359  -0.0949  0.7797  0.7868  -0.6978   0.0000   0.0000   0.0000   0.4751
   0.700   0.4248   0.02138   0.01369  -0.0942  0.7757  0.7909  -0.7005   0.0000   0.0000   0.0000   0.4703
   0.800   0.4318   0.02141   0.01374  -0.0935  0.7720  0.7953  -0.7045   0.0000   0.0000   0.0000   0.4650
   0.900   0.4406   0.02141   0.01375  -0.0931  0.7687  0.7998  -0.7097   0.0000   0.0000   0.0000   0.4596
   1.000   0.4510   0.02139   0.01373  -0.0929  0.7656  0.8046  -0.7160   0.0000   0.0000   0.0000   0.4542
   1.100   0.4627   0.02134   0.01369  -0.0929  0.7629  0.8097  -0.7232   0.0000   0.0000   0.0000   0.4490
   1.200   0.4754   0.02127   0.01362  -0.0932  0.7603  0.8151  -0.7321   0.0000   0.0000   0.0000   0.4439
   1.300   0.4893   0.02120   0.01354  -0.0936  0.7580  0.8207  -0.7417   0.0000   0.0000   0.0000   0.4392
   1.400   0.5038   0.02115   0.01348  -0.0942  0.7559  0.8264  -0.7516   0.0000   0.0000   0.0000   0.4348
   1.500   0.5187   0.02113   0.01344  -0.0950  0.7539  0.8322  -0.7616   0.0000   0.0000   0.0000   0.4307
   1.600   0.5311   0.02108   0.01340  -0.0951  0.7520  0.8385  -0.7704   0.0000   0.0000   0.0000   0.4265
   1.700   0.5426   0.02109   0.01343  -0.0949  0.7500  0.8453  -0.7786   0.0000   0.0000   0.0000   0.4224
   1.800   0.5539   0.02122   0.01357  -0.0949  0.7479  0.8528  -0.7864   0.0000   0.0000   0.0000   0.4186
   1.900   0.5596   0.02148   0.01385  -0.0941  0.7452  0.8611  -0.7902   0.0000   0.0000   0.0000   0.4154
   2.000   0.5611   0.02176   0.01418  -0.0928  0.7420  0.8701  -0.7908   0.0000   0.0000   0.0000   0.4126
   2.100   0.5626   0.02203   0.01452  -0.0915  0.7385  0.8791  -0.7915   0.0000   0.0000   0.0000   0.4097
   2.200   0.5640   0.02226   0.01481  -0.0900  0.7350  0.8895  -0.7923   0.0000   0.0000   0.0000   0.4066
   2.300   0.5681   0.02247   0.01506  -0.0890  0.7316  0.9015  -0.7948   0.0000   0.0000   0.0000   0.4036
   2.400   0.5749   0.02263   0.01527  -0.0886  0.7286  0.9145  -0.7998   0.0000   0.0000   0.0000   0.4008
   2.500   0.5851   0.02273   0.01542  -0.0886  0.7257  0.9300  -0.8073   0.0000   0.0000   0.0000   0.3981
   2.600   0.6013   0.02280   0.01553  -0.0899  0.7232  0.9492  -0.8186   0.0000   0.0000   0.0000   0.3960
   2.700   0.6236   0.02282   0.01559  -0.0924  0.7210  0.9784  -0.8335   0.0000   0.0000   0.0000   0.3946
   2.800   0.6404   0.02291   0.01567  -0.0941  0.7186  1.0000  -0.8462   0.0000   0.0000   0.0000   0.3933
   2.900   0.6569   0.02298   0.01572  -0.0955  0.7163  1.0000  -0.8594   0.0000   0.0000   0.0000   0.3917
   3.000   0.6739   0.02300   0.01573  -0.0970  0.7141  1.0000  -0.8732   0.0000   0.0000   0.0000   0.3901
   3.100   0.6913   0.02299   0.01574  -0.0983  0.7119  1.0000  -0.8875   0.0000   0.0000   0.0000   0.3884
   3.200   0.7090   0.02297   0.01570  -0.0997  0.7099  1.0000  -0.9026   0.0000   0.0000   0.0000   0.3866
   3.300   0.7267   0.02297   0.01568  -0.1010  0.7078  1.0000  -0.9191   0.0000   0.0000   0.0000   0.3848
   3.400   0.7437   0.02303   0.01572  -0.1021  0.7057  1.0000  -0.9367   0.0000   0.0000   0.0000   0.3831
   3.500   0.7596   0.02325   0.01592  -0.1031  0.7034  1.0000  -0.9548   0.0000   0.0000   0.0000   0.3815
   3.600   0.7713   0.02374   0.01641  -0.1036  0.7008  1.0000  -0.9713   0.0000   0.0000   0.0000   0.3800
   3.700   0.7747   0.02418   0.01687  -0.1030  0.6982  1.0000  -0.9811   0.0000   0.0000   0.0000   0.3785
   3.800   0.7771   0.02471   0.01743  -0.1022  0.6949  1.0000  -0.9900   0.0000   0.0000   0.0000   0.3770
   3.900   0.7795   0.02527   0.01801  -0.1015  0.6914  1.0000  -1.0002   0.0000   0.0000   0.0000   0.3755
   4.000   0.7833   0.02578   0.01854  -0.1008  0.6876  1.0000  -1.0131   0.0000   0.0000   0.0000   0.3740
   4.100   0.7895   0.02616   0.01895  -0.1004  0.6840  1.0000  -1.0291   0.0000   0.0000   0.0000   0.3723
   4.200   0.7983   0.02642   0.01922  -0.1003  0.6806  1.0000  -1.0485   0.0000   0.0000   0.0000   0.3707
   4.300   0.8089   0.02657   0.01938  -0.1003  0.6774  1.0000  -1.0703   0.0000   0.0000   0.0000   0.3690
   4.400   0.8203   0.02667   0.01950  -0.1004  0.6743  1.0000  -1.0933   0.0000   0.0000   0.0000   0.3672
   4.500   0.8329   0.02671   0.01962  -0.1006  0.6716  1.0000  -1.1191   0.0000   0.0000   0.0000   0.3655
   4.600   0.8464   0.02671   0.01964  -0.1009  0.6691  1.0000  -1.1508   0.0000   0.0000   0.0000   0.3639
   4.700   0.8606   0.02669   0.01963  -0.1013  0.6668  1.0000  -1.1837   0.0000   0.0000   0.0000   0.3622
   4.800   0.8754   0.02663   0.01960  -0.1017  0.6646  1.0000  -1.2179   0.0000   0.0000   0.0000   0.3606
   4.900   0.8915   0.02653   0.01952  -0.1023  0.6623  1.0000  -1.2542   0.0000   0.0000   0.0000   0.3590
   5.000   0.9083   0.02645   0.01945  -0.1029  0.6601  1.0000  -1.2934   0.0000   0.0000   0.0000   0.3575
   5.100   0.9250   0.02648   0.01949  -0.1036  0.6576  1.0000  -1.3408   0.0000   0.0000   0.0000   0.3561
   5.200   0.9391   0.02694   0.01996  -0.1041  0.6542  1.0000  -1.3836   0.0000   0.0000   0.0000   0.3548
   5.300   0.9395   0.02739   0.02047  -0.1028  0.6510  1.0000  -1.4006   0.0000   0.0000   0.0000   0.3533
   5.400   0.9383   0.02797   0.02111  -0.1014  0.6469  1.0000  -1.4145   0.0000   0.0000   0.0000   0.3518
   5.500   0.9387   0.02851   0.02170  -0.1001  0.6421  1.0000  -1.4315   0.0000   0.0000   0.0000   0.3503
   5.600   0.9434   0.02884   0.02207  -0.0993  0.6374  1.0000  -1.4572   0.0000   0.0000   0.0000   0.3488
   5.700   0.9532   0.02888   0.02216  -0.0990  0.6331  1.0000  -1.4933   0.0000   0.0000   0.0000   0.3473
   5.800   0.9653   0.02876   0.02207  -0.0989  0.6289  1.0000  -1.5345   0.0000   0.0000   0.0000   0.3458
   5.900   0.9808   0.02842   0.02177  -0.0991  0.6249  1.0000  -1.5988   0.0000   0.0000   0.0000   0.3443
   6.000   0.9989   0.02790   0.02128  -0.0996  0.6211  1.0000  -1.6713   0.0000   0.0000   0.0000   0.3427
   6.100   1.0212   0.02714   0.02054  -0.1004  0.6172  1.0000  -1.7563   0.0000   0.0000   0.0000   0.3413
   6.200   1.0454   0.02638   0.01978  -0.1016  0.6130  1.0000  -1.8534   0.0000   0.0000   0.0000   0.3400
   6.300   1.0678   0.02601   0.01951  -0.1027  0.6077  1.0000  -1.9807   0.0000   0.0000   0.0000   0.3388
   6.400   1.0737   0.02626   0.01982  -0.1018  0.6031  1.0000  -2.0495   0.0000   0.0000   0.0000   0.3374
   6.500   1.0766   0.02642   0.02007  -0.1005  0.5982  1.0000  -2.1077   0.0000   0.0000   0.0000   0.3358
   6.600   1.0806   0.02656   0.02028  -0.0994  0.5926  1.0000  -2.1790   0.0000   0.0000   0.0000   0.3343
   6.700   1.0877   0.02654   0.02033  -0.0986  0.5869  1.0000  -2.2681   0.0000   0.0000   0.0000   0.3328
   6.800   1.0995   0.02629   0.02013  -0.0983  0.5812  1.0000  -2.3828   0.0000   0.0000   0.0000   0.3314
   6.900   1.1158   0.02577   0.01964  -0.0985  0.5755  1.0000  -2.5243   0.0000   0.0000   0.0000   0.3301
   7.000   1.1349   0.02513   0.01901  -0.0990  0.5698  1.0000  -2.6841   0.0000   0.0000   0.0000   0.3290
   7.100   1.1555   0.02449   0.01835  -0.0997  0.5637  1.0000  -2.8551   0.0000   0.0000   0.0000   0.3279
   7.200   1.1736   0.02431   0.01815  -0.1003  0.5564  1.0000  -3.0141   0.0000   0.0000   0.0000   0.3270
   7.300   1.1757   0.02438   0.01833  -0.0988  0.5513  1.0000  -3.0848   0.0000   0.0000   0.0000   0.3254
   7.400   1.1800   0.02439   0.01844  -0.0975  0.5447  1.0000  -3.1679   0.0000   0.0000   0.0000   0.3238
   7.500   1.1877   0.02424   0.01837  -0.0966  0.5373  1.0000  -3.2723   0.0000   0.0000   0.0000   0.3224
   7.600   1.1992   0.02386   0.01803  -0.0962  0.5292  1.0000  -3.4015   0.0000   0.0000   0.0000   0.3211
   7.700   1.2139   0.02326   0.01742  -0.0960  0.5201  1.0000  -3.5523   0.0000   0.0000   0.0000   0.3198
   7.800   1.2342   0.02267   0.01669  -0.0967  0.5082  1.0000  -3.7391   0.0000   0.0000   0.0000   0.3189
   7.900   1.2350   0.02272   0.01689  -0.0948  0.5007  1.0000  -3.8070   0.0000   0.0000   0.0000   0.3172
   8.000   1.2384   0.02267   0.01695  -0.0933  0.4905  1.0000  -3.8919   0.0000   0.0000   0.0000   0.3156
   8.100   1.2449   0.02246   0.01678  -0.0921  0.4788  1.0000  -3.9972   0.0000   0.0000   0.0000   0.3141
   8.200   1.2568   0.02206   0.01627  -0.0916  0.4645  1.0000  -4.1377   0.0000   0.0000   0.0000   0.3128
   8.300   1.2598   0.02211   0.01640  -0.0900  0.4514  1.0000  -4.2212   0.0000   0.0000   0.0000   0.3113
   8.400   1.2613   0.02213   0.01648  -0.0882  0.4343  1.0000  -4.2970   0.0000   0.0000   0.0000   0.3096
   8.500   1.2651   0.02202   0.01618  -0.0864  0.4118  1.0000  -4.3903   0.0000   0.0000   0.0000   0.3078
   8.600   1.2639   0.02224   0.01641  -0.0843  0.3866  1.0000  -4.4485   0.0000   0.0000   0.0000   0.3060
   8.700   1.2614   0.02250   0.01646  -0.0818  0.3568  1.0000  -4.5016   0.0000   0.0000   0.0000   0.3040
   8.800   1.2555   0.02294   0.01666  -0.0789  0.3265  1.0000  -4.5340   0.0000   0.0000   0.0000   0.3019
   8.900   1.2495   0.02355   0.01705  -0.0762  0.2962  1.0000  -4.5630   0.0000   0.0000   0.0000   0.2999
   9.000   1.2423   0.02430   0.01756  -0.0735  0.2712  1.0000  -4.5837   0.0000   0.0000   0.0000   0.2979
   9.100   1.2352   0.02514   0.01819  -0.0710  0.2482  1.0000  -4.6036   0.0000   0.0000   0.0000   0.2961
   9.200   1.2291   0.02601   0.01890  -0.0688  0.2279  1.0000  -4.6264   0.0000   0.0000   0.0000   0.2944
   9.300   1.2231   0.02693   0.01966  -0.0667  0.2102  1.0000  -4.6496   0.0000   0.0000   0.0000   0.2928
   9.400   1.2170   0.02790   0.02048  -0.0646  0.1954  1.0000  -4.6696   0.0000   0.0000   0.0000   0.2912
   9.500   1.2138   0.02878   0.02129  -0.0630  0.1810  1.0000  -4.7050   0.0000   0.0000   0.0000   0.2899
   9.600   1.2086   0.02980   0.02217  -0.0612  0.1699  1.0000  -4.7286   0.0000   0.0000   0.0000   0.2885
   9.700   1.2047   0.03081   0.02308  -0.0596  0.1591  1.0000  -4.7550   0.0000   0.0000   0.0000   0.2872
   9.800   1.2043   0.03162   0.02392  -0.0584  0.1491  1.0000  -4.8023   0.0000   0.0000   0.0000   0.2860
   9.900   1.2016   0.03258   0.02496  -0.0571  0.1406  1.0000  -4.8382   0.0000   0.0000   0.0000   0.2849
  10.000   1.1978   0.03374   0.02597  -0.0557  0.1323  1.0000  -4.8625   0.0000   0.0000   0.0000   0.2837
  10.100   1.1991   0.03465   0.02688  -0.0546  0.1244  1.0000  -4.9099   0.0000   0.0000   0.0000   0.2826
  10.200   1.2004   0.03545   0.02773  -0.0536  0.1177  1.0000  -4.9613   0.0000   0.0000   0.0000   0.2816
  10.300   1.2008   0.03632   0.02861  -0.0527  0.1116  1.0000  -5.0101   0.0000   0.0000   0.0000   0.2807
  10.400   1.2002   0.03734   0.02954  -0.0517  0.1059  1.0000  -5.0529   0.0000   0.0000   0.0000   0.2797
  10.500   1.2057   0.03863   0.03069  -0.0508  0.0969  1.0000  -5.1049   0.0000   0.0000   0.0000   0.2786
  10.600   1.2069   0.03934   0.03151  -0.0500  0.0930  1.0000  -5.1569   0.0000   0.0000   0.0000   0.2778
  10.700   1.2077   0.04011   0.03234  -0.0493  0.0884  1.0000  -5.2089   0.0000   0.0000   0.0000   0.2770
  10.800   1.2081   0.04093   0.03316  -0.0486  0.0840  1.0000  -5.2617   0.0000   0.0000   0.0000   0.2762
  10.900   1.2083   0.04181   0.03403  -0.0479  0.0801  1.0000  -5.3141   0.0000   0.0000   0.0000   0.2755
  11.000   1.2190   0.04352   0.03555  -0.0473  0.0713  1.0000  -5.3806   0.0000   0.0000   0.0000   0.2746
  11.100   1.2197   0.04415   0.03628  -0.0466  0.0696  1.0000  -5.4327   0.0000   0.0000   0.0000   0.2738
  11.200   1.2223   0.04491   0.03713  -0.0460  0.0671  1.0000  -5.4842   0.0000   0.0000   0.0000   0.2731
  11.300   1.2266   0.04578   0.03809  -0.0454  0.0644  1.0000  -5.5331   0.0000   0.0000   0.0000   0.2723
  11.400   1.2308   0.04669   0.03907  -0.0448  0.0616  1.0000  -5.5800   0.0000   0.0000   0.0000   0.2715
  11.500   1.2347   0.04763   0.04004  -0.0442  0.0590  1.0000  -5.6268   0.0000   0.0000   0.0000   0.2708
  11.600   1.2385   0.04858   0.04101  -0.0436  0.0567  1.0000  -5.6749   0.0000   0.0000   0.0000   0.2701
  11.700   1.2429   0.04965   0.04207  -0.0431  0.0544  1.0000  -5.7228   0.0000   0.0000   0.0000   0.2694
  11.800   1.2638   0.05390   0.04642  -0.0434  0.0488  1.0000  -5.7147   0.0000   0.0000   0.0000   0.2690
  11.900   1.2619   0.05445   0.04706  -0.0426  0.0482  1.0000  -5.7485   0.0000   0.0000   0.0000   0.2682
  12.000   1.2604   0.05510   0.04781  -0.0418  0.0473  1.0000  -5.7821   0.0000   0.0000   0.0000   0.2675
  12.100   1.2593   0.05586   0.04865  -0.0412  0.0462  1.0000  -5.8158   0.0000   0.0000   0.0000   0.2668
  12.200   1.2586   0.05672   0.04961  -0.0406  0.0450  1.0000  -5.8484   0.0000   0.0000   0.0000   0.2662
  12.300   1.2580   0.05769   0.05066  -0.0400  0.0436  1.0000  -5.8788   0.0000   0.0000   0.0000   0.2656
  12.400   1.2578   0.05876   0.05182  -0.0395  0.0424  1.0000  -5.9064   0.0000   0.0000   0.0000   0.2651
  12.500   1.2580   0.05998   0.05314  -0.0391  0.0413  1.0000  -5.9265   0.0000   0.0000   0.0000   0.2645
  12.600   1.2583   0.06138   0.05464  -0.0386  0.0406  1.0000  -5.9361   0.0000   0.0000   0.0000   0.2640
  12.700   1.2579   0.06282   0.05619  -0.0381  0.0400  1.0000  -5.9427   0.0000   0.0000   0.0000   0.2634
  12.800   1.2563   0.06431   0.05779  -0.0377  0.0394  1.0000  -5.9442   0.0000   0.0000   0.0000   0.2630
  12.900   1.2539   0.06585   0.05944  -0.0373  0.0390  1.0000  -5.9425   0.0000   0.0000   0.0000   0.2626
  13.000   1.2509   0.06742   0.06112  -0.0370  0.0386  1.0000  -5.9383   0.0000   0.0000   0.0000   0.2622
  13.100   1.2475   0.06903   0.06283  -0.0366  0.0383  1.0000  -5.9318   0.0000   0.0000   0.0000   0.2618
  13.200   1.2437   0.07069   0.06460  -0.0364  0.0380  1.0000  -5.9229   0.0000   0.0000   0.0000   0.2616
  13.300   1.2392   0.07242   0.06643  -0.0362  0.0377  1.0000  -5.9107   0.0000   0.0000   0.0000   0.2614
  13.400   1.2342   0.07421   0.06833  -0.0361  0.0375  1.0000  -5.8957   0.0000   0.0000   0.0000   0.2612
  13.500   1.2290   0.07606   0.07029  -0.0361  0.0374  1.0000  -5.8783   0.0000   0.0000   0.0000   0.2611
  13.600   1.2234   0.07798   0.07232  -0.0361  0.0373  1.0000  -5.8583   0.0000   0.0000   0.0000   0.2612
  13.700   1.2172   0.07998   0.07442  -0.0363  0.0372  1.0000  -5.8346   0.0000   0.0000   0.0000   0.2613
  13.800   1.2105   0.08205   0.07660  -0.0366  0.0371  1.0000  -5.8076   0.0000   0.0000   0.0000   0.2615
  13.900   1.2035   0.08420   0.07885  -0.0369  0.0371  1.0000  -5.7780   0.0000   0.0000   0.0000   0.2618
  14.000   1.1962   0.08641   0.08117  -0.0374  0.0371  1.0000  -5.7455   0.0000   0.0000   0.0000   0.2621
  14.100   1.1882   0.08873   0.08359  -0.0380  0.0372  1.0000  -5.7085   0.0000   0.0000   0.0000   0.2627
  14.200   1.1799   0.09113   0.08610  -0.0387  0.0373  1.0000  -5.6687   0.0000   0.0000   0.0000   0.2634
  14.300   1.1716   0.09360   0.08867  -0.0395  0.0374  1.0000  -5.6268   0.0000   0.0000   0.0000   0.2641
  14.400   1.1624   0.09622   0.09139  -0.0405  0.0375  1.0000  -5.5779   0.0000   0.0000   0.0000   0.2651
  14.500   1.1522   0.09901   0.09428  -0.0418  0.0377  1.0000  -5.5224   0.0000   0.0000   0.0000   0.2663
  14.600   1.1421   0.10192   0.09729  -0.0431  0.0380  1.0000  -5.4634   0.0000   0.0000   0.0000   0.2676
  14.700   1.1312   0.10500   0.10047  -0.0447  0.0382  1.0000  -5.3985   0.0000   0.0000   0.0000   0.2692
  14.800   1.1198   0.10828   0.10384  -0.0465  0.0386  1.0000  -5.3277   0.0000   0.0000   0.0000   0.2711
  14.900   1.1083   0.11172   0.10737  -0.0485  0.0389  1.0000  -5.2517   0.0000   0.0000   0.0000   0.2732
  15.000   1.0958   0.11545   0.11119  -0.0509  0.0394  1.0000  -5.1668   0.0000   0.0000   0.0000   0.2757
  15.100   1.0833   0.11940   0.11522  -0.0534  0.0399  1.0000  -5.0750   0.0000   0.0000   0.0000   0.2785
  15.200   1.0701   0.12359   0.11947  -0.0563  0.0405  1.0000  -4.9733   0.0000   0.0000   0.0000   0.2816
  15.300   1.0568   0.12802   0.12397  -0.0594  0.0411  1.0000  -4.8615   0.0000   0.0000   0.0000   0.2851
  15.400   1.0432   0.13286   0.12885  -0.0627  0.0419  1.0000  -4.7362   0.0000   0.0000   0.0000   0.2891
  15.500   1.0299   0.13798   0.13400  -0.0662  0.0427  1.0000  -4.6003   0.0000   0.0000   0.0000   0.2932
  15.600   1.0173   0.14339   0.13943  -0.0698  0.0436  1.0000  -4.4540   0.0000   0.0000   0.0000   0.2975
  15.700   1.0062   0.14876   0.14480  -0.0731  0.0444  1.0000  -4.3067   0.0000   0.0000   0.0000   0.3016
  15.800   0.9969   0.15392   0.14995  -0.0760  0.0451  1.0000  -4.1657   0.0000   0.0000   0.0000   0.3052
  15.900   0.9895   0.15877   0.15478  -0.0786  0.0458  1.0000  -4.0346   0.0000   0.0000   0.0000   0.3084
  16.000   0.9836   0.16327   0.15926  -0.0809  0.0463  1.0000  -3.9168   0.0000   0.0000   0.0000   0.3112
  16.100   0.9789   0.16737   0.16335  -0.0829  0.0467  1.0000  -3.8149   0.0000   0.0000   0.0000   0.3136
  16.200   0.9752   0.17120   0.16716  -0.0846  0.0470  1.0000  -3.7248   0.0000   0.0000   0.0000   0.3157
  16.300   0.9721   0.17483   0.17078  -0.0862  0.0474  1.0000  -3.6434   0.0000   0.0000   0.0000   0.3176
  16.400   0.9695   0.17834   0.17427  -0.0877  0.0477  1.0000  -3.5687   0.0000   0.0000   0.0000   0.3192
  16.500   0.9673   0.18183   0.17775  -0.0888  0.0483  1.0000  -3.4985   0.0000   0.0000   0.0000   0.3205
  16.600   0.9691   0.18435   0.18032  -0.0890  0.0491  1.0000  -3.4695   0.0000   0.0000   0.0000   0.3204
  16.700   0.9716   0.18647   0.18245  -0.0901  0.0495  1.0000  -3.4437   0.0000   0.0000   0.0000   0.3212
  16.900   0.9495   0.20426   0.20008  -0.1002  0.0658  1.0000  -2.7761   0.0000   0.0000   0.0000   0.3346
  17.000   0.9412   0.21399   0.20968  -0.1045  0.0921  1.0000  -2.4636   0.0000   0.0000   0.0000   0.3403
  17.100   0.9405   0.21608   0.21177  -0.1059  0.0910  1.0000  -2.4302   0.0000   0.0000   0.0000   0.3418
  17.200   0.9403   0.21821   0.21389  -0.1071  0.0900  1.0000  -2.4013   0.0000   0.0000   0.0000   0.3430
  17.300   0.9405   0.22031   0.21599  -0.1082  0.0888  1.0000  -2.3756   0.0000   0.0000   0.0000   0.3440
  17.400   0.9410   0.22238   0.21806  -0.1093  0.0876  1.0000  -2.3535   0.0000   0.0000   0.0000   0.3449
  17.500   0.9419   0.22444   0.22011  -0.1102  0.0863  1.0000  -2.3349   0.0000   0.0000   0.0000   0.3457
  17.600   0.9431   0.22647   0.22214  -0.1111  0.0851  1.0000  -2.3195   0.0000   0.0000   0.0000   0.3463
  17.700   0.9446   0.22848   0.22427  -0.1119  0.0839  1.0000  -2.3055   0.0000   0.0000   0.0000   0.3468
  17.800   0.9463   0.23047   0.22626  -0.1126  0.0827  1.0000  -2.2955   0.0000   0.0000   0.0000   0.3472
  17.900   0.9483   0.23243   0.22823  -0.1133  0.0816  1.0000  -2.2882   0.0000   0.0000   0.0000   0.3475
  18.000   0.9505   0.23438   0.23017  -0.1138  0.0805  1.0000  -2.2837   0.0000   0.0000   0.0000   0.3477
  18.100   0.9531   0.23630   0.23211  -0.1143  0.0795  1.0000  -2.2857   0.0000   0.0000   0.0000   0.3477
  18.200   0.9560   0.23821   0.23403  -0.1147  0.0786  1.0000  -2.2968   0.0000   0.0000   0.0000   0.3476
  18.300   0.9593   0.24013   0.23595  -0.1150  0.0776  1.0000  -2.3133   0.0000   0.0000   0.0000   0.3472
  18.400   0.9634   0.24208   0.23791  -0.1150  0.0767  1.0000  -2.3368   0.0000   0.0000   0.0000   0.3466
  18.500   0.9686   0.24413   0.23998  -0.1148  0.0757  1.0000  -2.3707   0.0000   0.0000   0.0000   0.3456
  18.600   0.9751   0.24640   0.24228  -0.1143  0.0748  1.0000  -2.4171   0.0000   0.0000   0.0000   0.3441
  18.700   0.9818   0.24916   0.24506  -0.1134  0.0738  1.0000  -2.4700   0.0000   0.0000   0.0000   0.3422
  18.800   0.9807   0.25986   0.25572  -0.1129  0.0716  1.0000  -2.4403   0.0000   0.0000   0.0000   0.3419
  18.900   0.9815   0.26221   0.25806  -0.1139  0.0715  1.0000  -2.4224   0.0000   0.0000   0.0000   0.3426
  19.000   0.9823   0.26450   0.26036  -0.1149  0.0715  1.0000  -2.4046   0.0000   0.0000   0.0000   0.3434
  19.100   0.9831   0.26674   0.26259  -0.1159  0.0714  1.0000  -2.3869   0.0000   0.0000   0.0000   0.3442
  19.200   0.9839   0.26892   0.26477  -0.1169  0.0713  1.0000  -2.3692   0.0000   0.0000   0.0000   0.3450
  19.300   0.9846   0.27103   0.26688  -0.1179  0.0712  1.0000  -2.3514   0.0000   0.0000   0.0000   0.3458
  19.400   0.9852   0.27303   0.26888  -0.1190  0.0711  1.0000  -2.3334   0.0000   0.0000   0.0000   0.3466
  19.500   0.9857   0.27491   0.27076  -0.1200  0.0710  1.0000  -2.3149   0.0000   0.0000   0.0000   0.3475
  19.600   0.9861   0.27660   0.27244  -0.1212  0.0708  1.0000  -2.2955   0.0000   0.0000   0.0000   0.3484
  19.700   0.9854   0.27803   0.27387  -0.1225  0.0705  1.0000  -2.2678   0.0000   0.0000   0.0000   0.3497
  19.800   0.9838   0.27915   0.27498  -0.1241  0.0701  1.0000  -2.2333   0.0000   0.0000   0.0000   0.3513
  19.900   0.9809   0.27994   0.27576  -0.1259  0.0695  1.0000  -2.1890   0.0000   0.0000   0.0000   0.3534
  20.000   0.9776   0.28078   0.27658  -0.1279  0.0685  1.0000  -2.1397   0.0000   0.0000   0.0000   0.3557
  20.100   0.9758   0.28216   0.27795  -0.1297  0.0671  1.0000  -2.0983   0.0000   0.0000   0.0000   0.3577
  20.200   0.9755   0.28403   0.27982  -0.1311  0.0656  1.0000  -2.0713   0.0000   0.0000   0.0000   0.3589
  20.300   0.9759   0.28609   0.28188  -0.1321  0.0640  1.0000  -2.0543   0.0000   0.0000   0.0000   0.3598
  20.400   0.9766   0.28820   0.28399  -0.1330  0.0626  1.0000  -2.0434   0.0000   0.0000   0.0000   0.3604
  20.500   0.9775   0.29030   0.28610  -0.1337  0.0611  1.0000  -2.0372   0.0000   0.0000   0.0000   0.3609
  20.600   0.9785   0.29237   0.28817  -0.1344  0.0597  1.0000  -2.0349   0.0000   0.0000   0.0000   0.3613
  20.700   0.9797   0.29439   0.29020  -0.1350  0.0584  1.0000  -2.0369   0.0000   0.0000   0.0000   0.3615
  20.800   0.9811   0.29636   0.29218  -0.1355  0.0571  1.0000  -2.0433   0.0000   0.0000   0.0000   0.3616
  20.900   0.9827   0.29827   0.29411  -0.1358  0.0558  1.0000  -2.0550   0.0000   0.0000   0.0000   0.3616
  21.000   0.9846   0.30015   0.29599  -0.1361  0.0547  1.0000  -2.0727   0.0000   0.0000   0.0000   0.3614
  21.100   0.9869   0.30201   0.29787  -0.1362  0.0536  1.0000  -2.0971   0.0000   0.0000   0.0000   0.3610
  21.200   0.9896   0.30393   0.29981  -0.1361  0.0527  1.0000  -2.1286   0.0000   0.0000   0.0000   0.3603
  21.300   0.9929   0.30605   0.30195  -0.1358  0.0518  1.0000  -2.1659   0.0000   0.0000   0.0000   0.3594
  21.400   0.9969   0.30852   0.30445  -0.1354  0.0512  1.0000  -2.2069   0.0000   0.0000   0.0000   0.3583
  21.500   1.0036   0.31199   0.30794  -0.1344  0.0504  1.0000  -2.2695   0.0000   0.0000   0.0000   0.3562
  21.800   1.0018   0.32746   0.32339  -0.1350  0.0488  1.0000  -2.2057   0.0000   0.0000   0.0000   0.3568
  21.900   1.0011   0.32962   0.32556  -0.1357  0.0487  1.0000  -2.1878   0.0000   0.0000   0.0000   0.3574
  22.000   1.0001   0.33172   0.32767  -0.1363  0.0487  1.0000  -2.1694   0.0000   0.0000   0.0000   0.3581
  22.100   0.9989   0.33376   0.32972  -0.1369  0.0487  1.0000  -2.1503   0.0000   0.0000   0.0000   0.3587
  22.200   0.9973   0.33572   0.33169  -0.1375  0.0486  1.0000  -2.1305   0.0000   0.0000   0.0000   0.3594
  22.300   0.9953   0.33757   0.33356  -0.1380  0.0486  1.0000  -2.1095   0.0000   0.0000   0.0000   0.3601
  22.400   0.9927   0.33930   0.33530  -0.1385  0.0485  1.0000  -2.0870   0.0000   0.0000   0.0000   0.3608
  22.500   0.9893   0.34085   0.33687  -0.1389  0.0485  1.0000  -2.0624   0.0000   0.0000   0.0000   0.3616
  22.600   0.9843   0.34209   0.33812  -0.1391  0.0484  1.0000  -2.0336   0.0000   0.0000   0.0000   0.3625
  22.700   0.9160   0.32850   0.32477  -0.1317  0.0485  1.0000  -1.8384   0.0000   0.0000   0.0000   0.3664
  22.800   0.9080   0.32756   0.32386  -0.1315  0.0484  1.0000  -1.8016   0.0000   0.0000   0.0000   0.3675
  22.900   0.9005   0.32668   0.32301  -0.1314  0.0483  1.0000  -1.7650   0.0000   0.0000   0.0000   0.3687
  23.000   0.8938   0.32589   0.32224  -0.1315  0.0483  1.0000  -1.7301   0.0000   0.0000   0.0000   0.3699
  23.100   0.8873   0.32503   0.32141  -0.1317  0.0482  1.0000  -1.6945   0.0000   0.0000   0.0000   0.3711
  23.200   0.8812   0.32423   0.32063  -0.1319  0.0481  1.0000  -1.6595   0.0000   0.0000   0.0000   0.3724
  23.300   0.8756   0.32353   0.31994  -0.1323  0.0479  1.0000  -1.6256   0.0000   0.0000   0.0000   0.3737
  23.400   0.8706   0.32290   0.31933  -0.1327  0.0478  1.0000  -1.5922   0.0000   0.0000   0.0000   0.3750
  23.500   0.8660   0.32238   0.31882  -0.1332  0.0476  1.0000  -1.5593   0.0000   0.0000   0.0000   0.3764
  23.600   0.8620   0.32201   0.31847  -0.1338  0.0473  1.0000  -1.5265   0.0000   0.0000   0.0000   0.3777
  23.700   0.8586   0.32186   0.31833  -0.1345  0.0469  1.0000  -1.4943   0.0000   0.0000   0.0000   0.3791
  23.800   0.8560   0.32198   0.31846  -0.1352  0.0464  1.0000  -1.4637   0.0000   0.0000   0.0000   0.3803
  23.900   0.8540   0.32235   0.31884  -0.1359  0.0458  1.0000  -1.4367   0.0000   0.0000   0.0000   0.3814
  24.000   0.8523   0.32286   0.31936  -0.1365  0.0451  1.0000  -1.4141   0.0000   0.0000   0.0000   0.3823
  24.100   0.8508   0.32342   0.31993  -0.1370  0.0444  1.0000  -1.3950   0.0000   0.0000   0.0000   0.3830
  24.200   0.8495   0.32398   0.32051  -0.1374  0.0437  1.0000  -1.3785   0.0000   0.0000   0.0000   0.3837
  24.300   0.8482   0.32454   0.32108  -0.1378  0.0430  1.0000  -1.3638   0.0000   0.0000   0.0000   0.3843
  24.400   0.8469   0.32510   0.32165  -0.1381  0.0424  1.0000  -1.3505   0.0000   0.0000   0.0000   0.3848
  24.500   0.8458   0.32566   0.32222  -0.1385  0.0418  1.0000  -1.3383   0.0000   0.0000   0.0000   0.3853
  24.600   0.8447   0.32621   0.32279  -0.1388  0.0412  1.0000  -1.3269   0.0000   0.0000   0.0000   0.3858
  24.700   0.8436   0.32675   0.32335  -0.1391  0.0406  1.0000  -1.3164   0.0000   0.0000   0.0000   0.3863
  24.800   0.8427   0.32730   0.32391  -0.1394  0.0400  1.0000  -1.3066   0.0000   0.0000   0.0000   0.3867
  24.900   0.8418   0.32784   0.32446  -0.1397  0.0395  1.0000  -1.2975   0.0000   0.0000   0.0000   0.3871
  25.000   0.8409   0.32838   0.32502  -0.1400  0.0390  1.0000  -1.2889   0.0000   0.0000   0.0000   0.3875
  25.100   0.8401   0.32892   0.32557  -0.1403  0.0385  1.0000  -1.2810   0.0000   0.0000   0.0000   0.3879
  25.200   0.8394   0.32946   0.32612  -0.1406  0.0380  1.0000  -1.2737   0.0000   0.0000   0.0000   0.3883
  25.300   0.8387   0.32999   0.32666  -0.1409  0.0375  1.0000  -1.2670   0.0000   0.0000   0.0000   0.3886
  25.400   0.8380   0.33052   0.32720  -0.1412  0.0371  1.0000  -1.2609   0.0000   0.0000   0.0000   0.3890
  25.500   0.8374   0.33104   0.32774  -0.1415  0.0366  1.0000  -1.2554   0.0000   0.0000   0.0000   0.3893
  25.600   0.8369   0.33156   0.32827  -0.1418  0.0362  1.0000  -1.2506   0.0000   0.0000   0.0000   0.3896
  25.700   0.8364   0.33207   0.32879  -0.1420  0.0357  1.0000  -1.2466   0.0000   0.0000   0.0000   0.3899
  25.800   0.8359   0.33257   0.32931  -0.1423  0.0353  1.0000  -1.2433   0.0000   0.0000   0.0000   0.3902
  25.900   0.8355   0.33307   0.32983  -0.1426  0.0349  1.0000  -1.2408   0.0000   0.0000   0.0000   0.3904
  26.000   0.8351   0.33356   0.33033  -0.1428  0.0345  1.0000  -1.2392   0.0000   0.0000   0.0000   0.3906
  26.100   0.8348   0.33405   0.33083  -0.1430  0.0342  1.0000  -1.2386   0.0000   0.0000   0.0000   0.3908
  26.200   0.8345   0.33453   0.33132  -0.1433  0.0338  1.0000  -1.2392   0.0000   0.0000   0.0000   0.3910
  26.300   0.8343   0.33500   0.33181  -0.1435  0.0334  1.0000  -1.2409   0.0000   0.0000   0.0000   0.3911
  26.400   0.8341   0.33548   0.33230  -0.1436  0.0331  1.0000  -1.2441   0.0000   0.0000   0.0000   0.3911
  26.500   0.8340   0.33597   0.33289  -0.1438  0.0327  1.0000  -1.2485   0.0000   0.0000   0.0000   0.3912
  26.600   0.8340   0.33649   0.33343  -0.1438  0.0324  1.0000  -1.2551   0.0000   0.0000   0.0000   0.3911
  26.700   0.8342   0.33708   0.33403  -0.1439  0.0321  1.0000  -1.2641   0.0000   0.0000   0.0000   0.3909
  26.800   0.8347   0.33782   0.33479  -0.1438  0.0318  1.0000  -1.2762   0.0000   0.0000   0.0000   0.3906
  26.900   0.8356   0.33891   0.33590  -0.1437  0.0314  1.0000  -1.2927   0.0000   0.0000   0.0000   0.3901
  27.000   0.8379   0.34102   0.33803  -0.1433  0.0310  1.0000  -1.3172   0.0000   0.0000   0.0000   0.3890
  28.900   0.8269   0.35490   0.35204  -0.1509  0.0298  1.0000  -1.1082   0.0000   0.0000   0.0000   0.3974
  29.000   0.8260   0.35511   0.35225  -0.1515  0.0297  1.0000  -1.0983   0.0000   0.0000   0.0000   0.3981
  29.100   0.8252   0.35533   0.35249  -0.1520  0.0296  1.0000  -1.0883   0.0000   0.0000   0.0000   0.3987
  29.200   0.8245   0.35559   0.35275  -0.1526  0.0296  1.0000  -1.0781   0.0000   0.0000   0.0000   0.3994
  29.300   0.8238   0.35588   0.35305  -0.1532  0.0295  1.0000  -1.0678   0.0000   0.0000   0.0000   0.4000
  29.400   0.8232   0.35621   0.35339  -0.1538  0.0294  1.0000  -1.0572   0.0000   0.0000   0.0000   0.4007
  29.500   0.8228   0.35661   0.35380  -0.1544  0.0292  1.0000  -1.0465   0.0000   0.0000   0.0000   0.4013
  29.600   0.8224   0.35709   0.35428  -0.1551  0.0291  1.0000  -1.0356   0.0000   0.0000   0.0000   0.4020
  29.700   0.8222   0.35765   0.35485  -0.1557  0.0289  1.0000  -1.0248   0.0000   0.0000   0.0000   0.4026
  29.800   0.8222   0.35830   0.35551  -0.1564  0.0287  1.0000  -1.0142   0.0000   0.0000   0.0000   0.4032
  29.900   0.8223   0.35902   0.35624  -0.1570  0.0284  1.0000  -1.0044   0.0000   0.0000   0.0000   0.4037
  30.000   0.8224   0.35980   0.35703  -0.1576  0.0281  1.0000  -0.9955   0.0000   0.0000   0.0000   0.4042


