xflr5 v6.61

 Calculated polar for: EPPLER E854 AIRFOIL

 1 1 Reynolds number fixed          Mach number fixed         

 xtrf =   1.000 (top)        1.000 (bottom)
 Mach =   0.000     Re =     0.160 e 6     Ncrit =   9.000

  alpha     CL        CD       CDp       Cm    Top Xtr Bot Xtr   Cpmin    Chinge    XCp    
 ------- -------- --------- --------- -------- ------- ------- -------- --------- ---------
 -10.000  -0.3759   0.10656   0.10277  -0.0498  1.0000  0.0583  -2.1919   0.0000   0.0000   0.0000   0.1041
  -9.900  -0.3773   0.10492   0.10115  -0.0502  1.0000  0.0583  -2.2150   0.0000   0.0000   0.0000   0.1035
  -9.800  -0.3790   0.10325   0.09950  -0.0507  1.0000  0.0583  -2.2393   0.0000   0.0000   0.0000   0.1030
  -9.700  -0.3986   0.09676   0.09311  -0.0524  1.0000  0.0598  -2.4074   0.0000   0.0000   0.0000   0.1059
  -9.600  -0.4032   0.09437   0.09075  -0.0525  1.0000  0.0604  -2.4361   0.0000   0.0000   0.0000   0.1074
  -9.500  -0.4059   0.09257   0.08897  -0.0525  1.0000  0.0609  -2.4493   0.0000   0.0000   0.0000   0.1085
  -9.400  -0.4083   0.09097   0.08740  -0.0524  1.0000  0.0614  -2.4588   0.0000   0.0000   0.0000   0.1096
  -9.300  -0.4106   0.08947   0.08592  -0.0524  1.0000  0.0618  -2.4679   0.0000   0.0000   0.0000   0.1106
  -9.200  -0.4109   0.08825   0.08472  -0.0520  1.0000  0.0622  -2.4606   0.0000   0.0000   0.0000   0.1118
  -9.100  -0.4119   0.08702   0.08351  -0.0517  1.0000  0.0625  -2.4580   0.0000   0.0000   0.0000   0.1131
  -9.000  -0.4136   0.08576   0.08228  -0.0514  1.0000  0.0628  -2.4599   0.0000   0.0000   0.0000   0.1144
  -8.900  -0.4159   0.08449   0.08103  -0.0512  1.0000  0.0631  -2.4659   0.0000   0.0000   0.0000   0.1158
  -8.800  -0.4191   0.08319   0.07977  -0.0510  1.0000  0.0634  -2.4760   0.0000   0.0000   0.0000   0.1174
  -8.700  -0.4230   0.08188   0.07848  -0.0508  1.0000  0.0637  -2.4903   0.0000   0.0000   0.0000   0.1192
  -8.600  -0.4280   0.08054   0.07718  -0.0507  1.0000  0.0639  -2.5089   0.0000   0.0000   0.0000   0.1212
  -8.500  -0.4340   0.07919   0.07587  -0.0505  1.0000  0.0641  -2.5321   0.0000   0.0000   0.0000   0.1236
  -8.400  -0.4414   0.07783   0.07455  -0.0503  1.0000  0.0643  -2.5607   0.0000   0.0000   0.0000   0.1263
  -8.300  -0.4508   0.07649   0.07324  -0.0500  1.0000  0.0644  -2.5956   0.0000   0.0000   0.0000   0.1295
  -7.500  -0.4996   0.05374   0.04972  -0.0672  0.9862  0.0350  -3.5135   0.0000   0.0000   0.0000   0.1071
  -7.400  -0.4983   0.04996   0.04578  -0.0697  0.9816  0.0339  -3.5921   0.0000   0.0000   0.0000   0.1018
  -7.300  -0.4919   0.04685   0.04249  -0.0722  0.9780  0.0331  -3.6401   0.0000   0.0000   0.0000   0.0949
  -7.200  -0.4828   0.04399   0.03941  -0.0746  0.9753  0.0323  -3.6776   0.0000   0.0000   0.0000   0.0870
  -7.100  -0.4716   0.04132   0.03651  -0.0769  0.9733  0.0316  -3.7075   0.0000   0.0000   0.0000   0.0784
  -7.000  -0.4629   0.03915   0.03414  -0.0782  0.9700  0.0311  -3.7282   0.0000   0.0000   0.0000   0.0726
  -6.900  -0.4545   0.03722   0.03200  -0.0790  0.9657  0.0307  -3.7426   0.0000   0.0000   0.0000   0.0677
  -6.800  -0.4433   0.03529   0.02985  -0.0801  0.9626  0.0303  -3.7506   0.0000   0.0000   0.0000   0.0606
  -6.700  -0.4306   0.03348   0.02781  -0.0814  0.9601  0.0302  -3.7501   0.0000   0.0000   0.0000   0.0522
  -6.600  -0.4167   0.03180   0.02591  -0.0827  0.9580  0.0301  -3.7403   0.0000   0.0000   0.0000   0.0427
  -6.500  -0.4019   0.03028   0.02418  -0.0839  0.9564  0.0303  -3.7212   0.0000   0.0000   0.0000   0.0322
  -6.400  -0.3864   0.02889   0.02260  -0.0851  0.9550  0.0306  -3.6935   0.0000   0.0000   0.0000   0.0205
  -6.300  -0.3704   0.02764   0.02117  -0.0864  0.9538  0.0312  -3.6577   0.0000   0.0000   0.0000   0.0074
  -6.200  -0.3618   0.02680   0.02021  -0.0861  0.9492  0.0318  -3.6251   0.0000   0.0000   0.0000   0.0027
  -6.100  -0.3504   0.02623   0.01954  -0.0863  0.9452  0.0332  -3.5602   0.0000   0.0000   0.0000  -0.0057
  -6.000  -0.3362   0.02596   0.01919  -0.0869  0.9419  0.0349  -3.4650   0.0000   0.0000   0.0000  -0.0182
  -5.900  -0.3199   0.02614   0.01929  -0.0879  0.9390  0.0364  -3.3415   0.0000   0.0000   0.0000  -0.0345
  -5.800  -0.3079   0.02360   0.01655  -0.0885  0.9376  0.0384  -3.3848   0.0000   0.0000   0.0000  -0.0475
  -5.700  -0.2941   0.02206   0.01493  -0.0892  0.9360  0.0409  -3.3997   0.0000   0.0000   0.0000  -0.0638
  -5.600  -0.2784   0.02120   0.01406  -0.0902  0.9343  0.0443  -3.3609   0.0000   0.0000   0.0000  -0.0850
  -5.500  -0.2615   0.02057   0.01341  -0.0914  0.9328  0.0487  -3.3083   0.0000   0.0000   0.0000  -0.1107
  -5.400  -0.2436   0.02017   0.01296  -0.0928  0.9314  0.0551  -3.2328   0.0000   0.0000   0.0000  -0.1424
  -5.300  -0.2269   0.01929   0.01205  -0.0941  0.9302  0.0634  -3.1771   0.0000   0.0000   0.0000  -0.1766
  -5.200  -0.2183   0.01868   0.01149  -0.0938  0.9254  0.0705  -3.1284   0.0000   0.0000   0.0000  -0.1922
  -5.100  -0.2084   0.01829   0.01109  -0.0937  0.9200  0.0776  -3.0659   0.0000   0.0000   0.0000  -0.2120
  -5.000  -0.1940   0.01806   0.01078  -0.0942  0.9165  0.0849  -2.9734   0.0000   0.0000   0.0000  -0.2490
  -4.900  -0.1799   0.01710   0.00995  -0.0953  0.9138  0.1053  -2.8992   0.0000   0.0000   0.0000  -0.2935
  -4.800  -0.1641   0.01641   0.00932  -0.0964  0.9115  0.1291  -2.8112   0.0000   0.0000   0.0000  -0.3521
  -4.700  -0.1481   0.01558   0.00872  -0.0978  0.9096  0.1736  -2.7140   0.0000   0.0000   0.0000  -0.4261
  -4.600  -0.1325   0.01459   0.00825  -0.0995  0.9080  0.2768  -2.6065   0.0000   0.0000   0.0000  -0.5180
  -4.500  -0.1170   0.01412   0.00831  -0.1007  0.9064  0.3889  -2.4849   0.0000   0.0000   0.0000  -0.6290
  -4.400  -0.0998   0.01408   0.00832  -0.1017  0.9049  0.4351  -2.3536   0.0000   0.0000   0.0000  -0.7895
  -4.300  -0.0819   0.01415   0.00836  -0.1028  0.9034  0.4627  -2.2197   0.0000   0.0000   0.0000  -1.0300
  -4.200  -0.0633   0.01416   0.00829  -0.1040  0.9021  0.4782  -2.0863   0.0000   0.0000   0.0000  -1.4235
  -4.100  -0.0459   0.01415   0.00833  -0.1050  0.9008  0.4917  -1.9578   0.0000   0.0000   0.0000  -2.0800
  -4.000  -0.0427   0.01427   0.00847  -0.1033  0.8931  0.4997  -1.8939   0.0000   0.0000   0.0000  -2.2116
  -3.900  -0.0307   0.01438   0.00853  -0.1032  0.8887  0.5109  -1.7922   0.0000   0.0000   0.0000  -3.1657
  -3.800  -0.0164   0.01448   0.00856  -0.1036  0.8852  0.5206  -1.6823   0.0000   0.0000   0.0000  -6.1904
  -3.700  -0.0009   0.01452   0.00847  -0.1043  0.8821  0.5277  -1.5703   0.0000   0.0000   0.0000  -122.6892
  -3.600   0.0142   0.01435   0.00833  -0.1049  0.8795  0.5369  -1.4622   0.0000   0.0000   0.0000   7.7616
  -3.500   0.0297   0.01434   0.00833  -0.1055  0.8769  0.5446  -1.3530   0.0000   0.0000   0.0000   3.8589
  -3.400   0.0457   0.01437   0.00834  -0.1062  0.8745  0.5523  -1.2437   0.0000   0.0000   0.0000   2.6054
  -3.300   0.0629   0.01438   0.00832  -0.1071  0.8722  0.5598  -1.1330   0.0000   0.0000   0.0000   1.9767
  -3.200   0.0807   0.01439   0.00827  -0.1083  0.8700  0.5665  -1.0230   0.0000   0.0000   0.0000   1.6084
  -3.100   0.0990   0.01441   0.00822  -0.1096  0.8676  0.5726  -0.9145   0.0000   0.0000   0.0000   1.3705
  -3.000   0.1052   0.01453   0.00829  -0.1086  0.8616  0.5763  -0.8516   0.0000   0.0000   0.0000   1.2940
  -2.900   0.1152   0.01465   0.00837  -0.1082  0.8563  0.5798  -0.7871   0.0000   0.0000   0.0000   1.1998
  -2.800   0.1263   0.01439   0.00811  -0.1082  0.8519  0.5882  -0.7468   0.0000   0.0000   0.0000   1.1162
  -2.700   0.1382   0.01436   0.00811  -0.1081  0.8477  0.5948  -0.7041   0.0000   0.0000   0.0000   1.0403
  -2.600   0.1510   0.01439   0.00814  -0.1081  0.8439  0.6009  -0.6602   0.0000   0.0000   0.0000   0.9732
  -2.500   0.1650   0.01441   0.00813  -0.1085  0.8403  0.6068  -0.6150   0.0000   0.0000   0.0000   0.9133
  -2.400   0.1802   0.01442   0.00810  -0.1091  0.8368  0.6124  -0.5751   0.0000   0.0000   0.0000   0.8604
  -2.300   0.1961   0.01443   0.00804  -0.1099  0.8333  0.6176  -0.5788   0.0000   0.0000   0.0000   0.8148
  -2.200   0.2102   0.01446   0.00802  -0.1104  0.8293  0.6219  -0.5865   0.0000   0.0000   0.0000   0.7794
  -2.100   0.2179   0.01449   0.00802  -0.1098  0.8243  0.6252  -0.5908   0.0000   0.0000   0.0000   0.7574
  -2.000   0.2276   0.01450   0.00796  -0.1095  0.8193  0.6280  -0.5962   0.0000   0.0000   0.0000   0.7343
  -1.900   0.2387   0.01450   0.00791  -0.1095  0.8145  0.6304  -0.6024   0.0000   0.0000   0.0000   0.7117
  -1.800   0.2506   0.01450   0.00786  -0.1097  0.8101  0.6324  -0.6089   0.0000   0.0000   0.0000   0.6903
  -1.700   0.2628   0.01445   0.00776  -0.1099  0.8061  0.6349  -0.6157   0.0000   0.0000   0.0000   0.6706
  -1.600   0.2750   0.01423   0.00750  -0.1103  0.8025  0.6398  -0.6225   0.0000   0.0000   0.0000   0.6528
  -1.500   0.2878   0.01413   0.00738  -0.1106  0.7990  0.6437  -0.6297   0.0000   0.0000   0.0000   0.6358
  -1.400   0.3010   0.01410   0.00731  -0.1109  0.7955  0.6472  -0.6370   0.0000   0.0000   0.0000   0.6199
  -1.300   0.3145   0.01412   0.00729  -0.1114  0.7917  0.6503  -0.6447   0.0000   0.0000   0.0000   0.6053
  -1.200   0.3252   0.01415   0.00731  -0.1114  0.7882  0.6531  -0.6514   0.0000   0.0000   0.0000   0.5933
  -1.100   0.3341   0.01415   0.00731  -0.1110  0.7847  0.6558  -0.6571   0.0000   0.0000   0.0000   0.5828
  -1.000   0.3435   0.01416   0.00732  -0.1107  0.7811  0.6586  -0.6631   0.0000   0.0000   0.0000   0.5727
  -0.900   0.3535   0.01417   0.00731  -0.1105  0.7773  0.6615  -0.6695   0.0000   0.0000   0.0000   0.5629
  -0.700   0.3750   0.01417   0.00727  -0.1104  0.7700  0.6675  -0.6830   0.0000   0.0000   0.0000   0.5444
  -0.600   0.3862   0.01417   0.00724  -0.1105  0.7666  0.6705  -0.6902   0.0000   0.0000   0.0000   0.5359
  -0.500   0.3978   0.01417   0.00721  -0.1106  0.7633  0.6735  -0.6975   0.0000   0.0000   0.0000   0.5277
  -0.400   0.4096   0.01418   0.00718  -0.1108  0.7602  0.6765  -0.7049   0.0000   0.0000   0.0000   0.5199
  -0.300   0.4219   0.01421   0.00717  -0.1110  0.7570  0.6797  -0.7127   0.0000   0.0000   0.0000   0.5125
  -0.200   0.4345   0.01426   0.00717  -0.1113  0.7539  0.6827  -0.7205   0.0000   0.0000   0.0000   0.5055
  -0.100   0.4473   0.01436   0.00722  -0.1117  0.7506  0.6853  -0.7284   0.0000   0.0000   0.0000   0.4989
   0.000   0.4601   0.01450   0.00732  -0.1122  0.7468  0.6880  -0.7360   0.0000   0.0000   0.0000   0.4928
   0.100   0.4692   0.01440   0.00725  -0.1119  0.7445  0.6926  -0.7418   0.0000   0.0000   0.0000   0.4874
   0.200   0.4783   0.01437   0.00724  -0.1116  0.7420  0.6964  -0.7476   0.0000   0.0000   0.0000   0.4821
   0.300   0.4876   0.01436   0.00726  -0.1113  0.7392  0.6998  -0.7535   0.0000   0.0000   0.0000   0.4769
   0.400   0.4972   0.01437   0.00729  -0.1110  0.7363  0.7031  -0.7595   0.0000   0.0000   0.0000   0.4719
   0.500   0.5071   0.01439   0.00733  -0.1108  0.7332  0.7064  -0.7658   0.0000   0.0000   0.0000   0.4670
   0.600   0.5173   0.01441   0.00735  -0.1107  0.7300  0.7098  -0.7723   0.0000   0.0000   0.0000   0.4623
   0.700   0.5277   0.01442   0.00737  -0.1105  0.7267  0.7133  -0.7790   0.0000   0.0000   0.0000   0.4577
   0.800   0.5385   0.01443   0.00737  -0.1105  0.7236  0.7169  -0.7859   0.0000   0.0000   0.0000   0.4533
   0.900   0.5496   0.01444   0.00738  -0.1105  0.7205  0.7207  -0.7930   0.0000   0.0000   0.0000   0.4491
   1.000   0.5609   0.01445   0.00738  -0.1105  0.7175  0.7245  -0.8002   0.0000   0.0000   0.0000   0.4450
   1.100   0.5724   0.01448   0.00738  -0.1106  0.7147  0.7282  -0.8076   0.0000   0.0000   0.0000   0.4411
   1.200   0.5841   0.01452   0.00740  -0.1108  0.7119  0.7319  -0.8151   0.0000   0.0000   0.0000   0.4374
   1.300   0.5962   0.01459   0.00745  -0.1110  0.7092  0.7353  -0.8225   0.0000   0.0000   0.0000   0.4338
   1.400   0.6083   0.01471   0.00754  -0.1113  0.7064  0.7383  -0.8300   0.0000   0.0000   0.0000   0.4305
   1.500   0.6197   0.01481   0.00764  -0.1115  0.7032  0.7434  -0.8373   0.0000   0.0000   0.0000   0.4273
   1.600   0.6296   0.01493   0.00781  -0.1114  0.7005  0.7483  -0.8443   0.0000   0.0000   0.0000   0.4242
   1.700   0.6385   0.01494   0.00787  -0.1109  0.6988  0.7532  -0.8509   0.0000   0.0000   0.0000   0.4210
   1.800   0.6473   0.01496   0.00795  -0.1105  0.6968  0.7583  -0.8575   0.0000   0.0000   0.0000   0.4179
   1.900   0.6563   0.01501   0.00803  -0.1102  0.6947  0.7638  -0.8642   0.0000   0.0000   0.0000   0.4149
   2.000   0.6656   0.01506   0.00812  -0.1098  0.6924  0.7695  -0.8710   0.0000   0.0000   0.0000   0.4120
   2.100   0.6752   0.01512   0.00821  -0.1096  0.6900  0.7755  -0.8780   0.0000   0.0000   0.0000   0.4092
   2.200   0.6851   0.01518   0.00830  -0.1094  0.6875  0.7814  -0.8851   0.0000   0.0000   0.0000   0.4065
   2.300   0.6953   0.01526   0.00839  -0.1094  0.6850  0.7867  -0.8925   0.0000   0.0000   0.0000   0.4040
   2.400   0.7047   0.01527   0.00844  -0.1090  0.6825  0.7935  -0.8994   0.0000   0.0000   0.0000   0.4013
   2.500   0.7137   0.01528   0.00851  -0.1086  0.6801  0.8002  -0.9062   0.0000   0.0000   0.0000   0.3987
   2.600   0.7230   0.01531   0.00861  -0.1082  0.6777  0.8072  -0.9138   0.0000   0.0000   0.0000   0.3961
   2.700   0.7327   0.01534   0.00868  -0.1079  0.6753  0.8147  -0.9222   0.0000   0.0000   0.0000   0.3936
   2.800   0.7431   0.01538   0.00873  -0.1078  0.6729  0.8226  -0.9321   0.0000   0.0000   0.0000   0.3913
   2.900   0.7540   0.01541   0.00878  -0.1077  0.6705  0.8305  -0.9425   0.0000   0.0000   0.0000   0.3890
   3.000   0.7638   0.01541   0.00880  -0.1074  0.6680  0.8390  -0.9524   0.0000   0.0000   0.0000   0.3867
   3.100   0.7729   0.01540   0.00883  -0.1069  0.6655  0.8487  -0.9619   0.0000   0.0000   0.0000   0.3842
   3.200   0.7825   0.01544   0.00889  -0.1065  0.6629  0.8596  -0.9731   0.0000   0.0000   0.0000   0.3819
   3.300   0.7927   0.01554   0.00900  -0.1063  0.6601  0.8716  -0.9867   0.0000   0.0000   0.0000   0.3798
   3.400   0.8017   0.01570   0.00919  -0.1058  0.6570  0.8847  -1.0019   0.0000   0.0000   0.0000   0.3776
   3.500   0.8094   0.01597   0.00953  -0.1052  0.6538  0.9019  -1.0172   0.0000   0.0000   0.0000   0.3755
   3.600   0.8186   0.01595   0.00958  -0.1048  0.6525  0.9240  -1.0367   0.0000   0.0000   0.0000   0.3735
   3.700   0.8335   0.01594   0.00965  -0.1057  0.6509  0.9570  -1.0632   0.0000   0.0000   0.0000   0.3722
   3.800   0.8492   0.01600   0.00975  -0.1070  0.6490  1.0000  -1.0904   0.0000   0.0000   0.0000   0.3713
   3.900   0.8609   0.01610   0.00987  -0.1075  0.6467  1.0000  -1.1134   0.0000   0.0000   0.0000   0.3700
   4.000   0.8721   0.01620   0.01004  -0.1078  0.6441  1.0000  -1.1362   0.0000   0.0000   0.0000   0.3686
   4.100   0.8831   0.01629   0.01014  -0.1080  0.6413  1.0000  -1.1625   0.0000   0.0000   0.0000   0.3672
   4.200   0.8941   0.01637   0.01023  -0.1081  0.6382  1.0000  -1.1907   0.0000   0.0000   0.0000   0.3657
   4.300   0.9053   0.01643   0.01030  -0.1082  0.6350  1.0000  -1.2193   0.0000   0.0000   0.0000   0.3643
   4.400   0.9166   0.01648   0.01036  -0.1083  0.6319  1.0000  -1.2484   0.0000   0.0000   0.0000   0.3628
   4.500   0.9280   0.01654   0.01042  -0.1084  0.6289  1.0000  -1.2780   0.0000   0.0000   0.0000   0.3614
   4.600   0.9398   0.01657   0.01046  -0.1086  0.6259  1.0000  -1.3086   0.0000   0.0000   0.0000   0.3600
   4.700   0.9518   0.01659   0.01048  -0.1087  0.6229  1.0000  -1.3475   0.0000   0.0000   0.0000   0.3585
   4.800   0.9640   0.01661   0.01048  -0.1089  0.6197  1.0000  -1.3873   0.0000   0.0000   0.0000   0.3572
   4.900   0.9763   0.01664   0.01050  -0.1090  0.6164  1.0000  -1.4275   0.0000   0.0000   0.0000   0.3558
   5.000   0.9887   0.01673   0.01056  -0.1092  0.6123  1.0000  -1.4685   0.0000   0.0000   0.0000   0.3545
   5.100   1.0007   0.01712   0.01093  -0.1095  0.6066  1.0000  -1.5083   0.0000   0.0000   0.0000   0.3533
   5.200   1.0098   0.01713   0.01098  -0.1091  0.6037  1.0000  -1.5437   0.0000   0.0000   0.0000   0.3518
   5.300   1.0186   0.01707   0.01097  -0.1087  0.6004  1.0000  -1.5855   0.0000   0.0000   0.0000   0.3503
   5.400   1.0277   0.01703   0.01097  -0.1082  0.5965  1.0000  -1.6336   0.0000   0.0000   0.0000   0.3488
   5.500   1.0372   0.01699   0.01096  -0.1078  0.5920  1.0000  -1.6834   0.0000   0.0000   0.0000   0.3474
   5.600   1.0473   0.01693   0.01093  -0.1075  0.5872  1.0000  -1.7353   0.0000   0.0000   0.0000   0.3460
   5.700   1.0579   0.01687   0.01088  -0.1073  0.5825  1.0000  -1.7891   0.0000   0.0000   0.0000   0.3446
   5.800   1.0691   0.01680   0.01082  -0.1072  0.5780  1.0000  -1.8483   0.0000   0.0000   0.0000   0.3433
   5.900   1.0803   0.01676   0.01086  -0.1071  0.5738  1.0000  -1.9161   0.0000   0.0000   0.0000   0.3420
   6.000   1.0918   0.01672   0.01082  -0.1070  0.5695  1.0000  -2.0161   0.0000   0.0000   0.0000   0.3408
   6.100   1.1039   0.01676   0.01083  -0.1071  0.5648  1.0000  -2.1278   0.0000   0.0000   0.0000   0.3397
   6.200   1.1164   0.01697   0.01101  -0.1073  0.5588  1.0000  -2.2427   0.0000   0.0000   0.0000   0.3387
   6.300   1.1252   0.01702   0.01112  -0.1069  0.5549  1.0000  -2.3413   0.0000   0.0000   0.0000   0.3374
   6.400   1.1332   0.01698   0.01115  -0.1062  0.5512  1.0000  -2.4374   0.0000   0.0000   0.0000   0.3360
   6.500   1.1415   0.01695   0.01119  -0.1056  0.5466  1.0000  -2.5366   0.0000   0.0000   0.0000   0.3347
   6.600   1.1504   0.01693   0.01122  -0.1051  0.5415  1.0000  -2.6398   0.0000   0.0000   0.0000   0.3334
   6.700   1.1597   0.01690   0.01123  -0.1047  0.5362  1.0000  -2.7468   0.0000   0.0000   0.0000   0.3322
   6.800   1.1691   0.01683   0.01119  -0.1042  0.5304  1.0000  -2.8569   0.0000   0.0000   0.0000   0.3309
   6.900   1.1793   0.01675   0.01109  -0.1039  0.5239  1.0000  -2.9728   0.0000   0.0000   0.0000   0.3297
   7.000   1.1902   0.01669   0.01098  -0.1036  0.5165  1.0000  -3.0944   0.0000   0.0000   0.0000   0.3285
   7.100   1.2013   0.01679   0.01102  -0.1035  0.5080  1.0000  -3.2173   0.0000   0.0000   0.0000   0.3275
   7.200   1.2076   0.01676   0.01109  -0.1025  0.5027  1.0000  -3.3149   0.0000   0.0000   0.0000   0.3261
   7.300   1.2146   0.01674   0.01117  -0.1017  0.4957  1.0000  -3.4173   0.0000   0.0000   0.0000   0.3248
   7.400   1.2222   0.01673   0.01121  -0.1009  0.4875  1.0000  -3.5238   0.0000   0.0000   0.0000   0.3235
   7.500   1.2302   0.01670   0.01118  -0.1002  0.4777  1.0000  -3.6348   0.0000   0.0000   0.0000   0.3223
   7.600   1.2381   0.01670   0.01109  -0.0994  0.4665  1.0000  -3.7476   0.0000   0.0000   0.0000   0.3210
   7.700   1.2449   0.01676   0.01116  -0.0985  0.4556  1.0000  -3.8530   0.0000   0.0000   0.0000   0.3197
   7.800   1.2504   0.01681   0.01126  -0.0974  0.4417  1.0000  -3.9516   0.0000   0.0000   0.0000   0.3183
   7.900   1.2550   0.01689   0.01126  -0.0961  0.4239  1.0000  -4.0473   0.0000   0.0000   0.0000   0.3168
   8.000   1.2592   0.01705   0.01134  -0.0948  0.4057  1.0000  -4.1401   0.0000   0.0000   0.0000   0.3154
   8.100   1.2621   0.01725   0.01147  -0.0933  0.3810  1.0000  -4.2250   0.0000   0.0000   0.0000   0.3139
   8.200   1.2630   0.01756   0.01163  -0.0914  0.3557  1.0000  -4.2992   0.0000   0.0000   0.0000   0.3122
   8.300   1.2614   0.01799   0.01187  -0.0893  0.3265  1.0000  -4.3586   0.0000   0.0000   0.0000   0.3104
   8.400   1.2595   0.01848   0.01219  -0.0871  0.2976  1.0000  -4.4147   0.0000   0.0000   0.0000   0.3087
   8.500   1.2551   0.01904   0.01256  -0.0846  0.2731  1.0000  -4.4556   0.0000   0.0000   0.0000   0.3068
   8.600   1.2514   0.01966   0.01301  -0.0822  0.2481  1.0000  -4.4999   0.0000   0.0000   0.0000   0.3050
   8.700   1.2479   0.02029   0.01351  -0.0800  0.2263  1.0000  -4.5446   0.0000   0.0000   0.0000   0.3033
   8.800   1.2440   0.02100   0.01406  -0.0779  0.2055  1.0000  -4.5862   0.0000   0.0000   0.0000   0.3016
   8.900   1.2415   0.02166   0.01463  -0.0759  0.1873  1.0000  -4.6351   0.0000   0.0000   0.0000   0.3000
   9.000   1.2380   0.02240   0.01524  -0.0739  0.1714  1.0000  -4.6776   0.0000   0.0000   0.0000   0.2985
   9.100   1.2357   0.02310   0.01586  -0.0722  0.1571  1.0000  -4.7251   0.0000   0.0000   0.0000   0.2970
   9.200   1.2342   0.02379   0.01648  -0.0705  0.1451  1.0000  -4.7776   0.0000   0.0000   0.0000   0.2956
   9.300   1.2301   0.02463   0.01721  -0.0687  0.1343  1.0000  -4.8134   0.0000   0.0000   0.0000   0.2941
   9.400   1.2288   0.02535   0.01792  -0.0671  0.1248  1.0000  -4.8626   0.0000   0.0000   0.0000   0.2928
   9.500   1.2290   0.02601   0.01857  -0.0659  0.1164  1.0000  -4.9235   0.0000   0.0000   0.0000   0.2916
   9.600   1.2266   0.02684   0.01945  -0.0644  0.1090  1.0000  -4.9684   0.0000   0.0000   0.0000   0.2904
   9.700   1.2214   0.02787   0.02040  -0.0627  0.1017  1.0000  -4.9900   0.0000   0.0000   0.0000   0.2890
   9.800   1.2208   0.02865   0.02120  -0.0615  0.0958  1.0000  -5.0397   0.0000   0.0000   0.0000   0.2879
   9.900   1.2234   0.02922   0.02183  -0.0606  0.0901  1.0000  -5.1149   0.0000   0.0000   0.0000   0.2870
  10.000   1.2237   0.02995   0.02255  -0.0597  0.0845  1.0000  -5.1777   0.0000   0.0000   0.0000   0.2860
  10.100   1.2218   0.03088   0.02341  -0.0586  0.0795  1.0000  -5.2235   0.0000   0.0000   0.0000   0.2850
  10.200   1.2168   0.03209   0.02459  -0.0572  0.0745  1.0000  -5.2389   0.0000   0.0000   0.0000   0.2839
  10.300   1.2156   0.03309   0.02561  -0.0561  0.0705  1.0000  -5.2764   0.0000   0.0000   0.0000   0.2829
  10.400   1.2196   0.03361   0.02620  -0.0556  0.0671  1.0000  -5.3602   0.0000   0.0000   0.0000   0.2822
  10.500   1.2219   0.03429   0.02692  -0.0550  0.0633  1.0000  -5.4306   0.0000   0.0000   0.0000   0.2814
  10.600   1.2232   0.03507   0.02771  -0.0543  0.0600  1.0000  -5.4940   0.0000   0.0000   0.0000   0.2807
  10.700   1.2229   0.03598   0.02863  -0.0535  0.0572  1.0000  -5.5446   0.0000   0.0000   0.0000   0.2799
  10.800   1.2212   0.03704   0.02967  -0.0527  0.0546  1.0000  -5.5817   0.0000   0.0000   0.0000   0.2791
  10.900   1.2184   0.03831   0.03093  -0.0516  0.0517  1.0000  -5.5970   0.0000   0.0000   0.0000   0.2781
  11.000   1.2177   0.03972   0.03236  -0.0503  0.0486  1.0000  -5.6020   0.0000   0.0000   0.0000   0.2769
  11.100   1.2215   0.04032   0.03304  -0.0498  0.0474  1.0000  -5.6742   0.0000   0.0000   0.0000   0.2763
  11.200   1.2247   0.04101   0.03380  -0.0493  0.0457  1.0000  -5.7390   0.0000   0.0000   0.0000   0.2756
  11.300   1.2273   0.04176   0.03460  -0.0488  0.0436  1.0000  -5.7998   0.0000   0.0000   0.0000   0.2749
  11.400   1.2291   0.04256   0.03544  -0.0484  0.0413  1.0000  -5.8594   0.0000   0.0000   0.0000   0.2744
  11.500   1.2303   0.04339   0.03629  -0.0480  0.0392  1.0000  -5.9215   0.0000   0.0000   0.0000   0.2738
  11.600   1.2310   0.04426   0.03717  -0.0477  0.0373  1.0000  -5.9848   0.0000   0.0000   0.0000   0.2734
  11.700   1.2312   0.04524   0.03814  -0.0474  0.0354  1.0000  -6.0418   0.0000   0.0000   0.0000   0.2729
  11.800   1.2308   0.04643   0.03932  -0.0467  0.0334  1.0000  -6.0736   0.0000   0.0000   0.0000   0.2722
  11.900   1.2362   0.04855   0.04151  -0.0450  0.0302  1.0000  -6.0174   0.0000   0.0000   0.0000   0.2706
  12.000   1.2391   0.04930   0.04233  -0.0446  0.0297  1.0000  -6.0727   0.0000   0.0000   0.0000   0.2700
  12.100   1.2423   0.05011   0.04323  -0.0442  0.0292  1.0000  -6.1223   0.0000   0.0000   0.0000   0.2695
  12.200   1.2457   0.05100   0.04420  -0.0437  0.0285  1.0000  -6.1654   0.0000   0.0000   0.0000   0.2688
  12.300   1.2492   0.05196   0.04525  -0.0433  0.0278  1.0000  -6.2017   0.0000   0.0000   0.0000   0.2682
  12.400   1.2523   0.05301   0.04638  -0.0428  0.0271  1.0000  -6.2313   0.0000   0.0000   0.0000   0.2676
  12.500   1.2551   0.05412   0.04759  -0.0423  0.0264  1.0000  -6.2557   0.0000   0.0000   0.0000   0.2669
  12.600   1.2575   0.05530   0.04887  -0.0418  0.0258  1.0000  -6.2758   0.0000   0.0000   0.0000   0.2663
  12.700   1.2595   0.05654   0.05020  -0.0413  0.0253  1.0000  -6.3019   0.0000   0.0000   0.0000   0.2657
  12.800   1.2609   0.05782   0.05159  -0.0409  0.0248  1.0000  -6.3312   0.0000   0.0000   0.0000   0.2652
  12.900   1.2616   0.05912   0.05298  -0.0405  0.0243  1.0000  -6.3604   0.0000   0.0000   0.0000   0.2647
  13.000   1.2614   0.06041   0.05437  -0.0402  0.0239  1.0000  -6.3895   0.0000   0.0000   0.0000   0.2642
  13.100   1.2605   0.06172   0.05576  -0.0399  0.0235  1.0000  -6.4179   0.0000   0.0000   0.0000   0.2639
  13.200   1.2594   0.06301   0.05713  -0.0396  0.0230  1.0000  -6.4486   0.0000   0.0000   0.0000   0.2635
  13.300   1.2582   0.06430   0.05849  -0.0394  0.0226  1.0000  -6.4826   0.0000   0.0000   0.0000   0.2632
  13.400   1.2569   0.06557   0.05983  -0.0393  0.0221  1.0000  -6.5200   0.0000   0.0000   0.0000   0.2630
  13.500   1.2555   0.06684   0.06116  -0.0392  0.0216  1.0000  -6.5603   0.0000   0.0000   0.0000   0.2627
  13.600   1.2536   0.06815   0.06253  -0.0392  0.0212  1.0000  -6.5995   0.0000   0.0000   0.0000   0.2626
  13.700   1.2516   0.06948   0.06390  -0.0392  0.0207  1.0000  -6.6400   0.0000   0.0000   0.0000   0.2625
  13.800   1.2497   0.07082   0.06529  -0.0393  0.0203  1.0000  -6.6820   0.0000   0.0000   0.0000   0.2624
  13.900   1.2478   0.07219   0.06671  -0.0394  0.0199  1.0000  -6.7233   0.0000   0.0000   0.0000   0.2624
  14.000   1.2457   0.07362   0.06819  -0.0396  0.0195  1.0000  -6.7613   0.0000   0.0000   0.0000   0.2623
  14.100   1.2431   0.07517   0.06980  -0.0397  0.0192  1.0000  -6.7912   0.0000   0.0000   0.0000   0.2623
  14.200   1.2396   0.07688   0.07157  -0.0400  0.0189  1.0000  -6.8090   0.0000   0.0000   0.0000   0.2624
  14.300   1.2357   0.07868   0.07344  -0.0403  0.0187  1.0000  -6.8187   0.0000   0.0000   0.0000   0.2626
  14.400   1.2316   0.08058   0.07542  -0.0406  0.0185  1.0000  -6.8216   0.0000   0.0000   0.0000   0.2628
  14.500   1.2272   0.08255   0.07748  -0.0410  0.0183  1.0000  -6.8176   0.0000   0.0000   0.0000   0.2630
  14.600   1.2225   0.08459   0.07961  -0.0414  0.0182  1.0000  -6.8076   0.0000   0.0000   0.0000   0.2633
  14.700   1.2171   0.08673   0.08185  -0.0420  0.0182  1.0000  -6.7910   0.0000   0.0000   0.0000   0.2637
  14.800   1.2113   0.08894   0.08414  -0.0426  0.0181  1.0000  -6.7704   0.0000   0.0000   0.0000   0.2643
  14.900   1.2056   0.09117   0.08647  -0.0434  0.0181  1.0000  -6.7486   0.0000   0.0000   0.0000   0.2648
  15.000   1.1999   0.09343   0.08882  -0.0441  0.0181  1.0000  -6.7250   0.0000   0.0000   0.0000   0.2655
  15.100   1.1941   0.09574   0.09123  -0.0450  0.0181  1.0000  -6.6990   0.0000   0.0000   0.0000   0.2662
  15.200   1.1875   0.09817   0.09375  -0.0460  0.0181  1.0000  -6.6680   0.0000   0.0000   0.0000   0.2671
  15.300   1.1810   0.10064   0.09631  -0.0472  0.0181  1.0000  -6.6346   0.0000   0.0000   0.0000   0.2681
  15.400   1.1745   0.10315   0.09891  -0.0483  0.0181  1.0000  -6.5998   0.0000   0.0000   0.0000   0.2691
  15.500   1.1681   0.10571   0.10155  -0.0496  0.0181  1.0000  -6.5622   0.0000   0.0000   0.0000   0.2702
  15.600   1.1610   0.10841   0.10434  -0.0510  0.0182  1.0000  -6.5183   0.0000   0.0000   0.0000   0.2716
  15.700   1.1536   0.11123   0.10725  -0.0526  0.0182  1.0000  -6.4690   0.0000   0.0000   0.0000   0.2730
  15.800   1.1463   0.11406   0.11017  -0.0543  0.0183  1.0000  -6.4162   0.0000   0.0000   0.0000   0.2746
  15.900   1.1387   0.11697   0.11316  -0.0561  0.0184  1.0000  -6.3569   0.0000   0.0000   0.0000   0.2763
  16.000   1.1299   0.12020   0.11648  -0.0582  0.0185  1.0000  -6.2816   0.0000   0.0000   0.0000   0.2784
  16.100   1.1208   0.12364   0.12002  -0.0604  0.0187  1.0000  -6.1944   0.0000   0.0000   0.0000   0.2807
  16.200   1.1103   0.12758   0.12406  -0.0631  0.0189  1.0000  -6.0827   0.0000   0.0000   0.0000   0.2835
  16.300   1.0964   0.13260   0.12920  -0.0665  0.0193  1.0000  -5.9167   0.0000   0.0000   0.0000   0.2873
  16.400   1.0079   0.16246   0.15933  -0.0848  0.0268  1.0000  -4.3917   0.0000   0.0000   0.0000   0.3119
  16.500   0.9983   0.16858   0.16543  -0.0878  0.0275  1.0000  -4.1799   0.0000   0.0000   0.0000   0.3159
  16.600   0.9917   0.17362   0.17046  -0.0902  0.0279  1.0000  -4.0197   0.0000   0.0000   0.0000   0.3189
  16.700   0.9866   0.17803   0.17485  -0.0923  0.0283  1.0000  -3.8908   0.0000   0.0000   0.0000   0.3214
  16.800   0.9826   0.18209   0.17890  -0.0941  0.0286  1.0000  -3.7795   0.0000   0.0000   0.0000   0.3237
  16.900   0.9791   0.18595   0.18274  -0.0958  0.0289  1.0000  -3.6793   0.0000   0.0000   0.0000   0.3257
  17.000   0.9759   0.18973   0.18650  -0.0974  0.0293  1.0000  -3.5840   0.0000   0.0000   0.0000   0.3275
  17.100   0.9594   0.20621   0.20294  -0.1011  0.0482  1.0000  -2.8737   0.0000   0.0000   0.0000   0.3337
  17.200   0.9602   0.20836   0.20509  -0.1026  0.0478  1.0000  -2.8454   0.0000   0.0000   0.0000   0.3351
  17.300   0.9614   0.21046   0.20718  -0.1041  0.0470  1.0000  -2.8161   0.0000   0.0000   0.0000   0.3365
  17.400   0.9774   0.20041   0.19721  -0.1009  0.0308  1.0000  -3.4307   0.0000   0.0000   0.0000   0.3305
  17.500   0.9782   0.20304   0.19984  -0.1020  0.0310  1.0000  -3.3968   0.0000   0.0000   0.0000   0.3315
  17.600   0.9790   0.20570   0.20249  -0.1031  0.0311  1.0000  -3.3618   0.0000   0.0000   0.0000   0.3324
  17.700   0.9798   0.20836   0.20515  -0.1042  0.0312  1.0000  -3.3264   0.0000   0.0000   0.0000   0.3333
  17.800   0.9808   0.21100   0.20778  -0.1053  0.0313  1.0000  -3.2911   0.0000   0.0000   0.0000   0.3343
  17.900   0.9822   0.21366   0.21044  -0.1065  0.0317  1.0000  -3.2490   0.0000   0.0000   0.0000   0.3352
  18.200   0.9684   0.23667   0.23338  -0.1118  0.0485  1.0000  -2.5827   0.0000   0.0000   0.0000   0.3425
  18.300   0.9694   0.23907   0.23577  -0.1128  0.0484  1.0000  -2.5605   0.0000   0.0000   0.0000   0.3434
  18.400   0.9705   0.24143   0.23813  -0.1139  0.0484  1.0000  -2.5391   0.0000   0.0000   0.0000   0.3442
  18.500   0.9715   0.24373   0.24043  -0.1150  0.0482  1.0000  -2.5182   0.0000   0.0000   0.0000   0.3450
  18.600   0.9727   0.24597   0.24266  -0.1160  0.0481  1.0000  -2.4979   0.0000   0.0000   0.0000   0.3459
  18.700   0.9738   0.24800   0.24469  -0.1172  0.0479  1.0000  -2.4776   0.0000   0.0000   0.0000   0.3468
  18.800   0.9742   0.24908   0.24576  -0.1192  0.0467  1.0000  -2.4395   0.0000   0.0000   0.0000   0.3487
  18.900   0.9723   0.25094   0.24760  -0.1217  0.0448  1.0000  -2.3728   0.0000   0.0000   0.0000   0.3513
  19.000   0.9724   0.25326   0.24992  -0.1231  0.0437  1.0000  -2.3399   0.0000   0.0000   0.0000   0.3526
  19.100   0.9730   0.25560   0.25226  -0.1242  0.0428  1.0000  -2.3169   0.0000   0.0000   0.0000   0.3536
  19.200   0.9739   0.25790   0.25456  -0.1253  0.0419  1.0000  -2.2994   0.0000   0.0000   0.0000   0.3544
  19.300   0.9750   0.26018   0.25684  -0.1262  0.0411  1.0000  -2.2859   0.0000   0.0000   0.0000   0.3551
  19.400   0.9762   0.26243   0.25909  -0.1271  0.0403  1.0000  -2.2755   0.0000   0.0000   0.0000   0.3557
  19.500   0.9774   0.26465   0.26131  -0.1279  0.0396  1.0000  -2.2678   0.0000   0.0000   0.0000   0.3562
  19.600   0.9787   0.26684   0.26350  -0.1288  0.0389  1.0000  -2.2622   0.0000   0.0000   0.0000   0.3567
  19.700   0.9801   0.26901   0.26567  -0.1295  0.0382  1.0000  -2.2588   0.0000   0.0000   0.0000   0.3571
  19.800   0.9815   0.27114   0.26782  -0.1303  0.0376  1.0000  -2.2575   0.0000   0.0000   0.0000   0.3575
  19.900   0.9830   0.27326   0.26993  -0.1309  0.0370  1.0000  -2.2581   0.0000   0.0000   0.0000   0.3579
  20.000   0.9845   0.27535   0.27203  -0.1316  0.0364  1.0000  -2.2607   0.0000   0.0000   0.0000   0.3582
  20.100   0.9861   0.27741   0.27410  -0.1322  0.0359  1.0000  -2.2653   0.0000   0.0000   0.0000   0.3584
  20.200   0.9877   0.27945   0.27614  -0.1328  0.0354  1.0000  -2.2721   0.0000   0.0000   0.0000   0.3586
  20.300   0.9894   0.28147   0.27817  -0.1334  0.0350  1.0000  -2.2811   0.0000   0.0000   0.0000   0.3588
  20.400   0.9912   0.28347   0.28017  -0.1339  0.0345  1.0000  -2.2926   0.0000   0.0000   0.0000   0.3589
  20.500   0.9930   0.28544   0.28215  -0.1343  0.0341  1.0000  -2.3067   0.0000   0.0000   0.0000   0.3589
  20.600   0.9949   0.28740   0.28412  -0.1347  0.0337  1.0000  -2.3238   0.0000   0.0000   0.0000   0.3588
  20.700   0.9970   0.28935   0.28607  -0.1351  0.0333  1.0000  -2.3446   0.0000   0.0000   0.0000   0.3587
  20.800   0.9993   0.29130   0.28803  -0.1353  0.0329  1.0000  -2.3694   0.0000   0.0000   0.0000   0.3584
  20.900   1.0019   0.29327   0.29002  -0.1354  0.0326  1.0000  -2.3992   0.0000   0.0000   0.0000   0.3580
  21.000   1.0048   0.29534   0.29210  -0.1354  0.0322  1.0000  -2.4350   0.0000   0.0000   0.0000   0.3573
  21.100   1.0073   0.29762   0.29440  -0.1354  0.0318  1.0000  -2.4664   0.0000   0.0000   0.0000   0.3568
  21.200   1.0088   0.30044   0.29723  -0.1354  0.0314  1.0000  -2.4854   0.0000   0.0000   0.0000   0.3565
  21.300   0.9990   0.30996   0.30670  -0.1361  0.0303  1.0000  -2.3325   0.0000   0.0000   0.0000   0.3586
  21.400   0.9991   0.31246   0.30920  -0.1368  0.0303  1.0000  -2.3155   0.0000   0.0000   0.0000   0.3592
  21.500   0.9991   0.31493   0.31168  -0.1375  0.0302  1.0000  -2.2984   0.0000   0.0000   0.0000   0.3597
  21.600   0.9990   0.31738   0.31413  -0.1382  0.0302  1.0000  -2.2810   0.0000   0.0000   0.0000   0.3603
  21.700   0.9987   0.31980   0.31656  -0.1388  0.0302  1.0000  -2.2633   0.0000   0.0000   0.0000   0.3608
  21.800   0.9982   0.32219   0.31897  -0.1395  0.0302  1.0000  -2.2452   0.0000   0.0000   0.0000   0.3614
  21.900   0.9975   0.32455   0.32133  -0.1401  0.0302  1.0000  -2.2266   0.0000   0.0000   0.0000   0.3620
  22.000   0.9965   0.32686   0.32365  -0.1406  0.0302  1.0000  -2.2073   0.0000   0.0000   0.0000   0.3626
  22.100   0.9951   0.32910   0.32590  -0.1412  0.0302  1.0000  -2.1871   0.0000   0.0000   0.0000   0.3632
  22.200   0.9933   0.33127   0.32809  -0.1417  0.0301  1.0000  -2.1658   0.0000   0.0000   0.0000   0.3638
  22.300   0.9908   0.33333   0.33016  -0.1421  0.0301  1.0000  -2.1427   0.0000   0.0000   0.0000   0.3645
  22.400   0.9873   0.33522   0.33206  -0.1424  0.0301  1.0000  -2.1170   0.0000   0.0000   0.0000   0.3652
  22.500   0.9112   0.32106   0.31812  -0.1345  0.0301  1.0000  -1.8884   0.0000   0.0000   0.0000   0.3703
  22.600   0.9048   0.32082   0.31790  -0.1343  0.0301  1.0000  -1.8558   0.0000   0.0000   0.0000   0.3712
  22.700   0.8994   0.32077   0.31788  -0.1343  0.0301  1.0000  -1.8264   0.0000   0.0000   0.0000   0.3720
  22.800   0.8949   0.32084   0.31797  -0.1344  0.0301  1.0000  -1.7994   0.0000   0.0000   0.0000   0.3728
  22.900   0.8908   0.32097   0.31812  -0.1345  0.0300  1.0000  -1.7737   0.0000   0.0000   0.0000   0.3736
  23.000   0.8871   0.32116   0.31832  -0.1346  0.0300  1.0000  -1.7493   0.0000   0.0000   0.0000   0.3744
  23.100   0.8837   0.32138   0.31856  -0.1348  0.0300  1.0000  -1.7260   0.0000   0.0000   0.0000   0.3751
  23.200   0.8806   0.32164   0.31883  -0.1351  0.0299  1.0000  -1.7035   0.0000   0.0000   0.0000   0.3759
  23.300   0.8778   0.32190   0.31910  -0.1353  0.0299  1.0000  -1.6816   0.0000   0.0000   0.0000   0.3766
  23.400   0.8751   0.32217   0.31939  -0.1356  0.0299  1.0000  -1.6602   0.0000   0.0000   0.0000   0.3773
  23.500   0.8725   0.32245   0.31968  -0.1359  0.0298  1.0000  -1.6394   0.0000   0.0000   0.0000   0.3780
  23.600   0.8702   0.32272   0.31997  -0.1362  0.0298  1.0000  -1.6187   0.0000   0.0000   0.0000   0.3787
  23.700   0.8676   0.32294   0.32020  -0.1366  0.0297  1.0000  -1.5959   0.0000   0.0000   0.0000   0.3795
  23.800   0.8648   0.32310   0.32036  -0.1370  0.0296  1.0000  -1.5702   0.0000   0.0000   0.0000   0.3805
  23.900   0.8621   0.32328   0.32055  -0.1375  0.0295  1.0000  -1.5444   0.0000   0.0000   0.0000   0.3815
  24.000   0.8597   0.32349   0.32078  -0.1380  0.0294  1.0000  -1.5187   0.0000   0.0000   0.0000   0.3824
  24.100   0.8574   0.32376   0.32105  -0.1386  0.0293  1.0000  -1.4929   0.0000   0.0000   0.0000   0.3834
  24.200   0.8555   0.32409   0.32139  -0.1392  0.0291  1.0000  -1.4666   0.0000   0.0000   0.0000   0.3844
  24.300   0.8538   0.32452   0.32183  -0.1399  0.0289  1.0000  -1.4397   0.0000   0.0000   0.0000   0.3854
  24.400   0.8525   0.32510   0.32241  -0.1406  0.0285  1.0000  -1.4124   0.0000   0.0000   0.0000   0.3864
  24.500   0.8516   0.32580   0.32313  -0.1413  0.0281  1.0000  -1.3860   0.0000   0.0000   0.0000   0.3873
  24.600   0.8508   0.32657   0.32390  -0.1420  0.0276  1.0000  -1.3622   0.0000   0.0000   0.0000   0.3881
  24.700   0.8500   0.32732   0.32466  -0.1425  0.0271  1.0000  -1.3418   0.0000   0.0000   0.0000   0.3887
  24.800   0.8493   0.32804   0.32539  -0.1430  0.0266  1.0000  -1.3242   0.0000   0.0000   0.0000   0.3893
  24.900   0.8484   0.32872   0.32608  -0.1434  0.0261  1.0000  -1.3086   0.0000   0.0000   0.0000   0.3899
  25.000   0.8476   0.32938   0.32675  -0.1438  0.0257  1.0000  -1.2946   0.0000   0.0000   0.0000   0.3903
  25.100   0.8469   0.33002   0.32740  -0.1441  0.0252  1.0000  -1.2818   0.0000   0.0000   0.0000   0.3908
  25.200   0.8461   0.33065   0.32804  -0.1445  0.0248  1.0000  -1.2698   0.0000   0.0000   0.0000   0.3913
  25.300   0.8454   0.33128   0.32868  -0.1448  0.0244  1.0000  -1.2587   0.0000   0.0000   0.0000   0.3917
  25.400   0.8447   0.33189   0.32930  -0.1452  0.0240  1.0000  -1.2483   0.0000   0.0000   0.0000   0.3921
  25.500   0.8440   0.33250   0.32992  -0.1455  0.0236  1.0000  -1.2387   0.0000   0.0000   0.0000   0.3925
  25.600   0.8434   0.33311   0.33054  -0.1459  0.0232  1.0000  -1.2297   0.0000   0.0000   0.0000   0.3929
  25.700   0.8428   0.33371   0.33115  -0.1462  0.0229  1.0000  -1.2214   0.0000   0.0000   0.0000   0.3933
  25.800   0.8423   0.33430   0.33175  -0.1466  0.0225  1.0000  -1.2138   0.0000   0.0000   0.0000   0.3937
  25.900   0.8417   0.33489   0.33235  -0.1469  0.0221  1.0000  -1.2069   0.0000   0.0000   0.0000   0.3940
  26.000   0.8412   0.33547   0.33294  -0.1472  0.0218  1.0000  -1.2007   0.0000   0.0000   0.0000   0.3944
  26.100   0.8408   0.33605   0.33352  -0.1476  0.0214  1.0000  -1.1953   0.0000   0.0000   0.0000   0.3947
  26.200   0.8404   0.33661   0.33410  -0.1479  0.0211  1.0000  -1.1907   0.0000   0.0000   0.0000   0.3950
  26.300   0.8400   0.33717   0.33467  -0.1482  0.0207  1.0000  -1.1868   0.0000   0.0000   0.0000   0.3954
  26.400   0.8396   0.33772   0.33523  -0.1486  0.0204  1.0000  -1.1838   0.0000   0.0000   0.0000   0.3957
  26.500   0.8393   0.33827   0.33585  -0.1489  0.0201  1.0000  -1.1814   0.0000   0.0000   0.0000   0.3960
  26.600   0.8389   0.33880   0.33639  -0.1492  0.0198  1.0000  -1.1801   0.0000   0.0000   0.0000   0.3962
  26.700   0.8386   0.33931   0.33692  -0.1495  0.0195  1.0000  -1.1797   0.0000   0.0000   0.0000   0.3965
  26.800   0.8384   0.33982   0.33743  -0.1498  0.0192  1.0000  -1.1802   0.0000   0.0000   0.0000   0.3967
  26.900   0.8381   0.34031   0.33794  -0.1501  0.0190  1.0000  -1.1816   0.0000   0.0000   0.0000   0.3969
  27.000   0.8379   0.34079   0.33843  -0.1504  0.0187  1.0000  -1.1838   0.0000   0.0000   0.0000   0.3971
  27.100   0.8377   0.34127   0.33891  -0.1507  0.0185  1.0000  -1.1868   0.0000   0.0000   0.0000   0.3973
  27.200   0.8375   0.34173   0.33938  -0.1509  0.0183  1.0000  -1.1906   0.0000   0.0000   0.0000   0.3975
  27.300   0.8373   0.34218   0.33984  -0.1512  0.0180  1.0000  -1.1951   0.0000   0.0000   0.0000   0.3976
  27.400   0.8372   0.34263   0.34031  -0.1514  0.0179  1.0000  -1.2001   0.0000   0.0000   0.0000   0.3978
  27.500   0.8370   0.34309   0.34077  -0.1516  0.0177  1.0000  -1.2056   0.0000   0.0000   0.0000   0.3979
  27.600   0.8369   0.34354   0.34123  -0.1518  0.0175  1.0000  -1.2124   0.0000   0.0000   0.0000   0.3979
  27.700   0.8368   0.34399   0.34170  -0.1520  0.0173  1.0000  -1.2209   0.0000   0.0000   0.0000   0.3979
  27.800   0.8368   0.34447   0.34219  -0.1521  0.0172  1.0000  -1.2351   0.0000   0.0000   0.0000   0.3979
  27.900   0.8369   0.34500   0.34273  -0.1522  0.0170  1.0000  -1.2507   0.0000   0.0000   0.0000   0.3978
  28.000   0.8371   0.34567   0.34341  -0.1521  0.0168  1.0000  -1.2677   0.0000   0.0000   0.0000   0.3975
  28.100   0.8375   0.34665   0.34440  -0.1520  0.0166  1.0000  -1.2859   0.0000   0.0000   0.0000   0.3971
  28.200   0.8378   0.34915   0.34691  -0.1516  0.0163  1.0000  -1.2872   0.0000   0.0000   0.0000   0.3965


