xflr5 v6.61

 Calculated polar for: EPPLER 654 AIRFOIL

 1 1 Reynolds number fixed          Mach number fixed         

 xtrf =   1.000 (top)        1.000 (bottom)
 Mach =   0.000     Re =     0.563 e 6     Ncrit =   9.000

  alpha     CL        CD       CDp       Cm    Top Xtr Bot Xtr   Cpmin    Chinge    XCp    
 ------- -------- --------- --------- -------- ------- ------- -------- --------- ---------
 -10.000  -0.3025   0.03481   0.03064  -0.1402  0.7274  0.0136  -5.1301   0.0000   0.0000   0.0000  -0.2449
  -9.900  -0.3071   0.03385   0.02961  -0.1394  0.7266  0.0135  -5.1516   0.0000   0.0000   0.0000  -0.2343
  -9.800  -0.3114   0.03312   0.02881  -0.1384  0.7258  0.0134  -5.1631   0.0000   0.0000   0.0000  -0.2241
  -9.700  -0.3125   0.03229   0.02791  -0.1378  0.7251  0.0133  -5.1637   0.0000   0.0000   0.0000  -0.2201
  -9.600  -0.3120   0.03148   0.02702  -0.1373  0.7243  0.0132  -5.1554   0.0000   0.0000   0.0000  -0.2190
  -9.500  -0.3104   0.03069   0.02616  -0.1368  0.7236  0.0131  -5.1409   0.0000   0.0000   0.0000  -0.2194
  -9.400  -0.3081   0.02993   0.02532  -0.1364  0.7228  0.0131  -5.1217   0.0000   0.0000   0.0000  -0.2210
  -9.300  -0.3051   0.02918   0.02450  -0.1359  0.7220  0.0130  -5.0989   0.0000   0.0000   0.0000  -0.2239
  -9.200  -0.3015   0.02844   0.02369  -0.1355  0.7212  0.0130  -5.0732   0.0000   0.0000   0.0000  -0.2277
  -9.100  -0.2975   0.02771   0.02288  -0.1351  0.7205  0.0129  -5.0452   0.0000   0.0000   0.0000  -0.2325
  -9.000  -0.2930   0.02699   0.02208  -0.1348  0.7197  0.0129  -5.0155   0.0000   0.0000   0.0000  -0.2383
  -8.900  -0.2881   0.02627   0.02128  -0.1344  0.7189  0.0128  -4.9842   0.0000   0.0000   0.0000  -0.2449
  -8.800  -0.2828   0.02556   0.02049  -0.1340  0.7181  0.0128  -4.9518   0.0000   0.0000   0.0000  -0.2525
  -8.700  -0.2772   0.02484   0.01970  -0.1337  0.7173  0.0128  -4.9183   0.0000   0.0000   0.0000  -0.2611
  -8.600  -0.2712   0.02414   0.01891  -0.1334  0.7165  0.0128  -4.8839   0.0000   0.0000   0.0000  -0.2707
  -8.500  -0.2650   0.02343   0.01813  -0.1331  0.7157  0.0128  -4.8486   0.0000   0.0000   0.0000  -0.2814
  -8.400  -0.2585   0.02273   0.01735  -0.1328  0.7149  0.0128  -4.8127   0.0000   0.0000   0.0000  -0.2933
  -8.300  -0.2516   0.02205   0.01658  -0.1325  0.7141  0.0129  -4.7759   0.0000   0.0000   0.0000  -0.3064
  -8.200  -0.2446   0.02137   0.01582  -0.1322  0.7133  0.0129  -4.7382   0.0000   0.0000   0.0000  -0.3209
  -8.100  -0.2372   0.02071   0.01508  -0.1319  0.7125  0.0130  -4.6994   0.0000   0.0000   0.0000  -0.3368
  -8.000  -0.2297   0.02006   0.01435  -0.1316  0.7117  0.0130  -4.6593   0.0000   0.0000   0.0000  -0.3545
  -7.900  -0.2219   0.01945   0.01366  -0.1314  0.7109  0.0131  -4.6176   0.0000   0.0000   0.0000  -0.3739
  -7.800  -0.2140   0.01886   0.01299  -0.1311  0.7100  0.0133  -4.5743   0.0000   0.0000   0.0000  -0.3954
  -7.700  -0.2058   0.01830   0.01236  -0.1308  0.7092  0.0134  -4.5290   0.0000   0.0000   0.0000  -0.4192
  -7.600  -0.1975   0.01777   0.01177  -0.1306  0.7083  0.0136  -4.4817   0.0000   0.0000   0.0000  -0.4454
  -7.500  -0.1891   0.01728   0.01121  -0.1303  0.7074  0.0138  -4.4325   0.0000   0.0000   0.0000  -0.4744
  -7.400  -0.1806   0.01682   0.01069  -0.1301  0.7065  0.0141  -4.3801   0.0000   0.0000   0.0000  -0.5067
  -7.300  -0.1719   0.01640   0.01022  -0.1299  0.7055  0.0144  -4.3239   0.0000   0.0000   0.0000  -0.5432
  -7.200  -0.1629   0.01604   0.00981  -0.1297  0.7045  0.0148  -4.2638   0.0000   0.0000   0.0000  -0.5848
  -7.100  -0.1538   0.01571   0.00944  -0.1295  0.7035  0.0151  -4.2003   0.0000   0.0000   0.0000  -0.6326
  -7.000  -0.1445   0.01541   0.00910  -0.1293  0.7024  0.0156  -4.1339   0.0000   0.0000   0.0000  -0.6879
  -6.900  -0.1350   0.01515   0.00880  -0.1292  0.7013  0.0160  -4.0652   0.0000   0.0000   0.0000  -0.7523
  -6.800  -0.1253   0.01491   0.00853  -0.1291  0.7001  0.0164  -4.0000   0.0000   0.0000   0.0000  -0.8280
  -6.700  -0.1155   0.01469   0.00828  -0.1291  0.6988  0.0169  -3.9370   0.0000   0.0000   0.0000  -0.9181
  -6.600  -0.1055   0.01449   0.00806  -0.1290  0.6975  0.0174  -3.8721   0.0000   0.0000   0.0000  -1.0268
  -6.500  -0.0955   0.01432   0.00786  -0.1290  0.6962  0.0180  -3.8053   0.0000   0.0000   0.0000  -1.1601
  -6.400  -0.0853   0.01417   0.00768  -0.1289  0.6947  0.0186  -3.7374   0.0000   0.0000   0.0000  -1.3263
  -6.300  -0.0751   0.01404   0.00753  -0.1289  0.6932  0.0194  -3.6690   0.0000   0.0000   0.0000  -1.5382
  -6.200  -0.0650   0.01394   0.00741  -0.1289  0.6915  0.0201  -3.6001   0.0000   0.0000   0.0000  -1.8160
  -6.000  -0.0447   0.01379   0.00719  -0.1289  0.6885  0.0221  -3.4558   0.0000   0.0000   0.0000  -2.7498
  -5.900  -0.0339   0.01365   0.00703  -0.1289  0.6883  0.0232  -3.3772   0.0000   0.0000   0.0000  -3.7023
  -5.800  -0.0230   0.01353   0.00689  -0.1290  0.6880  0.0242  -3.2956   0.0000   0.0000   0.0000  -5.5725
  -5.700  -0.0120   0.01343   0.00679  -0.1290  0.6877  0.0250  -3.2103   0.0000   0.0000   0.0000  -10.9198
  -5.600  -0.0009   0.01336   0.00671  -0.1291  0.6874  0.0256  -3.1220   0.0000   0.0000   0.0000  -152.6702
  -5.500   0.0103   0.01331   0.00666  -0.1292  0.6872  0.0261  -3.0320   0.0000   0.0000   0.0000  13.2583
  -5.400   0.0206   0.01305   0.00635  -0.1292  0.6868  0.0280  -2.9698   0.0000   0.0000   0.0000   6.7467
  -5.300   0.0305   0.01263   0.00589  -0.1292  0.6865  0.0358  -2.9299   0.0000   0.0000   0.0000   4.6371
  -5.200   0.0412   0.01246   0.00578  -0.1293  0.6862  0.0404  -2.8510   0.0000   0.0000   0.0000   3.4916
  -5.100   0.0523   0.01236   0.00569  -0.1294  0.6859  0.0441  -2.7681   0.0000   0.0000   0.0000   2.8080
  -5.000   0.0635   0.01231   0.00562  -0.1295  0.6856  0.0461  -2.6813   0.0000   0.0000   0.0000   2.3566
  -4.900   0.0741   0.01206   0.00543  -0.1296  0.6852  0.0586  -2.6111   0.0000   0.0000   0.0000   2.0538
  -4.800   0.0850   0.01192   0.00535  -0.1298  0.6848  0.0667  -2.5288   0.0000   0.0000   0.0000   1.8233
  -4.700   0.0962   0.01184   0.00529  -0.1299  0.6844  0.0712  -2.4441   0.0000   0.0000   0.0000   1.6406
  -4.600   0.1074   0.01174   0.00519  -0.1300  0.6840  0.0849  -2.3632   0.0000   0.0000   0.0000   1.4959
  -4.500   0.1185   0.01161   0.00513  -0.1302  0.6836  0.0985  -2.2814   0.0000   0.0000   0.0000   1.3802
  -4.400   0.1297   0.01152   0.00507  -0.1303  0.6832  0.1089  -2.1992   0.0000   0.0000   0.0000   1.2832
  -4.300   0.1407   0.01136   0.00500  -0.1305  0.6827  0.1238  -2.1187   0.0000   0.0000   0.0000   1.2031
  -4.200   0.1518   0.01125   0.00494  -0.1307  0.6823  0.1400  -2.0381   0.0000   0.0000   0.0000   1.1336
  -4.100   0.1629   0.01107   0.00488  -0.1310  0.6818  0.1635  -1.9591   0.0000   0.0000   0.0000   1.0746
  -4.000   0.1742   0.01095   0.00482  -0.1312  0.6813  0.1841  -1.8799   0.0000   0.0000   0.0000   1.0219
  -3.900   0.1853   0.01077   0.00477  -0.1315  0.6808  0.2105  -1.8020   0.0000   0.0000   0.0000   0.9764
  -3.800   0.1967   0.01063   0.00472  -0.1317  0.6803  0.2372  -1.7245   0.0000   0.0000   0.0000   0.9355
  -3.700   0.2081   0.01050   0.00467  -0.1320  0.6797  0.2599  -1.6475   0.0000   0.0000   0.0000   0.8987
  -3.600   0.2195   0.01035   0.00462  -0.1323  0.6792  0.2885  -1.5715   0.0000   0.0000   0.0000   0.8658
  -3.500   0.2310   0.01025   0.00459  -0.1326  0.6787  0.3100  -1.4959   0.0000   0.0000   0.0000   0.8358
  -3.400   0.2426   0.01009   0.00454  -0.1329  0.6781  0.3422  -1.4214   0.0000   0.0000   0.0000   0.8089
  -3.300   0.2542   0.00999   0.00451  -0.1332  0.6775  0.3673  -1.3475   0.0000   0.0000   0.0000   0.7840
  -3.200   0.2659   0.00984   0.00447  -0.1335  0.6770  0.4003  -1.2745   0.0000   0.0000   0.0000   0.7615
  -3.100   0.2776   0.00972   0.00444  -0.1338  0.6764  0.4303  -1.2023   0.0000   0.0000   0.0000   0.7406
  -3.000   0.2893   0.00961   0.00443  -0.1341  0.6758  0.4631  -1.1311   0.0000   0.0000   0.0000   0.7215
  -2.900   0.3010   0.00946   0.00443  -0.1344  0.6752  0.5061  -1.0608   0.0000   0.0000   0.0000   0.7039
  -2.800   0.3127   0.00935   0.00443  -0.1347  0.6746  0.5443  -0.9937   0.0000   0.0000   0.0000   0.6874
  -2.700   0.3242   0.00933   0.00446  -0.1348  0.6739  0.5705  -0.9289   0.0000   0.0000   0.0000   0.6719
  -2.600   0.3356   0.00930   0.00453  -0.1349  0.6733  0.5948  -0.8655   0.0000   0.0000   0.0000   0.6576
  -2.500   0.3472   0.00932   0.00456  -0.1350  0.6727  0.6098  -0.8515   0.0000   0.0000   0.0000   0.6440
  -2.400   0.3589   0.00934   0.00457  -0.1351  0.6720  0.6193  -0.8573   0.0000   0.0000   0.0000   0.6312
  -2.300   0.3704   0.00936   0.00462  -0.1352  0.6714  0.6309  -0.8631   0.0000   0.0000   0.0000   0.6194
  -2.200   0.3816   0.00939   0.00468  -0.1352  0.6707  0.6421  -0.8687   0.0000   0.0000   0.0000   0.6082
  -2.100   0.3930   0.00942   0.00473  -0.1352  0.6701  0.6506  -0.8743   0.0000   0.0000   0.0000   0.5976
  -2.000   0.4046   0.00946   0.00476  -0.1353  0.6694  0.6567  -0.8801   0.0000   0.0000   0.0000   0.5877
  -1.900   0.4163   0.00949   0.00478  -0.1354  0.6687  0.6618  -0.8860   0.0000   0.0000   0.0000   0.5782
  -1.800   0.4280   0.00953   0.00480  -0.1355  0.6679  0.6666  -0.8926   0.0000   0.0000   0.0000   0.5692
  -1.700   0.4398   0.00958   0.00482  -0.1357  0.6671  0.6703  -0.8994   0.0000   0.0000   0.0000   0.5607
  -1.600   0.4516   0.00963   0.00484  -0.1358  0.6662  0.6726  -0.9062   0.0000   0.0000   0.0000   0.5526
  -1.500   0.4630   0.00960   0.00482  -0.1359  0.6653  0.6791  -0.9128   0.0000   0.0000   0.0000   0.5451
  -1.400   0.4744   0.00960   0.00482  -0.1359  0.6645  0.6842  -0.9194   0.0000   0.0000   0.0000   0.5378
  -1.300   0.4857   0.00962   0.00485  -0.1359  0.6636  0.6889  -0.9259   0.0000   0.0000   0.0000   0.5309
  -1.200   0.4969   0.00965   0.00489  -0.1359  0.6628  0.6932  -0.9324   0.0000   0.0000   0.0000   0.5243
  -1.100   0.5082   0.00970   0.00493  -0.1359  0.6620  0.6970  -0.9389   0.0000   0.0000   0.0000   0.5180
  -1.000   0.5195   0.00974   0.00497  -0.1359  0.6613  0.7002  -0.9454   0.0000   0.0000   0.0000   0.5120
  -0.900   0.5310   0.00978   0.00500  -0.1360  0.6605  0.7030  -0.9519   0.0000   0.0000   0.0000   0.5062
  -0.800   0.5424   0.00982   0.00504  -0.1360  0.6598  0.7059  -0.9585   0.0000   0.0000   0.0000   0.5007
  -0.700   0.5538   0.00987   0.00508  -0.1361  0.6590  0.7088  -0.9650   0.0000   0.0000   0.0000   0.4955
  -0.600   0.5652   0.00992   0.00512  -0.1361  0.6581  0.7115  -0.9714   0.0000   0.0000   0.0000   0.4904
  -0.500   0.5766   0.00998   0.00516  -0.1362  0.6573  0.7142  -0.9779   0.0000   0.0000   0.0000   0.4856
  -0.400   0.5880   0.01004   0.00521  -0.1363  0.6564  0.7165  -0.9844   0.0000   0.0000   0.0000   0.4809
  -0.300   0.5994   0.01011   0.00526  -0.1364  0.6553  0.7184  -0.9909   0.0000   0.0000   0.0000   0.4764
  -0.200   0.6109   0.01018   0.00532  -0.1364  0.6541  0.7199  -0.9973   0.0000   0.0000   0.0000   0.4721
  -0.100   0.6223   0.01027   0.00539  -0.1365  0.6527  0.7211  -1.0037   0.0000   0.0000   0.0000   0.4679
   0.000   0.6336   0.01038   0.00548  -0.1366  0.6511  0.7221  -1.0107   0.0000   0.0000   0.0000   0.4640
   0.100   0.6447   0.01052   0.00562  -0.1367  0.6491  0.7230  -1.0176   0.0000   0.0000   0.0000   0.4602
   0.200   0.6556   0.01064   0.00573  -0.1368  0.6468  0.7269  -1.0241   0.0000   0.0000   0.0000   0.4567
   0.300   0.6643   0.01099   0.00611  -0.1366  0.6433  0.7308  -1.0287   0.0000   0.0000   0.0000   0.4535
   0.400   0.6755   0.01098   0.00612  -0.1367  0.6430  0.7341  -1.0359   0.0000   0.0000   0.0000   0.4500
   0.500   0.6867   0.01098   0.00612  -0.1367  0.6428  0.7367  -1.0432   0.0000   0.0000   0.0000   0.4466
   0.600   0.6980   0.01099   0.00614  -0.1367  0.6426  0.7390  -1.0505   0.0000   0.0000   0.0000   0.4433
   0.700   0.7092   0.01099   0.00615  -0.1367  0.6423  0.7413  -1.0578   0.0000   0.0000   0.0000   0.4401
   0.800   0.7204   0.01099   0.00615  -0.1368  0.6420  0.7433  -1.0657   0.0000   0.0000   0.0000   0.4369
   0.900   0.7318   0.01099   0.00615  -0.1368  0.6416  0.7452  -1.0740   0.0000   0.0000   0.0000   0.4339
   1.000   0.7431   0.01098   0.00615  -0.1369  0.6412  0.7471  -1.0823   0.0000   0.0000   0.0000   0.4309
   1.100   0.7543   0.01098   0.00615  -0.1369  0.6408  0.7490  -1.0906   0.0000   0.0000   0.0000   0.4281
   1.200   0.7656   0.01097   0.00615  -0.1369  0.6403  0.7509  -1.0988   0.0000   0.0000   0.0000   0.4253
   1.300   0.7768   0.01098   0.00615  -0.1370  0.6398  0.7528  -1.1070   0.0000   0.0000   0.0000   0.4226
   1.400   0.7880   0.01099   0.00617  -0.1370  0.6393  0.7545  -1.1152   0.0000   0.0000   0.0000   0.4200
   1.500   0.7993   0.01100   0.00619  -0.1371  0.6387  0.7563  -1.1234   0.0000   0.0000   0.0000   0.4175
   1.600   0.8105   0.01101   0.00620  -0.1372  0.6381  0.7580  -1.1319   0.0000   0.0000   0.0000   0.4151
   1.700   0.8218   0.01101   0.00621  -0.1372  0.6374  0.7597  -1.1412   0.0000   0.0000   0.0000   0.4127
   1.800   0.8331   0.01101   0.00621  -0.1373  0.6367  0.7613  -1.1505   0.0000   0.0000   0.0000   0.4103
   1.900   0.8445   0.01101   0.00621  -0.1374  0.6358  0.7627  -1.1598   0.0000   0.0000   0.0000   0.4081
   2.000   0.8559   0.01101   0.00621  -0.1375  0.6350  0.7640  -1.1692   0.0000   0.0000   0.0000   0.4059
   2.100   0.8674   0.01101   0.00621  -0.1376  0.6340  0.7652  -1.1785   0.0000   0.0000   0.0000   0.4038
   2.200   0.8788   0.01101   0.00622  -0.1377  0.6331  0.7664  -1.1880   0.0000   0.0000   0.0000   0.4017
   2.300   0.8902   0.01102   0.00623  -0.1378  0.6321  0.7674  -1.1985   0.0000   0.0000   0.0000   0.3997
   2.400   0.9016   0.01103   0.00624  -0.1379  0.6311  0.7684  -1.2090   0.0000   0.0000   0.0000   0.3977
   2.500   0.9130   0.01103   0.00624  -0.1380  0.6301  0.7693  -1.2195   0.0000   0.0000   0.0000   0.3957
   2.600   0.9245   0.01103   0.00624  -0.1382  0.6289  0.7701  -1.2302   0.0000   0.0000   0.0000   0.3938
   2.700   0.9360   0.01103   0.00623  -0.1383  0.6277  0.7707  -1.2408   0.0000   0.0000   0.0000   0.3920
   2.800   0.9476   0.01102   0.00622  -0.1384  0.6265  0.7712  -1.2515   0.0000   0.0000   0.0000   0.3902
   2.900   0.9592   0.01102   0.00622  -0.1386  0.6254  0.7716  -1.2622   0.0000   0.0000   0.0000   0.3885
   3.000   0.9708   0.01102   0.00622  -0.1387  0.6243  0.7720  -1.2740   0.0000   0.0000   0.0000   0.3868
   3.100   0.9824   0.01101   0.00621  -0.1389  0.6232  0.7726  -1.2861   0.0000   0.0000   0.0000   0.3851
   3.200   0.9946   0.01093   0.00613  -0.1393  0.6220  0.7749  -1.2985   0.0000   0.0000   0.0000   0.3836
   3.300   1.0065   0.01087   0.00606  -0.1395  0.6207  0.7773  -1.3108   0.0000   0.0000   0.0000   0.3821
   3.400   1.0182   0.01081   0.00601  -0.1397  0.6194  0.7796  -1.3230   0.0000   0.0000   0.0000   0.3805
   3.500   1.0297   0.01076   0.00596  -0.1399  0.6181  0.7817  -1.3351   0.0000   0.0000   0.0000   0.3790
   3.600   1.0410   0.01073   0.00593  -0.1400  0.6168  0.7835  -1.3472   0.0000   0.0000   0.0000   0.3774
   3.700   1.0523   0.01070   0.00591  -0.1400  0.6155  0.7851  -1.3602   0.0000   0.0000   0.0000   0.3759
   3.800   1.0635   0.01069   0.00590  -0.1401  0.6142  0.7866  -1.3737   0.0000   0.0000   0.0000   0.3745
   3.900   1.0748   0.01069   0.00589  -0.1402  0.6129  0.7878  -1.3872   0.0000   0.0000   0.0000   0.3730
   4.000   1.0861   0.01068   0.00588  -0.1403  0.6113  0.7889  -1.4008   0.0000   0.0000   0.0000   0.3716
   4.100   1.0974   0.01069   0.00588  -0.1404  0.6094  0.7901  -1.4144   0.0000   0.0000   0.0000   0.3702
   4.200   1.1086   0.01071   0.00590  -0.1405  0.6072  0.7911  -1.4279   0.0000   0.0000   0.0000   0.3689
   4.300   1.1198   0.01077   0.00595  -0.1406  0.6046  0.7922  -1.4414   0.0000   0.0000   0.0000   0.3676
   4.400   1.1310   0.01088   0.00606  -0.1408  0.6016  0.7933  -1.4561   0.0000   0.0000   0.0000   0.3663
   4.500   1.1419   0.01107   0.00626  -0.1409  0.5982  0.7944  -1.4709   0.0000   0.0000   0.0000   0.3651
   4.600   1.1528   0.01107   0.00628  -0.1409  0.5975  0.7955  -1.4862   0.0000   0.0000   0.0000   0.3638
   4.700   1.1638   0.01105   0.00627  -0.1410  0.5970  0.7967  -1.5015   0.0000   0.0000   0.0000   0.3626
   4.800   1.1747   0.01102   0.00626  -0.1410  0.5965  0.7978  -1.5169   0.0000   0.0000   0.0000   0.3613
   4.900   1.1856   0.01099   0.00625  -0.1410  0.5957  0.7990  -1.5327   0.0000   0.0000   0.0000   0.3601
   5.000   1.1964   0.01096   0.00624  -0.1410  0.5949  0.8002  -1.5502   0.0000   0.0000   0.0000   0.3589
   5.100   1.2072   0.01093   0.00623  -0.1410  0.5938  0.8013  -1.5677   0.0000   0.0000   0.0000   0.3577
   5.200   1.2179   0.01090   0.00622  -0.1410  0.5926  0.8025  -1.5853   0.0000   0.0000   0.0000   0.3565
   5.300   1.2287   0.01088   0.00622  -0.1410  0.5912  0.8037  -1.6029   0.0000   0.0000   0.0000   0.3554
   5.400   1.2394   0.01087   0.00622  -0.1411  0.5897  0.8049  -1.6205   0.0000   0.0000   0.0000   0.3542
   5.500   1.2502   0.01086   0.00623  -0.1411  0.5880  0.8061  -1.6381   0.0000   0.0000   0.0000   0.3531
   5.600   1.2609   0.01084   0.00623  -0.1410  0.5861  0.8075  -1.6558   0.0000   0.0000   0.0000   0.3520
   5.700   1.2715   0.01082   0.00622  -0.1410  0.5839  0.8089  -1.6735   0.0000   0.0000   0.0000   0.3509
   5.800   1.2822   0.01080   0.00622  -0.1410  0.5816  0.8102  -1.6920   0.0000   0.0000   0.0000   0.3498
   5.900   1.2928   0.01079   0.00622  -0.1410  0.5793  0.8115  -1.7124   0.0000   0.0000   0.0000   0.3487
   6.000   1.3035   0.01079   0.00622  -0.1410  0.5769  0.8128  -1.7330   0.0000   0.0000   0.0000   0.3476
   6.100   1.3142   0.01079   0.00623  -0.1410  0.5745  0.8138  -1.7536   0.0000   0.0000   0.0000   0.3466
   6.200   1.3248   0.01079   0.00623  -0.1409  0.5721  0.8148  -1.7742   0.0000   0.0000   0.0000   0.3456
   6.300   1.3353   0.01080   0.00623  -0.1409  0.5694  0.8157  -1.7948   0.0000   0.0000   0.0000   0.3446
   6.400   1.3455   0.01081   0.00623  -0.1408  0.5663  0.8165  -1.8150   0.0000   0.0000   0.0000   0.3435
   6.500   1.3551   0.01084   0.00624  -0.1406  0.5626  0.8172  -1.8367   0.0000   0.0000   0.0000   0.3425
   6.600   1.3646   0.01089   0.00627  -0.1404  0.5581  0.8179  -1.8596   0.0000   0.0000   0.0000   0.3414
   6.700   1.3750   0.01098   0.00633  -0.1403  0.5528  0.8186  -1.8835   0.0000   0.0000   0.0000   0.3405
   6.800   1.3846   0.01100   0.00638  -0.1402  0.5514  0.8191  -1.9068   0.0000   0.0000   0.0000   0.3395
   6.900   1.3944   0.01102   0.00644  -0.1400  0.5496  0.8199  -1.9303   0.0000   0.0000   0.0000   0.3385
   7.000   1.4046   0.01102   0.00650  -0.1400  0.5475  0.8223  -1.9543   0.0000   0.0000   0.0000   0.3376
   7.100   1.4147   0.01103   0.00653  -0.1399  0.5450  0.8247  -1.9782   0.0000   0.0000   0.0000   0.3367
   7.200   1.4243   0.01104   0.00657  -0.1398  0.5417  0.8269  -2.0018   0.0000   0.0000   0.0000   0.3358
   7.300   1.4335   0.01106   0.00660  -0.1395  0.5375  0.8291  -2.0271   0.0000   0.0000   0.0000   0.3348
   7.400   1.4422   0.01109   0.00663  -0.1392  0.5324  0.8311  -2.0538   0.0000   0.0000   0.0000   0.3338
   7.500   1.4500   0.01114   0.00666  -0.1386  0.5266  0.8331  -2.0795   0.0000   0.0000   0.0000   0.3327
   7.600   1.4565   0.01122   0.00670  -0.1378  0.5201  0.8350  -2.1034   0.0000   0.0000   0.0000   0.3316
   7.700   1.4615   0.01133   0.00678  -0.1368  0.5130  0.8369  -2.1254   0.0000   0.0000   0.0000   0.3304
   7.800   1.4678   0.01145   0.00688  -0.1360  0.5068  0.8388  -2.1491   0.0000   0.0000   0.0000   0.3293
   7.900   1.4764   0.01151   0.00698  -0.1356  0.5039  0.8405  -2.1760   0.0000   0.0000   0.0000   0.3284
   8.000   1.4842   0.01158   0.00707  -0.1351  0.4999  0.8423  -2.2020   0.0000   0.0000   0.0000   0.3274
   8.100   1.4908   0.01166   0.00716  -0.1344  0.4946  0.8441  -2.2264   0.0000   0.0000   0.0000   0.3263
   8.200   1.4956   0.01178   0.00726  -0.1333  0.4878  0.8460  -2.2491   0.0000   0.0000   0.0000   0.3251
   8.300   1.4986   0.01194   0.00740  -0.1319  0.4799  0.8480  -2.2727   0.0000   0.0000   0.0000   0.3239
   8.400   1.4987   0.01219   0.00759  -0.1300  0.4710  0.8503  -2.2915   0.0000   0.0000   0.0000   0.3224
   8.500   1.4987   0.01247   0.00782  -0.1282  0.4616  0.8525  -2.3102   0.0000   0.0000   0.0000   0.3210
   8.600   1.5049   0.01261   0.00797  -0.1274  0.4561  0.8544  -2.3393   0.0000   0.0000   0.0000   0.3200
   8.700   1.5092   0.01282   0.00816  -0.1264  0.4488  0.8563  -2.3653   0.0000   0.0000   0.0000   0.3189
   8.800   1.5114   0.01308   0.00840  -0.1250  0.4405  0.8582  -2.3878   0.0000   0.0000   0.0000   0.3177
   8.900   1.5114   0.01343   0.00870  -0.1233  0.4321  0.8601  -2.4066   0.0000   0.0000   0.0000   0.3164
   9.000   1.5091   0.01386   0.00908  -0.1213  0.4233  0.8619  -2.4213   0.0000   0.0000   0.0000   0.3150
   9.100   1.5103   0.01422   0.00941  -0.1199  0.4157  0.8633  -2.4419   0.0000   0.0000   0.0000   0.3139
   9.200   1.5157   0.01442   0.00964  -0.1192  0.4111  0.8666  -2.4699   0.0000   0.0000   0.0000   0.3129
   9.300   1.5192   0.01469   0.00991  -0.1182  0.4054  0.8708  -2.4946   0.0000   0.0000   0.0000   0.3119
   9.400   1.5209   0.01502   0.01024  -0.1170  0.3989  0.8749  -2.5210   0.0000   0.0000   0.0000   0.3108
   9.500   1.5205   0.01546   0.01066  -0.1154  0.3917  0.8791  -2.5435   0.0000   0.0000   0.0000   0.3096
   9.600   1.5170   0.01603   0.01121  -0.1135  0.3842  0.8835  -2.5595   0.0000   0.0000   0.0000   0.3084
   9.700   1.5135   0.01666   0.01181  -0.1117  0.3754  0.8880  -2.5753   0.0000   0.0000   0.0000   0.3071
   9.800   1.5152   0.01709   0.01225  -0.1106  0.3695  0.8921  -2.6023   0.0000   0.0000   0.0000   0.3061
   9.900   1.5181   0.01748   0.01265  -0.1097  0.3642  0.8960  -2.6320   0.0000   0.0000   0.0000   0.3052
  10.000   1.5196   0.01795   0.01312  -0.1086  0.3576  0.8998  -2.6589   0.0000   0.0000   0.0000   0.3043
  10.200   1.5151   0.01925   0.01438  -0.1056  0.3433  0.9132  -2.6957   0.0000   0.0000   0.0000   0.3021
  10.300   1.5094   0.02005   0.01517  -0.1038  0.3358  0.9245  -2.7067   0.0000   0.0000   0.0000   0.3009
  10.600   1.5152   0.02154   0.01670  -0.1013  0.3190  1.0000  -2.7896   0.0000   0.0000   0.0000   0.2984
  10.700   1.5170   0.02221   0.01736  -0.1007  0.3136  1.0000  -2.8170   0.0000   0.0000   0.0000   0.2977
  10.800   1.5177   0.02295   0.01807  -0.0999  0.3076  1.0000  -2.8419   0.0000   0.0000   0.0000   0.2970
  10.900   1.5173   0.02375   0.01884  -0.0991  0.3013  1.0000  -2.8643   0.0000   0.0000   0.0000   0.2962
  11.000   1.5158   0.02464   0.01969  -0.0981  0.2943  1.0000  -2.8841   0.0000   0.0000   0.0000   0.2955
  11.100   1.5146   0.02550   0.02052  -0.0972  0.2864  1.0000  -2.9046   0.0000   0.0000   0.0000   0.2947
  11.200   1.5175   0.02611   0.02115  -0.0967  0.2826  1.0000  -2.9347   0.0000   0.0000   0.0000   0.2941
  11.300   1.5198   0.02676   0.02180  -0.0962  0.2784  1.0000  -2.9636   0.0000   0.0000   0.0000   0.2934
  11.400   1.5213   0.02745   0.02247  -0.0956  0.2731  1.0000  -2.9920   0.0000   0.0000   0.0000   0.2927
  11.500   1.5216   0.02822   0.02322  -0.0948  0.2669  1.0000  -3.0235   0.0000   0.0000   0.0000   0.2920
  11.600   1.5202   0.02911   0.02407  -0.0939  0.2604  1.0000  -3.0503   0.0000   0.0000   0.0000   0.2913
  11.700   1.5180   0.03010   0.02502  -0.0930  0.2532  1.0000  -3.0743   0.0000   0.0000   0.0000   0.2905
  11.800   1.5164   0.03106   0.02595  -0.0922  0.2453  1.0000  -3.1003   0.0000   0.0000   0.0000   0.2898
  11.900   1.5199   0.03166   0.02655  -0.0918  0.2416  1.0000  -3.1414   0.0000   0.0000   0.0000   0.2892
  12.000   1.5213   0.03245   0.02736  -0.0913  0.2381  1.0000  -3.1765   0.0000   0.0000   0.0000   0.2886
  12.100   1.5223   0.03327   0.02818  -0.0907  0.2339  1.0000  -3.2106   0.0000   0.0000   0.0000   0.2880
  12.200   1.5234   0.03407   0.02896  -0.0902  0.2292  1.0000  -3.2452   0.0000   0.0000   0.0000   0.2874
  12.300   1.5240   0.03492   0.02987  -0.0896  0.2241  1.0000  -3.2783   0.0000   0.0000   0.0000   0.2868
  12.400   1.5238   0.03583   0.03075  -0.0889  0.2187  1.0000  -3.3087   0.0000   0.0000   0.0000   0.2861
  12.500   1.5234   0.03677   0.03166  -0.0883  0.2124  1.0000  -3.3386   0.0000   0.0000   0.0000   0.2855
  12.600   1.5240   0.03764   0.03252  -0.0878  0.2059  1.0000  -3.3716   0.0000   0.0000   0.0000   0.2849
  12.700   1.5286   0.03817   0.03307  -0.0875  0.2033  1.0000  -3.4175   0.0000   0.0000   0.0000   0.2843
  12.800   1.5326   0.03876   0.03367  -0.0872  0.2003  1.0000  -3.4618   0.0000   0.0000   0.0000   0.2838
  12.900   1.5354   0.03945   0.03435  -0.0868  0.1965  1.0000  -3.5024   0.0000   0.0000   0.0000   0.2832
  13.000   1.5368   0.04026   0.03516  -0.0863  0.1920  1.0000  -3.5388   0.0000   0.0000   0.0000   0.2827
  13.100   1.5352   0.04138   0.03625  -0.0858  0.1876  1.0000  -3.5655   0.0000   0.0000   0.0000   0.2821
  13.200   1.5318   0.04271   0.03757  -0.0852  0.1831  1.0000  -3.5861   0.0000   0.0000   0.0000   0.2816
  13.300   1.5303   0.04385   0.03868  -0.0846  0.1773  1.0000  -3.6128   0.0000   0.0000   0.0000   0.2811
  13.400   1.5301   0.04482   0.03964  -0.0841  0.1705  1.0000  -3.6438   0.0000   0.0000   0.0000   0.2806
  13.500   1.5339   0.04544   0.04027  -0.0839  0.1674  1.0000  -3.6881   0.0000   0.0000   0.0000   0.2800
  13.600   1.5376   0.04606   0.04089  -0.0836  0.1643  1.0000  -3.7414   0.0000   0.0000   0.0000   0.2795
  13.700   1.5403   0.04678   0.04160  -0.0833  0.1604  1.0000  -3.7918   0.0000   0.0000   0.0000   0.2790
  13.800   1.5421   0.04759   0.04239  -0.0829  0.1561  1.0000  -3.8387   0.0000   0.0000   0.0000   0.2785
  13.900   1.5430   0.04850   0.04327  -0.0825  0.1517  1.0000  -3.8925   0.0000   0.0000   0.0000   0.2780
  14.000   1.5434   0.04948   0.04422  -0.0822  0.1470  1.0000  -3.9473   0.0000   0.0000   0.0000   0.2775
  14.100   1.5439   0.05048   0.04520  -0.0818  0.1419  1.0000  -4.0026   0.0000   0.0000   0.0000   0.2770
  14.200   1.5449   0.05145   0.04617  -0.0815  0.1367  1.0000  -4.0601   0.0000   0.0000   0.0000   0.2765
  14.300   1.5486   0.05215   0.04689  -0.0813  0.1346  1.0000  -4.1324   0.0000   0.0000   0.0000   0.2761
  14.400   1.5521   0.05286   0.04763  -0.0811  0.1327  1.0000  -4.2046   0.0000   0.0000   0.0000   0.2756
  14.500   1.5543   0.05373   0.04851  -0.0809  0.1303  1.0000  -4.2701   0.0000   0.0000   0.0000   0.2752
  14.600   1.5526   0.05507   0.04987  -0.0806  0.1279  1.0000  -4.3152   0.0000   0.0000   0.0000   0.2748
  14.700   1.5523   0.05623   0.05103  -0.0803  0.1250  1.0000  -4.3679   0.0000   0.0000   0.0000   0.2744
  14.800   1.5526   0.05731   0.05209  -0.0801  0.1217  1.0000  -4.4242   0.0000   0.0000   0.0000   0.2740
  14.900   1.5530   0.05838   0.05313  -0.0798  0.1180  1.0000  -4.4810   0.0000   0.0000   0.0000   0.2736
  15.000   1.5536   0.05944   0.05417  -0.0796  0.1139  1.0000  -4.5389   0.0000   0.0000   0.0000   0.2732
  15.100   1.5545   0.06047   0.05519  -0.0793  0.1091  1.0000  -4.5991   0.0000   0.0000   0.0000   0.2728
  15.200   1.5567   0.06137   0.05611  -0.0792  0.1053  1.0000  -4.6656   0.0000   0.0000   0.0000   0.2724
  15.300   1.5611   0.06202   0.05679  -0.0791  0.1041  1.0000  -4.7461   0.0000   0.0000   0.0000   0.2719
  15.400   1.5648   0.06275   0.05754  -0.0790  0.1023  1.0000  -4.8231   0.0000   0.0000   0.0000   0.2715
  15.500   1.5677   0.06356   0.05836  -0.0788  0.1001  1.0000  -4.8963   0.0000   0.0000   0.0000   0.2711
  15.600   1.5699   0.06447   0.05926  -0.0787  0.0976  1.0000  -4.9652   0.0000   0.0000   0.0000   0.2707
  15.700   1.5711   0.06547   0.06026  -0.0786  0.0949  1.0000  -5.0294   0.0000   0.0000   0.0000   0.2703
  15.800   1.5715   0.06659   0.06135  -0.0784  0.0920  1.0000  -5.0886   0.0000   0.0000   0.0000   0.2700
  15.900   1.5711   0.06779   0.06254  -0.0783  0.0890  1.0000  -5.1438   0.0000   0.0000   0.0000   0.2697
  16.000   1.5702   0.06909   0.06382  -0.0781  0.0856  1.0000  -5.1952   0.0000   0.0000   0.0000   0.2694
  16.100   1.5654   0.07092   0.06569  -0.0780  0.0827  1.0000  -5.2233   0.0000   0.0000   0.0000   0.2692
  16.200   1.5632   0.07241   0.06719  -0.0780  0.0794  1.0000  -5.2664   0.0000   0.0000   0.0000   0.2690
  16.300   1.5660   0.07329   0.06811  -0.0779  0.0782  1.0000  -5.3407   0.0000   0.0000   0.0000   0.2687
  16.400   1.5693   0.07410   0.06894  -0.0779  0.0771  1.0000  -5.4193   0.0000   0.0000   0.0000   0.2683
  16.500   1.5722   0.07496   0.06983  -0.0779  0.0756  1.0000  -5.4948   0.0000   0.0000   0.0000   0.2680
  16.600   1.5743   0.07590   0.07078  -0.0779  0.0737  1.0000  -5.5667   0.0000   0.0000   0.0000   0.2676
  16.700   1.5756   0.07691   0.07179  -0.0779  0.0715  1.0000  -5.6335   0.0000   0.0000   0.0000   0.2673
  16.800   1.5761   0.07801   0.07288  -0.0778  0.0692  1.0000  -5.6956   0.0000   0.0000   0.0000   0.2671
  16.900   1.5758   0.07921   0.07405  -0.0778  0.0667  1.0000  -5.7536   0.0000   0.0000   0.0000   0.2668
  17.000   1.5752   0.08047   0.07529  -0.0778  0.0640  1.0000  -5.8104   0.0000   0.0000   0.0000   0.2666
  17.100   1.5744   0.08178   0.07659  -0.0778  0.0609  1.0000  -5.8660   0.0000   0.0000   0.0000   0.2663
  17.200   1.5730   0.08319   0.07801  -0.0778  0.0578  1.0000  -5.9165   0.0000   0.0000   0.0000   0.2662
  17.300   1.5717   0.08460   0.07945  -0.0779  0.0556  1.0000  -5.9681   0.0000   0.0000   0.0000   0.2660
  17.400   1.5724   0.08582   0.08072  -0.0780  0.0551  1.0000  -6.0340   0.0000   0.0000   0.0000   0.2658
  17.500   1.5711   0.08732   0.08227  -0.0782  0.0547  1.0000  -6.0873   0.0000   0.0000   0.0000   0.2657
  17.600   1.5719   0.08852   0.08351  -0.0783  0.0539  1.0000  -6.1542   0.0000   0.0000   0.0000   0.2655
  17.700   1.5733   0.08964   0.08465  -0.0784  0.0530  1.0000  -6.2254   0.0000   0.0000   0.0000   0.2653
  17.800   1.5746   0.09076   0.08585  -0.0786  0.0518  1.0000  -6.2964   0.0000   0.0000   0.0000   0.2651
  17.900   1.5757   0.09191   0.08702  -0.0787  0.0505  1.0000  -6.3661   0.0000   0.0000   0.0000   0.2649
  18.000   1.5763   0.09312   0.08824  -0.0789  0.0491  1.0000  -6.4328   0.0000   0.0000   0.0000   0.2647
  18.100   1.5764   0.09442   0.08953  -0.0790  0.0476  1.0000  -6.4953   0.0000   0.0000   0.0000   0.2645
  18.200   1.5758   0.09579   0.09090  -0.0792  0.0460  1.0000  -6.5536   0.0000   0.0000   0.0000   0.2644
  18.300   1.5747   0.09725   0.09235  -0.0795  0.0443  1.0000  -6.6078   0.0000   0.0000   0.0000   0.2643
  18.400   1.5731   0.09880   0.09390  -0.0797  0.0424  1.0000  -6.6574   0.0000   0.0000   0.0000   0.2643
  18.500   1.5704   0.10051   0.09562  -0.0800  0.0402  1.0000  -6.6984   0.0000   0.0000   0.0000   0.2643
  18.600   1.5642   0.10280   0.09796  -0.0805  0.0386  1.0000  -6.7122   0.0000   0.0000   0.0000   0.2645
  18.700   1.5574   0.10518   0.10039  -0.0810  0.0371  1.0000  -6.7198   0.0000   0.0000   0.0000   0.2648
  18.800   1.5566   0.10665   0.10189  -0.0813  0.0363  1.0000  -6.7734   0.0000   0.0000   0.0000   0.2648
  18.900   1.5591   0.10762   0.10290  -0.0816  0.0360  1.0000  -6.8554   0.0000   0.0000   0.0000   0.2646
  19.000   1.5617   0.10860   0.10391  -0.0818  0.0357  1.0000  -6.9374   0.0000   0.0000   0.0000   0.2644
  19.100   1.5640   0.10960   0.10495  -0.0821  0.0354  1.0000  -7.0182   0.0000   0.0000   0.0000   0.2643
  19.200   1.5661   0.11063   0.10601  -0.0824  0.0349  1.0000  -7.0972   0.0000   0.0000   0.0000   0.2641
  19.300   1.5679   0.11171   0.10712  -0.0827  0.0343  1.0000  -7.1736   0.0000   0.0000   0.0000   0.2640
  19.400   1.5691   0.11285   0.10830  -0.0830  0.0337  1.0000  -7.2465   0.0000   0.0000   0.0000   0.2639
  19.500   1.5698   0.11409   0.10957  -0.0834  0.0330  1.0000  -7.3144   0.0000   0.0000   0.0000   0.2638
  19.600   1.5697   0.11543   0.11093  -0.0838  0.0322  1.0000  -7.3770   0.0000   0.0000   0.0000   0.2638
  19.700   1.5689   0.11689   0.11242  -0.0843  0.0315  1.0000  -7.4333   0.0000   0.0000   0.0000   0.2639
  19.800   1.5646   0.11896   0.11452  -0.0850  0.0309  1.0000  -7.4602   0.0000   0.0000   0.0000   0.2642
  19.900   1.5606   0.12096   0.11655  -0.0857  0.0303  1.0000  -7.4898   0.0000   0.0000   0.0000   0.2646
  20.000   1.5584   0.12262   0.11823  -0.0863  0.0295  1.0000  -7.5341   0.0000   0.0000   0.0000   0.2647
  20.100   1.5567   0.12422   0.11983  -0.0869  0.0286  1.0000  -7.5814   0.0000   0.0000   0.0000   0.2649
  20.200   1.5550   0.12582   0.12143  -0.0875  0.0276  1.0000  -7.6281   0.0000   0.0000   0.0000   0.2651
  20.300   1.5528   0.12749   0.12311  -0.0882  0.0265  1.0000  -7.6696   0.0000   0.0000   0.0000   0.2653
  20.400   1.5498   0.12930   0.12494  -0.0889  0.0252  1.0000  -7.7019   0.0000   0.0000   0.0000   0.2656
  20.500   1.5453   0.13134   0.12701  -0.0897  0.0239  1.0000  -7.7194   0.0000   0.0000   0.0000   0.2660
  20.600   1.5380   0.13385   0.12959  -0.0907  0.0228  1.0000  -7.7102   0.0000   0.0000   0.0000   0.2667
  20.700   1.5283   0.13681   0.13261  -0.0920  0.0218  1.0000  -7.6765   0.0000   0.0000   0.0000   0.2676
  20.800   1.5237   0.13885   0.13471  -0.0929  0.0210  1.0000  -7.6875   0.0000   0.0000   0.0000   0.2681
  20.900   1.5253   0.13990   0.13579  -0.0934  0.0209  1.0000  -7.7629   0.0000   0.0000   0.0000   0.2681
  21.000   1.5271   0.14090   0.13681  -0.0940  0.0208  1.0000  -7.8391   0.0000   0.0000   0.0000   0.2681
  21.100   1.5288   0.14188   0.13783  -0.0945  0.0207  1.0000  -7.9148   0.0000   0.0000   0.0000   0.2681
  21.200   1.5303   0.14288   0.13886  -0.0951  0.0205  1.0000  -7.9887   0.0000   0.0000   0.0000   0.2681
  21.300   1.5316   0.14391   0.13992  -0.0957  0.0204  1.0000  -8.0603   0.0000   0.0000   0.0000   0.2682
  21.400   1.5326   0.14499   0.14104  -0.0963  0.0202  1.0000  -8.1286   0.0000   0.0000   0.0000   0.2682
  21.500   1.5331   0.14615   0.14223  -0.0970  0.0200  1.0000  -8.1930   0.0000   0.0000   0.0000   0.2684
  21.600   1.5331   0.14740   0.14351  -0.0977  0.0197  1.0000  -8.2525   0.0000   0.0000   0.0000   0.2686
  21.700   1.5315   0.14896   0.14511  -0.0986  0.0195  1.0000  -8.2952   0.0000   0.0000   0.0000   0.2689
  21.800   1.5270   0.15106   0.14727  -0.0999  0.0194  1.0000  -8.3086   0.0000   0.0000   0.0000   0.2696
  21.900   1.5257   0.15259   0.14884  -0.1008  0.0191  1.0000  -8.3539   0.0000   0.0000   0.0000   0.2700
  22.000   1.5252   0.15399   0.15027  -0.1016  0.0189  1.0000  -8.4074   0.0000   0.0000   0.0000   0.2703
  22.100   1.5251   0.15532   0.15164  -0.1024  0.0186  1.0000  -8.4648   0.0000   0.0000   0.0000   0.2705
  22.200   1.5253   0.15665   0.15299  -0.1032  0.0183  1.0000  -8.5239   0.0000   0.0000   0.0000   0.2707
  22.300   1.5253   0.15800   0.15437  -0.1039  0.0179  1.0000  -8.5820   0.0000   0.0000   0.0000   0.2709
  22.400   1.5251   0.15939   0.15580  -0.1048  0.0176  1.0000  -8.6380   0.0000   0.0000   0.0000   0.2712
  22.500   1.5245   0.16087   0.15731  -0.1056  0.0173  1.0000  -8.6900   0.0000   0.0000   0.0000   0.2714
  22.600   1.5235   0.16245   0.15892  -0.1066  0.0170  1.0000  -8.7368   0.0000   0.0000   0.0000   0.2718
  22.700   1.5218   0.16416   0.16066  -0.1076  0.0167  1.0000  -8.7769   0.0000   0.0000   0.0000   0.2723
  22.800   1.5162   0.16672   0.16327  -0.1091  0.0166  1.0000  -8.7728   0.0000   0.0000   0.0000   0.2732
  22.900   1.5125   0.16890   0.16549  -0.1104  0.0163  1.0000  -8.7893   0.0000   0.0000   0.0000   0.2740
  23.000   1.5105   0.17072   0.16734  -0.1115  0.0161  1.0000  -8.8250   0.0000   0.0000   0.0000   0.2745
  23.100   1.5093   0.17243   0.16907  -0.1125  0.0157  1.0000  -8.8680   0.0000   0.0000   0.0000   0.2749
  23.200   1.5081   0.17414   0.17080  -0.1135  0.0154  1.0000  -8.9109   0.0000   0.0000   0.0000   0.2753
  23.300   1.5068   0.17590   0.17258  -0.1145  0.0151  1.0000  -8.9514   0.0000   0.0000   0.0000   0.2758
  23.400   1.5051   0.17775   0.17444  -0.1156  0.0148  1.0000  -8.9877   0.0000   0.0000   0.0000   0.2763
  23.500   1.5029   0.17971   0.17643  -0.1168  0.0145  1.0000  -9.0177   0.0000   0.0000   0.0000   0.2769
  23.600   1.5000   0.18184   0.17859  -0.1180  0.0142  1.0000  -9.0389   0.0000   0.0000   0.0000   0.2776
  23.700   1.4940   0.18472   0.18151  -0.1197  0.0140  1.0000  -9.0227   0.0000   0.0000   0.0000   0.2787
  23.800   1.4883   0.18757   0.18441  -0.1214  0.0138  1.0000  -9.0081   0.0000   0.0000   0.0000   0.2799
  23.900   1.4853   0.18983   0.18670  -0.1227  0.0134  1.0000  -9.0235   0.0000   0.0000   0.0000   0.2806
  24.000   1.4827   0.19200   0.18890  -0.1239  0.0130  1.0000  -9.0431   0.0000   0.0000   0.0000   0.2813
  24.100   1.4802   0.19418   0.19111  -0.1252  0.0126  1.0000  -9.0607   0.0000   0.0000   0.0000   0.2820
  24.200   1.4773   0.19643   0.19340  -0.1264  0.0122  1.0000  -9.0730   0.0000   0.0000   0.0000   0.2827
  24.300   1.4740   0.19881   0.19582  -0.1277  0.0117  1.0000  -9.0771   0.0000   0.0000   0.0000   0.2835
  24.400   1.4699   0.20136   0.19842  -0.1291  0.0112  1.0000  -9.0694   0.0000   0.0000   0.0000   0.2844
  24.500   1.4647   0.20420   0.20133  -0.1307  0.0107  1.0000  -9.0431   0.0000   0.0000   0.0000   0.2854
  24.600   1.4574   0.20760   0.20482  -0.1325  0.0103  1.0000  -8.9848   0.0000   0.0000   0.0000   0.2869
  24.700   1.4470   0.21197   0.20928  -0.1348  0.0100  1.0000  -8.8881   0.0000   0.0000   0.0000   0.2889
  24.800   1.4420   0.21498   0.21236  -0.1364  0.0098  1.0000  -8.8625   0.0000   0.0000   0.0000   0.2901
  24.900   1.4419   0.21682   0.21422  -0.1375  0.0098  1.0000  -8.9110   0.0000   0.0000   0.0000   0.2905
  25.000   1.4419   0.21860   0.21602  -0.1385  0.0098  1.0000  -8.9620   0.0000   0.0000   0.0000   0.2909
  25.100   1.4419   0.22039   0.21783  -0.1395  0.0097  1.0000  -9.0128   0.0000   0.0000   0.0000   0.2913
  25.200   1.4419   0.22221   0.21968  -0.1406  0.0097  1.0000  -9.0620   0.0000   0.0000   0.0000   0.2917
  25.300   1.4415   0.22410   0.22160  -0.1417  0.0097  1.0000  -9.1075   0.0000   0.0000   0.0000   0.2921
  25.400   1.4408   0.22612   0.22365  -0.1428  0.0096  1.0000  -9.1469   0.0000   0.0000   0.0000   0.2927
  25.500   1.4395   0.22829   0.22585  -0.1440  0.0096  1.0000  -9.1787   0.0000   0.0000   0.0000   0.2933
  25.600   1.4376   0.23069   0.22828  -0.1453  0.0095  1.0000  -9.1994   0.0000   0.0000   0.0000   0.2940
  25.700   1.4315   0.23431   0.23196  -0.1472  0.0095  1.0000  -9.1601   0.0000   0.0000   0.0000   0.2955
  25.800   1.4258   0.23794   0.23564  -0.1491  0.0095  1.0000  -9.1220   0.0000   0.0000   0.0000   0.2970
  25.900   1.4237   0.24048   0.23821  -0.1504  0.0094  1.0000  -9.1373   0.0000   0.0000   0.0000   0.2978
  26.000   1.4221   0.24284   0.24060  -0.1517  0.0093  1.0000  -9.1613   0.0000   0.0000   0.0000   0.2985
  26.100   1.4207   0.24517   0.24297  -0.1529  0.0093  1.0000  -9.1864   0.0000   0.0000   0.0000   0.2991
  26.200   1.4192   0.24755   0.24538  -0.1542  0.0092  1.0000  -9.2093   0.0000   0.0000   0.0000   0.2998
  26.300   1.4173   0.25004   0.24790  -0.1554  0.0091  1.0000  -9.2267   0.0000   0.0000   0.0000   0.3006
  26.400   1.4150   0.25272   0.25067  -0.1568  0.0090  1.0000  -9.2354   0.0000   0.0000   0.0000   0.3014
  26.500   1.4117   0.25571   0.25371  -0.1583  0.0090  1.0000  -9.2287   0.0000   0.0000   0.0000   0.3024
  26.600   1.4067   0.25930   0.25734  -0.1600  0.0089  1.0000  -9.1940   0.0000   0.0000   0.0000   0.3038
  26.700   1.3939   0.26570   0.26377  -0.1629  0.0089  1.0000  -9.0279   0.0000   0.0000   0.0000   0.3068
  26.800   1.3898   0.26911   0.26727  -0.1645  0.0088  1.0000  -9.0035   0.0000   0.0000   0.0000   0.3080
  26.900   1.3864   0.27229   0.27049  -0.1659  0.0087  1.0000  -8.9898   0.0000   0.0000   0.0000   0.3091
  27.000   1.3830   0.27553   0.27377  -0.1674  0.0086  1.0000  -8.9735   0.0000   0.0000   0.0000   0.3101
  27.100   1.3789   0.27902   0.27730  -0.1690  0.0085  1.0000  -8.9453   0.0000   0.0000   0.0000   0.3114
  27.200   1.3732   0.28312   0.28145  -0.1707  0.0085  1.0000  -8.8887   0.0000   0.0000   0.0000   0.3129
  27.300   1.3494   0.29435   0.29276  -0.1749  0.0085  1.0000  -8.5046   0.0000   0.0000   0.0000   0.3184
  27.400   1.3400   0.30015   0.29861  -0.1771  0.0084  1.0000  -8.3727   0.0000   0.0000   0.0000   0.3209
  27.500   1.3306   0.30605   0.30456  -0.1792  0.0084  1.0000  -8.2364   0.0000   0.0000   0.0000   0.3233


