xflr5 v6.61

 Calculated polar for: EPPLER E852 AIRFOIL

 1 1 Reynolds number fixed          Mach number fixed         

 xtrf =   1.000 (top)        1.000 (bottom)
 Mach =   0.000     Re =     0.625 e 6     Ncrit =   9.000

  alpha     CL        CD       CDp       Cm    Top Xtr Bot Xtr   Cpmin    Chinge    XCp    
 ------- -------- --------- --------- -------- ------- ------- -------- --------- ---------
 -10.000  -0.4253   0.10041   0.09839  -0.0392  1.0000  0.0091  -2.4454   0.0000   0.0000   0.0000   0.1491
  -9.900  -0.4251   0.09908   0.09707  -0.0395  1.0000  0.0092  -2.4528   0.0000   0.0000   0.0000   0.1485
  -9.800  -0.4249   0.09776   0.09576  -0.0398  1.0000  0.0093  -2.4613   0.0000   0.0000   0.0000   0.1479
  -9.700  -0.4249   0.09643   0.09444  -0.0400  1.0000  0.0093  -2.4706   0.0000   0.0000   0.0000   0.1474
  -9.600  -0.4248   0.09509   0.09311  -0.0403  1.0000  0.0094  -2.4805   0.0000   0.0000   0.0000   0.1468
  -9.500  -0.4248   0.09375   0.09178  -0.0406  1.0000  0.0095  -2.4909   0.0000   0.0000   0.0000   0.1463
  -9.400  -0.4249   0.09240   0.09044  -0.0408  1.0000  0.0096  -2.5019   0.0000   0.0000   0.0000   0.1458
  -9.300  -0.4252   0.09105   0.08910  -0.0411  1.0000  0.0096  -2.5136   0.0000   0.0000   0.0000   0.1454
  -9.200  -0.4256   0.08971   0.08777  -0.0413  1.0000  0.0097  -2.5258   0.0000   0.0000   0.0000   0.1451
  -9.100  -0.4262   0.08837   0.08645  -0.0415  1.0000  0.0098  -2.5388   0.0000   0.0000   0.0000   0.1448
  -9.000  -0.4270   0.08704   0.08513  -0.0417  1.0000  0.0098  -2.5526   0.0000   0.0000   0.0000   0.1447
  -8.900  -0.4281   0.08572   0.08383  -0.0419  1.0000  0.0099  -2.5674   0.0000   0.0000   0.0000   0.1448
  -8.800  -0.4296   0.08442   0.08254  -0.0420  1.0000  0.0099  -2.5836   0.0000   0.0000   0.0000   0.1450
  -8.700  -0.4316   0.08313   0.08126  -0.0420  1.0000  0.0100  -2.6015   0.0000   0.0000   0.0000   0.1456
  -8.600  -0.4342   0.08186   0.08001  -0.0419  1.0000  0.0100  -2.6217   0.0000   0.0000   0.0000   0.1464
  -8.500  -0.4376   0.08063   0.07880  -0.0418  1.0000  0.0101  -2.6449   0.0000   0.0000   0.0000   0.1478
  -8.400  -0.4409   0.07932   0.07751  -0.0417  0.9999  0.0101  -2.6698   0.0000   0.0000   0.0000   0.1486
  -8.300  -0.4343   0.07707   0.07526  -0.0446  0.9991  0.0102  -2.6815   0.0000   0.0000   0.0000   0.1407
  -8.200  -0.4277   0.07464   0.07284  -0.0477  0.9981  0.0103  -2.7001   0.0000   0.0000   0.0000   0.1318
  -8.100  -0.4213   0.07185   0.07004  -0.0514  0.9970  0.0104  -2.7355   0.0000   0.0000   0.0000   0.1213
  -8.000  -0.4163   0.06819   0.06638  -0.0561  0.9954  0.0104  -2.8111   0.0000   0.0000   0.0000   0.1085
  -7.900  -0.4131   0.06360   0.06176  -0.0627  0.9928  0.0103  -2.9317   0.0000   0.0000   0.0000   0.0916
  -7.800  -0.4086   0.05914   0.05725  -0.0708  0.9894  0.0103  -3.0382   0.0000   0.0000   0.0000   0.0701
  -7.700  -0.3972   0.05577   0.05378  -0.0776  0.9876  0.0104  -3.0699   0.0000   0.0000   0.0000   0.0481
  -7.600  -0.3920   0.05372   0.05166  -0.0802  0.9842  0.0105  -3.0834   0.0000   0.0000   0.0000   0.0390
  -7.500  -0.3857   0.05164   0.04949  -0.0828  0.9808  0.0105  -3.0971   0.0000   0.0000   0.0000   0.0288
  -7.400  -0.3782   0.04948   0.04724  -0.0856  0.9782  0.0106  -3.1125   0.0000   0.0000   0.0000   0.0172
  -7.300  -0.3699   0.04731   0.04496  -0.0883  0.9762  0.0106  -3.1276   0.0000   0.0000   0.0000   0.0047
  -7.200  -0.3609   0.04515   0.04269  -0.0909  0.9746  0.0106  -3.1416   0.0000   0.0000   0.0000  -0.0083
  -6.800  -0.3542   0.02630   0.02269  -0.0988  0.9582  0.0075  -4.3361   0.0000   0.0000   0.0000  -0.0357
  -6.700  -0.3427   0.02466   0.02090  -0.0998  0.9569  0.0071  -4.3462   0.0000   0.0000   0.0000  -0.0480
  -6.600  -0.3308   0.02291   0.01895  -0.1007  0.9558  0.0068  -4.3923   0.0000   0.0000   0.0000  -0.0613
  -6.500  -0.3182   0.02116   0.01700  -0.1015  0.9548  0.0065  -4.4543   0.0000   0.0000   0.0000  -0.0762
  -6.400  -0.3048   0.01950   0.01514  -0.1024  0.9540  0.0063  -4.5158   0.0000   0.0000   0.0000  -0.0931
  -6.300  -0.2975   0.01836   0.01386  -0.1018  0.9497  0.0062  -4.5528   0.0000   0.0000   0.0000  -0.0994
  -6.200  -0.2878   0.01722   0.01257  -0.1016  0.9463  0.0061  -4.5800   0.0000   0.0000   0.0000  -0.1105
  -6.100  -0.2765   0.01616   0.01137  -0.1018  0.9437  0.0062  -4.5902   0.0000   0.0000   0.0000  -0.1256
  -6.000  -0.2640   0.01519   0.01028  -0.1021  0.9415  0.0062  -4.5796   0.0000   0.0000   0.0000  -0.1445
  -5.900  -0.2509   0.01434   0.00930  -0.1026  0.9396  0.0064  -4.5492   0.0000   0.0000   0.0000  -0.1668
  -5.800  -0.2375   0.01357   0.00843  -0.1032  0.9378  0.0066  -4.5002   0.0000   0.0000   0.0000  -0.1926
  -5.700  -0.2237   0.01289   0.00765  -0.1038  0.9361  0.0068  -4.4338   0.0000   0.0000   0.0000  -0.2223
  -5.600  -0.2098   0.01232   0.00700  -0.1045  0.9343  0.0071  -4.3414   0.0000   0.0000   0.0000  -0.2568
  -5.500  -0.1955   0.01195   0.00655  -0.1053  0.9326  0.0076  -4.1993   0.0000   0.0000   0.0000  -0.2975
  -5.400  -0.1810   0.01168   0.00623  -0.1060  0.9308  0.0080  -4.0413   0.0000   0.0000   0.0000  -0.3454
  -5.300  -0.1693   0.01124   0.00573  -0.1063  0.9280  0.0084  -3.9246   0.0000   0.0000   0.0000  -0.3878
  -5.200  -0.1595   0.01098   0.00546  -0.1062  0.9243  0.0087  -3.7768   0.0000   0.0000   0.0000  -0.4263
  -5.100  -0.1480   0.01078   0.00526  -0.1064  0.9209  0.0091  -3.6286   0.0000   0.0000   0.0000  -0.4795
  -5.000  -0.1360   0.01058   0.00504  -0.1067  0.9178  0.0097  -3.4883   0.0000   0.0000   0.0000  -0.5458
  -4.900  -0.1234   0.01046   0.00486  -0.1070  0.9148  0.0104  -3.3384   0.0000   0.0000   0.0000  -0.6293
  -4.800  -0.1120   0.00947   0.00364  -0.1072  0.9113  0.0149  -3.4288   0.0000   0.0000   0.0000  -0.7190
  -4.700  -0.0993   0.00923   0.00341  -0.1075  0.9084  0.0210  -3.3067   0.0000   0.0000   0.0000  -0.8464
  -4.600  -0.0864   0.00923   0.00341  -0.1080  0.9056  0.0237  -3.1134   0.0000   0.0000   0.0000  -1.0161
  -4.500  -0.0738   0.00883   0.00297  -0.1084  0.9023  0.0359  -3.0003   0.0000   0.0000   0.0000  -1.2355
  -4.400  -0.0627   0.00870   0.00284  -0.1085  0.8995  0.0420  -2.8427   0.0000   0.0000   0.0000  -1.5009
  -4.300  -0.0527   0.00847   0.00269  -0.1084  0.8967  0.0611  -2.7212   0.0000   0.0000   0.0000  -1.8299
  -4.200  -0.0424   0.00826   0.00256  -0.1084  0.8938  0.0838  -2.5896   0.0000   0.0000   0.0000  -2.3324
  -4.100  -0.0319   0.00803   0.00243  -0.1085  0.8907  0.1125  -2.4563   0.0000   0.0000   0.0000  -3.1876
  -4.000  -0.0212   0.00778   0.00231  -0.1086  0.8877  0.1497  -2.3233   0.0000   0.0000   0.0000  -4.9197
  -3.900  -0.0106   0.00747   0.00217  -0.1088  0.8847  0.2012  -2.1920   0.0000   0.0000   0.0000  -10.1385
  -3.800  -0.0002   0.00706   0.00203  -0.1090  0.8818  0.2774  -2.0645   0.0000   0.0000   0.0000  -529.6096
  -3.700   0.0105   0.00676   0.00195  -0.1092  0.8789  0.3464  -1.9354   0.0000   0.0000   0.0000  10.7544
  -3.600   0.0216   0.00659   0.00191  -0.1094  0.8760  0.3929  -1.8049   0.0000   0.0000   0.0000   5.3532
  -3.500   0.0330   0.00649   0.00190  -0.1096  0.8729  0.4264  -1.6747   0.0000   0.0000   0.0000   3.5946
  -3.300   0.0563   0.00643   0.00185  -0.1099  0.8673  0.4552  -1.4201   0.0000   0.0000   0.0000   2.2162
  -3.200   0.0670   0.00639   0.00184  -0.1098  0.8657  0.4673  -1.3018   0.0000   0.0000   0.0000   1.9016
  -3.100   0.0778   0.00638   0.00182  -0.1098  0.8639  0.4767  -1.1848   0.0000   0.0000   0.0000   1.6703
  -3.000   0.0888   0.00638   0.00181  -0.1097  0.8620  0.4842  -1.0692   0.0000   0.0000   0.0000   1.4942
  -2.900   0.0999   0.00640   0.00177  -0.1097  0.8598  0.4883  -0.9527   0.0000   0.0000   0.0000   1.3557
  -2.800   0.1107   0.00635   0.00174  -0.1097  0.8576  0.4994  -0.8454   0.0000   0.0000   0.0000   1.2469
  -2.700   0.1217   0.00632   0.00172  -0.1097  0.8552  0.5080  -0.7403   0.0000   0.0000   0.0000   1.1568
  -2.600   0.1327   0.00630   0.00171  -0.1097  0.8527  0.5161  -0.6549   0.0000   0.0000   0.0000   1.0811
  -2.500   0.1438   0.00629   0.00171  -0.1097  0.8502  0.5230  -0.6101   0.0000   0.0000   0.0000   1.0165
  -2.400   0.1551   0.00630   0.00169  -0.1097  0.8478  0.5280  -0.5657   0.0000   0.0000   0.0000   0.9609
  -2.300   0.1664   0.00630   0.00167  -0.1097  0.8454  0.5316  -0.5218   0.0000   0.0000   0.0000   0.9125
  -2.200   0.1778   0.00632   0.00165  -0.1098  0.8429  0.5345  -0.4828   0.0000   0.0000   0.0000   0.8702
  -2.100   0.1893   0.00634   0.00164  -0.1099  0.8405  0.5374  -0.4443   0.0000   0.0000   0.0000   0.8329
  -2.000   0.2009   0.00638   0.00164  -0.1100  0.8379  0.5400  -0.4327   0.0000   0.0000   0.0000   0.7996
  -1.900   0.2126   0.00640   0.00164  -0.1101  0.8351  0.5455  -0.4372   0.0000   0.0000   0.0000   0.7700
  -1.700   0.2352   0.00637   0.00167  -0.1103  0.8308  0.5649  -0.4458   0.0000   0.0000   0.0000   0.7205
  -1.600   0.2461   0.00635   0.00167  -0.1103  0.8298  0.5711  -0.4500   0.0000   0.0000   0.0000   0.6994
  -1.500   0.2571   0.00635   0.00167  -0.1103  0.8287  0.5761  -0.4542   0.0000   0.0000   0.0000   0.6801
  -1.400   0.2681   0.00635   0.00168  -0.1103  0.8275  0.5803  -0.4584   0.0000   0.0000   0.0000   0.6623
  -1.300   0.2792   0.00635   0.00168  -0.1103  0.8262  0.5837  -0.4626   0.0000   0.0000   0.0000   0.6458
  -1.200   0.2903   0.00636   0.00168  -0.1103  0.8248  0.5865  -0.4669   0.0000   0.0000   0.0000   0.6306
  -1.100   0.3014   0.00636   0.00168  -0.1103  0.8233  0.5889  -0.4711   0.0000   0.0000   0.0000   0.6165
  -1.000   0.3126   0.00637   0.00168  -0.1103  0.8218  0.5909  -0.4754   0.0000   0.0000   0.0000   0.6034
  -0.900   0.3238   0.00639   0.00168  -0.1104  0.8202  0.5926  -0.4797   0.0000   0.0000   0.0000   0.5912
  -0.800   0.3350   0.00640   0.00169  -0.1104  0.8187  0.5939  -0.4839   0.0000   0.0000   0.0000   0.5798
  -0.700   0.3462   0.00640   0.00168  -0.1104  0.8171  0.5960  -0.4882   0.0000   0.0000   0.0000   0.5691
  -0.600   0.3573   0.00638   0.00167  -0.1105  0.8155  0.6017  -0.4924   0.0000   0.0000   0.0000   0.5592
  -0.500   0.3684   0.00636   0.00166  -0.1105  0.8138  0.6073  -0.4967   0.0000   0.0000   0.0000   0.5499
  -0.400   0.3796   0.00634   0.00167  -0.1105  0.8121  0.6123  -0.5009   0.0000   0.0000   0.0000   0.5410
  -0.300   0.3907   0.00634   0.00167  -0.1106  0.8102  0.6168  -0.5052   0.0000   0.0000   0.0000   0.5327
  -0.200   0.4019   0.00634   0.00168  -0.1106  0.8082  0.6209  -0.5095   0.0000   0.0000   0.0000   0.5248
  -0.100   0.4130   0.00634   0.00169  -0.1106  0.8061  0.6248  -0.5137   0.0000   0.0000   0.0000   0.5174
   0.000   0.4242   0.00635   0.00170  -0.1106  0.8037  0.6285  -0.5180   0.0000   0.0000   0.0000   0.5103
   0.100   0.4355   0.00637   0.00172  -0.1107  0.8011  0.6321  -0.5227   0.0000   0.0000   0.0000   0.5036
   0.200   0.4470   0.00640   0.00174  -0.1108  0.7983  0.6355  -0.5276   0.0000   0.0000   0.0000   0.4972
   0.300   0.4586   0.00644   0.00178  -0.1109  0.7952  0.6387  -0.5325   0.0000   0.0000   0.0000   0.4911
   0.400   0.4703   0.00650   0.00184  -0.1111  0.7919  0.6417  -0.5374   0.0000   0.0000   0.0000   0.4854
   0.500   0.4813   0.00650   0.00185  -0.1111  0.7909  0.6443  -0.5423   0.0000   0.0000   0.0000   0.4799
   0.600   0.4922   0.00651   0.00186  -0.1111  0.7899  0.6465  -0.5476   0.0000   0.0000   0.0000   0.4747
   0.700   0.5032   0.00650   0.00187  -0.1110  0.7886  0.6497  -0.5529   0.0000   0.0000   0.0000   0.4696
   0.800   0.5139   0.00646   0.00188  -0.1110  0.7871  0.6577  -0.5582   0.0000   0.0000   0.0000   0.4648
   0.900   0.5246   0.00643   0.00189  -0.1109  0.7852  0.6649  -0.5635   0.0000   0.0000   0.0000   0.4602
   1.000   0.5354   0.00641   0.00190  -0.1108  0.7830  0.6709  -0.5695   0.0000   0.0000   0.0000   0.4557
   1.100   0.5461   0.00639   0.00191  -0.1107  0.7805  0.6763  -0.5768   0.0000   0.0000   0.0000   0.4514
   1.200   0.5569   0.00638   0.00192  -0.1106  0.7778  0.6814  -0.5894   0.0000   0.0000   0.0000   0.4472
   1.300   0.5676   0.00637   0.00193  -0.1105  0.7749  0.6863  -0.6105   0.0000   0.0000   0.0000   0.4432
   1.400   0.5785   0.00637   0.00194  -0.1104  0.7718  0.6908  -0.6318   0.0000   0.0000   0.0000   0.4393
   1.500   0.5894   0.00637   0.00194  -0.1104  0.7683  0.6948  -0.6533   0.0000   0.0000   0.0000   0.4356
   1.600   0.6003   0.00639   0.00196  -0.1103  0.7646  0.6981  -0.6749   0.0000   0.0000   0.0000   0.4320
   1.800   0.6221   0.00643   0.00201  -0.1102  0.7543  0.7120  -0.7253   0.0000   0.0000   0.0000   0.4252
   1.900   0.6333   0.00646   0.00206  -0.1102  0.7489  0.7198  -0.7537   0.0000   0.0000   0.0000   0.4221
   2.000   0.6435   0.00641   0.00206  -0.1100  0.7469  0.7270  -0.7811   0.0000   0.0000   0.0000   0.4189
   2.100   0.6536   0.00637   0.00207  -0.1097  0.7437  0.7338  -0.8158   0.0000   0.0000   0.0000   0.4157
   2.200   0.6640   0.00635   0.00207  -0.1095  0.7396  0.7403  -0.8535   0.0000   0.0000   0.0000   0.4127
   2.300   0.6745   0.00634   0.00208  -0.1093  0.7349  0.7459  -0.8920   0.0000   0.0000   0.0000   0.4098
   2.500   0.6956   0.00632   0.00213  -0.1090  0.7267  0.7619  -0.9701   0.0000   0.0000   0.0000   0.4044
   2.600   0.7059   0.00632   0.00215  -0.1088  0.7222  0.7713  -1.0092   0.0000   0.0000   0.0000   0.4017
   2.700   0.7159   0.00633   0.00218  -0.1086  0.7163  0.7805  -1.0507   0.0000   0.0000   0.0000   0.3991
   2.800   0.7261   0.00638   0.00221  -0.1083  0.7090  0.7895  -1.1033   0.0000   0.0000   0.0000   0.3965
   2.900   0.7368   0.00640   0.00225  -0.1082  0.7039  0.7972  -1.1579   0.0000   0.0000   0.0000   0.3942
   3.000   0.7468   0.00636   0.00233  -0.1079  0.7016  0.8104  -1.2302   0.0000   0.0000   0.0000   0.3917
   3.100   0.7567   0.00633   0.00237  -0.1076  0.6979  0.8231  -1.3478   0.0000   0.0000   0.0000   0.3894
   3.200   0.7666   0.00631   0.00240  -0.1073  0.6911  0.8351  -1.4675   0.0000   0.0000   0.0000   0.3870
   3.300   0.7759   0.00631   0.00242  -0.1068  0.6810  0.8478  -1.5864   0.0000   0.0000   0.0000   0.3847
   3.400   0.7840   0.00632   0.00244  -0.1061  0.6697  0.8635  -1.7015   0.0000   0.0000   0.0000   0.3822
   3.500   0.7924   0.00637   0.00247  -0.1054  0.6585  0.8790  -1.8197   0.0000   0.0000   0.0000   0.3799
   3.600   0.8005   0.00633   0.00251  -0.1047  0.6498  0.8981  -1.9391   0.0000   0.0000   0.0000   0.3775
   3.700   0.8074   0.00635   0.00252  -0.1036  0.6306  0.9218  -2.0533   0.0000   0.0000   0.0000   0.3750
   3.800   0.8156   0.00644   0.00253  -0.1029  0.6038  0.9595  -2.1780   0.0000   0.0000   0.0000   0.3727
   3.900   0.8246   0.00668   0.00258  -0.1025  0.5600  1.0000  -2.3096   0.0000   0.0000   0.0000   0.3708
   4.000   0.8298   0.00702   0.00269  -0.1014  0.5117  1.0000  -2.4184   0.0000   0.0000   0.0000   0.3685
   4.100   0.8347   0.00742   0.00286  -0.1003  0.4609  1.0000  -2.5258   0.0000   0.0000   0.0000   0.3664
   4.200   0.8398   0.00786   0.00305  -0.0992  0.4100  1.0000  -2.6351   0.0000   0.0000   0.0000   0.3643
   4.300   0.8451   0.00829   0.00326  -0.0982  0.3608  1.0000  -2.7475   0.0000   0.0000   0.0000   0.3623
   4.400   0.8507   0.00872   0.00347  -0.0973  0.3139  1.0000  -2.8631   0.0000   0.0000   0.0000   0.3604
   4.500   0.8567   0.00914   0.00369  -0.0965  0.2698  1.0000  -2.9822   0.0000   0.0000   0.0000   0.3586
   4.600   0.8629   0.00955   0.00390  -0.0957  0.2289  1.0000  -3.1044   0.0000   0.0000   0.0000   0.3568
   4.700   0.8691   0.00997   0.00411  -0.0950  0.1889  1.0000  -3.2276   0.0000   0.0000   0.0000   0.3551
   4.800   0.8753   0.01039   0.00433  -0.0942  0.1510  1.0000  -3.3523   0.0000   0.0000   0.0000   0.3533
   4.900   0.8818   0.01078   0.00455  -0.0935  0.1183  1.0000  -3.4807   0.0000   0.0000   0.0000   0.3517
   5.000   0.8887   0.01116   0.00477  -0.0929  0.0914  1.0000  -3.6129   0.0000   0.0000   0.0000   0.3500
   5.100   0.8964   0.01146   0.00496  -0.0924  0.0745  1.0000  -3.7528   0.0000   0.0000   0.0000   0.3485
   5.200   0.9051   0.01169   0.00517  -0.0920  0.0615  1.0000  -3.8996   0.0000   0.0000   0.0000   0.3470
   5.300   0.9132   0.01196   0.00537  -0.0915  0.0506  1.0000  -4.0433   0.0000   0.0000   0.0000   0.3455
   5.400   0.9221   0.01216   0.00556  -0.0912  0.0420  1.0000  -4.2061   0.0000   0.0000   0.0000   0.3440
   5.500   0.9307   0.01239   0.00575  -0.0908  0.0359  1.0000  -4.3776   0.0000   0.0000   0.0000   0.3426
   5.600   0.9379   0.01278   0.00610  -0.0900  0.0258  1.0000  -4.5108   0.0000   0.0000   0.0000   0.3409
   5.700   0.9479   0.01287   0.00620  -0.0899  0.0238  1.0000  -4.7065   0.0000   0.0000   0.0000   0.3397
   5.800   0.9552   0.01322   0.00647  -0.0892  0.0165  1.0000  -4.8449   0.0000   0.0000   0.0000   0.3382
   5.900   0.9618   0.01369   0.00700  -0.0883  0.0118  1.0000  -4.9170   0.0000   0.0000   0.0000   0.3365
   6.000   0.9706   0.01391   0.00724  -0.0879  0.0102  1.0000  -5.0608   0.0000   0.0000   0.0000   0.3351
   6.100   0.9789   0.01418   0.00752  -0.0874  0.0088  1.0000  -5.1902   0.0000   0.0000   0.0000   0.3337
   6.200   0.9859   0.01459   0.00798  -0.0866  0.0074  1.0000  -5.2676   0.0000   0.0000   0.0000   0.3322
   6.300   0.9906   0.01525   0.00873  -0.0853  0.0065  1.0000  -5.2805   0.0000   0.0000   0.0000   0.3304
   6.400   0.9940   0.01607   0.00967  -0.0838  0.0061  1.0000  -5.2789   0.0000   0.0000   0.0000   0.3284
   6.500   0.9964   0.01711   0.01083  -0.0821  0.0058  1.0000  -5.2592   0.0000   0.0000   0.0000   0.3265
   6.600   1.0028   0.01772   0.01150  -0.0812  0.0056  1.0000  -5.3479   0.0000   0.0000   0.0000   0.3250
   6.700   1.0125   0.01781   0.01160  -0.0811  0.0055  1.0000  -5.5421   0.0000   0.0000   0.0000   0.3239
   6.800   1.0219   0.01795   0.01176  -0.0808  0.0052  1.0000  -5.7315   0.0000   0.0000   0.0000   0.3228
   6.900   1.0308   0.01817   0.01199  -0.0805  0.0050  1.0000  -5.9115   0.0000   0.0000   0.0000   0.3217
   7.000   1.0392   0.01846   0.01231  -0.0800  0.0048  1.0000  -6.0772   0.0000   0.0000   0.0000   0.3205
   7.100   1.0471   0.01887   0.01276  -0.0795  0.0046  1.0000  -6.2160   0.0000   0.0000   0.0000   0.3193
   7.200   1.0545   0.01943   0.01338  -0.0788  0.0045  1.0000  -6.3215   0.0000   0.0000   0.0000   0.3181
   7.300   1.0621   0.02003   0.01404  -0.0782  0.0044  1.0000  -6.4234   0.0000   0.0000   0.0000   0.3168
   7.400   1.0699   0.02067   0.01474  -0.0776  0.0042  1.0000  -6.5218   0.0000   0.0000   0.0000   0.3156
   7.500   1.0779   0.02134   0.01548  -0.0771  0.0041  1.0000  -6.6161   0.0000   0.0000   0.0000   0.3145
   7.600   1.0861   0.02206   0.01627  -0.0765  0.0040  1.0000  -6.7053   0.0000   0.0000   0.0000   0.3134
   7.700   1.0944   0.02283   0.01712  -0.0760  0.0039  1.0000  -6.7879   0.0000   0.0000   0.0000   0.3123
   7.800   1.1027   0.02366   0.01803  -0.0755  0.0039  1.0000  -6.8621   0.0000   0.0000   0.0000   0.3112
   7.900   1.1109   0.02457   0.01903  -0.0750  0.0038  1.0000  -6.9256   0.0000   0.0000   0.0000   0.3101
   8.000   1.1189   0.02556   0.02014  -0.0745  0.0037  1.0000  -6.9751   0.0000   0.0000   0.0000   0.3090
   8.100   1.1266   0.02668   0.02137  -0.0739  0.0037  1.0000  -7.0066   0.0000   0.0000   0.0000   0.3079
   8.200   1.1337   0.02794   0.02276  -0.0732  0.0037  1.0000  -7.0155   0.0000   0.0000   0.0000   0.3068
   8.300   1.1400   0.02936   0.02433  -0.0723  0.0037  1.0000  -6.9981   0.0000   0.0000   0.0000   0.3056
   8.400   1.1452   0.03095   0.02609  -0.0713  0.0038  1.0000  -6.9534   0.0000   0.0000   0.0000   0.3043
   8.500   1.1491   0.03269   0.02801  -0.0701  0.0038  1.0000  -6.8849   0.0000   0.0000   0.0000   0.3030
   8.600   1.1516   0.03455   0.03006  -0.0687  0.0040  1.0000  -6.7997   0.0000   0.0000   0.0000   0.3015
   8.700   1.1528   0.03648   0.03218  -0.0672  0.0041  1.0000  -6.7059   0.0000   0.0000   0.0000   0.3001
   8.800   1.1527   0.03846   0.03433  -0.0656  0.0042  1.0000  -6.6080   0.0000   0.0000   0.0000   0.2986
   8.900   1.1514   0.04046   0.03650  -0.0639  0.0044  1.0000  -6.5097   0.0000   0.0000   0.0000   0.2971
   9.000   1.1489   0.04244   0.03864  -0.0621  0.0045  1.0000  -6.4148   0.0000   0.0000   0.0000   0.2956
   9.100   1.1451   0.04441   0.04076  -0.0602  0.0046  1.0000  -6.3222   0.0000   0.0000   0.0000   0.2940
   9.200   1.1400   0.04636   0.04286  -0.0583  0.0048  1.0000  -6.2296   0.0000   0.0000   0.0000   0.2925
   9.300   1.1332   0.04831   0.04495  -0.0563  0.0049  1.0000  -6.1338   0.0000   0.0000   0.0000   0.2909
   9.400   1.1241   0.05011   0.04687  -0.0539  0.0051  1.0000  -6.0372   0.0000   0.0000   0.0000   0.2892
   9.500   1.1111   0.05214   0.04901  -0.0513  0.0052  1.0000  -5.9035   0.0000   0.0000   0.0000   0.2873
  11.400   1.0003   0.08314   0.08120  -0.0409  0.0070  1.0000  -5.3434   0.0000   0.0000   0.0000   0.2797
  11.500   0.9904   0.08612   0.08424  -0.0423  0.0070  1.0000  -5.2528   0.0000   0.0000   0.0000   0.2814
  11.600   0.9797   0.08949   0.08768  -0.0441  0.0071  1.0000  -5.1446   0.0000   0.0000   0.0000   0.2836
  11.700   0.9690   0.09333   0.09157  -0.0464  0.0071  1.0000  -5.0166   0.0000   0.0000   0.0000   0.2863
  11.800   0.9578   0.09782   0.09612  -0.0493  0.0072  1.0000  -4.8599   0.0000   0.0000   0.0000   0.2899
  11.900   0.9462   0.10341   0.10177  -0.0532  0.0073  1.0000  -4.6539   0.0000   0.0000   0.0000   0.2946
  12.000   0.9337   0.11276   0.11116  -0.0597  0.0075  1.0000  -4.2784   0.0000   0.0000   0.0000   0.3025
  12.100   0.9268   0.11863   0.11703  -0.0633  0.0077  1.0000  -4.0676   0.0000   0.0000   0.0000   0.3069
  12.200   0.9215   0.12303   0.12141  -0.0659  0.0078  1.0000  -3.9244   0.0000   0.0000   0.0000   0.3100
  12.300   0.9172   0.12688   0.12526  -0.0680  0.0079  1.0000  -3.8070   0.0000   0.0000   0.0000   0.3127
  12.400   0.9135   0.13039   0.12876  -0.0700  0.0079  1.0000  -3.7063   0.0000   0.0000   0.0000   0.3150
  12.500   0.9105   0.13366   0.13203  -0.0717  0.0080  1.0000  -3.6181   0.0000   0.0000   0.0000   0.3172
  12.600   0.9079   0.13674   0.13510  -0.0734  0.0080  1.0000  -3.5400   0.0000   0.0000   0.0000   0.3191
  12.700   0.9058   0.13967   0.13802  -0.0749  0.0081  1.0000  -3.4699   0.0000   0.0000   0.0000   0.3209
  12.800   0.9041   0.14247   0.14081  -0.0764  0.0081  1.0000  -3.4066   0.0000   0.0000   0.0000   0.3227
  12.900   0.9027   0.14517   0.14350  -0.0778  0.0081  1.0000  -3.3492   0.0000   0.0000   0.0000   0.3243
  13.000   0.9016   0.14777   0.14610  -0.0791  0.0081  1.0000  -3.2968   0.0000   0.0000   0.0000   0.3258
  13.100   0.9007   0.15029   0.14861  -0.0804  0.0081  1.0000  -3.2490   0.0000   0.0000   0.0000   0.3272
  13.200   0.9002   0.15273   0.15105  -0.0817  0.0081  1.0000  -3.2052   0.0000   0.0000   0.0000   0.3286
  13.300   0.8998   0.15512   0.15343  -0.0829  0.0080  1.0000  -3.1651   0.0000   0.0000   0.0000   0.3299
  13.400   0.8996   0.15745   0.15576  -0.0841  0.0080  1.0000  -3.1275   0.0000   0.0000   0.0000   0.3312
  13.500   0.8996   0.15973   0.15803  -0.0853  0.0079  1.0000  -3.0929   0.0000   0.0000   0.0000   0.3324
  13.600   0.8998   0.16195   0.16025  -0.0865  0.0079  1.0000  -3.0614   0.0000   0.0000   0.0000   0.3335
  13.700   0.9001   0.16402   0.16232  -0.0876  0.0078  1.0000  -3.0333   0.0000   0.0000   0.0000   0.3346
  13.800   0.9007   0.16598   0.16428  -0.0887  0.0078  1.0000  -3.0084   0.0000   0.0000   0.0000   0.3357
  13.900   0.9014   0.16788   0.16617  -0.0897  0.0077  1.0000  -2.9862   0.0000   0.0000   0.0000   0.3367
  14.000   0.9022   0.16974   0.16803  -0.0908  0.0076  1.0000  -2.9667   0.0000   0.0000   0.0000   0.3377
  14.100   0.9031   0.17160   0.16988  -0.0918  0.0076  1.0000  -2.9497   0.0000   0.0000   0.0000   0.3386
  14.200   0.9042   0.17344   0.17172  -0.0928  0.0075  1.0000  -2.9352   0.0000   0.0000   0.0000   0.3395
  14.300   0.9053   0.17527   0.17355  -0.0938  0.0074  1.0000  -2.9232   0.0000   0.0000   0.0000   0.3403
  14.400   0.9065   0.17710   0.17538  -0.0948  0.0073  1.0000  -2.9137   0.0000   0.0000   0.0000   0.3411
  14.500   0.9079   0.17891   0.17719  -0.0958  0.0073  1.0000  -2.9068   0.0000   0.0000   0.0000   0.3419
  14.600   0.9093   0.18071   0.17898  -0.0967  0.0072  1.0000  -2.9024   0.0000   0.0000   0.0000   0.3427
  14.700   0.9108   0.18249   0.18077  -0.0976  0.0071  1.0000  -2.9007   0.0000   0.0000   0.0000   0.3434
  14.800   0.9123   0.18428   0.18255  -0.0985  0.0070  1.0000  -2.9001   0.0000   0.0000   0.0000   0.3441
  14.900   0.9139   0.18605   0.18432  -0.0994  0.0070  1.0000  -2.9017   0.0000   0.0000   0.0000   0.3448
  15.000   0.9156   0.18781   0.18608  -0.1003  0.0069  1.0000  -2.9057   0.0000   0.0000   0.0000   0.3454
  15.100   0.9173   0.18956   0.18783  -0.1012  0.0068  1.0000  -2.9120   0.0000   0.0000   0.0000   0.3460
  15.200   0.9190   0.19130   0.18957  -0.1021  0.0067  1.0000  -2.9205   0.0000   0.0000   0.0000   0.3466
  15.300   0.9208   0.19302   0.19129  -0.1029  0.0067  1.0000  -2.9313   0.0000   0.0000   0.0000   0.3472
  15.400   0.9227   0.19474   0.19301  -0.1037  0.0066  1.0000  -2.9442   0.0000   0.0000   0.0000   0.3477
  15.500   0.9245   0.19645   0.19472  -0.1045  0.0065  1.0000  -2.9588   0.0000   0.0000   0.0000   0.3482
  15.600   0.9262   0.19827   0.19654  -0.1054  0.0065  1.0000  -2.9640   0.0000   0.0000   0.0000   0.3488
  15.700   0.9278   0.20018   0.19845  -0.1063  0.0064  1.0000  -2.9624   0.0000   0.0000   0.0000   0.3495
  15.800   0.9293   0.20212   0.20039  -0.1072  0.0063  1.0000  -2.9590   0.0000   0.0000   0.0000   0.3501
  15.900   0.9307   0.20411   0.20238  -0.1081  0.0062  1.0000  -2.9517   0.0000   0.0000   0.0000   0.3508
  16.000   0.9319   0.20620   0.20447  -0.1091  0.0062  1.0000  -2.9371   0.0000   0.0000   0.0000   0.3515
  16.100   0.9328   0.20846   0.20673  -0.1100  0.0061  1.0000  -2.9081   0.0000   0.0000   0.0000   0.3523
  16.200   0.9328   0.21118   0.20944  -0.1111  0.0059  1.0000  -2.8403   0.0000   0.0000   0.0000   0.3534
  16.500   0.9313   0.22122   0.21944  -0.1147  0.0057  1.0000  -2.4685   0.0000   0.0000   0.0000   0.3572
  16.600   0.9333   0.22333   0.22155  -0.1156  0.0057  1.0000  -2.4510   0.0000   0.0000   0.0000   0.3577
  16.700   0.9353   0.22545   0.22367  -0.1165  0.0057  1.0000  -2.4340   0.0000   0.0000   0.0000   0.3583
  16.800   0.9373   0.22758   0.22580  -0.1174  0.0057  1.0000  -2.4173   0.0000   0.0000   0.0000   0.3588
  16.900   0.9393   0.22970   0.22792  -0.1183  0.0057  1.0000  -2.4010   0.0000   0.0000   0.0000   0.3594
  17.000   0.9413   0.23184   0.23006  -0.1191  0.0057  1.0000  -2.3850   0.0000   0.0000   0.0000   0.3599
  17.100   0.9433   0.23397   0.23219  -0.1200  0.0057  1.0000  -2.3695   0.0000   0.0000   0.0000   0.3604
  17.200   0.9453   0.23611   0.23433  -0.1209  0.0056  1.0000  -2.3542   0.0000   0.0000   0.0000   0.3609
  17.300   0.9474   0.23826   0.23648  -0.1217  0.0056  1.0000  -2.3392   0.0000   0.0000   0.0000   0.3614
  17.400   0.9494   0.24041   0.23863  -0.1226  0.0056  1.0000  -2.3245   0.0000   0.0000   0.0000   0.3619
  17.500   0.9514   0.24256   0.24078  -0.1234  0.0056  1.0000  -2.3102   0.0000   0.0000   0.0000   0.3624
  17.600   0.9533   0.24472   0.24294  -0.1243  0.0056  1.0000  -2.2961   0.0000   0.0000   0.0000   0.3629
  17.700   0.9553   0.24689   0.24511  -0.1251  0.0056  1.0000  -2.2823   0.0000   0.0000   0.0000   0.3634
  17.800   0.9573   0.24906   0.24728  -0.1260  0.0056  1.0000  -2.2687   0.0000   0.0000   0.0000   0.3639
  17.900   0.9593   0.25123   0.24945  -0.1268  0.0056  1.0000  -2.2553   0.0000   0.0000   0.0000   0.3643
  18.000   0.9612   0.25341   0.25163  -0.1277  0.0056  1.0000  -2.2422   0.0000   0.0000   0.0000   0.3648
  18.100   0.9631   0.25559   0.25382  -0.1285  0.0056  1.0000  -2.2293   0.0000   0.0000   0.0000   0.3653
  18.200   0.9651   0.25778   0.25601  -0.1293  0.0056  1.0000  -2.2166   0.0000   0.0000   0.0000   0.3657
  18.300   0.9670   0.25998   0.25821  -0.1302  0.0056  1.0000  -2.2041   0.0000   0.0000   0.0000   0.3662
  18.400   0.9689   0.26218   0.26041  -0.1310  0.0056  1.0000  -2.1919   0.0000   0.0000   0.0000   0.3666
  18.500   0.9707   0.26439   0.26261  -0.1318  0.0056  1.0000  -2.1798   0.0000   0.0000   0.0000   0.3671
  18.600   0.9726   0.26660   0.26483  -0.1327  0.0056  1.0000  -2.1678   0.0000   0.0000   0.0000   0.3675
  18.700   0.9744   0.26882   0.26704  -0.1335  0.0056  1.0000  -2.1560   0.0000   0.0000   0.0000   0.3680
  18.800   0.9762   0.27104   0.26927  -0.1343  0.0056  1.0000  -2.1443   0.0000   0.0000   0.0000   0.3684
  18.900   0.9779   0.27326   0.27150  -0.1351  0.0056  1.0000  -2.1327   0.0000   0.0000   0.0000   0.3688
  19.000   0.9797   0.27550   0.27373  -0.1359  0.0056  1.0000  -2.1214   0.0000   0.0000   0.0000   0.3693
  19.100   0.9814   0.27773   0.27597  -0.1367  0.0056  1.0000  -2.1102   0.0000   0.0000   0.0000   0.3697
  19.200   0.9831   0.27997   0.27821  -0.1375  0.0056  1.0000  -2.0991   0.0000   0.0000   0.0000   0.3701
  19.300   0.9847   0.28222   0.28046  -0.1383  0.0056  1.0000  -2.0882   0.0000   0.0000   0.0000   0.3706
  19.400   0.9863   0.28447   0.28271  -0.1391  0.0056  1.0000  -2.0773   0.0000   0.0000   0.0000   0.3710
  19.500   0.9879   0.28673   0.28497  -0.1399  0.0056  1.0000  -2.0666   0.0000   0.0000   0.0000   0.3714
  19.600   0.9895   0.28899   0.28723  -0.1407  0.0056  1.0000  -2.0559   0.0000   0.0000   0.0000   0.3718
  19.700   0.9909   0.29125   0.28950  -0.1415  0.0056  1.0000  -2.0451   0.0000   0.0000   0.0000   0.3723
  19.800   0.9924   0.29351   0.29176  -0.1422  0.0056  1.0000  -2.0344   0.0000   0.0000   0.0000   0.3727
  19.900   0.9938   0.29578   0.29404  -0.1430  0.0055  1.0000  -2.0237   0.0000   0.0000   0.0000   0.3731
  20.000   0.9951   0.29806   0.29631  -0.1438  0.0055  1.0000  -2.0132   0.0000   0.0000   0.0000   0.3735
  20.100   0.9964   0.30033   0.29859  -0.1445  0.0055  1.0000  -2.0027   0.0000   0.0000   0.0000   0.3740
  20.200   0.9976   0.30260   0.30086  -0.1453  0.0055  1.0000  -1.9923   0.0000   0.0000   0.0000   0.3744
  20.300   0.9988   0.30488   0.30314  -0.1460  0.0055  1.0000  -1.9819   0.0000   0.0000   0.0000   0.3748
  20.400   0.9999   0.30715   0.30542  -0.1467  0.0055  1.0000  -1.9715   0.0000   0.0000   0.0000   0.3752
  20.500   1.0009   0.30943   0.30770  -0.1475  0.0055  1.0000  -1.9612   0.0000   0.0000   0.0000   0.3756
  20.600   1.0018   0.31170   0.30997  -0.1482  0.0055  1.0000  -1.9509   0.0000   0.0000   0.0000   0.3761
  20.700   1.0027   0.31397   0.31224  -0.1489  0.0055  1.0000  -1.9401   0.0000   0.0000   0.0000   0.3765
  20.800   1.0034   0.31623   0.31451  -0.1496  0.0055  1.0000  -1.9288   0.0000   0.0000   0.0000   0.3769
  20.900   1.0040   0.31849   0.31678  -0.1503  0.0054  1.0000  -1.9175   0.0000   0.0000   0.0000   0.3774
  21.000   1.0045   0.32074   0.31903  -0.1510  0.0054  1.0000  -1.9060   0.0000   0.0000   0.0000   0.3778
  21.100   1.0048   0.32298   0.32127  -0.1516  0.0054  1.0000  -1.8944   0.0000   0.0000   0.0000   0.3783
  21.200   1.0050   0.32520   0.32350  -0.1523  0.0054  1.0000  -1.8825   0.0000   0.0000   0.0000   0.3788
  21.300   1.0051   0.32740   0.32570  -0.1529  0.0054  1.0000  -1.8704   0.0000   0.0000   0.0000   0.3792
  21.400   1.0049   0.32958   0.32795  -0.1535  0.0054  1.0000  -1.8574   0.0000   0.0000   0.0000   0.3797
  21.500   1.0043   0.33175   0.33012  -0.1541  0.0053  1.0000  -1.8414   0.0000   0.0000   0.0000   0.3802
  21.600   1.0034   0.33387   0.33225  -0.1546  0.0053  1.0000  -1.8246   0.0000   0.0000   0.0000   0.3808
  21.700   1.0021   0.33594   0.33432  -0.1551  0.0053  1.0000  -1.8067   0.0000   0.0000   0.0000   0.3813
  21.800   1.0001   0.33790   0.33630  -0.1555  0.0053  1.0000  -1.7963   0.0000   0.0000   0.0000   0.3820
  21.900   0.9970   0.33971   0.33811  -0.1558  0.0052  1.0000  -1.7833   0.0000   0.0000   0.0000   0.3826


