xflr5 v6.61

 Calculated polar for: EPPLER 580 AIRFOIL

 1 1 Reynolds number fixed          Mach number fixed         

 xtrf =   1.000 (top)        1.000 (bottom)
 Mach =   0.000     Re =     0.200 e 6     Ncrit =   9.000

  alpha     CL        CD       CDp       Cm    Top Xtr Bot Xtr   Cpmin    Chinge    XCp    
 ------- -------- --------- --------- -------- ------- ------- -------- --------- ---------
 -10.000  -0.3202   0.11230   0.10902  -0.0461  0.9957  0.0562  -1.5008   0.0000   0.0000   0.0000   0.0847
  -9.900  -0.3140   0.11069   0.10741  -0.0477  0.9944  0.0570  -1.4910   0.0000   0.0000   0.0000   0.0766
  -9.800  -0.3080   0.10905   0.10577  -0.0494  0.9930  0.0578  -1.4837   0.0000   0.0000   0.0000   0.0679
  -9.700  -0.3020   0.10736   0.10408  -0.0512  0.9916  0.0586  -1.4787   0.0000   0.0000   0.0000   0.0585
  -9.600  -0.2961   0.10563   0.10234  -0.0531  0.9902  0.0594  -1.4759   0.0000   0.0000   0.0000   0.0483
  -9.500  -0.2902   0.10383   0.10054  -0.0552  0.9890  0.0604  -1.4755   0.0000   0.0000   0.0000   0.0373
  -9.400  -0.2843   0.10198   0.09869  -0.0574  0.9879  0.0614  -1.4775   0.0000   0.0000   0.0000   0.0254
  -9.300  -0.2785   0.10006   0.09677  -0.0598  0.9869  0.0624  -1.4821   0.0000   0.0000   0.0000   0.0124
  -9.200  -0.2750   0.09822   0.09493  -0.0615  0.9845  0.0634  -1.4901   0.0000   0.0000   0.0000   0.0031
  -9.100  -0.2715   0.09631   0.09303  -0.0635  0.9821  0.0645  -1.5011   0.0000   0.0000   0.0000  -0.0073
  -9.000  -0.2678   0.09429   0.09100  -0.0659  0.9798  0.0657  -1.5160   0.0000   0.0000   0.0000  -0.0194
  -8.900  -0.2641   0.09213   0.08885  -0.0687  0.9778  0.0670  -1.5365   0.0000   0.0000   0.0000  -0.0334
  -8.800  -0.2607   0.08978   0.08650  -0.0720  0.9759  0.0684  -1.5657   0.0000   0.0000   0.0000  -0.0498
  -8.700  -0.2572   0.08721   0.08393  -0.0763  0.9741  0.0700  -1.6053   0.0000   0.0000   0.0000  -0.0704
  -8.600  -0.2522   0.08440   0.08111  -0.0823  0.9724  0.0719  -1.6554   0.0000   0.0000   0.0000  -0.1005
  -8.500  -0.2562   0.08261   0.07930  -0.0850  0.9669  0.0725  -1.6927   0.0000   0.0000   0.0000  -0.1049
  -8.400  -0.2595   0.08078   0.07743  -0.0880  0.9619  0.0729  -1.7264   0.0000   0.0000   0.0000  -0.1116
  -8.300  -0.2618   0.07883   0.07544  -0.0915  0.9582  0.0732  -1.7579   0.0000   0.0000   0.0000  -0.1215
  -8.200  -0.2635   0.07689   0.07345  -0.0952  0.9551  0.0734  -1.7863   0.0000   0.0000   0.0000  -0.1328
  -8.100  -0.2629   0.07480   0.07129  -0.0995  0.9526  0.0735  -1.8111   0.0000   0.0000   0.0000  -0.1499
  -8.000  -0.2730   0.07390   0.07039  -0.0985  0.9433  0.0735  -1.8300   0.0000   0.0000   0.0000  -0.1310
  -7.900  -0.2727   0.07205   0.06847  -0.1014  0.9382  0.0736  -1.8453   0.0000   0.0000   0.0000  -0.1415
  -7.800  -0.2696   0.07026   0.06658  -0.1041  0.9351  0.0737  -1.8543   0.0000   0.0000   0.0000  -0.1558
  -7.700  -0.2645   0.06845   0.06468  -0.1068  0.9328  0.0738  -1.8590   0.0000   0.0000   0.0000  -0.1735
  -7.600  -0.2923   0.05725   0.05333  -0.1135  0.9299  0.0771  -2.0604   0.0000   0.0000   0.0000  -0.1562
  -7.500  -0.2845   0.05473   0.05081  -0.1153  0.9291  0.0788  -2.0389   0.0000   0.0000   0.0000  -0.1735
  -7.400  -0.2956   0.05440   0.05048  -0.1122  0.9196  0.0789  -2.0460   0.0000   0.0000   0.0000  -0.1468
  -7.300  -0.2883   0.05320   0.04931  -0.1122  0.9167  0.0801  -2.0085   0.0000   0.0000   0.0000  -0.1566
  -7.200  -0.2791   0.05209   0.04823  -0.1126  0.9144  0.0814  -1.9665   0.0000   0.0000   0.0000  -0.1712
  -7.100  -0.2693   0.05098   0.04713  -0.1133  0.9123  0.0828  -1.9265   0.0000   0.0000   0.0000  -0.1889
  -7.000  -0.2592   0.04983   0.04597  -0.1144  0.9105  0.0845  -1.8897   0.0000   0.0000   0.0000  -0.2095
  -6.900  -0.2488   0.04863   0.04473  -0.1157  0.9087  0.0865  -1.8563   0.0000   0.0000   0.0000  -0.2338
  -6.800  -0.2378   0.04739   0.04344  -0.1172  0.9072  0.0889  -1.8261   0.0000   0.0000   0.0000  -0.2623
  -6.700  -0.2260   0.04618   0.04215  -0.1190  0.9058  0.0918  -1.7986   0.0000   0.0000   0.0000  -0.2966
  -6.600  -0.2126   0.04518   0.04097  -0.1208  0.9046  0.0954  -1.7736   0.0000   0.0000   0.0000  -0.3391
  -6.500  -0.1952   0.04523   0.04089  -0.1223  0.9036  0.0999  -1.7296   0.0000   0.0000   0.0000  -0.3990
  -5.500  -0.0845   0.02737   0.02092  -0.1291  0.8780  0.0507  -1.9386   0.0000   0.0000   0.0000  -1.3232
  -5.400  -0.0666   0.02693   0.02051  -0.1298  0.8771  0.0466  -1.8992   0.0000   0.0000   0.0000  -1.7536
  -5.300  -0.0513   0.02495   0.01836  -0.1309  0.8761  0.0443  -1.9112   0.0000   0.0000   0.0000  -2.3748
  -5.200  -0.0349   0.02366   0.01695  -0.1319  0.8752  0.0425  -1.9019   0.0000   0.0000   0.0000  -3.6331
  -5.100  -0.0186   0.02259   0.01578  -0.1327  0.8742  0.0409  -1.8876   0.0000   0.0000   0.0000  -7.0639
  -5.000  -0.0026   0.02166   0.01475  -0.1335  0.8731  0.0395  -1.8707   0.0000   0.0000   0.0000  -53.4271
  -4.900   0.0135   0.02083   0.01383  -0.1341  0.8720  0.0382  -1.8510   0.0000   0.0000   0.0000  10.4405
  -4.800   0.0296   0.02010   0.01303  -0.1349  0.8709  0.0372  -1.8263   0.0000   0.0000   0.0000   4.9198
  -4.700   0.0461   0.01944   0.01230  -0.1357  0.8697  0.0363  -1.7979   0.0000   0.0000   0.0000   3.2603
  -4.600   0.0630   0.01884   0.01165  -0.1367  0.8684  0.0356  -1.7654   0.0000   0.0000   0.0000   2.4692
  -4.500   0.0651   0.01867   0.01145  -0.1350  0.8631  0.0352  -1.7500   0.0000   0.0000   0.0000   2.3694
  -4.400   0.0704   0.01841   0.01118  -0.1338  0.8582  0.0349  -1.7290   0.0000   0.0000   0.0000   2.1939
  -4.300   0.0809   0.01806   0.01079  -0.1337  0.8546  0.0346  -1.6987   0.0000   0.0000   0.0000   1.9393
  -4.200   0.0936   0.01767   0.01036  -0.1341  0.8516  0.0343  -1.6629   0.0000   0.0000   0.0000   1.7125
  -4.100   0.1078   0.01728   0.00992  -0.1348  0.8490  0.0342  -1.6230   0.0000   0.0000   0.0000   1.5255
  -4.000   0.1231   0.01688   0.00947  -0.1358  0.8466  0.0341  -1.5800   0.0000   0.0000   0.0000   1.3748
  -3.900   0.1389   0.01651   0.00903  -0.1368  0.8443  0.0342  -1.5348   0.0000   0.0000   0.0000   1.2535
  -3.800   0.1552   0.01616   0.00860  -0.1380  0.8421  0.0345  -1.4884   0.0000   0.0000   0.0000   1.1553
  -3.700   0.1718   0.01583   0.00819  -0.1392  0.8400  0.0350  -1.4409   0.0000   0.0000   0.0000   1.0739
  -3.600   0.1892   0.01554   0.00780  -0.1405  0.8379  0.0358  -1.3920   0.0000   0.0000   0.0000   1.0047
  -3.500   0.2069   0.01527   0.00744  -0.1418  0.8357  0.0371  -1.3423   0.0000   0.0000   0.0000   0.9462
  -3.400   0.2248   0.01505   0.00713  -0.1432  0.8333  0.0391  -1.2910   0.0000   0.0000   0.0000   0.8967
  -3.300   0.2382   0.01493   0.00694  -0.1437  0.8300  0.0412  -1.2437   0.0000   0.0000   0.0000   0.8621
  -3.200   0.2443   0.01503   0.00683  -0.1427  0.8258  0.0368  -1.1562   0.0000   0.0000   0.0000   0.8423
  -3.100   0.2539   0.01492   0.00669  -0.1425  0.8215  0.0392  -1.1227   0.0000   0.0000   0.0000   0.8185
  -3.000   0.2654   0.01476   0.00653  -0.1426  0.8175  0.0440  -1.0881   0.0000   0.0000   0.0000   0.7940
  -2.900   0.2865   0.01275   0.00634  -0.1473  0.8145  0.4733  -1.0446   0.0000   0.0000   0.0000   0.7700
  -2.800   0.2988   0.01287   0.00645  -0.1472  0.8109  0.5090  -1.0019   0.0000   0.0000   0.0000   0.7481
  -2.700   0.3086   0.01327   0.00698  -0.1462  0.8074  0.5381  -0.9553   0.0000   0.0000   0.0000   0.7287
  -2.600   0.3214   0.01362   0.00727  -0.1461  0.8044  0.5523  -0.9001   0.0000   0.0000   0.0000   0.7090
  -2.500   0.3352   0.01373   0.00733  -0.1464  0.8015  0.5574  -0.8412   0.0000   0.0000   0.0000   0.6908
  -2.400   0.3478   0.01376   0.00737  -0.1464  0.7986  0.5643  -0.7833   0.0000   0.0000   0.0000   0.6746
  -2.300   0.3608   0.01391   0.00752  -0.1465  0.7954  0.5692  -0.7329   0.0000   0.0000   0.0000   0.6593
  -2.200   0.3741   0.01412   0.00772  -0.1466  0.7919  0.5735  -0.7415   0.0000   0.0000   0.0000   0.6449
  -2.100   0.3813   0.01425   0.00787  -0.1457  0.7890  0.5768  -0.7468   0.0000   0.0000   0.0000   0.6348
  -2.000   0.3892   0.01437   0.00801  -0.1449  0.7857  0.5800  -0.7525   0.0000   0.0000   0.0000   0.6247
  -1.900   0.3981   0.01448   0.00812  -0.1443  0.7823  0.5833  -0.7587   0.0000   0.0000   0.0000   0.6147
  -1.800   0.4077   0.01457   0.00821  -0.1439  0.7788  0.5865  -0.7653   0.0000   0.0000   0.0000   0.6049
  -1.700   0.4176   0.01470   0.00834  -0.1435  0.7752  0.5908  -0.7721   0.0000   0.0000   0.0000   0.5952
  -1.600   0.4270   0.01500   0.00864  -0.1427  0.7716  0.5982  -0.7791   0.0000   0.0000   0.0000   0.5856
  -1.500   0.4363   0.01548   0.00912  -0.1417  0.7681  0.6058  -0.7869   0.0000   0.0000   0.0000   0.5759
  -1.400   0.4457   0.01557   0.00922  -0.1410  0.7648  0.6152  -0.7949   0.0000   0.0000   0.0000   0.5671
  -1.300   0.4516   0.01584   0.00955  -0.1389  0.7615  0.6233  -0.8011   0.0000   0.0000   0.0000   0.5583
  -1.200   0.4580   0.01627   0.01002  -0.1369  0.7581  0.6304  -0.8077   0.0000   0.0000   0.0000   0.5494
  -1.100   0.4667   0.01667   0.01042  -0.1356  0.7546  0.6374  -0.8153   0.0000   0.0000   0.0000   0.5408
  -1.000   0.4779   0.01698   0.01070  -0.1351  0.7506  0.6428  -0.8240   0.0000   0.0000   0.0000   0.5329
  -0.900   0.4873   0.01704   0.01075  -0.1348  0.7478  0.6454  -0.8313   0.0000   0.0000   0.0000   0.5266
  -0.800   0.4966   0.01702   0.01074  -0.1346  0.7453  0.6472  -0.8386   0.0000   0.0000   0.0000   0.5208
  -0.700   0.5064   0.01701   0.01072  -0.1345  0.7425  0.6489  -0.8461   0.0000   0.0000   0.0000   0.5151
  -0.600   0.5168   0.01699   0.01069  -0.1345  0.7395  0.6503  -0.8540   0.0000   0.0000   0.0000   0.5096
  -0.500   0.5277   0.01695   0.01064  -0.1347  0.7364  0.6516  -0.8622   0.0000   0.0000   0.0000   0.5043
  -0.400   0.5391   0.01691   0.01058  -0.1349  0.7334  0.6527  -0.8706   0.0000   0.0000   0.0000   0.4992
  -0.300   0.5508   0.01688   0.01052  -0.1352  0.7303  0.6538  -0.8793   0.0000   0.0000   0.0000   0.4943
  -0.200   0.5627   0.01684   0.01046  -0.1355  0.7273  0.6549  -0.8881   0.0000   0.0000   0.0000   0.4894
  -0.100   0.5749   0.01681   0.01040  -0.1359  0.7244  0.6559  -0.8971   0.0000   0.0000   0.0000   0.4848
   0.000   0.5873   0.01678   0.01034  -0.1363  0.7214  0.6569  -0.9064   0.0000   0.0000   0.0000   0.4803
   0.100   0.6002   0.01676   0.01027  -0.1367  0.7184  0.6579  -0.9171   0.0000   0.0000   0.0000   0.4759
   0.200   0.6135   0.01675   0.01022  -0.1372  0.7152  0.6587  -0.9280   0.0000   0.0000   0.0000   0.4717
   0.300   0.6270   0.01678   0.01021  -0.1378  0.7117  0.6596  -0.9391   0.0000   0.0000   0.0000   0.4677
   0.400   0.6409   0.01688   0.01029  -0.1385  0.7077  0.6603  -0.9502   0.0000   0.0000   0.0000   0.4638
   0.500   0.6529   0.01696   0.01035  -0.1389  0.7043  0.6610  -0.9602   0.0000   0.0000   0.0000   0.4603
   0.600   0.6625   0.01695   0.01034  -0.1387  0.7021  0.6616  -0.9689   0.0000   0.0000   0.0000   0.4568
   0.700   0.6725   0.01695   0.01035  -0.1386  0.6996  0.6622  -0.9777   0.0000   0.0000   0.0000   0.4534
   0.800   0.6826   0.01697   0.01036  -0.1386  0.6970  0.6627  -0.9867   0.0000   0.0000   0.0000   0.4501
   0.900   0.6936   0.01687   0.01026  -0.1388  0.6943  0.6637  -0.9961   0.0000   0.0000   0.0000   0.4471
   1.000   0.7052   0.01664   0.01001  -0.1393  0.6915  0.6656  -1.0059   0.0000   0.0000   0.0000   0.4444
   1.100   0.7164   0.01650   0.00986  -0.1396  0.6887  0.6672  -1.0155   0.0000   0.0000   0.0000   0.4415
   1.200   0.7276   0.01640   0.00976  -0.1398  0.6859  0.6685  -1.0252   0.0000   0.0000   0.0000   0.4387
   1.300   0.7389   0.01634   0.00968  -0.1399  0.6831  0.6698  -1.0350   0.0000   0.0000   0.0000   0.4359
   1.400   0.7501   0.01628   0.00961  -0.1401  0.6804  0.6710  -1.0448   0.0000   0.0000   0.0000   0.4331
   1.500   0.7615   0.01624   0.00956  -0.1402  0.6776  0.6721  -1.0547   0.0000   0.0000   0.0000   0.4304
   1.600   0.7730   0.01621   0.00950  -0.1404  0.6747  0.6732  -1.0655   0.0000   0.0000   0.0000   0.4277
   1.700   0.7849   0.01619   0.00946  -0.1406  0.6717  0.6743  -1.0772   0.0000   0.0000   0.0000   0.4251
   1.800   0.7969   0.01620   0.00944  -0.1408  0.6685  0.6756  -1.0889   0.0000   0.0000   0.0000   0.4225
   1.900   0.8091   0.01626   0.00946  -0.1411  0.6649  0.6770  -1.1008   0.0000   0.0000   0.0000   0.4201
   2.000   0.8216   0.01641   0.00958  -0.1414  0.6605  0.6785  -1.1127   0.0000   0.0000   0.0000   0.4177
   2.100   0.8316   0.01648   0.00966  -0.1413  0.6578  0.6799  -1.1230   0.0000   0.0000   0.0000   0.4154
   2.200   0.8406   0.01647   0.00968  -0.1409  0.6558  0.6813  -1.1327   0.0000   0.0000   0.0000   0.4130
   2.300   0.8499   0.01647   0.00971  -0.1407  0.6535  0.6827  -1.1426   0.0000   0.0000   0.0000   0.4107
   2.400   0.8595   0.01649   0.00974  -0.1405  0.6511  0.6840  -1.1527   0.0000   0.0000   0.0000   0.4085
   2.500   0.8695   0.01650   0.00977  -0.1403  0.6485  0.6851  -1.1630   0.0000   0.0000   0.0000   0.4064
   2.600   0.8798   0.01651   0.00979  -0.1403  0.6458  0.6862  -1.1736   0.0000   0.0000   0.0000   0.4043
   2.700   0.8903   0.01653   0.00982  -0.1403  0.6431  0.6873  -1.1844   0.0000   0.0000   0.0000   0.4023
   2.800   0.9011   0.01654   0.00983  -0.1404  0.6402  0.6884  -1.1955   0.0000   0.0000   0.0000   0.4004
   2.900   0.9121   0.01655   0.00984  -0.1404  0.6374  0.6895  -1.2082   0.0000   0.0000   0.0000   0.3985
   3.000   0.9232   0.01655   0.00985  -0.1405  0.6346  0.6906  -1.2210   0.0000   0.0000   0.0000   0.3966
   3.100   0.9345   0.01655   0.00984  -0.1406  0.6317  0.6918  -1.2339   0.0000   0.0000   0.0000   0.3948
   3.200   0.9459   0.01656   0.00983  -0.1408  0.6288  0.6930  -1.2471   0.0000   0.0000   0.0000   0.3930
   3.300   0.9578   0.01656   0.00981  -0.1410  0.6256  0.6942  -1.2606   0.0000   0.0000   0.0000   0.3912
   3.400   0.9700   0.01659   0.00981  -0.1413  0.6223  0.6954  -1.2744   0.0000   0.0000   0.0000   0.3895
   3.500   0.9826   0.01667   0.00984  -0.1417  0.6185  0.6966  -1.2885   0.0000   0.0000   0.0000   0.3880
   3.600   0.9957   0.01685   0.00999  -0.1423  0.6139  0.6978  -1.3026   0.0000   0.0000   0.0000   0.3865
   3.700   1.0067   0.01697   0.01012  -0.1424  0.6107  0.6991  -1.3152   0.0000   0.0000   0.0000   0.3850
   3.800   1.0163   0.01696   0.01025  -0.1422  0.6089  0.7003  -1.3274   0.0000   0.0000   0.0000   0.3833
   3.900   1.0260   0.01697   0.01029  -0.1421  0.6069  0.7016  -1.3410   0.0000   0.0000   0.0000   0.3817
   4.000   1.0357   0.01699   0.01034  -0.1420  0.6046  0.7029  -1.3547   0.0000   0.0000   0.0000   0.3802
   4.100   1.0457   0.01702   0.01039  -0.1419  0.6020  0.7041  -1.3685   0.0000   0.0000   0.0000   0.3787
   4.200   1.0558   0.01705   0.01044  -0.1418  0.5993  0.7054  -1.3825   0.0000   0.0000   0.0000   0.3772
   4.300   1.0660   0.01708   0.01048  -0.1417  0.5963  0.7066  -1.3968   0.0000   0.0000   0.0000   0.3757
   4.400   1.0765   0.01710   0.01051  -0.1417  0.5931  0.7078  -1.4112   0.0000   0.0000   0.0000   0.3743
   4.500   1.0871   0.01711   0.01052  -0.1417  0.5899  0.7090  -1.4276   0.0000   0.0000   0.0000   0.3728
   4.600   1.0979   0.01712   0.01052  -0.1417  0.5865  0.7101  -1.4446   0.0000   0.0000   0.0000   0.3714
   4.700   1.1087   0.01713   0.01052  -0.1417  0.5832  0.7112  -1.4618   0.0000   0.0000   0.0000   0.3701
   4.800   1.1200   0.01714   0.01052  -0.1418  0.5798  0.7122  -1.4795   0.0000   0.0000   0.0000   0.3687
   4.900   1.1316   0.01719   0.01052  -0.1420  0.5763  0.7132  -1.4975   0.0000   0.0000   0.0000   0.3674
   5.000   1.1436   0.01727   0.01057  -0.1422  0.5726  0.7141  -1.5158   0.0000   0.0000   0.0000   0.3662
   5.100   1.1562   0.01743   0.01070  -0.1426  0.5684  0.7150  -1.5355   0.0000   0.0000   0.0000   0.3651
   5.200   1.1690   0.01772   0.01097  -0.1432  0.5635  0.7158  -1.5569   0.0000   0.0000   0.0000   0.3641
   5.300   1.1778   0.01774   0.01103  -0.1429  0.5618  0.7165  -1.5750   0.0000   0.0000   0.0000   0.3627
   5.400   1.1872   0.01770   0.01103  -0.1427  0.5597  0.7183  -1.5936   0.0000   0.0000   0.0000   0.3615
   5.500   1.1966   0.01765   0.01101  -0.1425  0.5570  0.7205  -1.6122   0.0000   0.0000   0.0000   0.3603
   5.600   1.2058   0.01762   0.01102  -0.1423  0.5540  0.7225  -1.6307   0.0000   0.0000   0.0000   0.3591
   5.700   1.2149   0.01761   0.01104  -0.1420  0.5506  0.7244  -1.6508   0.0000   0.0000   0.0000   0.3578
   5.800   1.2242   0.01760   0.01106  -0.1418  0.5470  0.7263  -1.6727   0.0000   0.0000   0.0000   0.3566
   5.900   1.2335   0.01760   0.01108  -0.1415  0.5434  0.7282  -1.6949   0.0000   0.0000   0.0000   0.3553
   6.000   1.2429   0.01761   0.01111  -0.1412  0.5399  0.7302  -1.7172   0.0000   0.0000   0.0000   0.3541
   6.100   1.2523   0.01762   0.01113  -0.1409  0.5363  0.7323  -1.7399   0.0000   0.0000   0.0000   0.3529
   6.200   1.2623   0.01765   0.01115  -0.1407  0.5327  0.7343  -1.7631   0.0000   0.0000   0.0000   0.3517
   6.300   1.2724   0.01769   0.01117  -0.1405  0.5288  0.7364  -1.7866   0.0000   0.0000   0.0000   0.3505
   6.400   1.2830   0.01777   0.01122  -0.1404  0.5244  0.7385  -1.8109   0.0000   0.0000   0.0000   0.3494
   6.500   1.2950   0.01795   0.01135  -0.1407  0.5187  0.7405  -1.8369   0.0000   0.0000   0.0000   0.3484
   6.600   1.3044   0.01806   0.01148  -0.1405  0.5141  0.7425  -1.8641   0.0000   0.0000   0.0000   0.3473
   6.700   1.3107   0.01802   0.01149  -0.1396  0.5109  0.7444  -1.8876   0.0000   0.0000   0.0000   0.3460
   6.800   1.3171   0.01797   0.01149  -0.1387  0.5064  0.7462  -1.9113   0.0000   0.0000   0.0000   0.3447
   6.900   1.3236   0.01792   0.01147  -0.1379  0.5008  0.7480  -1.9388   0.0000   0.0000   0.0000   0.3434
   7.000   1.3303   0.01786   0.01141  -0.1370  0.4942  0.7499  -1.9680   0.0000   0.0000   0.0000   0.3420
   7.100   1.3374   0.01781   0.01131  -0.1363  0.4864  0.7517  -1.9984   0.0000   0.0000   0.0000   0.3408
   7.200   1.3443   0.01782   0.01121  -0.1355  0.4778  0.7536  -2.0286   0.0000   0.0000   0.0000   0.3395
   7.300   1.3524   0.01795   0.01122  -0.1349  0.4673  0.7555  -2.0604   0.0000   0.0000   0.0000   0.3383
   7.400   1.3565   0.01794   0.01127  -0.1337  0.4618  0.7574  -2.0856   0.0000   0.0000   0.0000   0.3370
   7.500   1.3801   0.01848   0.01238  -0.1366  0.4803  0.7593  -2.1425   0.0000   0.0000   0.0000   0.3373
   7.600   1.3901   0.01861   0.01247  -0.1365  0.4752  0.7611  -2.1783   0.0000   0.0000   0.0000   0.3363
   7.700   1.4028   0.01886   0.01267  -0.1369  0.4681  0.7629  -2.2181   0.0000   0.0000   0.0000   0.3356
   7.800   1.4090   0.01891   0.01278  -0.1361  0.4653  0.7646  -2.2543   0.0000   0.0000   0.0000   0.3345
   7.900   1.4147   0.01894   0.01289  -0.1352  0.4617  0.7662  -2.3237   0.0000   0.0000   0.0000   0.3333
   8.000   1.4204   0.01898   0.01298  -0.1343  0.4570  0.7677  -2.3937   0.0000   0.0000   0.0000   0.3321
   8.200   1.4320   0.01901   0.01304  -0.1325  0.4448  0.7731  -2.5363   0.0000   0.0000   0.0000   0.3298
   8.300   1.4369   0.01902   0.01302  -0.1314  0.4379  0.7765  -2.6052   0.0000   0.0000   0.0000   0.3285
   8.400   1.4408   0.01910   0.01303  -0.1301  0.4304  0.7798  -2.6711   0.0000   0.0000   0.0000   0.3272
   8.500   1.4464   0.01929   0.01312  -0.1292  0.4205  0.7830  -2.7439   0.0000   0.0000   0.0000   0.3261
   8.600   1.4486   0.01934   0.01327  -0.1276  0.4158  0.7863  -2.8025   0.0000   0.0000   0.0000   0.3247
   8.700   1.4515   0.01943   0.01341  -0.1262  0.4087  0.7897  -2.8648   0.0000   0.0000   0.0000   0.3234
   8.800   1.4541   0.01957   0.01354  -0.1248  0.4000  0.7932  -2.9268   0.0000   0.0000   0.0000   0.3221
   8.900   1.4560   0.01977   0.01368  -0.1233  0.3906  0.7967  -2.9863   0.0000   0.0000   0.0000   0.3208
   9.000   1.4571   0.02005   0.01386  -0.1217  0.3810  0.8003  -3.0421   0.0000   0.0000   0.0000   0.3194
   9.100   1.4599   0.02031   0.01409  -0.1205  0.3722  0.8040  -3.1055   0.0000   0.0000   0.0000   0.3183
   9.200   1.4642   0.02050   0.01432  -0.1195  0.3646  0.8078  -3.1752   0.0000   0.0000   0.0000   0.3172
   9.300   1.4681   0.02075   0.01456  -0.1184  0.3561  0.8116  -3.2438   0.0000   0.0000   0.0000   0.3161
   9.400   1.4715   0.02103   0.01482  -0.1174  0.3485  0.8152  -3.3108   0.0000   0.0000   0.0000   0.3150
   9.600   1.4754   0.02169   0.01540  -0.1148  0.3347  0.8248  -3.4319   0.0000   0.0000   0.0000   0.3127
   9.700   1.4780   0.02198   0.01570  -0.1136  0.3284  0.8308  -3.4955   0.0000   0.0000   0.0000   0.3116
   9.800   1.4828   0.02218   0.01597  -0.1127  0.3228  0.8372  -3.5698   0.0000   0.0000   0.0000   0.3106
   9.900   1.4865   0.02245   0.01626  -0.1117  0.3158  0.8440  -3.6393   0.0000   0.0000   0.0000   0.3096
  10.000   1.4887   0.02279   0.01660  -0.1106  0.3081  0.8513  -3.7024   0.0000   0.0000   0.0000   0.3085
  10.100   1.4896   0.02321   0.01699  -0.1092  0.3002  0.8591  -3.7596   0.0000   0.0000   0.0000   0.3074
  10.300   1.4876   0.02408   0.01783  -0.1060  0.2858  0.8828  -3.8564   0.0000   0.0000   0.0000   0.3050
  10.400   1.4896   0.02430   0.01812  -0.1047  0.2801  0.9035  -3.9194   0.0000   0.0000   0.0000   0.3038
  10.500   1.4877   0.02447   0.01835  -0.1028  0.2743  1.0000  -3.9638   0.0000   0.0000   0.0000   0.3025
  10.600   1.4909   0.02501   0.01885  -0.1022  0.2655  1.0000  -4.0318   0.0000   0.0000   0.0000   0.3018
  10.700   1.4919   0.02565   0.01942  -0.1014  0.2569  1.0000  -4.0896   0.0000   0.0000   0.0000   0.3010
  10.800   1.4911   0.02638   0.02008  -0.1003  0.2490  1.0000  -4.1387   0.0000   0.0000   0.0000   0.3001
  10.900   1.4931   0.02698   0.02066  -0.0995  0.2422  1.0000  -4.2010   0.0000   0.0000   0.0000   0.2993
  11.000   1.4966   0.02751   0.02119  -0.0989  0.2349  1.0000  -4.2708   0.0000   0.0000   0.0000   0.2986
  11.100   1.4983   0.02815   0.02180  -0.0982  0.2268  1.0000  -4.3318   0.0000   0.0000   0.0000   0.2978
  11.200   1.4980   0.02891   0.02252  -0.0972  0.2187  1.0000  -4.3834   0.0000   0.0000   0.0000   0.2970
  11.300   1.4959   0.02982   0.02336  -0.0962  0.2112  1.0000  -4.4256   0.0000   0.0000   0.0000   0.2962
  11.400   1.4957   0.03062   0.02414  -0.0953  0.2042  1.0000  -4.4765   0.0000   0.0000   0.0000   0.2954
  11.500   1.4981   0.03128   0.02479  -0.0947  0.1968  1.0000  -4.5393   0.0000   0.0000   0.0000   0.2947
  11.600   1.4985   0.03207   0.02555  -0.0940  0.1884  1.0000  -4.5922   0.0000   0.0000   0.0000   0.2940
  11.700   1.4960   0.03309   0.02651  -0.0930  0.1800  1.0000  -4.6306   0.0000   0.0000   0.0000   0.2933
  11.800   1.4908   0.03434   0.02769  -0.0919  0.1717  1.0000  -4.6548   0.0000   0.0000   0.0000   0.2925
  11.900   1.4892   0.03534   0.02865  -0.0911  0.1614  1.0000  -4.6957   0.0000   0.0000   0.0000   0.2919
  12.200   1.4636   0.04027   0.03329  -0.0880  0.1156  1.0000  -4.6852   0.0000   0.0000   0.0000   0.2901
  12.300   1.4569   0.04183   0.03475  -0.0872  0.1054  1.0000  -4.6931   0.0000   0.0000   0.0000   0.2896
  12.400   1.4530   0.04318   0.03606  -0.0865  0.0942  1.0000  -4.7108   0.0000   0.0000   0.0000   0.2891
  12.500   1.4467   0.04477   0.03758  -0.0859  0.0849  1.0000  -4.7199   0.0000   0.0000   0.0000   0.2887
  12.600   1.4411   0.04628   0.03903  -0.0853  0.0758  1.0000  -4.7311   0.0000   0.0000   0.0000   0.2883
  12.700   1.4356   0.04783   0.04053  -0.0847  0.0650  1.0000  -4.7416   0.0000   0.0000   0.0000   0.2879
  12.800   1.4282   0.04963   0.04224  -0.0841  0.0557  1.0000  -4.7448   0.0000   0.0000   0.0000   0.2876
  12.900   1.4217   0.05144   0.04400  -0.0837  0.0456  1.0000  -4.7494   0.0000   0.0000   0.0000   0.2874
  13.000   1.4141   0.05338   0.04587  -0.0833  0.0368  1.0000  -4.7505   0.0000   0.0000   0.0000   0.2872
  13.100   1.4085   0.05518   0.04762  -0.0830  0.0283  1.0000  -4.7563   0.0000   0.0000   0.0000   0.2870
  13.200   1.4023   0.05708   0.04947  -0.0827  0.0221  1.0000  -4.7603   0.0000   0.0000   0.0000   0.2869
  13.300   1.3990   0.05870   0.05110  -0.0825  0.0194  1.0000  -4.7719   0.0000   0.0000   0.0000   0.2866
  13.400   1.3962   0.06032   0.05275  -0.0824  0.0178  1.0000  -4.7858   0.0000   0.0000   0.0000   0.2865
  13.500   1.3939   0.06189   0.05435  -0.0823  0.0165  1.0000  -4.8027   0.0000   0.0000   0.0000   0.2863
  13.600   1.3921   0.06340   0.05588  -0.0823  0.0155  1.0000  -4.8221   0.0000   0.0000   0.0000   0.2861
  13.700   1.3906   0.06488   0.05740  -0.0822  0.0146  1.0000  -4.8422   0.0000   0.0000   0.0000   0.2859
  13.800   1.3894   0.06635   0.05892  -0.0821  0.0139  1.0000  -4.8633   0.0000   0.0000   0.0000   0.2857
  13.900   1.3882   0.06783   0.06046  -0.0821  0.0133  1.0000  -4.8848   0.0000   0.0000   0.0000   0.2855
  14.000   1.3861   0.06947   0.06217  -0.0822  0.0129  1.0000  -4.9021   0.0000   0.0000   0.0000   0.2854
  14.100   1.3839   0.07113   0.06392  -0.0823  0.0126  1.0000  -4.9190   0.0000   0.0000   0.0000   0.2854
  14.200   1.3819   0.07276   0.06562  -0.0824  0.0123  1.0000  -4.9371   0.0000   0.0000   0.0000   0.2853
  14.300   1.3801   0.07437   0.06731  -0.0825  0.0121  1.0000  -4.9562   0.0000   0.0000   0.0000   0.2852
  14.400   1.3782   0.07599   0.06902  -0.0827  0.0119  1.0000  -4.9749   0.0000   0.0000   0.0000   0.2852
  14.500   1.3761   0.07765   0.07075  -0.0829  0.0117  1.0000  -4.9928   0.0000   0.0000   0.0000   0.2852
  14.600   1.3737   0.07935   0.07253  -0.0831  0.0115  1.0000  -5.0092   0.0000   0.0000   0.0000   0.2853
  14.700   1.3703   0.08123   0.07450  -0.0834  0.0114  1.0000  -5.0210   0.0000   0.0000   0.0000   0.2854
  14.800   1.3672   0.08308   0.07642  -0.0838  0.0113  1.0000  -5.0342   0.0000   0.0000   0.0000   0.2856
  14.900   1.3645   0.08486   0.07828  -0.0841  0.0113  1.0000  -5.0487   0.0000   0.0000   0.0000   0.2858
  15.000   1.3618   0.08661   0.08010  -0.0844  0.0112  1.0000  -5.0634   0.0000   0.0000   0.0000   0.2859
  15.100   1.3591   0.08836   0.08192  -0.0848  0.0111  1.0000  -5.0775   0.0000   0.0000   0.0000   0.2861
  15.200   1.3563   0.09012   0.08375  -0.0852  0.0110  1.0000  -5.0914   0.0000   0.0000   0.0000   0.2863
  15.300   1.3535   0.09191   0.08561  -0.0856  0.0110  1.0000  -5.1044   0.0000   0.0000   0.0000   0.2865
  15.400   1.3499   0.09384   0.08761  -0.0862  0.0110  1.0000  -5.1133   0.0000   0.0000   0.0000   0.2868
  15.500   1.3468   0.09566   0.08951  -0.0867  0.0109  1.0000  -5.1244   0.0000   0.0000   0.0000   0.2872
  15.600   1.3442   0.09739   0.09129  -0.0872  0.0109  1.0000  -5.1378   0.0000   0.0000   0.0000   0.2874
  15.700   1.3420   0.09903   0.09300  -0.0876  0.0108  1.0000  -5.1527   0.0000   0.0000   0.0000   0.2876
  15.800   1.3401   0.10063   0.09466  -0.0881  0.0108  1.0000  -5.1690   0.0000   0.0000   0.0000   0.2878
  15.900   1.3383   0.10215   0.09624  -0.0885  0.0108  1.0000  -5.1861   0.0000   0.0000   0.0000   0.2880
  16.000   1.3367   0.10358   0.09772  -0.0889  0.0108  1.0000  -5.2036   0.0000   0.0000   0.0000   0.2882
  16.100   1.3353   0.10495   0.09915  -0.0893  0.0107  1.0000  -5.2217   0.0000   0.0000   0.0000   0.2883
  16.200   1.3337   0.10637   0.10063  -0.0898  0.0107  1.0000  -5.2388   0.0000   0.0000   0.0000   0.2886
  16.300   1.3320   0.10785   0.10216  -0.0903  0.0107  1.0000  -5.2547   0.0000   0.0000   0.0000   0.2888
  16.400   1.3307   0.10927   0.10363  -0.0908  0.0107  1.0000  -5.2728   0.0000   0.0000   0.0000   0.2890
  16.500   1.3299   0.11060   0.10502  -0.0913  0.0107  1.0000  -5.2935   0.0000   0.0000   0.0000   0.2892
  16.600   1.3296   0.11188   0.10635  -0.0917  0.0107  1.0000  -5.3165   0.0000   0.0000   0.0000   0.2892
  16.700   1.3296   0.11312   0.10764  -0.0920  0.0107  1.0000  -5.3412   0.0000   0.0000   0.0000   0.2893
  16.800   1.3299   0.11433   0.10890  -0.0924  0.0107  1.0000  -5.3673   0.0000   0.0000   0.0000   0.2893
  16.900   1.3303   0.11554   0.11016  -0.0928  0.0107  1.0000  -5.3940   0.0000   0.0000   0.0000   0.2893
  17.000   1.3308   0.11673   0.11140  -0.0931  0.0107  1.0000  -5.4217   0.0000   0.0000   0.0000   0.2893
  17.100   1.3316   0.11791   0.11264  -0.0934  0.0107  1.0000  -5.4503   0.0000   0.0000   0.0000   0.2893
  17.200   1.3323   0.11911   0.11389  -0.0938  0.0108  1.0000  -5.4788   0.0000   0.0000   0.0000   0.2893
  17.300   1.3330   0.12034   0.11517  -0.0942  0.0108  1.0000  -5.5070   0.0000   0.0000   0.0000   0.2893
  17.400   1.3338   0.12159   0.11647  -0.0946  0.0108  1.0000  -5.5352   0.0000   0.0000   0.0000   0.2893
  17.500   1.3345   0.12286   0.11780  -0.0950  0.0108  1.0000  -5.5632   0.0000   0.0000   0.0000   0.2894
  17.600   1.3350   0.12422   0.11921  -0.0954  0.0109  1.0000  -5.5892   0.0000   0.0000   0.0000   0.2895
  17.700   1.3353   0.12562   0.12067  -0.0960  0.0109  1.0000  -5.6144   0.0000   0.0000   0.0000   0.2896
  17.800   1.3355   0.12707   0.12218  -0.0965  0.0110  1.0000  -5.6384   0.0000   0.0000   0.0000   0.2898
  17.900   1.3351   0.12867   0.12384  -0.0972  0.0110  1.0000  -5.6586   0.0000   0.0000   0.0000   0.2900
  18.000   1.3344   0.13038   0.12561  -0.0979  0.0110  1.0000  -5.6761   0.0000   0.0000   0.0000   0.2904
  18.100   1.3336   0.13210   0.12739  -0.0987  0.0111  1.0000  -5.6934   0.0000   0.0000   0.0000   0.2908
  18.200   1.3330   0.13382   0.12918  -0.0994  0.0111  1.0000  -5.7107   0.0000   0.0000   0.0000   0.2911
  18.300   1.3324   0.13556   0.13098  -0.1002  0.0112  1.0000  -5.7277   0.0000   0.0000   0.0000   0.2915
  18.400   1.3317   0.13733   0.13281  -0.1009  0.0112  1.0000  -5.7441   0.0000   0.0000   0.0000   0.2919
  18.500   1.3311   0.13915   0.13470  -0.1018  0.0113  1.0000  -5.7595   0.0000   0.0000   0.0000   0.2923
  18.600   1.3302   0.14103   0.13664  -0.1026  0.0113  1.0000  -5.7732   0.0000   0.0000   0.0000   0.2928
  18.700   1.3290   0.14302   0.13870  -0.1035  0.0114  1.0000  -5.7835   0.0000   0.0000   0.0000   0.2933
  18.800   1.3275   0.14510   0.14085  -0.1045  0.0115  1.0000  -5.7911   0.0000   0.0000   0.0000   0.2939
  18.900   1.3256   0.14728   0.14311  -0.1055  0.0115  1.0000  -5.7954   0.0000   0.0000   0.0000   0.2946
  19.000   1.3228   0.14976   0.14566  -0.1068  0.0116  1.0000  -5.7913   0.0000   0.0000   0.0000   0.2955
  19.100   1.3194   0.15238   0.14835  -0.1081  0.0116  1.0000  -5.7829   0.0000   0.0000   0.0000   0.2965
  19.200   1.3164   0.15496   0.15101  -0.1094  0.0117  1.0000  -5.7748   0.0000   0.0000   0.0000   0.2974
  19.300   1.3133   0.15757   0.15369  -0.1107  0.0118  1.0000  -5.7655   0.0000   0.0000   0.0000   0.2984
  19.400   1.3102   0.16027   0.15647  -0.1121  0.0119  1.0000  -5.7535   0.0000   0.0000   0.0000   0.2994
  19.500   1.3067   0.16311   0.15939  -0.1135  0.0120  1.0000  -5.7368   0.0000   0.0000   0.0000   0.3005
  19.600   1.3026   0.16614   0.16250  -0.1150  0.0120  1.0000  -5.7139   0.0000   0.0000   0.0000   0.3017
  19.700   1.2970   0.16964   0.16608  -0.1168  0.0121  1.0000  -5.6776   0.0000   0.0000   0.0000   0.3033
  19.800   1.2910   0.17332   0.16985  -0.1187  0.0122  1.0000  -5.6352   0.0000   0.0000   0.0000   0.3050
  19.900   1.2850   0.17703   0.17364  -0.1205  0.0123  1.0000  -5.5905   0.0000   0.0000   0.0000   0.3067
  20.000   1.2788   0.18095   0.17765  -0.1225  0.0124  1.0000  -5.5391   0.0000   0.0000   0.0000   0.3086
  20.100   1.2716   0.18521   0.18201  -0.1246  0.0125  1.0000  -5.4768   0.0000   0.0000   0.0000   0.3106
  20.200   1.2623   0.19024   0.18713  -0.1271  0.0126  1.0000  -5.3936   0.0000   0.0000   0.0000   0.3133
  20.300   1.2529   0.19538   0.19236  -0.1296  0.0127  1.0000  -5.3042   0.0000   0.0000   0.0000   0.3159
  20.400   1.2429   0.20093   0.19801  -0.1323  0.0128  1.0000  -5.2011   0.0000   0.0000   0.0000   0.3188
  20.500   1.2300   0.20761   0.20479  -0.1354  0.0129  1.0000  -5.0653   0.0000   0.0000   0.0000   0.3225
  20.600   1.2156   0.21502   0.21230  -0.1388  0.0130  1.0000  -4.9023   0.0000   0.0000   0.0000   0.3266
  20.700   1.1956   0.22489   0.22228  -0.1429  0.0132  1.0000  -4.6587   0.0000   0.0000   0.0000   0.3322
  20.800   1.0971   0.27000   0.26755  -0.1560  0.0156  1.0000  -3.0737   0.0000   0.0000   0.0000   0.3576
  20.900   1.0829   0.27837   0.27591  -0.1577  0.0165  1.0000  -2.8344   0.0000   0.0000   0.0000   0.3614
  21.000   1.0733   0.28411   0.28164  -0.1588  0.0172  1.0000  -2.6925   0.0000   0.0000   0.0000   0.3638
  21.100   1.0648   0.28879   0.28634  -0.1595  0.0179  1.0000  -2.5841   0.0000   0.0000   0.0000   0.3657
  21.200   1.0558   0.29278   0.29034  -0.1600  0.0185  1.0000  -2.4910   0.0000   0.0000   0.0000   0.3675
  21.400   0.9814   0.28976   0.28747  -0.1543  0.0199  1.0000  -2.1485   0.0000   0.0000   0.0000   0.3746
  22.000   0.9140   0.29735   0.29523  -0.1504  0.0366  1.0000  -1.4965   0.0000   0.0000   0.0000   0.3834
  22.100   0.9112   0.29824   0.29612  -0.1506  0.0366  1.0000  -1.4760   0.0000   0.0000   0.0000   0.3841
  22.200   0.9085   0.29913   0.29702  -0.1509  0.0366  1.0000  -1.4564   0.0000   0.0000   0.0000   0.3848
  22.300   0.9060   0.30001   0.29792  -0.1511  0.0366  1.0000  -1.4377   0.0000   0.0000   0.0000   0.3855
  22.400   0.9036   0.30089   0.29880  -0.1514  0.0365  1.0000  -1.4196   0.0000   0.0000   0.0000   0.3862
  22.500   0.9013   0.30176   0.29968  -0.1517  0.0365  1.0000  -1.4021   0.0000   0.0000   0.0000   0.3869
  22.600   0.8992   0.30263   0.30055  -0.1520  0.0365  1.0000  -1.3853   0.0000   0.0000   0.0000   0.3876
  22.700   0.8972   0.30349   0.30142  -0.1524  0.0364  1.0000  -1.3691   0.0000   0.0000   0.0000   0.3883
  22.800   0.8953   0.30433   0.30228  -0.1527  0.0364  1.0000  -1.3534   0.0000   0.0000   0.0000   0.3889
  22.900   0.8935   0.30517   0.30312  -0.1531  0.0364  1.0000  -1.3382   0.0000   0.0000   0.0000   0.3896
  23.000   0.8918   0.30599   0.30395  -0.1535  0.0363  1.0000  -1.3233   0.0000   0.0000   0.0000   0.3903
  23.100   0.8902   0.30679   0.30475  -0.1539  0.0362  1.0000  -1.3088   0.0000   0.0000   0.0000   0.3909
  23.200   0.8887   0.30758   0.30555  -0.1543  0.0361  1.0000  -1.2948   0.0000   0.0000   0.0000   0.3916
  23.300   0.8873   0.30834   0.30632  -0.1548  0.0360  1.0000  -1.2809   0.0000   0.0000   0.0000   0.3923
  23.400   0.8860   0.30908   0.30707  -0.1553  0.0358  1.0000  -1.2668   0.0000   0.0000   0.0000   0.3930
  23.500   0.8839   0.30984   0.30783  -0.1560  0.0356  1.0000  -1.2443   0.0000   0.0000   0.0000   0.3942
  23.600   0.8811   0.31080   0.30879  -0.1571  0.0350  1.0000  -1.2104   0.0000   0.0000   0.0000   0.3959
  23.700   0.8791   0.31210   0.31009  -0.1583  0.0341  1.0000  -1.1756   0.0000   0.0000   0.0000   0.3976
  23.800   0.8777   0.31330   0.31129  -0.1590  0.0331  1.0000  -1.1516   0.0000   0.0000   0.0000   0.3986
  23.900   0.8766   0.31432   0.31233  -0.1596  0.0324  1.0000  -1.1352   0.0000   0.0000   0.0000   0.3994
  24.000   0.8755   0.31526   0.31327  -0.1600  0.0317  1.0000  -1.1225   0.0000   0.0000   0.0000   0.4000
  24.100   0.8746   0.31614   0.31415  -0.1604  0.0311  1.0000  -1.1123   0.0000   0.0000   0.0000   0.4006
  24.200   0.8737   0.31697   0.31500  -0.1608  0.0305  1.0000  -1.1037   0.0000   0.0000   0.0000   0.4011
  24.300   0.8729   0.31779   0.31582  -0.1612  0.0300  1.0000  -1.0964   0.0000   0.0000   0.0000   0.4015


