xflr5 v6.61

 Calculated polar for: EPPLER 654 AIRFOIL

 1 1 Reynolds number fixed          Mach number fixed         

 xtrf =   1.000 (top)        1.000 (bottom)
 Mach =   0.000     Re =     0.688 e 6     Ncrit =   9.000

  alpha     CL        CD       CDp       Cm    Top Xtr Bot Xtr   Cpmin    Chinge    XCp    
 ------- -------- --------- --------- -------- ------- ------- -------- --------- ---------
 -10.000  -0.2611   0.03777   0.03394  -0.1411  0.7186  0.0122  -4.7846   0.0000   0.0000   0.0000  -0.3264
  -9.900  -0.2626   0.03698   0.03310  -0.1408  0.7177  0.0122  -4.7716   0.0000   0.0000   0.0000  -0.3216
  -9.800  -0.2638   0.03623   0.03231  -0.1405  0.7168  0.0122  -4.7561   0.0000   0.0000   0.0000  -0.3171
  -9.700  -0.2650   0.03552   0.03156  -0.1400  0.7158  0.0121  -4.7396   0.0000   0.0000   0.0000  -0.3121
  -9.600  -0.2666   0.03489   0.03089  -0.1393  0.7148  0.0121  -4.7230   0.0000   0.0000   0.0000  -0.3057
  -9.500  -0.2686   0.03437   0.03033  -0.1385  0.7139  0.0120  -4.7066   0.0000   0.0000   0.0000  -0.2979
  -9.400  -0.2680   0.03377   0.02968  -0.1380  0.7130  0.0120  -4.6813   0.0000   0.0000   0.0000  -0.2970
  -9.300  -0.2659   0.03316   0.02902  -0.1376  0.7120  0.0120  -4.6504   0.0000   0.0000   0.0000  -0.2992
  -9.200  -0.2632   0.03257   0.02837  -0.1372  0.7111  0.0119  -4.6164   0.0000   0.0000   0.0000  -0.3030
  -9.100  -0.2599   0.03198   0.02773  -0.1368  0.7102  0.0119  -4.5800   0.0000   0.0000   0.0000  -0.3081
  -9.000  -0.2563   0.03139   0.02708  -0.1365  0.7093  0.0118  -4.5430   0.0000   0.0000   0.0000  -0.3141
  -8.900  -0.2523   0.03078   0.02643  -0.1361  0.7083  0.0118  -4.5058   0.0000   0.0000   0.0000  -0.3211
  -8.800  -0.2481   0.03017   0.02575  -0.1358  0.7073  0.0117  -4.4686   0.0000   0.0000   0.0000  -0.3290
  -8.700  -0.2436   0.02954   0.02506  -0.1354  0.7063  0.0117  -4.4318   0.0000   0.0000   0.0000  -0.3378
  -8.600  -0.2389   0.02889   0.02435  -0.1351  0.7053  0.0117  -4.3957   0.0000   0.0000   0.0000  -0.3476
  -8.500  -0.2340   0.02823   0.02362  -0.1348  0.7042  0.0116  -4.3606   0.0000   0.0000   0.0000  -0.3583
  -8.400  -0.2289   0.02754   0.02286  -0.1345  0.7031  0.0116  -4.3269   0.0000   0.0000   0.0000  -0.3700
  -8.300  -0.2236   0.02683   0.02207  -0.1342  0.7020  0.0116  -4.2949   0.0000   0.0000   0.0000  -0.3828
  -8.200  -0.2182   0.02608   0.02125  -0.1339  0.7008  0.0116  -4.2649   0.0000   0.0000   0.0000  -0.3967
  -8.100  -0.2126   0.02531   0.02039  -0.1336  0.6995  0.0115  -4.2374   0.0000   0.0000   0.0000  -0.4119
  -8.000  -0.2068   0.02450   0.01949  -0.1333  0.6983  0.0115  -4.2126   0.0000   0.0000   0.0000  -0.4283
  -7.900  -0.2010   0.02365   0.01855  -0.1330  0.6970  0.0115  -4.1908   0.0000   0.0000   0.0000  -0.4463
  -7.800  -0.1950   0.02276   0.01757  -0.1327  0.6956  0.0115  -4.1724   0.0000   0.0000   0.0000  -0.4658
  -7.700  -0.1888   0.02184   0.01654  -0.1324  0.6943  0.0115  -4.1577   0.0000   0.0000   0.0000  -0.4871
  -7.600  -0.1825   0.02088   0.01548  -0.1321  0.6929  0.0116  -4.1464   0.0000   0.0000   0.0000  -0.5104
  -7.500  -0.1760   0.01992   0.01441  -0.1318  0.6914  0.0116  -4.1379   0.0000   0.0000   0.0000  -0.5361
  -7.400  -0.1694   0.01896   0.01334  -0.1314  0.6899  0.0117  -4.1308   0.0000   0.0000   0.0000  -0.5644
  -7.300  -0.1625   0.01805   0.01232  -0.1311  0.6886  0.0118  -4.1227   0.0000   0.0000   0.0000  -0.5958
  -7.200  -0.1554   0.01714   0.01131  -0.1307  0.6884  0.0120  -4.1109   0.0000   0.0000   0.0000  -0.6318
  -7.100  -0.1480   0.01632   0.01039  -0.1303  0.6882  0.0122  -4.0938   0.0000   0.0000   0.0000  -0.6726
  -7.000  -0.1405   0.01558   0.00956  -0.1300  0.6880  0.0125  -4.0724   0.0000   0.0000   0.0000  -0.7184
  -6.900  -0.1327   0.01494   0.00883  -0.1296  0.6878  0.0129  -4.0445   0.0000   0.0000   0.0000  -0.7719
  -6.800  -0.1244   0.01441   0.00823  -0.1294  0.6876  0.0134  -4.0064   0.0000   0.0000   0.0000  -0.8373
  -6.700  -0.1155   0.01397   0.00774  -0.1292  0.6874  0.0140  -3.9659   0.0000   0.0000   0.0000  -0.9182
  -6.600  -0.1062   0.01362   0.00733  -0.1290  0.6871  0.0146  -3.9229   0.0000   0.0000   0.0000  -1.0191
  -6.500  -0.0964   0.01332   0.00699  -0.1289  0.6868  0.0154  -3.8720   0.0000   0.0000   0.0000  -1.1463
  -6.400  -0.0862   0.01307   0.00671  -0.1289  0.6865  0.0162  -3.8135   0.0000   0.0000   0.0000  -1.3087
  -6.300  -0.0758   0.01286   0.00648  -0.1289  0.6862  0.0170  -3.7477   0.0000   0.0000   0.0000  -1.5210
  -6.200  -0.0653   0.01268   0.00628  -0.1289  0.6858  0.0180  -3.6757   0.0000   0.0000   0.0000  -1.8067
  -6.100  -0.0546   0.01252   0.00611  -0.1289  0.6854  0.0190  -3.6001   0.0000   0.0000   0.0000  -2.2084
  -6.000  -0.0438   0.01237   0.00590  -0.1290  0.6849  0.0201  -3.5234   0.0000   0.0000   0.0000  -2.8118
  -5.900  -0.0329   0.01224   0.00576  -0.1290  0.6844  0.0213  -3.4433   0.0000   0.0000   0.0000  -3.8241
  -5.800  -0.0219   0.01212   0.00564  -0.1291  0.6839  0.0226  -3.3603   0.0000   0.0000   0.0000  -5.8626
  -5.700  -0.0109   0.01202   0.00553  -0.1292  0.6834  0.0239  -3.2743   0.0000   0.0000   0.0000  -12.0831
  -5.600   0.0003   0.01195   0.00545  -0.1293  0.6828  0.0249  -3.1848   0.0000   0.0000   0.0000  465.3397
  -5.500   0.0115   0.01190   0.00540  -0.1294  0.6823  0.0256  -3.0921   0.0000   0.0000   0.0000  11.8658
  -5.400   0.0228   0.01187   0.00537  -0.1295  0.6817  0.0261  -2.9981   0.0000   0.0000   0.0000   6.1174
  -5.300   0.0339   0.01175   0.00524  -0.1296  0.6812  0.0274  -2.9167   0.0000   0.0000   0.0000   4.2062
  -5.200   0.0442   0.01141   0.00488  -0.1296  0.6806  0.0367  -2.8655   0.0000   0.0000   0.0000   3.2766
  -5.100   0.0552   0.01126   0.00478  -0.1297  0.6801  0.0420  -2.7826   0.0000   0.0000   0.0000   2.6774
  -5.000   0.0664   0.01118   0.00471  -0.1299  0.6795  0.0454  -2.6957   0.0000   0.0000   0.0000   2.2677
  -4.900   0.0777   0.01109   0.00462  -0.1300  0.6789  0.0503  -2.6118   0.0000   0.0000   0.0000   1.9755
  -4.800   0.0886   0.01091   0.00452  -0.1302  0.6784  0.0617  -2.5312   0.0000   0.0000   0.0000   1.7635
  -4.700   0.0998   0.01080   0.00445  -0.1303  0.6778  0.0684  -2.4464   0.0000   0.0000   0.0000   1.5946
  -4.600   0.1112   0.01074   0.00439  -0.1305  0.6772  0.0721  -2.3608   0.0000   0.0000   0.0000   1.4575
  -4.500   0.1225   0.01066   0.00432  -0.1306  0.6766  0.0868  -2.2784   0.0000   0.0000   0.0000   1.3458
  -4.400   0.1338   0.01054   0.00426  -0.1308  0.6760  0.0987  -2.1957   0.0000   0.0000   0.0000   1.2544
  -4.300   0.1451   0.01045   0.00420  -0.1310  0.6754  0.1083  -2.1130   0.0000   0.0000   0.0000   1.1764
  -4.200   0.1564   0.01033   0.00415  -0.1312  0.6748  0.1215  -2.0318   0.0000   0.0000   0.0000   1.1103
  -4.100   0.1677   0.01020   0.00408  -0.1314  0.6742  0.1360  -1.9510   0.0000   0.0000   0.0000   1.0531
  -4.000   0.1790   0.01005   0.00403  -0.1317  0.6736  0.1596  -1.8717   0.0000   0.0000   0.0000   1.0034
  -3.900   0.1904   0.00994   0.00398  -0.1319  0.6729  0.1761  -1.7923   0.0000   0.0000   0.0000   0.9588
  -3.800   0.2018   0.00976   0.00392  -0.1322  0.6723  0.2057  -1.7146   0.0000   0.0000   0.0000   0.9200
  -3.700   0.2133   0.00964   0.00387  -0.1325  0.6717  0.2297  -1.6370   0.0000   0.0000   0.0000   0.8846
  -3.600   0.2248   0.00949   0.00382  -0.1328  0.6711  0.2551  -1.5605   0.0000   0.0000   0.0000   0.8530
  -3.500   0.2365   0.00938   0.00377  -0.1330  0.6705  0.2789  -1.4845   0.0000   0.0000   0.0000   0.8241
  -3.400   0.2481   0.00925   0.00373  -0.1333  0.6699  0.3030  -1.4094   0.0000   0.0000   0.0000   0.7980
  -3.300   0.2598   0.00913   0.00369  -0.1336  0.6693  0.3287  -1.3351   0.0000   0.0000   0.0000   0.7741
  -3.200   0.2716   0.00901   0.00365  -0.1340  0.6687  0.3545  -1.2617   0.0000   0.0000   0.0000   0.7522
  -3.100   0.2834   0.00888   0.00361  -0.1343  0.6681  0.3836  -1.1892   0.0000   0.0000   0.0000   0.7321
  -3.000   0.2952   0.00879   0.00358  -0.1346  0.6675  0.4093  -1.1177   0.0000   0.0000   0.0000   0.7134
  -2.900   0.3071   0.00864   0.00355  -0.1349  0.6669  0.4432  -1.0471   0.0000   0.0000   0.0000   0.6963
  -2.800   0.3190   0.00852   0.00350  -0.1353  0.6663  0.4779  -0.9772   0.0000   0.0000   0.0000   0.6804
  -2.700   0.3308   0.00840   0.00350  -0.1356  0.6657  0.5156  -0.9120   0.0000   0.0000   0.0000   0.6656
  -2.600   0.3427   0.00830   0.00353  -0.1358  0.6650  0.5542  -0.8553   0.0000   0.0000   0.0000   0.6518
  -2.500   0.3544   0.00827   0.00354  -0.1360  0.6644  0.5756  -0.8613   0.0000   0.0000   0.0000   0.6387
  -2.400   0.3660   0.00825   0.00359  -0.1361  0.6638  0.5965  -0.8672   0.0000   0.0000   0.0000   0.6264
  -2.300   0.3777   0.00825   0.00362  -0.1363  0.6632  0.6114  -0.8731   0.0000   0.0000   0.0000   0.6149
  -2.200   0.3895   0.00828   0.00363  -0.1364  0.6625  0.6200  -0.8791   0.0000   0.0000   0.0000   0.6039
  -2.100   0.4011   0.00828   0.00366  -0.1365  0.6619  0.6312  -0.8850   0.0000   0.0000   0.0000   0.5937
  -2.000   0.4125   0.00830   0.00370  -0.1366  0.6612  0.6409  -0.8908   0.0000   0.0000   0.0000   0.5841
  -1.900   0.4241   0.00832   0.00373  -0.1367  0.6604  0.6478  -0.8966   0.0000   0.0000   0.0000   0.5749
  -1.800   0.4357   0.00835   0.00375  -0.1368  0.6595  0.6536  -0.9026   0.0000   0.0000   0.0000   0.5663
  -1.700   0.4474   0.00838   0.00378  -0.1369  0.6585  0.6597  -0.9085   0.0000   0.0000   0.0000   0.5580
  -1.600   0.4590   0.00843   0.00381  -0.1370  0.6575  0.6648  -0.9144   0.0000   0.0000   0.0000   0.5502
  -1.500   0.4708   0.00848   0.00383  -0.1371  0.6563  0.6685  -0.9210   0.0000   0.0000   0.0000   0.5428
  -1.400   0.4825   0.00854   0.00387  -0.1373  0.6551  0.6708  -0.9277   0.0000   0.0000   0.0000   0.5357
  -1.300   0.4942   0.00860   0.00391  -0.1374  0.6538  0.6722  -0.9343   0.0000   0.0000   0.0000   0.5290
  -1.200   0.5058   0.00864   0.00394  -0.1376  0.6525  0.6767  -0.9408   0.0000   0.0000   0.0000   0.5227
  -1.100   0.5171   0.00868   0.00400  -0.1377  0.6512  0.6828  -0.9471   0.0000   0.0000   0.0000   0.5167
  -1.000   0.5284   0.00875   0.00409  -0.1377  0.6499  0.6877  -0.9533   0.0000   0.0000   0.0000   0.5109
  -0.900   0.5396   0.00885   0.00419  -0.1378  0.6485  0.6915  -0.9594   0.0000   0.0000   0.0000   0.5054
  -0.800   0.5507   0.00897   0.00432  -0.1378  0.6470  0.6944  -0.9653   0.0000   0.0000   0.0000   0.5001
  -0.700   0.5615   0.00914   0.00450  -0.1379  0.6452  0.6972  -0.9709   0.0000   0.0000   0.0000   0.4952
  -0.600   0.5718   0.00936   0.00473  -0.1378  0.6432  0.7002  -0.9760   0.0000   0.0000   0.0000   0.4905
  -0.500   0.5834   0.00937   0.00475  -0.1379  0.6430  0.7030  -0.9827   0.0000   0.0000   0.0000   0.4856
  -0.400   0.5950   0.00939   0.00476  -0.1380  0.6428  0.7058  -0.9895   0.0000   0.0000   0.0000   0.4810
  -0.300   0.6066   0.00940   0.00477  -0.1381  0.6426  0.7087  -0.9962   0.0000   0.0000   0.0000   0.4765
  -0.200   0.6183   0.00941   0.00477  -0.1382  0.6424  0.7112  -1.0031   0.0000   0.0000   0.0000   0.4722
  -0.100   0.6300   0.00941   0.00477  -0.1383  0.6421  0.7133  -1.0099   0.0000   0.0000   0.0000   0.4681
   0.000   0.6417   0.00941   0.00477  -0.1384  0.6418  0.7152  -1.0168   0.0000   0.0000   0.0000   0.4641
   0.100   0.6533   0.00942   0.00477  -0.1386  0.6415  0.7169  -1.0243   0.0000   0.0000   0.0000   0.4602
   0.200   0.6649   0.00943   0.00477  -0.1387  0.6411  0.7184  -1.0318   0.0000   0.0000   0.0000   0.4565
   0.300   0.6765   0.00945   0.00479  -0.1388  0.6408  0.7197  -1.0394   0.0000   0.0000   0.0000   0.4529
   0.400   0.6881   0.00947   0.00481  -0.1389  0.6404  0.7208  -1.0469   0.0000   0.0000   0.0000   0.4495
   0.500   0.6996   0.00949   0.00483  -0.1390  0.6400  0.7217  -1.0544   0.0000   0.0000   0.0000   0.4461
   0.600   0.7112   0.00951   0.00485  -0.1391  0.6395  0.7225  -1.0619   0.0000   0.0000   0.0000   0.4429
   0.700   0.7227   0.00953   0.00486  -0.1392  0.6390  0.7231  -1.0694   0.0000   0.0000   0.0000   0.4397
   0.800   0.7346   0.00945   0.00478  -0.1394  0.6384  0.7275  -1.0771   0.0000   0.0000   0.0000   0.4368
   0.900   0.7461   0.00941   0.00474  -0.1396  0.6377  0.7312  -1.0853   0.0000   0.0000   0.0000   0.4339
   1.000   0.7576   0.00938   0.00472  -0.1397  0.6371  0.7342  -1.0937   0.0000   0.0000   0.0000   0.4311
   1.100   0.7690   0.00938   0.00472  -0.1398  0.6364  0.7366  -1.1020   0.0000   0.0000   0.0000   0.4283
   1.200   0.7803   0.00938   0.00473  -0.1399  0.6357  0.7389  -1.1102   0.0000   0.0000   0.0000   0.4256
   1.300   0.7916   0.00939   0.00475  -0.1399  0.6350  0.7409  -1.1185   0.0000   0.0000   0.0000   0.4230
   1.400   0.8029   0.00940   0.00477  -0.1400  0.6342  0.7428  -1.1268   0.0000   0.0000   0.0000   0.4204
   1.500   0.8142   0.00940   0.00478  -0.1401  0.6333  0.7445  -1.1351   0.0000   0.0000   0.0000   0.4179
   1.600   0.8256   0.00941   0.00479  -0.1401  0.6324  0.7461  -1.1434   0.0000   0.0000   0.0000   0.4155
   1.700   0.8370   0.00941   0.00480  -0.1402  0.6314  0.7478  -1.1527   0.0000   0.0000   0.0000   0.4132
   1.800   0.8483   0.00942   0.00480  -0.1403  0.6304  0.7495  -1.1620   0.0000   0.0000   0.0000   0.4108
   1.900   0.8597   0.00942   0.00481  -0.1404  0.6294  0.7512  -1.1714   0.0000   0.0000   0.0000   0.4086
   2.000   0.8711   0.00943   0.00482  -0.1405  0.6284  0.7527  -1.1808   0.0000   0.0000   0.0000   0.4064
   2.100   0.8826   0.00943   0.00483  -0.1406  0.6274  0.7542  -1.1902   0.0000   0.0000   0.0000   0.4043
   2.200   0.8941   0.00943   0.00483  -0.1407  0.6263  0.7556  -1.1997   0.0000   0.0000   0.0000   0.4023
   2.300   0.9056   0.00943   0.00483  -0.1408  0.6252  0.7570  -1.2103   0.0000   0.0000   0.0000   0.4003
   2.400   0.9171   0.00943   0.00482  -0.1409  0.6241  0.7584  -1.2210   0.0000   0.0000   0.0000   0.3983
   2.500   0.9286   0.00943   0.00482  -0.1410  0.6229  0.7598  -1.2316   0.0000   0.0000   0.0000   0.3964
   2.600   0.9401   0.00943   0.00482  -0.1412  0.6218  0.7611  -1.2423   0.0000   0.0000   0.0000   0.3945
   2.700   0.9515   0.00943   0.00482  -0.1413  0.6207  0.7623  -1.2529   0.0000   0.0000   0.0000   0.3927
   2.800   0.9630   0.00943   0.00482  -0.1414  0.6197  0.7633  -1.2635   0.0000   0.0000   0.0000   0.3909
   2.900   0.9745   0.00943   0.00482  -0.1415  0.6185  0.7642  -1.2742   0.0000   0.0000   0.0000   0.3892
   3.000   0.9860   0.00943   0.00481  -0.1417  0.6173  0.7651  -1.2862   0.0000   0.0000   0.0000   0.3875
   3.100   0.9975   0.00943   0.00480  -0.1418  0.6159  0.7658  -1.2983   0.0000   0.0000   0.0000   0.3858
   3.200   1.0090   0.00943   0.00479  -0.1419  0.6144  0.7666  -1.3103   0.0000   0.0000   0.0000   0.3842
   3.300   1.0204   0.00944   0.00479  -0.1421  0.6128  0.7673  -1.3222   0.0000   0.0000   0.0000   0.3826
   3.400   1.0316   0.00946   0.00480  -0.1421  0.6110  0.7681  -1.3341   0.0000   0.0000   0.0000   0.3810
   3.500   1.0429   0.00950   0.00483  -0.1422  0.6093  0.7689  -1.3460   0.0000   0.0000   0.0000   0.3795
   3.600   1.0541   0.00955   0.00488  -0.1423  0.6074  0.7696  -1.3579   0.0000   0.0000   0.0000   0.3780
   3.700   1.0654   0.00962   0.00494  -0.1425  0.6051  0.7702  -1.3712   0.0000   0.0000   0.0000   0.3765
   3.800   1.0767   0.00971   0.00503  -0.1426  0.6024  0.7707  -1.3846   0.0000   0.0000   0.0000   0.3751
   3.900   1.0880   0.00985   0.00517  -0.1428  0.5993  0.7712  -1.3979   0.0000   0.0000   0.0000   0.3738
   4.000   1.0992   0.00992   0.00525  -0.1429  0.5977  0.7716  -1.4113   0.0000   0.0000   0.0000   0.3724
   4.100   1.1105   0.00989   0.00523  -0.1430  0.5973  0.7719  -1.4250   0.0000   0.0000   0.0000   0.3710
   4.200   1.1218   0.00988   0.00523  -0.1431  0.5968  0.7722  -1.4386   0.0000   0.0000   0.0000   0.3697
   4.300   1.1333   0.00984   0.00521  -0.1433  0.5963  0.7735  -1.4525   0.0000   0.0000   0.0000   0.3684
   4.400   1.1448   0.00980   0.00518  -0.1435  0.5958  0.7755  -1.4682   0.0000   0.0000   0.0000   0.3672
   4.500   1.1562   0.00976   0.00515  -0.1437  0.5951  0.7774  -1.4838   0.0000   0.0000   0.0000   0.3659
   4.600   1.1674   0.00973   0.00513  -0.1438  0.5943  0.7792  -1.4993   0.0000   0.0000   0.0000   0.3647
   4.700   1.1786   0.00969   0.00512  -0.1439  0.5933  0.7810  -1.5148   0.0000   0.0000   0.0000   0.3635
   4.800   1.1896   0.00967   0.00511  -0.1440  0.5921  0.7827  -1.5303   0.0000   0.0000   0.0000   0.3623
   4.900   1.2007   0.00964   0.00510  -0.1440  0.5907  0.7842  -1.5474   0.0000   0.0000   0.0000   0.3611
   5.000   1.2117   0.00963   0.00510  -0.1441  0.5893  0.7857  -1.5651   0.0000   0.0000   0.0000   0.3599
   5.100   1.2226   0.00962   0.00511  -0.1441  0.5877  0.7872  -1.5828   0.0000   0.0000   0.0000   0.3587
   5.200   1.2335   0.00961   0.00511  -0.1442  0.5860  0.7885  -1.6005   0.0000   0.0000   0.0000   0.3575
   5.300   1.2444   0.00960   0.00512  -0.1442  0.5840  0.7899  -1.6182   0.0000   0.0000   0.0000   0.3564
   5.400   1.2552   0.00958   0.00512  -0.1442  0.5818  0.7912  -1.6360   0.0000   0.0000   0.0000   0.3553
   5.500   1.2660   0.00958   0.00512  -0.1442  0.5793  0.7925  -1.6537   0.0000   0.0000   0.0000   0.3541
   5.600   1.2767   0.00957   0.00512  -0.1442  0.5768  0.7940  -1.6715   0.0000   0.0000   0.0000   0.3530
   5.700   1.2872   0.00958   0.00512  -0.1441  0.5742  0.7954  -1.6891   0.0000   0.0000   0.0000   0.3519
   5.800   1.2977   0.00959   0.00515  -0.1441  0.5718  0.7969  -1.7088   0.0000   0.0000   0.0000   0.3508
   5.900   1.3080   0.00962   0.00517  -0.1440  0.5692  0.7984  -1.7289   0.0000   0.0000   0.0000   0.3497
   6.000   1.3180   0.00964   0.00519  -0.1438  0.5663  0.7999  -1.7488   0.0000   0.0000   0.0000   0.3486
   6.100   1.3276   0.00968   0.00522  -0.1436  0.5628  0.8013  -1.7683   0.0000   0.0000   0.0000   0.3475
   6.200   1.3371   0.00974   0.00526  -0.1434  0.5586  0.8026  -1.7878   0.0000   0.0000   0.0000   0.3464
   6.300   1.3472   0.00982   0.00532  -0.1433  0.5537  0.8039  -1.8079   0.0000   0.0000   0.0000   0.3454
   6.400   1.3576   0.00985   0.00537  -0.1433  0.5518  0.8051  -1.8285   0.0000   0.0000   0.0000   0.3444
   6.500   1.3678   0.00986   0.00541  -0.1432  0.5504  0.8064  -1.8523   0.0000   0.0000   0.0000   0.3434
   6.600   1.3782   0.00988   0.00546  -0.1432  0.5485  0.8076  -1.8763   0.0000   0.0000   0.0000   0.3424
   6.700   1.3885   0.00991   0.00551  -0.1431  0.5462  0.8087  -1.9003   0.0000   0.0000   0.0000   0.3415
   6.800   1.3987   0.00994   0.00556  -0.1431  0.5436  0.8099  -1.9243   0.0000   0.0000   0.0000   0.3405
   6.900   1.4087   0.00998   0.00563  -0.1429  0.5401  0.8110  -1.9481   0.0000   0.0000   0.0000   0.3396
   7.000   1.4183   0.01002   0.00568  -0.1427  0.5358  0.8121  -1.9716   0.0000   0.0000   0.0000   0.3386
   7.100   1.4272   0.01007   0.00571  -0.1424  0.5305  0.8131  -1.9944   0.0000   0.0000   0.0000   0.3376
   7.200   1.4352   0.01015   0.00576  -0.1419  0.5242  0.8142  -2.0160   0.0000   0.0000   0.0000   0.3365
   7.300   1.4416   0.01027   0.00582  -0.1411  0.5169  0.8152  -2.0396   0.0000   0.0000   0.0000   0.3353
   7.400   1.4475   0.01040   0.00592  -0.1403  0.5088  0.8161  -2.0626   0.0000   0.0000   0.0000   0.3342
   7.500   1.4567   0.01047   0.00600  -0.1400  0.5053  0.8169  -2.0901   0.0000   0.0000   0.0000   0.3332
   7.600   1.4661   0.01054   0.00609  -0.1398  0.5019  0.8176  -2.1180   0.0000   0.0000   0.0000   0.3323
   7.700   1.4749   0.01062   0.00617  -0.1395  0.4974  0.8182  -2.1452   0.0000   0.0000   0.0000   0.3314
   7.800   1.4827   0.01072   0.00627  -0.1390  0.4913  0.8188  -2.1711   0.0000   0.0000   0.0000   0.3304
   7.900   1.4885   0.01086   0.00638  -0.1381  0.4836  0.8194  -2.1945   0.0000   0.0000   0.0000   0.3293
   8.000   1.4909   0.01103   0.00649  -0.1366  0.4748  0.8217  -2.2129   0.0000   0.0000   0.0000   0.3279
   8.100   1.4908   0.01125   0.00666  -0.1346  0.4648  0.8250  -2.2277   0.0000   0.0000   0.0000   0.3265
   8.200   1.4963   0.01139   0.00679  -0.1338  0.4584  0.8278  -2.2516   0.0000   0.0000   0.0000   0.3254
   8.300   1.5017   0.01153   0.00693  -0.1329  0.4516  0.8305  -2.2792   0.0000   0.0000   0.0000   0.3243
   8.400   1.5051   0.01174   0.00712  -0.1316  0.4433  0.8332  -2.3035   0.0000   0.0000   0.0000   0.3231
   8.500   1.5061   0.01202   0.00735  -0.1299  0.4344  0.8358  -2.3238   0.0000   0.0000   0.0000   0.3218
   8.600   1.5046   0.01237   0.00765  -0.1279  0.4250  0.8385  -2.3400   0.0000   0.0000   0.0000   0.3203
   8.700   1.5054   0.01267   0.00794  -0.1263  0.4162  0.8410  -2.3599   0.0000   0.0000   0.0000   0.3190
   8.800   1.5115   0.01283   0.00811  -0.1256  0.4120  0.8431  -2.3889   0.0000   0.0000   0.0000   0.3180
   8.900   1.5160   0.01305   0.00833  -0.1246  0.4065  0.8454  -2.4153   0.0000   0.0000   0.0000   0.3170
   9.000   1.5188   0.01333   0.00860  -0.1234  0.4001  0.8477  -2.4388   0.0000   0.0000   0.0000   0.3159
   9.100   1.5199   0.01368   0.00893  -0.1220  0.3930  0.8501  -2.4595   0.0000   0.0000   0.0000   0.3147
   9.200   1.5183   0.01415   0.00936  -0.1202  0.3852  0.8527  -2.4754   0.0000   0.0000   0.0000   0.3134
   9.300   1.5160   0.01467   0.00984  -0.1183  0.3762  0.8552  -2.4899   0.0000   0.0000   0.0000   0.3121
   9.400   1.5187   0.01502   0.01019  -0.1173  0.3698  0.8573  -2.5176   0.0000   0.0000   0.0000   0.3111
   9.500   1.5223   0.01535   0.01052  -0.1164  0.3648  0.8593  -2.5488   0.0000   0.0000   0.0000   0.3102
   9.600   1.5242   0.01576   0.01092  -0.1153  0.3582  0.8611  -2.5764   0.0000   0.0000   0.0000   0.3092
   9.700   1.5244   0.01629   0.01142  -0.1140  0.3506  0.8628  -2.6001   0.0000   0.0000   0.0000   0.3081
   9.900   1.5180   0.01769   0.01276  -0.1107  0.3343  0.8720  -2.6329   0.0000   0.0000   0.0000   0.3059
  10.000   1.5184   0.01822   0.01329  -0.1095  0.3268  0.8769  -2.6571   0.0000   0.0000   0.0000   0.3049
  10.100   1.5221   0.01858   0.01367  -0.1088  0.3229  0.8811  -2.6888   0.0000   0.0000   0.0000   0.3040
  10.200   1.5240   0.01906   0.01417  -0.1078  0.3185  0.8855  -2.7164   0.0000   0.0000   0.0000   0.3031
  10.300   1.5252   0.01959   0.01471  -0.1068  0.3132  0.8901  -2.7427   0.0000   0.0000   0.0000   0.3022
  10.400   1.5255   0.02019   0.01529  -0.1057  0.3074  0.8949  -2.7669   0.0000   0.0000   0.0000   0.3013
  10.500   1.5245   0.02088   0.01596  -0.1046  0.3012  0.8999  -2.7882   0.0000   0.0000   0.0000   0.3003
  10.700   1.5180   0.02249   0.01757  -0.1017  0.2876  0.9195  -2.8202   0.0000   0.0000   0.0000   0.2983
  10.800   1.5197   0.02293   0.01805  -0.1007  0.2834  0.9337  -2.8478   0.0000   0.0000   0.0000   0.2974
  10.900   1.5232   0.02331   0.01847  -0.1001  0.2796  0.9907  -2.8794   0.0000   0.0000   0.0000   0.2967
  11.100   1.5274   0.02460   0.01971  -0.0989  0.2679  1.0000  -2.9364   0.0000   0.0000   0.0000   0.2953
  11.200   1.5255   0.02554   0.02063  -0.0980  0.2615  1.0000  -2.9553   0.0000   0.0000   0.0000   0.2945
  11.300   1.5216   0.02665   0.02170  -0.0969  0.2548  1.0000  -2.9694   0.0000   0.0000   0.0000   0.2938
  11.400   1.5200   0.02756   0.02257  -0.0960  0.2466  1.0000  -2.9908   0.0000   0.0000   0.0000   0.2931
  11.500   1.5234   0.02812   0.02313  -0.0955  0.2421  1.0000  -3.0313   0.0000   0.0000   0.0000   0.2924
  11.600   1.5272   0.02864   0.02365  -0.0951  0.2385  1.0000  -3.0735   0.0000   0.0000   0.0000   0.2918
  11.700   1.5302   0.02923   0.02423  -0.0946  0.2342  1.0000  -3.1133   0.0000   0.0000   0.0000   0.2911
  11.800   1.5320   0.02992   0.02491  -0.0940  0.2294  1.0000  -3.1497   0.0000   0.0000   0.0000   0.2904
  11.900   1.5323   0.03073   0.02569  -0.0933  0.2243  1.0000  -3.1818   0.0000   0.0000   0.0000   0.2898
  12.000   1.5298   0.03182   0.02677  -0.0925  0.2194  1.0000  -3.2053   0.0000   0.0000   0.0000   0.2891
  12.100   1.5270   0.03296   0.02789  -0.0917  0.2138  1.0000  -3.2275   0.0000   0.0000   0.0000   0.2884
  12.200   1.5271   0.03385   0.02883  -0.0911  0.2072  1.0000  -3.2588   0.0000   0.0000   0.0000   0.2878
  12.300   1.5309   0.03444   0.02943  -0.0907  0.2039  1.0000  -3.3020   0.0000   0.0000   0.0000   0.2872
  12.400   1.5353   0.03497   0.02998  -0.0904  0.2013  1.0000  -3.3469   0.0000   0.0000   0.0000   0.2866
  12.500   1.5388   0.03558   0.03058  -0.0900  0.1977  1.0000  -3.3893   0.0000   0.0000   0.0000   0.2860
  12.600   1.5411   0.03628   0.03127  -0.0895  0.1933  1.0000  -3.4284   0.0000   0.0000   0.0000   0.2854
  12.700   1.5421   0.03710   0.03206  -0.0890  0.1882  1.0000  -3.4634   0.0000   0.0000   0.0000   0.2848
  12.800   1.5419   0.03804   0.03297  -0.0884  0.1828  1.0000  -3.4944   0.0000   0.0000   0.0000   0.2842
  12.900   1.5412   0.03904   0.03392  -0.0878  0.1763  1.0000  -3.5239   0.0000   0.0000   0.0000   0.2837
  13.000   1.5412   0.03998   0.03485  -0.0872  0.1695  1.0000  -3.5555   0.0000   0.0000   0.0000   0.2831
  13.100   1.5431   0.04079   0.03568  -0.0869  0.1672  1.0000  -3.5936   0.0000   0.0000   0.0000   0.2825
  13.200   1.5430   0.04183   0.03674  -0.0864  0.1647  1.0000  -3.6251   0.0000   0.0000   0.0000   0.2821
  13.300   1.5443   0.04270   0.03761  -0.0861  0.1612  1.0000  -3.6616   0.0000   0.0000   0.0000   0.2815
  13.400   1.5457   0.04355   0.03844  -0.0857  0.1571  1.0000  -3.6984   0.0000   0.0000   0.0000   0.2810
  13.500   1.5467   0.04443   0.03929  -0.0852  0.1527  1.0000  -3.7414   0.0000   0.0000   0.0000   0.2805
  13.600   1.5473   0.04531   0.04015  -0.0848  0.1483  1.0000  -3.7836   0.0000   0.0000   0.0000   0.2799
  13.700   1.5483   0.04617   0.04098  -0.0843  0.1432  1.0000  -3.8273   0.0000   0.0000   0.0000   0.2794
  13.800   1.5499   0.04699   0.04179  -0.0840  0.1378  1.0000  -3.8817   0.0000   0.0000   0.0000   0.2789
  13.900   1.5536   0.04763   0.04245  -0.0837  0.1350  1.0000  -3.9529   0.0000   0.0000   0.0000   0.2784
  14.000   1.5579   0.04822   0.04305  -0.0835  0.1332  1.0000  -4.0284   0.0000   0.0000   0.0000   0.2779
  14.100   1.5617   0.04888   0.04371  -0.0833  0.1309  1.0000  -4.1014   0.0000   0.0000   0.0000   0.2774
  14.200   1.5647   0.04962   0.04445  -0.0830  0.1280  1.0000  -4.1708   0.0000   0.0000   0.0000   0.2769
  14.300   1.5668   0.05045   0.04527  -0.0827  0.1247  1.0000  -4.2360   0.0000   0.0000   0.0000   0.2764
  14.400   1.5680   0.05139   0.04619  -0.0824  0.1212  1.0000  -4.2966   0.0000   0.0000   0.0000   0.2759
  14.500   1.5681   0.05245   0.04723  -0.0821  0.1176  1.0000  -4.3517   0.0000   0.0000   0.0000   0.2755
  14.600   1.5668   0.05368   0.04845  -0.0817  0.1137  1.0000  -4.3999   0.0000   0.0000   0.0000   0.2751
  14.700   1.5630   0.05526   0.05006  -0.0814  0.1102  1.0000  -4.4337   0.0000   0.0000   0.0000   0.2747
  14.800   1.5629   0.05640   0.05120  -0.0811  0.1060  1.0000  -4.4879   0.0000   0.0000   0.0000   0.2743
  14.900   1.5664   0.05714   0.05197  -0.0809  0.1046  1.0000  -4.5619   0.0000   0.0000   0.0000   0.2739
  15.000   1.5699   0.05787   0.05271  -0.0808  0.1031  1.0000  -4.6371   0.0000   0.0000   0.0000   0.2734
  15.100   1.5733   0.05864   0.05349  -0.0806  0.1011  1.0000  -4.7117   0.0000   0.0000   0.0000   0.2730
  15.200   1.5761   0.05945   0.05430  -0.0805  0.0987  1.0000  -4.7839   0.0000   0.0000   0.0000   0.2726
  15.300   1.5784   0.06033   0.05517  -0.0803  0.0960  1.0000  -4.8532   0.0000   0.0000   0.0000   0.2722
  15.400   1.5800   0.06127   0.05609  -0.0801  0.0931  1.0000  -4.9196   0.0000   0.0000   0.0000   0.2718
  15.500   1.5812   0.06227   0.05706  -0.0799  0.0899  1.0000  -4.9833   0.0000   0.0000   0.0000   0.2714
  15.600   1.5820   0.06331   0.05809  -0.0797  0.0863  1.0000  -5.0452   0.0000   0.0000   0.0000   0.2710
  15.700   1.5831   0.06433   0.05911  -0.0795  0.0821  1.0000  -5.1086   0.0000   0.0000   0.0000   0.2706
  15.800   1.5846   0.06533   0.06011  -0.0794  0.0787  1.0000  -5.1740   0.0000   0.0000   0.0000   0.2702
  15.900   1.5884   0.06606   0.06087  -0.0793  0.0778  1.0000  -5.2544   0.0000   0.0000   0.0000   0.2698
  16.000   1.5913   0.06689   0.06172  -0.0792  0.0766  1.0000  -5.3302   0.0000   0.0000   0.0000   0.2695
  16.100   1.5932   0.06783   0.06268  -0.0792  0.0749  1.0000  -5.4006   0.0000   0.0000   0.0000   0.2691
  16.200   1.5939   0.06894   0.06379  -0.0791  0.0729  1.0000  -5.4634   0.0000   0.0000   0.0000   0.2688
  16.300   1.5893   0.07075   0.06562  -0.0790  0.0714  1.0000  -5.4948   0.0000   0.0000   0.0000   0.2686
  16.400   1.5878   0.07215   0.06703  -0.0789  0.0693  1.0000  -5.5446   0.0000   0.0000   0.0000   0.2684
  16.500   1.5874   0.07341   0.06826  -0.0789  0.0669  1.0000  -5.6035   0.0000   0.0000   0.0000   0.2681
  16.600   1.5875   0.07460   0.06943  -0.0788  0.0641  1.0000  -5.6652   0.0000   0.0000   0.0000   0.2678
  16.700   1.5878   0.07576   0.07058  -0.0788  0.0609  1.0000  -5.7280   0.0000   0.0000   0.0000   0.2675
  16.800   1.5884   0.07686   0.07170  -0.0787  0.0577  1.0000  -5.7927   0.0000   0.0000   0.0000   0.2672
  16.900   1.5898   0.07787   0.07273  -0.0787  0.0555  1.0000  -5.8626   0.0000   0.0000   0.0000   0.2669
  17.000   1.5934   0.07862   0.07351  -0.0787  0.0550  1.0000  -5.9481   0.0000   0.0000   0.0000   0.2666
  17.100   1.5964   0.07943   0.07435  -0.0787  0.0543  1.0000  -6.0305   0.0000   0.0000   0.0000   0.2662
  17.200   1.5988   0.08031   0.07526  -0.0787  0.0534  1.0000  -6.1097   0.0000   0.0000   0.0000   0.2659
  17.300   1.6006   0.08130   0.07626  -0.0787  0.0523  1.0000  -6.1844   0.0000   0.0000   0.0000   0.2656
  17.400   1.6016   0.08238   0.07735  -0.0787  0.0510  1.0000  -6.2545   0.0000   0.0000   0.0000   0.2654
  17.500   1.6018   0.08359   0.07862  -0.0788  0.0496  1.0000  -6.3189   0.0000   0.0000   0.0000   0.2652
  17.600   1.6009   0.08496   0.08000  -0.0789  0.0482  1.0000  -6.3758   0.0000   0.0000   0.0000   0.2650
  17.700   1.5948   0.08712   0.08219  -0.0791  0.0473  1.0000  -6.3972   0.0000   0.0000   0.0000   0.2651
  17.800   1.5925   0.08873   0.08381  -0.0793  0.0459  1.0000  -6.4440   0.0000   0.0000   0.0000   0.2650
  17.900   1.5916   0.09015   0.08522  -0.0794  0.0441  1.0000  -6.5009   0.0000   0.0000   0.0000   0.2648
  18.000   1.5913   0.09149   0.08656  -0.0796  0.0420  1.0000  -6.5609   0.0000   0.0000   0.0000   0.2647
  18.100   1.5905   0.09289   0.08797  -0.0797  0.0396  1.0000  -6.6172   0.0000   0.0000   0.0000   0.2645
  18.200   1.5889   0.09442   0.08953  -0.0799  0.0373  1.0000  -6.6660   0.0000   0.0000   0.0000   0.2644
  18.300   1.5896   0.09564   0.09077  -0.0800  0.0363  1.0000  -6.7332   0.0000   0.0000   0.0000   0.2642
  18.400   1.5927   0.09652   0.09169  -0.0802  0.0360  1.0000  -6.8199   0.0000   0.0000   0.0000   0.2640
  18.500   1.5953   0.09746   0.09266  -0.0804  0.0357  1.0000  -6.9042   0.0000   0.0000   0.0000   0.2637
  18.600   1.5975   0.09847   0.09370  -0.0805  0.0353  1.0000  -6.9851   0.0000   0.0000   0.0000   0.2635
  18.700   1.5991   0.09957   0.09484  -0.0808  0.0348  1.0000  -7.0615   0.0000   0.0000   0.0000   0.2634
  18.800   1.5998   0.10080   0.09609  -0.0810  0.0341  1.0000  -7.1316   0.0000   0.0000   0.0000   0.2632
  18.900   1.5968   0.10262   0.09796  -0.0814  0.0336  1.0000  -7.1733   0.0000   0.0000   0.0000   0.2633
  19.000   1.5931   0.10454   0.09991  -0.0819  0.0331  1.0000  -7.2101   0.0000   0.0000   0.0000   0.2635
  19.100   1.5922   0.10601   0.10141  -0.0823  0.0323  1.0000  -7.2677   0.0000   0.0000   0.0000   0.2634
  19.200   1.5920   0.10738   0.10279  -0.0826  0.0314  1.0000  -7.3304   0.0000   0.0000   0.0000   0.2634
  19.300   1.5917   0.10876   0.10417  -0.0829  0.0305  1.0000  -7.3925   0.0000   0.0000   0.0000   0.2633
  19.400   1.5912   0.11016   0.10558  -0.0833  0.0296  1.0000  -7.4526   0.0000   0.0000   0.0000   0.2633
  19.500   1.5903   0.11161   0.10703  -0.0837  0.0286  1.0000  -7.5098   0.0000   0.0000   0.0000   0.2633
  19.600   1.5891   0.11312   0.10853  -0.0841  0.0275  1.0000  -7.5639   0.0000   0.0000   0.0000   0.2633
  19.700   1.5874   0.11470   0.11013  -0.0846  0.0263  1.0000  -7.6132   0.0000   0.0000   0.0000   0.2634
  19.800   1.5847   0.11644   0.11189  -0.0851  0.0250  1.0000  -7.6535   0.0000   0.0000   0.0000   0.2636
  19.900   1.5780   0.11890   0.11440  -0.0859  0.0241  1.0000  -7.6592   0.0000   0.0000   0.0000   0.2640
  20.000   1.5715   0.12128   0.11683  -0.0867  0.0232  1.0000  -7.6655   0.0000   0.0000   0.0000   0.2645
  20.100   1.5662   0.12344   0.11904  -0.0874  0.0219  1.0000  -7.6779   0.0000   0.0000   0.0000   0.2649
  20.200   1.5630   0.12526   0.12092  -0.0881  0.0210  1.0000  -7.7087   0.0000   0.0000   0.0000   0.2651
  20.300   1.5655   0.12622   0.12190  -0.0884  0.0209  1.0000  -7.7943   0.0000   0.0000   0.0000   0.2650
  20.400   1.5678   0.12720   0.12291  -0.0889  0.0208  1.0000  -7.8787   0.0000   0.0000   0.0000   0.2649
  20.500   1.5699   0.12821   0.12394  -0.0893  0.0207  1.0000  -7.9614   0.0000   0.0000   0.0000   0.2648
  20.600   1.5717   0.12926   0.12503  -0.0897  0.0205  1.0000  -8.0414   0.0000   0.0000   0.0000   0.2647
  20.700   1.5731   0.13038   0.12618  -0.0902  0.0203  1.0000  -8.1177   0.0000   0.0000   0.0000   0.2647
  20.800   1.5739   0.13159   0.12742  -0.0907  0.0201  1.0000  -8.1890   0.0000   0.0000   0.0000   0.2647
  20.900   1.5739   0.13292   0.12878  -0.0913  0.0199  1.0000  -8.2533   0.0000   0.0000   0.0000   0.2648
  21.000   1.5681   0.13528   0.13121  -0.0924  0.0197  1.0000  -8.2632   0.0000   0.0000   0.0000   0.2655
  21.100   1.5662   0.13693   0.13289  -0.0932  0.0194  1.0000  -8.3096   0.0000   0.0000   0.0000   0.2657
  21.200   1.5658   0.13833   0.13433  -0.0939  0.0191  1.0000  -8.3683   0.0000   0.0000   0.0000   0.2659
  21.300   1.5657   0.13965   0.13567  -0.0945  0.0187  1.0000  -8.4305   0.0000   0.0000   0.0000   0.2660
  21.400   1.5658   0.14090   0.13695  -0.0952  0.0183  1.0000  -8.4932   0.0000   0.0000   0.0000   0.2661
  21.500   1.5657   0.14213   0.13821  -0.0958  0.0179  1.0000  -8.5540   0.0000   0.0000   0.0000   0.2663
  21.600   1.5653   0.14338   0.13948  -0.0965  0.0175  1.0000  -8.6122   0.0000   0.0000   0.0000   0.2664
  21.700   1.5645   0.14469   0.14081  -0.0973  0.0171  1.0000  -8.6662   0.0000   0.0000   0.0000   0.2666
  21.800   1.5632   0.14610   0.14223  -0.0981  0.0167  1.0000  -8.7144   0.0000   0.0000   0.0000   0.2669
  21.900   1.5611   0.14765   0.14381  -0.0990  0.0164  1.0000  -8.7551   0.0000   0.0000   0.0000   0.2673
  22.000   1.5539   0.15015   0.14636  -0.1004  0.0162  1.0000  -8.7434   0.0000   0.0000   0.0000   0.2682
  22.100   1.5503   0.15203   0.14828  -0.1015  0.0159  1.0000  -8.7675   0.0000   0.0000   0.0000   0.2688
  22.200   1.5483   0.15365   0.14992  -0.1025  0.0156  1.0000  -8.8070   0.0000   0.0000   0.0000   0.2692
  22.300   1.5469   0.15520   0.15148  -0.1034  0.0152  1.0000  -8.8522   0.0000   0.0000   0.0000   0.2695
  22.400   1.5455   0.15676   0.15305  -0.1043  0.0148  1.0000  -8.8969   0.0000   0.0000   0.0000   0.2699
  22.500   1.5439   0.15836   0.15468  -0.1052  0.0144  1.0000  -8.9391   0.0000   0.0000   0.0000   0.2703
  22.600   1.5420   0.16006   0.15640  -0.1062  0.0141  1.0000  -8.9768   0.0000   0.0000   0.0000   0.2707
  22.700   1.5394   0.16188   0.15826  -0.1073  0.0137  1.0000  -9.0077   0.0000   0.0000   0.0000   0.2712
  22.800   1.5357   0.16397   0.16038  -0.1085  0.0134  1.0000  -9.0250   0.0000   0.0000   0.0000   0.2719
  22.900   1.5274   0.16703   0.16351  -0.1103  0.0133  1.0000  -8.9919   0.0000   0.0000   0.0000   0.2731
  23.000   1.5239   0.16914   0.16566  -0.1115  0.0129  1.0000  -9.0090   0.0000   0.0000   0.0000   0.2738
  23.100   1.5215   0.17105   0.16760  -0.1126  0.0126  1.0000  -9.0372   0.0000   0.0000   0.0000   0.2744
  23.200   1.5192   0.17294   0.16953  -0.1137  0.0122  1.0000  -9.0654   0.0000   0.0000   0.0000   0.2749
  23.300   1.5168   0.17488   0.17151  -0.1148  0.0118  1.0000  -9.0907   0.0000   0.0000   0.0000   0.2754
  23.400   1.5139   0.17692   0.17360  -0.1160  0.0114  1.0000  -9.1100   0.0000   0.0000   0.0000   0.2760
  23.500   1.5104   0.17911   0.17584  -0.1172  0.0111  1.0000  -9.1210   0.0000   0.0000   0.0000   0.2767
  23.600   1.5061   0.18150   0.17829  -0.1186  0.0107  1.0000  -9.1203   0.0000   0.0000   0.0000   0.2776
  23.700   1.4981   0.18480   0.18166  -0.1205  0.0106  1.0000  -9.0777   0.0000   0.0000   0.0000   0.2790
  23.800   1.4915   0.18779   0.18472  -0.1222  0.0103  1.0000  -9.0477   0.0000   0.0000   0.0000   0.2802
  23.900   1.4859   0.19054   0.18755  -0.1237  0.0099  1.0000  -9.0229   0.0000   0.0000   0.0000   0.2812
  24.000   1.4855   0.19221   0.18924  -0.1246  0.0098  1.0000  -9.0724   0.0000   0.0000   0.0000   0.2816
  24.100   1.4862   0.19367   0.19072  -0.1255  0.0098  1.0000  -9.1371   0.0000   0.0000   0.0000   0.2818
  24.200   1.4869   0.19513   0.19220  -0.1264  0.0098  1.0000  -9.2018   0.0000   0.0000   0.0000   0.2821
  24.300   1.4876   0.19661   0.19371  -0.1273  0.0097  1.0000  -9.2654   0.0000   0.0000   0.0000   0.2823
  24.400   1.4880   0.19815   0.19527  -0.1282  0.0097  1.0000  -9.3268   0.0000   0.0000   0.0000   0.2826
  24.500   1.4881   0.19976   0.19690  -0.1292  0.0097  1.0000  -9.3846   0.0000   0.0000   0.0000   0.2829
  24.600   1.4878   0.20147   0.19865  -0.1302  0.0096  1.0000  -9.4368   0.0000   0.0000   0.0000   0.2833
  24.700   1.4869   0.20335   0.20055  -0.1314  0.0096  1.0000  -9.4809   0.0000   0.0000   0.0000   0.2838
  24.800   1.4830   0.20600   0.20325  -0.1329  0.0096  1.0000  -9.4846   0.0000   0.0000   0.0000   0.2848
  24.900   1.4767   0.20933   0.20664  -0.1348  0.0095  1.0000  -9.4545   0.0000   0.0000   0.0000   0.2862
  25.000   1.4757   0.21133   0.20866  -0.1359  0.0095  1.0000  -9.4943   0.0000   0.0000   0.0000   0.2867
  25.100   1.4753   0.21314   0.21050  -0.1370  0.0094  1.0000  -9.5433   0.0000   0.0000   0.0000   0.2871
  25.200   1.4751   0.21490   0.21228  -0.1380  0.0094  1.0000  -9.5951   0.0000   0.0000   0.0000   0.2875
  25.300   1.4750   0.21666   0.21407  -0.1390  0.0093  1.0000  -9.6471   0.0000   0.0000   0.0000   0.2879
  25.400   1.4747   0.21845   0.21588  -0.1401  0.0092  1.0000  -9.6973   0.0000   0.0000   0.0000   0.2883
  25.500   1.4743   0.22031   0.21782  -0.1411  0.0091  1.0000  -9.7444   0.0000   0.0000   0.0000   0.2887
  25.600   1.4734   0.22227   0.21980  -0.1423  0.0090  1.0000  -9.7862   0.0000   0.0000   0.0000   0.2892
  25.700   1.4721   0.22438   0.22194  -0.1434  0.0089  1.0000  -9.8203   0.0000   0.0000   0.0000   0.2898
  25.800   1.4700   0.22672   0.22432  -0.1448  0.0088  1.0000  -9.8428   0.0000   0.0000   0.0000   0.2905
  25.900   1.4662   0.22954   0.22718  -0.1463  0.0087  1.0000  -9.8406   0.0000   0.0000   0.0000   0.2915
  26.000   1.4565   0.23419   0.23191  -0.1487  0.0087  1.0000  -9.7485   0.0000   0.0000   0.0000   0.2936
  26.100   1.4542   0.23669   0.23443  -0.1500  0.0086  1.0000  -9.7649   0.0000   0.0000   0.0000   0.2943
  26.200   1.4527   0.23896   0.23673  -0.1512  0.0085  1.0000  -9.7921   0.0000   0.0000   0.0000   0.2950
  26.300   1.4513   0.24118   0.23898  -0.1524  0.0083  1.0000  -9.8221   0.0000   0.0000   0.0000   0.2956
  26.400   1.4500   0.24341   0.24124  -0.1536  0.0082  1.0000  -9.8517   0.0000   0.0000   0.0000   0.2962
  26.500   1.4485   0.24569   0.24355  -0.1549  0.0081  1.0000  -9.8787   0.0000   0.0000   0.0000   0.2968
  26.600   1.4467   0.24808   0.24596  -0.1561  0.0079  1.0000  -9.9006   0.0000   0.0000   0.0000   0.2975
  26.700   1.4445   0.25064   0.24855  -0.1574  0.0078  1.0000  -9.9142   0.0000   0.0000   0.0000   0.2982
  26.800   1.4413   0.25349   0.25144  -0.1589  0.0077  1.0000  -9.9135   0.0000   0.0000   0.0000   0.2992
  26.900   1.4371   0.25672   0.25472  -0.1605  0.0076  1.0000  -9.8949   0.0000   0.0000   0.0000   0.3003
  27.000   1.4237   0.26312   0.26119  -0.1634  0.0076  1.0000  -9.7240   0.0000   0.0000   0.0000   0.3033
  27.100   1.4204   0.26613   0.26423  -0.1649  0.0075  1.0000  -9.7178   0.0000   0.0000   0.0000   0.3043
  27.200   1.4180   0.26887   0.26701  -0.1662  0.0073  1.0000  -9.7247   0.0000   0.0000   0.0000   0.3051
  27.300   1.4159   0.27154   0.26971  -0.1675  0.0072  1.0000  -9.7352   0.0000   0.0000   0.0000   0.3059
  27.400   1.4137   0.27423   0.27242  -0.1688  0.0071  1.0000  -9.7452   0.0000   0.0000   0.0000   0.3067
  27.500   1.4113   0.27702   0.27523  -0.1701  0.0069  1.0000  -9.7504   0.0000   0.0000   0.0000   0.3075
  27.600   1.4083   0.28000   0.27825  -0.1715  0.0068  1.0000  -9.7464   0.0000   0.0000   0.0000   0.3084
  27.700   1.4048   0.28323   0.28151  -0.1729  0.0067  1.0000  -9.7312   0.0000   0.0000   0.0000   0.3095
  27.800   1.3993   0.28721   0.28553  -0.1746  0.0066  1.0000  -9.6803   0.0000   0.0000   0.0000   0.3109
  27.900   1.3792   0.29679   0.29522  -0.1783  0.0066  1.0000  -9.3663   0.0000   0.0000   0.0000   0.3154
  28.000   1.3751   0.30039   0.29885  -0.1798  0.0065  1.0000  -9.3357   0.0000   0.0000   0.0000   0.3166
  28.100   1.3715   0.30376   0.30225  -0.1811  0.0064  1.0000  -9.3156   0.0000   0.0000   0.0000   0.3177
  28.200   1.3680   0.30714   0.30564  -0.1825  0.0063  1.0000  -9.2956   0.0000   0.0000   0.0000   0.3188
  28.300   1.3640   0.31069   0.30922  -0.1839  0.0061  1.0000  -9.2671   0.0000   0.0000   0.0000   0.3199
  28.400   1.3595   0.31448   0.31304  -0.1853  0.0060  1.0000  -9.2276   0.0000   0.0000   0.0000   0.3212
  28.500   1.3507   0.31999   0.31860  -0.1872  0.0059  1.0000  -9.1076   0.0000   0.0000   0.0000   0.3233
  28.600   1.3115   0.33791   0.33670  -0.1922  0.0060  1.0000  -8.4098   0.0000   0.0000   0.0000   0.3319
  28.700   1.3017   0.34371   0.34254  -0.1937  0.0059  1.0000  -8.2731   0.0000   0.0000   0.0000   0.3342


