xflr5 v6.61

 Calculated polar for: EPPLER E852 AIRFOIL

 1 1 Reynolds number fixed          Mach number fixed         

 xtrf =   1.000 (top)        1.000 (bottom)
 Mach =   0.000     Re =     0.130 e 6     Ncrit =   9.000

  alpha     CL        CD       CDp       Cm    Top Xtr Bot Xtr   Cpmin    Chinge    XCp    
 ------- -------- --------- --------- -------- ------- ------- -------- --------- ---------
 -10.000  -0.4144   0.11063   0.10624  -0.0403  1.0000  0.0611  -1.9369   0.0000   0.0000   0.0000   0.1444
  -9.900  -0.4156   0.10960   0.10524  -0.0412  1.0000  0.0621  -1.9655   0.0000   0.0000   0.0000   0.1427
  -9.800  -0.4172   0.10875   0.10442  -0.0422  1.0000  0.0630  -1.9983   0.0000   0.0000   0.0000   0.1408
  -9.700  -0.4194   0.10800   0.10370  -0.0434  1.0000  0.0637  -2.0331   0.0000   0.0000   0.0000   0.1388
  -9.600  -0.4201   0.10735   0.10308  -0.0442  1.0000  0.0643  -2.0566   0.0000   0.0000   0.0000   0.1371
  -9.500  -0.4211   0.10647   0.10223  -0.0449  1.0000  0.0646  -2.0783   0.0000   0.0000   0.0000   0.1358
  -9.400  -0.4223   0.10545   0.10123  -0.0456  1.0000  0.0649  -2.0997   0.0000   0.0000   0.0000   0.1348
  -9.300  -0.4237   0.10432   0.10014  -0.0461  1.0000  0.0650  -2.1213   0.0000   0.0000   0.0000   0.1339
  -9.200  -0.4253   0.10314   0.09898  -0.0466  1.0000  0.0651  -2.1433   0.0000   0.0000   0.0000   0.1333
  -9.100  -0.4273   0.10191   0.09778  -0.0471  1.0000  0.0652  -2.1660   0.0000   0.0000   0.0000   0.1328
  -9.000  -0.4295   0.10065   0.09655  -0.0476  1.0000  0.0653  -2.1896   0.0000   0.0000   0.0000   0.1325
  -8.900  -0.4322   0.09937   0.09530  -0.0480  1.0000  0.0653  -2.2142   0.0000   0.0000   0.0000   0.1324
  -8.800  -0.4355   0.09809   0.09405  -0.0484  1.0000  0.0654  -2.2400   0.0000   0.0000   0.0000   0.1324
  -8.700  -0.4393   0.09681   0.09280  -0.0487  1.0000  0.0654  -2.2672   0.0000   0.0000   0.0000   0.1328
  -8.600  -0.4441   0.09556   0.09158  -0.0490  1.0000  0.0655  -2.2958   0.0000   0.0000   0.0000   0.1336
  -8.500  -0.4498   0.09438   0.09045  -0.0491  1.0000  0.0655  -2.3251   0.0000   0.0000   0.0000   0.1349
  -8.400  -0.4565   0.09335   0.08945  -0.0489  1.0000  0.0655  -2.3531   0.0000   0.0000   0.0000   0.1370
  -8.300  -0.4640   0.09243   0.08857  -0.0486  1.0000  0.0655  -2.3798   0.0000   0.0000   0.0000   0.1396
  -8.200  -0.4711   0.09144   0.08761  -0.0485  1.0000  0.0655  -2.4062   0.0000   0.0000   0.0000   0.1417
  -8.100  -0.4774   0.09036   0.08655  -0.0486  1.0000  0.0655  -2.4319   0.0000   0.0000   0.0000   0.1430
  -8.000  -0.4837   0.08937   0.08557  -0.0484  1.0000  0.0655  -2.4555   0.0000   0.0000   0.0000   0.1449
  -7.900  -0.4900   0.08845   0.08466  -0.0479  1.0000  0.0656  -2.4773   0.0000   0.0000   0.0000   0.1474
  -7.800  -0.4962   0.08756   0.08376  -0.0473  1.0000  0.0656  -2.4983   0.0000   0.0000   0.0000   0.1498
  -7.700  -0.5114   0.08358   0.07987  -0.0477  1.0000  0.0663  -2.5933   0.0000   0.0000   0.0000   0.1521
  -7.600  -0.5217   0.08059   0.07692  -0.0476  1.0000  0.0670  -2.6475   0.0000   0.0000   0.0000   0.1543
  -7.500  -0.5287   0.07836   0.07471  -0.0471  1.0000  0.0676  -2.6745   0.0000   0.0000   0.0000   0.1564
  -7.400  -0.5339   0.07657   0.07294  -0.0466  1.0000  0.0682  -2.6864   0.0000   0.0000   0.0000   0.1585
  -7.300  -0.5332   0.07505   0.07147  -0.0452  1.0000  0.0692  -2.6537   0.0000   0.0000   0.0000   0.1610
  -7.200  -0.5303   0.07416   0.07063  -0.0433  1.0000  0.0703  -2.6012   0.0000   0.0000   0.0000   0.1641
  -7.100  -0.5312   0.07331   0.06981  -0.0421  1.0000  0.0710  -2.5778   0.0000   0.0000   0.0000   0.1666
  -7.000  -0.5332   0.07239   0.06891  -0.0413  1.0000  0.0717  -2.5654   0.0000   0.0000   0.0000   0.1686
  -6.900  -0.5356   0.07142   0.06794  -0.0406  1.0000  0.0723  -2.5586   0.0000   0.0000   0.0000   0.1702
  -6.800  -0.5379   0.07038   0.06691  -0.0401  1.0000  0.0730  -2.5549   0.0000   0.0000   0.0000   0.1715
  -6.700  -0.5401   0.06930   0.06582  -0.0398  1.0000  0.0737  -2.5532   0.0000   0.0000   0.0000   0.1726
  -6.600  -0.5420   0.06815   0.06467  -0.0396  1.0000  0.0745  -2.5531   0.0000   0.0000   0.0000   0.1733
  -6.500  -0.5435   0.06695   0.06346  -0.0395  1.0000  0.0754  -2.5535   0.0000   0.0000   0.0000   0.1737
  -6.400  -0.5444   0.06572   0.06221  -0.0395  1.0000  0.0763  -2.5539   0.0000   0.0000   0.0000   0.1739
  -6.300  -0.5449   0.06442   0.06089  -0.0396  1.0000  0.0773  -2.5559   0.0000   0.0000   0.0000   0.1738
  -6.200  -0.5449   0.06307   0.05950  -0.0399  1.0000  0.0785  -2.5594   0.0000   0.0000   0.0000   0.1734
  -6.100  -0.5444   0.06166   0.05805  -0.0403  1.0000  0.0798  -2.5641   0.0000   0.0000   0.0000   0.1726
  -6.000  -0.5371   0.05972   0.05602  -0.0424  0.9988  0.0819  -2.5674   0.0000   0.0000   0.0000   0.1677
  -5.900  -0.5254   0.05754   0.05369  -0.0455  0.9970  0.0848  -2.5742   0.0000   0.0000   0.0000   0.1599
  -5.800  -0.4987   0.06130   0.05698  -0.0487  0.9936  0.0933  -2.5184   0.0000   0.0000   0.0000   0.1490
  -5.700  -0.5022   0.05314   0.04868  -0.0532  0.9922  0.0965  -2.6300   0.0000   0.0000   0.0000   0.1406
  -5.600  -0.4950   0.05014   0.04569  -0.0546  0.9910  0.0988  -2.6125   0.0000   0.0000   0.0000   0.1364
  -5.500  -0.4851   0.04835   0.04393  -0.0553  0.9898  0.1007  -2.5731   0.0000   0.0000   0.0000   0.1326
  -5.300  -0.4441   0.03904   0.03339  -0.0582  0.9883  0.0400  -3.1951   0.0000   0.0000   0.0000   0.1149
  -5.200  -0.4317   0.03639   0.03050  -0.0597  0.9876  0.0384  -3.2311   0.0000   0.0000   0.0000   0.1076
  -5.100  -0.4193   0.03438   0.02826  -0.0607  0.9866  0.0372  -3.2525   0.0000   0.0000   0.0000   0.1011
  -5.000  -0.4071   0.03266   0.02631  -0.0614  0.9855  0.0362  -3.2682   0.0000   0.0000   0.0000   0.0950
  -4.900  -0.3943   0.03110   0.02451  -0.0620  0.9844  0.0355  -3.2787   0.0000   0.0000   0.0000   0.0885
  -4.800  -0.3811   0.02973   0.02292  -0.0626  0.9833  0.0352  -3.2796   0.0000   0.0000   0.0000   0.0815
  -4.700  -0.3679   0.02878   0.02179  -0.0631  0.9821  0.0362  -3.2462   0.0000   0.0000   0.0000   0.0742
  -4.600  -0.3545   0.02813   0.02098  -0.0636  0.9807  0.0382  -3.1932   0.0000   0.0000   0.0000   0.0662
  -4.500  -0.3407   0.02757   0.02028  -0.0641  0.9794  0.0399  -3.1397   0.0000   0.0000   0.0000   0.0574
  -4.400  -0.3267   0.02684   0.01938  -0.0646  0.9783  0.0409  -3.1026   0.0000   0.0000   0.0000   0.0477
  -4.300  -0.3124   0.02593   0.01830  -0.0651  0.9774  0.0414  -3.0789   0.0000   0.0000   0.0000   0.0370
  -4.200  -0.2980   0.02527   0.01750  -0.0656  0.9764  0.0422  -3.0394   0.0000   0.0000   0.0000   0.0251
  -4.100  -0.2844   0.02350   0.01559  -0.0660  0.9761  0.0437  -3.0636   0.0000   0.0000   0.0000   0.0129
  -4.000  -0.2711   0.02200   0.01403  -0.0665  0.9757  0.0469  -3.0651   0.0000   0.0000   0.0000  -0.0002
  -3.900  -0.2570   0.02143   0.01340  -0.0673  0.9748  0.0533  -2.9978   0.0000   0.0000   0.0000  -0.0170
  -3.800  -0.2420   0.02125   0.01319  -0.0682  0.9738  0.0623  -2.9299   0.0000   0.0000   0.0000  -0.0369
  -3.700  -0.2274   0.02037   0.01225  -0.0688  0.9733  0.0692  -2.9294   0.0000   0.0000   0.0000  -0.0579
  -3.600  -0.2130   0.01959   0.01153  -0.0696  0.9726  0.0833  -2.8877   0.0000   0.0000   0.0000  -0.0825
  -3.500  -0.2021   0.01903   0.01098  -0.0698  0.9711  0.1036  -2.8360   0.0000   0.0000   0.0000  -0.1010
  -3.400  -0.1865   0.01726   0.01014  -0.0718  0.9711  0.2644  -2.7888   0.0000   0.0000   0.0000  -0.1409
  -3.300  -0.1773   0.01672   0.01048  -0.0717  0.9697  0.4830  -2.6893   0.0000   0.0000   0.0000  -0.1604
  -3.200  -0.1678   0.01678   0.01063  -0.0712  0.9675  0.5192  -2.5720   0.0000   0.0000   0.0000  -0.1804
  -3.100  -0.1560   0.01694   0.01067  -0.0713  0.9652  0.5436  -2.4399   0.0000   0.0000   0.0000  -0.2134
  -3.000  -0.1456   0.01703   0.01089  -0.0709  0.9630  0.5683  -2.3107   0.0000   0.0000   0.0000  -0.2434
  -2.900  -0.1328   0.01726   0.01104  -0.0711  0.9609  0.5893  -2.1699   0.0000   0.0000   0.0000  -0.2920
  -2.800  -0.1200   0.01734   0.01112  -0.0713  0.9591  0.6050  -2.0308   0.0000   0.0000   0.0000  -0.3512
  -2.700  -0.1073   0.01747   0.01128  -0.0713  0.9574  0.6195  -1.8929   0.0000   0.0000   0.0000  -0.4224
  -2.600  -0.0934   0.01765   0.01140  -0.0717  0.9560  0.6325  -1.7512   0.0000   0.0000   0.0000  -0.5272
  -2.500  -0.0785   0.01783   0.01149  -0.0725  0.9548  0.6432  -1.6085   0.0000   0.0000   0.0000  -0.6836
  -2.400  -0.0640   0.01792   0.01153  -0.0732  0.9538  0.6528  -1.4711   0.0000   0.0000   0.0000  -0.9057
  -2.300  -0.0588   0.01789   0.01153  -0.0720  0.9514  0.6609  -1.3856   0.0000   0.0000   0.0000  -0.9855
  -2.200  -0.0527   0.01794   0.01160  -0.0709  0.9490  0.6698  -1.2951   0.0000   0.0000   0.0000  -1.1094
  -2.100  -0.0449   0.01805   0.01170  -0.0702  0.9468  0.6801  -1.1973   0.0000   0.0000   0.0000  -1.3289
  -2.000  -0.0356   0.01818   0.01179  -0.0698  0.9447  0.6909  -1.0936   0.0000   0.0000   0.0000  -1.7313
  -1.900  -0.0247   0.01835   0.01190  -0.0698  0.9428  0.6997  -0.9837   0.0000   0.0000   0.0000  -2.5973
  -1.800  -0.0153   0.01826   0.01179  -0.0694  0.9410  0.7100  -0.8824   0.0000   0.0000   0.0000  -4.3291
  -1.700  -0.0050   0.01830   0.01184  -0.0692  0.9393  0.7180  -0.7821   0.0000   0.0000   0.0000  -13.6186
  -1.600   0.0066   0.01836   0.01187  -0.0693  0.9378  0.7248  -0.6913   0.0000   0.0000   0.0000  10.7978
  -1.500   0.0193   0.01841   0.01189  -0.0697  0.9364  0.7311  -0.6393   0.0000   0.0000   0.0000   3.8922
  -1.400   0.0326   0.01847   0.01190  -0.0703  0.9351  0.7373  -0.5911   0.0000   0.0000   0.0000   2.4174
  -1.300   0.0467   0.01854   0.01191  -0.0711  0.9339  0.7431  -0.5422   0.0000   0.0000   0.0000   1.7801
  -1.200   0.0614   0.01862   0.01194  -0.0720  0.9328  0.7481  -0.4972   0.0000   0.0000   0.0000   1.4279
  -1.100   0.0758   0.01862   0.01192  -0.0728  0.9318  0.7537  -0.4542   0.0000   0.0000   0.0000   1.2153
  -1.000   0.0897   0.01863   0.01192  -0.0734  0.9308  0.7594  -0.4124   0.0000   0.0000   0.0000   1.0723
  -0.900   0.1038   0.01869   0.01198  -0.0741  0.9299  0.7646  -0.3832   0.0000   0.0000   0.0000   0.9669
  -0.800   0.1077   0.01872   0.01201  -0.0729  0.9274  0.7697  -0.3667   0.0000   0.0000   0.0000   0.9298
  -0.700   0.1123   0.01875   0.01203  -0.0719  0.9245  0.7750  -0.3494   0.0000   0.0000   0.0000   0.8921
  -0.600   0.1203   0.01877   0.01204  -0.0715  0.9216  0.7806  -0.3498   0.0000   0.0000   0.0000   0.8460
  -0.500   0.1304   0.01880   0.01202  -0.0715  0.9189  0.7865  -0.3539   0.0000   0.0000   0.0000   0.7996
  -0.400   0.1420   0.01884   0.01204  -0.0718  0.9165  0.7924  -0.3587   0.0000   0.0000   0.0000   0.7565
  -0.300   0.1543   0.01887   0.01205  -0.0722  0.9144  0.7984  -0.3638   0.0000   0.0000   0.0000   0.7187
  -0.200   0.1648   0.01884   0.01205  -0.0721  0.9125  0.8058  -0.3683   0.0000   0.0000   0.0000   0.6881
  -0.100   0.1755   0.01886   0.01209  -0.0721  0.9109  0.8134  -0.3728   0.0000   0.0000   0.0000   0.6609
   0.000   0.1872   0.01889   0.01213  -0.0723  0.9093  0.8214  -0.3778   0.0000   0.0000   0.0000   0.6361
   0.100   0.1998   0.01894   0.01218  -0.0727  0.9079  0.8298  -0.3839   0.0000   0.0000   0.0000   0.6135
   0.200   0.2136   0.01900   0.01223  -0.0734  0.9067  0.8380  -0.3905   0.0000   0.0000   0.0000   0.5931
   0.300   0.2271   0.01902   0.01226  -0.0739  0.9055  0.8461  -0.3970   0.0000   0.0000   0.0000   0.5750
   0.400   0.2399   0.01904   0.01230  -0.0742  0.9044  0.8551  -0.4033   0.0000   0.0000   0.0000   0.5588
   0.500   0.2534   0.01908   0.01236  -0.0747  0.9032  0.8653  -0.4100   0.0000   0.0000   0.0000   0.5441
   0.600   0.2682   0.01914   0.01244  -0.0755  0.9020  0.8762  -0.4173   0.0000   0.0000   0.0000   0.5305
   0.700   0.2787   0.01920   0.01253  -0.0754  0.9002  0.8882  -0.4231   0.0000   0.0000   0.0000   0.5196
   0.800   0.2740   0.01920   0.01258  -0.0726  0.8953  0.9069  -0.4210   0.0000   0.0000   0.0000   0.5140
   0.900   0.2823   0.01918   0.01261  -0.0723  0.8920  0.9303  -0.4254   0.0000   0.0000   0.0000   0.5049
   1.100   0.3136   0.01923   0.01269  -0.0751  0.8869  1.0000  -0.4413   0.0000   0.0000   0.0000   0.4882
   1.200   0.3282   0.01935   0.01278  -0.0764  0.8850  1.0000  -0.4496   0.0000   0.0000   0.0000   0.4812
   1.300   0.3428   0.01947   0.01287  -0.0775  0.8831  1.0000  -0.4579   0.0000   0.0000   0.0000   0.4746
   1.400   0.3577   0.01958   0.01296  -0.0787  0.8813  1.0000  -0.4671   0.0000   0.0000   0.0000   0.4683
   1.500   0.3733   0.01966   0.01303  -0.0798  0.8795  1.0000  -0.4773   0.0000   0.0000   0.0000   0.4621
   1.600   0.3897   0.01973   0.01309  -0.0811  0.8777  1.0000  -0.4884   0.0000   0.0000   0.0000   0.4563
   1.700   0.4068   0.01978   0.01315  -0.0824  0.8761  1.0000  -0.5009   0.0000   0.0000   0.0000   0.4507
   1.800   0.4246   0.01981   0.01318  -0.0838  0.8746  1.0000  -0.5149   0.0000   0.0000   0.0000   0.4454
   1.900   0.4421   0.01985   0.01323  -0.0851  0.8730  1.0000  -0.5309   0.0000   0.0000   0.0000   0.4405
   2.000   0.4598   0.01990   0.01328  -0.0864  0.8717  1.0000  -0.5507   0.0000   0.0000   0.0000   0.4359
   2.100   0.4778   0.01995   0.01335  -0.0878  0.8704  1.0000  -0.5771   0.0000   0.0000   0.0000   0.4316
   2.200   0.4961   0.02000   0.01343  -0.0892  0.8692  1.0000  -0.6056   0.0000   0.0000   0.0000   0.4276
   2.300   0.5152   0.02007   0.01352  -0.0907  0.8681  1.0000  -0.6353   0.0000   0.0000   0.0000   0.4238
   2.400   0.4968   0.02059   0.01400  -0.0861  0.8596  1.0000  -0.6245   0.0000   0.0000   0.0000   0.4209
   2.500   0.5041   0.02074   0.01416  -0.0856  0.8553  1.0000  -0.6415   0.0000   0.0000   0.0000   0.4174
   2.600   0.5154   0.02081   0.01430  -0.0858  0.8518  1.0000  -0.6630   0.0000   0.0000   0.0000   0.4139
   2.700   0.5288   0.02085   0.01436  -0.0863  0.8488  1.0000  -0.6933   0.0000   0.0000   0.0000   0.4105
   2.800   0.5437   0.02086   0.01440  -0.0870  0.8462  1.0000  -0.7262   0.0000   0.0000   0.0000   0.4072
   2.900   0.5607   0.02079   0.01438  -0.0879  0.8439  1.0000  -0.7625   0.0000   0.0000   0.0000   0.4041
   3.000   0.5792   0.02067   0.01430  -0.0891  0.8416  1.0000  -0.8107   0.0000   0.0000   0.0000   0.4011
   3.100   0.5986   0.02050   0.01418  -0.0904  0.8395  1.0000  -0.8650   0.0000   0.0000   0.0000   0.3981
   3.200   0.6198   0.02026   0.01401  -0.0919  0.8377  1.0000  -0.9236   0.0000   0.0000   0.0000   0.3954
   3.300   0.6435   0.01994   0.01376  -0.0938  0.8360  1.0000  -0.9881   0.0000   0.0000   0.0000   0.3927
   3.400   0.6687   0.01955   0.01345  -0.0958  0.8341  1.0000  -1.0620   0.0000   0.0000   0.0000   0.3902
   3.500   0.6959   0.01907   0.01311  -0.0979  0.8317  1.0000  -1.1602   0.0000   0.0000   0.0000   0.3876
   3.600   0.6817   0.01974   0.01370  -0.0940  0.8228  1.0000  -1.1485   0.0000   0.0000   0.0000   0.3847
   3.700   0.6911   0.01962   0.01370  -0.0934  0.8160  1.0000  -1.2005   0.0000   0.0000   0.0000   0.3819
   3.800   0.7110   0.01906   0.01321  -0.0942  0.8102  1.0000  -1.3727   0.0000   0.0000   0.0000   0.3790
   3.900   0.7386   0.01809   0.01234  -0.0958  0.8044  1.0000  -1.5991   0.0000   0.0000   0.0000   0.3762
   4.000   0.7672   0.01710   0.01144  -0.0975  0.7990  1.0000  -1.8398   0.0000   0.0000   0.0000   0.3736
   4.100   0.7945   0.01635   0.01076  -0.0993  0.7938  1.0000  -2.0790   0.0000   0.0000   0.0000   0.3713
   4.200   0.8027   0.01630   0.01078  -0.0984  0.7872  1.0000  -2.1995   0.0000   0.0000   0.0000   0.3689
   4.300   0.8067   0.01633   0.01086  -0.0969  0.7791  1.0000  -2.2945   0.0000   0.0000   0.0000   0.3664
   4.400   0.8186   0.01602   0.01062  -0.0964  0.7705  1.0000  -2.4444   0.0000   0.0000   0.0000   0.3639
   4.500   0.8379   0.01537   0.01004  -0.0968  0.7609  1.0000  -2.6489   0.0000   0.0000   0.0000   0.3616
   4.600   0.8634   0.01461   0.00930  -0.0981  0.7493  1.0000  -2.9013   0.0000   0.0000   0.0000   0.3596
   4.700   0.8654   0.01461   0.00939  -0.0962  0.7385  1.0000  -2.9898   0.0000   0.0000   0.0000   0.3570
   4.800   0.8742   0.01432   0.00915  -0.0950  0.7229  1.0000  -3.1292   0.0000   0.0000   0.0000   0.3545
   4.900   0.8933   0.01378   0.00857  -0.0953  0.7041  1.0000  -3.3443   0.0000   0.0000   0.0000   0.3524
   5.000   0.8964   0.01381   0.00873  -0.0936  0.6888  1.0000  -3.4423   0.0000   0.0000   0.0000   0.3500
   5.100   0.9088   0.01350   0.00834  -0.0929  0.6596  1.0000  -3.6105   0.0000   0.0000   0.0000   0.3477
   5.200   0.9140   0.01342   0.00829  -0.0911  0.6169  1.0000  -3.7260   0.0000   0.0000   0.0000   0.3451
   5.300   0.9174   0.01358   0.00792  -0.0887  0.5157  1.0000  -3.8332   0.0000   0.0000   0.0000   0.3420
   5.400   0.9130   0.01443   0.00804  -0.0856  0.4056  1.0000  -3.8824   0.0000   0.0000   0.0000   0.3389
   5.500   0.9074   0.01548   0.00846  -0.0827  0.3089  1.0000  -3.9177   0.0000   0.0000   0.0000   0.3362
   5.600   0.9028   0.01661   0.00899  -0.0803  0.2211  1.0000  -3.9537   0.0000   0.0000   0.0000   0.3338
   5.700   0.9002   0.01772   0.00961  -0.0782  0.1570  1.0000  -3.9920   0.0000   0.0000   0.0000   0.3317
   5.800   0.9001   0.01872   0.01031  -0.0763  0.1213  1.0000  -4.0272   0.0000   0.0000   0.0000   0.3295
   5.900   0.9032   0.01949   0.01097  -0.0749  0.1020  1.0000  -4.0814   0.0000   0.0000   0.0000   0.3276
   6.000   0.9054   0.02038   0.01183  -0.0732  0.0893  1.0000  -4.1122   0.0000   0.0000   0.0000   0.3255
   6.100   0.9118   0.02085   0.01230  -0.0725  0.0776  1.0000  -4.1968   0.0000   0.0000   0.0000   0.3239
   6.200   0.9128   0.02207   0.01340  -0.0709  0.0669  1.0000  -4.2191   0.0000   0.0000   0.0000   0.3220
   6.300   0.9208   0.02258   0.01397  -0.0701  0.0617  1.0000  -4.2757   0.0000   0.0000   0.0000   0.3205
   6.400   0.9284   0.02325   0.01468  -0.0693  0.0558  1.0000  -4.3115   0.0000   0.0000   0.0000   0.3189
   6.500   0.9348   0.02392   0.01530  -0.0686  0.0498  1.0000  -4.3670   0.0000   0.0000   0.0000   0.3175
   6.600   0.9433   0.02575   0.01708  -0.0683  0.0430  1.0000  -4.3660   0.0000   0.0000   0.0000   0.3164
   6.700   0.9528   0.02615   0.01756  -0.0678  0.0400  1.0000  -4.4166   0.0000   0.0000   0.0000   0.3151
   6.800   0.9644   0.02711   0.01865  -0.0676  0.0375  1.0000  -4.4453   0.0000   0.0000   0.0000   0.3139
   6.900   0.9764   0.02818   0.01979  -0.0675  0.0354  1.0000  -4.4908   0.0000   0.0000   0.0000   0.3128
   7.000   0.9885   0.02931   0.02101  -0.0673  0.0339  1.0000  -4.5362   0.0000   0.0000   0.0000   0.3117
   7.100   1.0005   0.03053   0.02232  -0.0672  0.0328  1.0000  -4.5786   0.0000   0.0000   0.0000   0.3107
   7.200   1.0117   0.03177   0.02367  -0.0670  0.0319  1.0000  -4.6195   0.0000   0.0000   0.0000   0.3096
   7.300   1.0211   0.03280   0.02476  -0.0667  0.0307  1.0000  -4.6863   0.0000   0.0000   0.0000   0.3086
   7.400   1.0293   0.03393   0.02592  -0.0664  0.0290  1.0000  -4.7696   0.0000   0.0000   0.0000   0.3077
   7.500   1.0377   0.03607   0.02818  -0.0662  0.0275  1.0000  -4.7990   0.0000   0.0000   0.0000   0.3069
   7.600   1.0442   0.03889   0.03125  -0.0656  0.0266  1.0000  -4.7642   0.0000   0.0000   0.0000   0.3059
   7.700   1.0487   0.04152   0.03413  -0.0647  0.0262  1.0000  -4.7239   0.0000   0.0000   0.0000   0.3047
   7.800   1.0528   0.04363   0.03645  -0.0638  0.0260  1.0000  -4.7053   0.0000   0.0000   0.0000   0.3035
   7.900   1.0580   0.04510   0.03807  -0.0629  0.0261  1.0000  -4.7207   0.0000   0.0000   0.0000   0.3023
   8.000   1.0634   0.04637   0.03947  -0.0620  0.0262  1.0000  -4.7463   0.0000   0.0000   0.0000   0.3010
   8.100   1.0689   0.04749   0.04072  -0.0611  0.0263  1.0000  -4.7787   0.0000   0.0000   0.0000   0.2998
   8.200   1.0744   0.04848   0.04182  -0.0602  0.0266  1.0000  -4.8166   0.0000   0.0000   0.0000   0.2986
   8.300   1.0801   0.04935   0.04280  -0.0593  0.0268  1.0000  -4.8575   0.0000   0.0000   0.0000   0.2974
   8.400   1.0857   0.05012   0.04370  -0.0584  0.0272  1.0000  -4.8967   0.0000   0.0000   0.0000   0.2961
   8.500   1.0909   0.05086   0.04458  -0.0573  0.0278  1.0000  -4.9220   0.0000   0.0000   0.0000   0.2948
   8.600   1.0950   0.05200   0.04598  -0.0557  0.0291  1.0000  -4.8697   0.0000   0.0000   0.0000   0.2931
   8.700   1.0896   0.05500   0.04944  -0.0530  0.0319  1.0000  -4.6345   0.0000   0.0000   0.0000   0.2908
   8.800   1.0849   0.05771   0.05242  -0.0510  0.0339  1.0000  -4.5004   0.0000   0.0000   0.0000   0.2892
   8.900   1.0807   0.05998   0.05487  -0.0495  0.0354  1.0000  -4.4245   0.0000   0.0000   0.0000   0.2878
   9.000   1.0765   0.06209   0.05712  -0.0481  0.0367  1.0000  -4.3703   0.0000   0.0000   0.0000   0.2866
   9.100   1.0719   0.06412   0.05927  -0.0467  0.0378  1.0000  -4.3274   0.0000   0.0000   0.0000   0.2855
   9.200   1.0668   0.06613   0.06138  -0.0455  0.0389  1.0000  -4.2907   0.0000   0.0000   0.0000   0.2845
   9.300   1.0609   0.06817   0.06350  -0.0443  0.0398  1.0000  -4.2566   0.0000   0.0000   0.0000   0.2835
   9.400   1.0538   0.07019   0.06559  -0.0430  0.0407  1.0000  -4.2227   0.0000   0.0000   0.0000   0.2825
  12.400   0.8769   0.14840   0.14480  -0.0645  0.0660  1.0000  -2.7570   0.0000   0.0000   0.0000   0.3128
  12.500   0.8758   0.15070   0.14710  -0.0661  0.0659  1.0000  -2.7237   0.0000   0.0000   0.0000   0.3146
  12.600   0.8750   0.15287   0.14926  -0.0677  0.0657  1.0000  -2.6918   0.0000   0.0000   0.0000   0.3164
  12.700   0.8743   0.15483   0.15120  -0.0694  0.0655  1.0000  -2.6603   0.0000   0.0000   0.0000   0.3183
  12.800   0.8738   0.15626   0.15263  -0.0715  0.0648  1.0000  -2.6250   0.0000   0.0000   0.0000   0.3207
  12.900   0.8718   0.15753   0.15387  -0.0744  0.0631  1.0000  -2.5668   0.0000   0.0000   0.0000   0.3241
  13.000   0.8706   0.15944   0.15576  -0.0765  0.0618  1.0000  -2.5224   0.0000   0.0000   0.0000   0.3265
  13.100   0.8701   0.16141   0.15772  -0.0780  0.0607  1.0000  -2.4894   0.0000   0.0000   0.0000   0.3283
  13.200   0.8699   0.16339   0.15969  -0.0794  0.0598  1.0000  -2.4613   0.0000   0.0000   0.0000   0.3298
  13.300   0.8700   0.16534   0.16163  -0.0807  0.0588  1.0000  -2.4381   0.0000   0.0000   0.0000   0.3311
  13.400   0.8704   0.16723   0.16351  -0.0818  0.0580  1.0000  -2.4184   0.0000   0.0000   0.0000   0.3323
  13.500   0.8710   0.16903   0.16531  -0.0829  0.0571  1.0000  -2.4018   0.0000   0.0000   0.0000   0.3333
  13.600   0.8718   0.17078   0.16705  -0.0839  0.0563  1.0000  -2.3875   0.0000   0.0000   0.0000   0.3343
  13.700   0.8727   0.17250   0.16876  -0.0849  0.0555  1.0000  -2.3755   0.0000   0.0000   0.0000   0.3352
  13.800   0.8739   0.17419   0.17045  -0.0858  0.0547  1.0000  -2.3657   0.0000   0.0000   0.0000   0.3360
  13.900   0.8752   0.17588   0.17213  -0.0867  0.0540  1.0000  -2.3579   0.0000   0.0000   0.0000   0.3368
  14.000   0.8766   0.17755   0.17380  -0.0875  0.0533  1.0000  -2.3523   0.0000   0.0000   0.0000   0.3374
  14.100   0.8782   0.17921   0.17545  -0.0883  0.0525  1.0000  -2.3488   0.0000   0.0000   0.0000   0.3380
  14.200   0.8800   0.18086   0.17710  -0.0890  0.0518  1.0000  -2.3478   0.0000   0.0000   0.0000   0.3385
  14.300   0.8820   0.18250   0.17874  -0.0897  0.0512  1.0000  -2.3494   0.0000   0.0000   0.0000   0.3389
  14.400   0.8841   0.18414   0.18038  -0.0903  0.0505  1.0000  -2.3542   0.0000   0.0000   0.0000   0.3393
  14.500   0.8865   0.18576   0.18201  -0.0908  0.0498  1.0000  -2.3626   0.0000   0.0000   0.0000   0.3395
  14.600   0.8892   0.18739   0.18363  -0.0913  0.0491  1.0000  -2.3756   0.0000   0.0000   0.0000   0.3395
  14.700   0.8922   0.18902   0.18526  -0.0916  0.0485  1.0000  -2.3944   0.0000   0.0000   0.0000   0.3394
  14.800   0.8957   0.19066   0.18691  -0.0917  0.0478  1.0000  -2.4203   0.0000   0.0000   0.0000   0.3390
  14.900   0.8996   0.19234   0.18861  -0.0917  0.0471  1.0000  -2.4544   0.0000   0.0000   0.0000   0.3384
  15.000   0.9039   0.19417   0.19045  -0.0913  0.0464  1.0000  -2.4981   0.0000   0.0000   0.0000   0.3374
  15.100   0.9085   0.19645   0.19274  -0.0907  0.0457  1.0000  -2.5479   0.0000   0.0000   0.0000   0.3361
  15.200   0.9090   0.20055   0.19684  -0.0906  0.0447  1.0000  -2.5479   0.0000   0.0000   0.0000   0.3358
  15.400   0.9055   0.20898   0.20520  -0.0931  0.0438  1.0000  -2.4239   0.0000   0.0000   0.0000   0.3387
  15.500   0.9071   0.21093   0.20714  -0.0941  0.0438  1.0000  -2.4065   0.0000   0.0000   0.0000   0.3396
  15.600   0.9087   0.21286   0.20907  -0.0951  0.0438  1.0000  -2.3893   0.0000   0.0000   0.0000   0.3404
  15.700   0.9103   0.21477   0.21097  -0.0961  0.0437  1.0000  -2.3723   0.0000   0.0000   0.0000   0.3412
  15.800   0.9120   0.21666   0.21286  -0.0971  0.0437  1.0000  -2.3555   0.0000   0.0000   0.0000   0.3420
  15.900   0.9136   0.21852   0.21472  -0.0981  0.0436  1.0000  -2.3389   0.0000   0.0000   0.0000   0.3428
  16.000   0.9153   0.22035   0.21654  -0.0991  0.0436  1.0000  -2.3224   0.0000   0.0000   0.0000   0.3436
  16.100   0.9170   0.22214   0.21833  -0.1002  0.0435  1.0000  -2.3060   0.0000   0.0000   0.0000   0.3444
  16.200   0.9187   0.22389   0.22008  -0.1012  0.0434  1.0000  -2.2897   0.0000   0.0000   0.0000   0.3452
  16.300   0.9205   0.22558   0.22176  -0.1023  0.0433  1.0000  -2.2734   0.0000   0.0000   0.0000   0.3460
  16.400   0.9222   0.22720   0.22338  -0.1033  0.0432  1.0000  -2.2569   0.0000   0.0000   0.0000   0.3468
  16.500   0.9240   0.22872   0.22489  -0.1044  0.0430  1.0000  -2.2401   0.0000   0.0000   0.0000   0.3476
  16.600   0.9251   0.23010   0.22627  -0.1057  0.0428  1.0000  -2.2162   0.0000   0.0000   0.0000   0.3488
  16.700   0.9261   0.23136   0.22752  -0.1072  0.0425  1.0000  -2.1890   0.0000   0.0000   0.0000   0.3500
  16.800   0.9266   0.23250   0.22865  -0.1087  0.0421  1.0000  -2.1575   0.0000   0.0000   0.0000   0.3515
  16.900   0.9266   0.23358   0.22973  -0.1103  0.0417  1.0000  -2.1233   0.0000   0.0000   0.0000   0.3530
  17.000   0.9270   0.23485   0.23099  -0.1118  0.0411  1.0000  -2.0912   0.0000   0.0000   0.0000   0.3544
  17.100   0.9281   0.23635   0.23248  -0.1131  0.0405  1.0000  -2.0634   0.0000   0.0000   0.0000   0.3556
  17.200   0.9295   0.23803   0.23416  -0.1143  0.0398  1.0000  -2.0406   0.0000   0.0000   0.0000   0.3566
  17.300   0.9311   0.23983   0.23596  -0.1154  0.0391  1.0000  -2.0219   0.0000   0.0000   0.0000   0.3574
  17.400   0.9328   0.24170   0.23783  -0.1164  0.0385  1.0000  -2.0064   0.0000   0.0000   0.0000   0.3581
  17.500   0.9346   0.24362   0.23974  -0.1173  0.0379  1.0000  -1.9931   0.0000   0.0000   0.0000   0.3587
  17.600   0.9364   0.24556   0.24168  -0.1182  0.0373  1.0000  -1.9816   0.0000   0.0000   0.0000   0.3593
  17.700   0.9383   0.24751   0.24364  -0.1190  0.0367  1.0000  -1.9714   0.0000   0.0000   0.0000   0.3598
  17.800   0.9402   0.24948   0.24560  -0.1198  0.0361  1.0000  -1.9624   0.0000   0.0000   0.0000   0.3603
  17.900   0.9420   0.25146   0.24758  -0.1206  0.0356  1.0000  -1.9544   0.0000   0.0000   0.0000   0.3607
  18.000   0.9439   0.25344   0.24956  -0.1214  0.0350  1.0000  -1.9472   0.0000   0.0000   0.0000   0.3612
  18.100   0.9458   0.25542   0.25155  -0.1222  0.0345  1.0000  -1.9410   0.0000   0.0000   0.0000   0.3616
  18.200   0.9476   0.25741   0.25354  -0.1230  0.0340  1.0000  -1.9356   0.0000   0.0000   0.0000   0.3620
  18.300   0.9495   0.25940   0.25554  -0.1237  0.0335  1.0000  -1.9310   0.0000   0.0000   0.0000   0.3624
  18.400   0.9513   0.26140   0.25754  -0.1244  0.0331  1.0000  -1.9274   0.0000   0.0000   0.0000   0.3627
  18.500   0.9532   0.26339   0.25953  -0.1251  0.0326  1.0000  -1.9246   0.0000   0.0000   0.0000   0.3631
  18.600   0.9550   0.26539   0.26154  -0.1258  0.0322  1.0000  -1.9228   0.0000   0.0000   0.0000   0.3634
  18.700   0.9569   0.26739   0.26354  -0.1265  0.0317  1.0000  -1.9220   0.0000   0.0000   0.0000   0.3637
  18.800   0.9587   0.26939   0.26555  -0.1271  0.0313  1.0000  -1.9224   0.0000   0.0000   0.0000   0.3639
  18.900   0.9606   0.27140   0.26756  -0.1277  0.0309  1.0000  -1.9240   0.0000   0.0000   0.0000   0.3642
  19.000   0.9624   0.27341   0.26957  -0.1283  0.0305  1.0000  -1.9270   0.0000   0.0000   0.0000   0.3644
  19.100   0.9642   0.27542   0.27159  -0.1289  0.0301  1.0000  -1.9316   0.0000   0.0000   0.0000   0.3646
  19.200   0.9661   0.27745   0.27362  -0.1294  0.0297  1.0000  -1.9380   0.0000   0.0000   0.0000   0.3647
  19.300   0.9680   0.27949   0.27567  -0.1299  0.0294  1.0000  -1.9469   0.0000   0.0000   0.0000   0.3648
  19.400   0.9699   0.28156   0.27774  -0.1303  0.0290  1.0000  -1.9590   0.0000   0.0000   0.0000   0.3648
  19.500   0.9720   0.28367   0.27987  -0.1307  0.0286  1.0000  -1.9752   0.0000   0.0000   0.0000   0.3647
  19.600   0.9742   0.28588   0.28209  -0.1309  0.0282  1.0000  -1.9973   0.0000   0.0000   0.0000   0.3645
  19.700   0.9769   0.28830   0.28452  -0.1309  0.0278  1.0000  -2.0287   0.0000   0.0000   0.0000   0.3639
  19.800   0.9808   0.29138   0.28762  -0.1303  0.0273  1.0000  -2.0799   0.0000   0.0000   0.0000   0.3627
  19.900   0.9858   0.29809   0.29436  -0.1290  0.0264  1.0000  -2.1291   0.0000   0.0000   0.0000   0.3607
  20.000   0.9832   0.30496   0.30117  -0.1297  0.0259  1.0000  -2.0408   0.0000   0.0000   0.0000   0.3617
  20.100   0.9842   0.30705   0.30327  -0.1305  0.0259  1.0000  -2.0270   0.0000   0.0000   0.0000   0.3622
  20.200   0.9850   0.30912   0.30535  -0.1312  0.0259  1.0000  -2.0132   0.0000   0.0000   0.0000   0.3627
  20.300   0.9858   0.31118   0.30741  -0.1320  0.0259  1.0000  -1.9994   0.0000   0.0000   0.0000   0.3632
  20.400   0.9864   0.31323   0.30946  -0.1327  0.0259  1.0000  -1.9855   0.0000   0.0000   0.0000   0.3637
  20.500   0.9870   0.31525   0.31149  -0.1334  0.0258  1.0000  -1.9715   0.0000   0.0000   0.0000   0.3642
  20.600   0.9875   0.31726   0.31350  -0.1341  0.0258  1.0000  -1.9575   0.0000   0.0000   0.0000   0.3647
  20.700   0.9879   0.31924   0.31549  -0.1348  0.0258  1.0000  -1.9434   0.0000   0.0000   0.0000   0.3652
  20.800   0.9881   0.32120   0.31745  -0.1355  0.0258  1.0000  -1.9290   0.0000   0.0000   0.0000   0.3657
  20.900   0.9882   0.32313   0.31939  -0.1362  0.0257  1.0000  -1.9145   0.0000   0.0000   0.0000   0.3663
  21.000   0.9881   0.32503   0.32130  -0.1369  0.0257  1.0000  -1.8997   0.0000   0.0000   0.0000   0.3668
  21.100   0.9878   0.32689   0.32316  -0.1375  0.0257  1.0000  -1.8846   0.0000   0.0000   0.0000   0.3673
  21.200   0.9874   0.32871   0.32500  -0.1381  0.0256  1.0000  -1.8692   0.0000   0.0000   0.0000   0.3679
  21.300   0.9867   0.33048   0.32677  -0.1387  0.0256  1.0000  -1.8531   0.0000   0.0000   0.0000   0.3685
  21.400   0.9856   0.33221   0.32862  -0.1393  0.0256  1.0000  -1.8361   0.0000   0.0000   0.0000   0.3690
  21.500   0.9840   0.33382   0.33025  -0.1398  0.0255  1.0000  -1.8169   0.0000   0.0000   0.0000   0.3697
  21.600   0.9815   0.33529   0.33173  -0.1403  0.0255  1.0000  -1.7942   0.0000   0.0000   0.0000   0.3705
  21.700   0.9783   0.33661   0.33307  -0.1408  0.0254  1.0000  -1.7694   0.0000   0.0000   0.0000   0.3713
  21.800   0.9739   0.33775   0.33422  -0.1410  0.0254  1.0000  -1.7424   0.0000   0.0000   0.0000   0.3721
  21.900   0.9086   0.32522   0.32190  -0.1329  0.0255  1.0000  -1.5876   0.0000   0.0000   0.0000   0.3746
  22.000   0.9002   0.32406   0.32077  -0.1325  0.0255  1.0000  -1.5532   0.0000   0.0000   0.0000   0.3755
  22.100   0.8935   0.32325   0.31998  -0.1323  0.0255  1.0000  -1.5228   0.0000   0.0000   0.0000   0.3764
  22.200   0.8879   0.32265   0.31940  -0.1323  0.0254  1.0000  -1.4947   0.0000   0.0000   0.0000   0.3773
  22.300   0.8830   0.32218   0.31895  -0.1324  0.0254  1.0000  -1.4684   0.0000   0.0000   0.0000   0.3781
  22.400   0.8787   0.32182   0.31861  -0.1325  0.0253  1.0000  -1.4433   0.0000   0.0000   0.0000   0.3789
  22.500   0.8748   0.32154   0.31835  -0.1327  0.0253  1.0000  -1.4193   0.0000   0.0000   0.0000   0.3798
  22.600   0.8714   0.32134   0.31816  -0.1330  0.0252  1.0000  -1.3961   0.0000   0.0000   0.0000   0.3806
  22.700   0.8682   0.32120   0.31804  -0.1333  0.0252  1.0000  -1.3736   0.0000   0.0000   0.0000   0.3814
  22.800   0.8654   0.32112   0.31797  -0.1336  0.0251  1.0000  -1.3517   0.0000   0.0000   0.0000   0.3822
  22.900   0.8629   0.32111   0.31797  -0.1340  0.0250  1.0000  -1.3303   0.0000   0.0000   0.0000   0.3829
  23.000   0.8607   0.32116   0.31804  -0.1344  0.0249  1.0000  -1.3095   0.0000   0.0000   0.0000   0.3837
  23.100   0.8588   0.32130   0.31819  -0.1348  0.0248  1.0000  -1.2891   0.0000   0.0000   0.0000   0.3844
  23.200   0.8571   0.32150   0.31840  -0.1353  0.0246  1.0000  -1.2693   0.0000   0.0000   0.0000   0.3852
  23.300   0.8557   0.32178   0.31870  -0.1357  0.0244  1.0000  -1.2513   0.0000   0.0000   0.0000   0.3859
  23.400   0.8545   0.32214   0.31907  -0.1362  0.0243  1.0000  -1.2392   0.0000   0.0000   0.0000   0.3865
  23.500   0.8534   0.32256   0.31950  -0.1367  0.0240  1.0000  -1.2280   0.0000   0.0000   0.0000   0.3872
  23.600   0.8525   0.32303   0.31998  -0.1371  0.0238  1.0000  -1.2176   0.0000   0.0000   0.0000   0.3877
  23.700   0.8516   0.32353   0.32049  -0.1375  0.0236  1.0000  -1.2083   0.0000   0.0000   0.0000   0.3883
  23.800   0.8507   0.32405   0.32102  -0.1379  0.0233  1.0000  -1.1999   0.0000   0.0000   0.0000   0.3888
  23.900   0.8499   0.32458   0.32157  -0.1383  0.0230  1.0000  -1.1923   0.0000   0.0000   0.0000   0.3893
  24.000   0.8491   0.32512   0.32211  -0.1387  0.0228  1.0000  -1.1854   0.0000   0.0000   0.0000   0.3897
  24.100   0.8483   0.32565   0.32266  -0.1390  0.0225  1.0000  -1.1791   0.0000   0.0000   0.0000   0.3901
  24.200   0.8475   0.32619   0.32321  -0.1393  0.0223  1.0000  -1.1733   0.0000   0.0000   0.0000   0.3906
  24.300   0.8467   0.32673   0.32376  -0.1397  0.0220  1.0000  -1.1679   0.0000   0.0000   0.0000   0.3910
  24.400   0.8460   0.32727   0.32432  -0.1400  0.0218  1.0000  -1.1628   0.0000   0.0000   0.0000   0.3914
  24.500   0.8453   0.32782   0.32487  -0.1403  0.0215  1.0000  -1.1581   0.0000   0.0000   0.0000   0.3918
  24.600   0.8446   0.32836   0.32543  -0.1407  0.0213  1.0000  -1.1536   0.0000   0.0000   0.0000   0.3922
  24.700   0.8439   0.32891   0.32599  -0.1410  0.0210  1.0000  -1.1493   0.0000   0.0000   0.0000   0.3925
  24.800   0.8433   0.32946   0.32655  -0.1413  0.0208  1.0000  -1.1452   0.0000   0.0000   0.0000   0.3929
  24.900   0.8427   0.33001   0.32711  -0.1416  0.0206  1.0000  -1.1413   0.0000   0.0000   0.0000   0.3933
  25.000   0.8421   0.33056   0.32768  -0.1420  0.0204  1.0000  -1.1376   0.0000   0.0000   0.0000   0.3936
  25.100   0.8415   0.33112   0.32824  -0.1423  0.0202  1.0000  -1.1340   0.0000   0.0000   0.0000   0.3940
  25.200   0.8410   0.33168   0.32881  -0.1426  0.0199  1.0000  -1.1305   0.0000   0.0000   0.0000   0.3943
  25.300   0.8405   0.33224   0.32938  -0.1429  0.0197  1.0000  -1.1271   0.0000   0.0000   0.0000   0.3947
  25.400   0.8400   0.33280   0.32996  -0.1433  0.0195  1.0000  -1.1238   0.0000   0.0000   0.0000   0.3950
  25.500   0.8396   0.33337   0.33053  -0.1436  0.0193  1.0000  -1.1206   0.0000   0.0000   0.0000   0.3954
  25.600   0.8391   0.33393   0.33111  -0.1439  0.0191  1.0000  -1.1175   0.0000   0.0000   0.0000   0.3957
  25.700   0.8387   0.33450   0.33169  -0.1443  0.0189  1.0000  -1.1145   0.0000   0.0000   0.0000   0.3961
  25.800   0.8383   0.33507   0.33227  -0.1446  0.0187  1.0000  -1.1115   0.0000   0.0000   0.0000   0.3964
  25.900   0.8379   0.33564   0.33285  -0.1450  0.0185  1.0000  -1.1086   0.0000   0.0000   0.0000   0.3967
  26.000   0.8376   0.33621   0.33343  -0.1453  0.0183  1.0000  -1.1058   0.0000   0.0000   0.0000   0.3970
  26.100   0.8372   0.33679   0.33402  -0.1456  0.0182  1.0000  -1.1030   0.0000   0.0000   0.0000   0.3974
  26.200   0.8369   0.33736   0.33461  -0.1460  0.0180  1.0000  -1.1003   0.0000   0.0000   0.0000   0.3977
  26.300   0.8366   0.33794   0.33519  -0.1463  0.0178  1.0000  -1.0977   0.0000   0.0000   0.0000   0.3980
  26.400   0.8363   0.33852   0.33578  -0.1467  0.0176  1.0000  -1.0951   0.0000   0.0000   0.0000   0.3983
  26.500   0.8360   0.33910   0.33637  -0.1470  0.0175  1.0000  -1.0926   0.0000   0.0000   0.0000   0.3986
  26.600   0.8357   0.33968   0.33696  -0.1474  0.0173  1.0000  -1.0901   0.0000   0.0000   0.0000   0.3989
  26.700   0.8354   0.34026   0.33755  -0.1477  0.0171  1.0000  -1.0878   0.0000   0.0000   0.0000   0.3992
  26.800   0.8352   0.34084   0.33814  -0.1481  0.0170  1.0000  -1.0855   0.0000   0.0000   0.0000   0.3995
  26.900   0.8349   0.34142   0.33873  -0.1484  0.0168  1.0000  -1.0832   0.0000   0.0000   0.0000   0.3998
  27.000   0.8347   0.34200   0.33932  -0.1488  0.0166  1.0000  -1.0811   0.0000   0.0000   0.0000   0.4001
  27.100   0.8345   0.34258   0.33991  -0.1491  0.0165  1.0000  -1.0790   0.0000   0.0000   0.0000   0.4004
  27.200   0.8343   0.34316   0.34050  -0.1495  0.0163  1.0000  -1.0771   0.0000   0.0000   0.0000   0.4007
  27.300   0.8341   0.34373   0.34109  -0.1499  0.0162  1.0000  -1.0752   0.0000   0.0000   0.0000   0.4010
  27.400   0.8339   0.34431   0.34168  -0.1502  0.0160  1.0000  -1.0735   0.0000   0.0000   0.0000   0.4013
  27.500   0.8337   0.34489   0.34227  -0.1506  0.0159  1.0000  -1.0719   0.0000   0.0000   0.0000   0.4015
  27.600   0.8335   0.34547   0.34285  -0.1509  0.0157  1.0000  -1.0704   0.0000   0.0000   0.0000   0.4018
  27.700   0.8333   0.34604   0.34344  -0.1513  0.0156  1.0000  -1.0691   0.0000   0.0000   0.0000   0.4021
  27.800   0.8331   0.34661   0.34402  -0.1516  0.0155  1.0000  -1.0679   0.0000   0.0000   0.0000   0.4023
  27.900   0.8329   0.34719   0.34460  -0.1520  0.0153  1.0000  -1.0669   0.0000   0.0000   0.0000   0.4026
  28.000   0.8328   0.34776   0.34518  -0.1523  0.0152  1.0000  -1.0661   0.0000   0.0000   0.0000   0.4029
  28.100   0.8326   0.34832   0.34576  -0.1527  0.0151  1.0000  -1.0655   0.0000   0.0000   0.0000   0.4031
  28.200   0.8324   0.34889   0.34634  -0.1530  0.0149  1.0000  -1.0651   0.0000   0.0000   0.0000   0.4034
  28.300   0.8323   0.34945   0.34691  -0.1533  0.0148  1.0000  -1.0650   0.0000   0.0000   0.0000   0.4036
  28.400   0.8321   0.35000   0.34747  -0.1537  0.0147  1.0000  -1.0651   0.0000   0.0000   0.0000   0.4039
  28.500   0.8319   0.35056   0.34810  -0.1540  0.0146  1.0000  -1.0652   0.0000   0.0000   0.0000   0.4041
  28.600   0.8317   0.35111   0.34866  -0.1543  0.0144  1.0000  -1.0660   0.0000   0.0000   0.0000   0.4043
  28.700   0.8316   0.35166   0.34922  -0.1546  0.0143  1.0000  -1.0671   0.0000   0.0000   0.0000   0.4045
  28.800   0.8314   0.35221   0.34978  -0.1549  0.0142  1.0000  -1.0687   0.0000   0.0000   0.0000   0.4047
  28.900   0.8312   0.35276   0.35034  -0.1552  0.0141  1.0000  -1.0707   0.0000   0.0000   0.0000   0.4049
  29.000   0.8310   0.35331   0.35090  -0.1555  0.0140  1.0000  -1.0731   0.0000   0.0000   0.0000   0.4051
  29.100   0.8308   0.35386   0.35146  -0.1558  0.0139  1.0000  -1.0761   0.0000   0.0000   0.0000   0.4053
  29.200   0.8307   0.35443   0.35204  -0.1561  0.0138  1.0000  -1.0797   0.0000   0.0000   0.0000   0.4054
  29.300   0.8305   0.35501   0.35263  -0.1563  0.0137  1.0000  -1.0839   0.0000   0.0000   0.0000   0.4055
  29.400   0.8303   0.35562   0.35326  -0.1565  0.0135  1.0000  -1.0887   0.0000   0.0000   0.0000   0.4056
  29.500   0.8302   0.35628   0.35393  -0.1567  0.0134  1.0000  -1.0944   0.0000   0.0000   0.0000   0.4057
  29.600   0.8301   0.35702   0.35468  -0.1569  0.0133  1.0000  -1.1010   0.0000   0.0000   0.0000   0.4057
  29.700   0.8302   0.35790   0.35557  -0.1570  0.0132  1.0000  -1.1083   0.0000   0.0000   0.0000   0.4056
  29.800   0.8303   0.35903   0.35671  -0.1571  0.0131  1.0000  -1.1163   0.0000   0.0000   0.0000   0.4054
  29.900   0.8309   0.36072   0.35842  -0.1570  0.0130  1.0000  -1.1247   0.0000   0.0000   0.0000   0.4051
  30.000   0.8329   0.36448   0.36219  -0.1568  0.0128  1.0000  -1.1309   0.0000   0.0000   0.0000   0.4042


