xflr5 v6.61

 Calculated polar for: EPPLER 580 AIRFOIL

 1 1 Reynolds number fixed          Mach number fixed         

 xtrf =   1.000 (top)        1.000 (bottom)
 Mach =   0.000     Re =     0.300 e 6     Ncrit =   9.000

  alpha     CL        CD       CDp       Cm    Top Xtr Bot Xtr   Cpmin    Chinge    XCp    
 ------- -------- --------- --------- -------- ------- ------- -------- --------- ---------
 -10.000  -0.2544   0.10321   0.10037  -0.0667  0.9877  0.0465  -1.5784   0.0000   0.0000   0.0000  -0.0396
  -9.900  -0.2463   0.10173   0.09888  -0.0694  0.9869  0.0471  -1.5807   0.0000   0.0000   0.0000  -0.0598
  -9.800  -0.2415   0.10013   0.09728  -0.0713  0.9850  0.0475  -1.5887   0.0000   0.0000   0.0000  -0.0737
  -9.700  -0.2374   0.09834   0.09549  -0.0733  0.9829  0.0477  -1.6011   0.0000   0.0000   0.0000  -0.0875
  -9.600  -0.2332   0.09634   0.09349  -0.0756  0.9810  0.0478  -1.6176   0.0000   0.0000   0.0000  -0.1029
  -9.500  -0.2293   0.09414   0.09129  -0.0781  0.9793  0.0479  -1.6388   0.0000   0.0000   0.0000  -0.1196
  -9.400  -0.2257   0.09168   0.08883  -0.0809  0.9778  0.0480  -1.6667   0.0000   0.0000   0.0000  -0.1378
  -9.300  -0.2229   0.08885   0.08599  -0.0842  0.9764  0.0480  -1.7052   0.0000   0.0000   0.0000  -0.1574
  -9.200  -0.2210   0.08601   0.08314  -0.0877  0.9751  0.0481  -1.7452   0.0000   0.0000   0.0000  -0.1767
  -9.100  -0.2193   0.08326   0.08036  -0.0914  0.9738  0.0481  -1.7827   0.0000   0.0000   0.0000  -0.1962
  -9.000  -0.2178   0.08053   0.07760  -0.0952  0.9727  0.0482  -1.8185   0.0000   0.0000   0.0000  -0.2165
  -8.900  -0.2191   0.07819   0.07523  -0.0980  0.9702  0.0482  -1.8511   0.0000   0.0000   0.0000  -0.2265
  -8.800  -0.2241   0.07647   0.07350  -0.0990  0.9647  0.0482  -1.8782   0.0000   0.0000   0.0000  -0.2197
  -8.700  -0.2262   0.07436   0.07135  -0.1015  0.9611  0.0482  -1.9068   0.0000   0.0000   0.0000  -0.2263
  -8.600  -0.2270   0.07222   0.06917  -0.1045  0.9582  0.0482  -1.9327   0.0000   0.0000   0.0000  -0.2372
  -8.500  -0.2273   0.07010   0.06700  -0.1077  0.9557  0.0482  -1.9571   0.0000   0.0000   0.0000  -0.2502
  -8.400  -0.2268   0.06799   0.06484  -0.1112  0.9535  0.0483  -1.9785   0.0000   0.0000   0.0000  -0.2663
  -8.300  -0.2343   0.06688   0.06370  -0.1110  0.9462  0.0483  -1.9965   0.0000   0.0000   0.0000  -0.2483
  -8.200  -0.2358   0.06516   0.06192  -0.1127  0.9404  0.0483  -2.0112   0.0000   0.0000   0.0000  -0.2524
  -8.100  -0.2767   0.05345   0.04996  -0.1203  0.9336  0.0507  -2.3229   0.0000   0.0000   0.0000  -0.2056
  -8.000  -0.2720   0.05081   0.04728  -0.1224  0.9322  0.0517  -2.3195   0.0000   0.0000   0.0000  -0.2207
  -7.900  -0.2638   0.04896   0.04540  -0.1241  0.9312  0.0526  -2.2928   0.0000   0.0000   0.0000  -0.2416
  -7.800  -0.2542   0.04742   0.04383  -0.1258  0.9302  0.0534  -2.2573   0.0000   0.0000   0.0000  -0.2665
  -7.700  -0.2428   0.04616   0.04256  -0.1272  0.9296  0.0542  -2.2101   0.0000   0.0000   0.0000  -0.2961
  -7.600  -0.2312   0.04494   0.04132  -0.1287  0.9289  0.0551  -2.1646   0.0000   0.0000   0.0000  -0.3295
  -7.500  -0.2425   0.04473   0.04110  -0.1251  0.9187  0.0552  -2.1710   0.0000   0.0000   0.0000  -0.2874
  -7.400  -0.2351   0.04370   0.04004  -0.1256  0.9158  0.0560  -2.1366   0.0000   0.0000   0.0000  -0.3062
  -7.300  -0.2263   0.04262   0.03893  -0.1265  0.9136  0.0569  -2.1011   0.0000   0.0000   0.0000  -0.3312
  -7.200  -0.2167   0.04151   0.03777  -0.1276  0.9117  0.0580  -2.0657   0.0000   0.0000   0.0000  -0.3617
  -7.100  -0.2062   0.04038   0.03659  -0.1288  0.9101  0.0592  -2.0309   0.0000   0.0000   0.0000  -0.3980
  -7.000  -0.1948   0.03925   0.03539  -0.1301  0.9087  0.0606  -1.9964   0.0000   0.0000   0.0000  -0.4426
  -6.900  -0.1823   0.03814   0.03420  -0.1316  0.9074  0.0623  -1.9622   0.0000   0.0000   0.0000  -0.4975
  -6.800  -0.1689   0.03709   0.03300  -0.1332  0.9062  0.0642  -1.9325   0.0000   0.0000   0.0000  -0.5656
  -6.700  -0.1543   0.03621   0.03203  -0.1347  0.9051  0.0665  -1.8947   0.0000   0.0000   0.0000  -0.6524
  -6.600  -0.1379   0.03572   0.03145  -0.1361  0.9040  0.0690  -1.8495   0.0000   0.0000   0.0000  -0.7695
  -6.500  -0.1174   0.03665   0.03233  -0.1371  0.9031  0.0720  -1.7740   0.0000   0.0000   0.0000  -0.9551
  -6.400  -0.0954   0.03851   0.03411  -0.1381  0.9020  0.0736  -1.6844   0.0000   0.0000   0.0000  -1.2430
  -6.300  -0.1074   0.03123   0.02649  -0.1402  0.8966  0.0785  -1.8009   0.0000   0.0000   0.0000  -1.0949
  -6.200  -0.1043   0.03021   0.02546  -0.1394  0.8912  0.0801  -1.7771   0.0000   0.0000   0.0000  -1.1255
  -6.100  -0.0947   0.02931   0.02455  -0.1397  0.8878  0.0820  -1.7361   0.0000   0.0000   0.0000  -1.2679
  -6.000  -0.0828   0.02854   0.02381  -0.1402  0.8850  0.0841  -1.6887   0.0000   0.0000   0.0000  -1.4908
  -5.900  -0.0701   0.02784   0.02311  -0.1409  0.8824  0.0866  -1.6420   0.0000   0.0000   0.0000  -1.8162
  -5.800  -0.0564   0.02718   0.02243  -0.1418  0.8801  0.0896  -1.5964   0.0000   0.0000   0.0000  -2.3334
  -5.700  -0.0412   0.02660   0.02179  -0.1428  0.8781  0.0931  -1.5515   0.0000   0.0000   0.0000  -3.3098
  -5.600  -0.0250   0.02616   0.02128  -0.1439  0.8761  0.0967  -1.5073   0.0000   0.0000   0.0000  -5.6503
  -5.400   0.0121   0.02060   0.01467  -0.1438  0.8725  0.0437  -1.7957   0.0000   0.0000   0.0000  12.3927
  -5.300   0.0271   0.01897   0.01288  -0.1442  0.8705  0.0391  -1.8270   0.0000   0.0000   0.0000   5.7056
  -5.200   0.0424   0.01771   0.01144  -0.1445  0.8682  0.0349  -1.8636   0.0000   0.0000   0.0000   3.7401
  -5.100   0.0494   0.01720   0.01083  -0.1433  0.8643  0.0330  -1.8696   0.0000   0.0000   0.0000   3.2191
  -5.000   0.0569   0.01690   0.01049  -0.1424  0.8600  0.0318  -1.8500   0.0000   0.0000   0.0000   2.8111
  -4.900   0.0666   0.01666   0.01021  -0.1420  0.8559  0.0310  -1.8153   0.0000   0.0000   0.0000   2.4325
  -4.800   0.0776   0.01644   0.00995  -0.1419  0.8521  0.0303  -1.7725   0.0000   0.0000   0.0000   2.1198
  -4.700   0.0901   0.01622   0.00970  -0.1421  0.8486  0.0296  -1.7244   0.0000   0.0000   0.0000   1.8619
  -4.600   0.1035   0.01599   0.00944  -0.1425  0.8453  0.0291  -1.6735   0.0000   0.0000   0.0000   1.6565
  -4.500   0.1174   0.01576   0.00918  -0.1431  0.8421  0.0286  -1.6217   0.0000   0.0000   0.0000   1.4936
  -4.400   0.1317   0.01552   0.00890  -0.1437  0.8389  0.0282  -1.5700   0.0000   0.0000   0.0000   1.3628
  -4.300   0.1463   0.01527   0.00861  -0.1444  0.8356  0.0278  -1.5191   0.0000   0.0000   0.0000   1.2563
  -4.200   0.1603   0.01474   0.00799  -0.1452  0.8319  0.0275  -1.4905   0.0000   0.0000   0.0000   1.1724
  -4.100   0.1685   0.01435   0.00757  -0.1448  0.8285  0.0274  -1.4683   0.0000   0.0000   0.0000   1.1247
  -4.000   0.1773   0.01401   0.00719  -0.1445  0.8247  0.0273  -1.4416   0.0000   0.0000   0.0000   1.0795
  -3.900   0.1873   0.01369   0.00683  -0.1445  0.8207  0.0272  -1.4103   0.0000   0.0000   0.0000   1.0346
  -3.800   0.1983   0.01339   0.00647  -0.1446  0.8165  0.0271  -1.3751   0.0000   0.0000   0.0000   0.9913
  -3.700   0.2105   0.01313   0.00613  -0.1450  0.8124  0.0271  -1.3358   0.0000   0.0000   0.0000   0.9498
  -3.600   0.2234   0.01289   0.00581  -0.1455  0.8084  0.0271  -1.2929   0.0000   0.0000   0.0000   0.9111
  -3.500   0.2369   0.01270   0.00551  -0.1460  0.8045  0.0271  -1.2464   0.0000   0.0000   0.0000   0.8756
  -3.400   0.2506   0.01255   0.00526  -0.1466  0.8005  0.0271  -1.1943   0.0000   0.0000   0.0000   0.8432
  -3.300   0.2646   0.01247   0.00498  -0.1472  0.7963  0.0265  -1.1178   0.0000   0.0000   0.0000   0.8139
  -3.200   0.2790   0.01239   0.00479  -0.1480  0.7918  0.0267  -1.0700   0.0000   0.0000   0.0000   0.7871
  -3.100   0.2889   0.01230   0.00466  -0.1478  0.7890  0.0269  -1.0306   0.0000   0.0000   0.0000   0.7677
  -3.000   0.2993   0.01222   0.00454  -0.1476  0.7859  0.0272  -0.9905   0.0000   0.0000   0.0000   0.7491
  -2.900   0.3100   0.01214   0.00444  -0.1476  0.7825  0.0279  -0.9513   0.0000   0.0000   0.0000   0.7313
  -2.800   0.3212   0.01206   0.00432  -0.1476  0.7790  0.0317  -0.9214   0.0000   0.0000   0.0000   0.7142
  -2.700   0.3328   0.01195   0.00421  -0.1477  0.7754  0.0419  -0.8836   0.0000   0.0000   0.0000   0.6983
  -2.600   0.3527   0.01003   0.00396  -0.1522  0.7721  0.4831  -0.8298   0.0000   0.0000   0.0000   0.6854
  -2.500   0.3638   0.01018   0.00419  -0.1520  0.7685  0.5167  -0.7821   0.0000   0.0000   0.0000   0.6712
  -2.400   0.3749   0.01031   0.00435  -0.1518  0.7649  0.5283  -0.7425   0.0000   0.0000   0.0000   0.6579
  -2.300   0.3865   0.01044   0.00446  -0.1517  0.7613  0.5370  -0.7504   0.0000   0.0000   0.0000   0.6453
  -2.200   0.3985   0.01057   0.00455  -0.1518  0.7573  0.5433  -0.7584   0.0000   0.0000   0.0000   0.6333
  -2.100   0.4111   0.01072   0.00465  -0.1520  0.7528  0.5478  -0.7667   0.0000   0.0000   0.0000   0.6218
  -2.000   0.4230   0.01085   0.00475  -0.1521  0.7488  0.5509  -0.7746   0.0000   0.0000   0.0000   0.6114
  -1.900   0.4330   0.01093   0.00482  -0.1518  0.7463  0.5529  -0.7816   0.0000   0.0000   0.0000   0.6022
  -1.800   0.4432   0.01100   0.00489  -0.1515  0.7434  0.5544  -0.7886   0.0000   0.0000   0.0000   0.5933
  -1.700   0.4536   0.01106   0.00494  -0.1514  0.7401  0.5559  -0.7958   0.0000   0.0000   0.0000   0.5848
  -1.600   0.4642   0.01099   0.00486  -0.1513  0.7368  0.5602  -0.8031   0.0000   0.0000   0.0000   0.5769
  -1.500   0.4748   0.01097   0.00484  -0.1512  0.7333  0.5637  -0.8113   0.0000   0.0000   0.0000   0.5692
  -1.400   0.4856   0.01099   0.00486  -0.1511  0.7299  0.5668  -0.8196   0.0000   0.0000   0.0000   0.5617
  -1.300   0.4963   0.01104   0.00491  -0.1510  0.7266  0.5699  -0.8280   0.0000   0.0000   0.0000   0.5544
  -1.200   0.5063   0.01120   0.00510  -0.1505  0.7233  0.5756  -0.8361   0.0000   0.0000   0.0000   0.5473
  -1.100   0.5156   0.01146   0.00539  -0.1497  0.7200  0.5829  -0.8439   0.0000   0.0000   0.0000   0.5403
  -1.000   0.5247   0.01178   0.00573  -0.1489  0.7165  0.5910  -0.8516   0.0000   0.0000   0.0000   0.5335
  -0.900   0.5343   0.01215   0.00610  -0.1482  0.7128  0.5987  -0.8596   0.0000   0.0000   0.0000   0.5268
  -0.800   0.5445   0.01259   0.00654  -0.1475  0.7085  0.6045  -0.8678   0.0000   0.0000   0.0000   0.5203
  -0.700   0.5547   0.01305   0.00701  -0.1469  0.7047  0.6078  -0.8759   0.0000   0.0000   0.0000   0.5141
  -0.600   0.5652   0.01288   0.00684  -0.1470  0.7030  0.6130  -0.8842   0.0000   0.0000   0.0000   0.5091
  -0.500   0.5755   0.01271   0.00667  -0.1470  0.7009  0.6169  -0.8923   0.0000   0.0000   0.0000   0.5043
  -0.400   0.5860   0.01264   0.00661  -0.1469  0.6985  0.6182  -0.9005   0.0000   0.0000   0.0000   0.4995
  -0.300   0.5966   0.01260   0.00657  -0.1469  0.6957  0.6195  -0.9087   0.0000   0.0000   0.0000   0.4948
  -0.200   0.6072   0.01257   0.00653  -0.1469  0.6928  0.6206  -0.9170   0.0000   0.0000   0.0000   0.4903
  -0.100   0.6178   0.01254   0.00650  -0.1468  0.6897  0.6217  -0.9254   0.0000   0.0000   0.0000   0.4859
   0.000   0.6285   0.01253   0.00648  -0.1468  0.6865  0.6227  -0.9340   0.0000   0.0000   0.0000   0.4816
   0.100   0.6395   0.01252   0.00646  -0.1468  0.6834  0.6237  -0.9436   0.0000   0.0000   0.0000   0.4775
   0.200   0.6504   0.01253   0.00649  -0.1468  0.6803  0.6248  -0.9533   0.0000   0.0000   0.0000   0.4735
   0.300   0.6616   0.01254   0.00647  -0.1469  0.6773  0.6257  -0.9631   0.0000   0.0000   0.0000   0.4696
   0.400   0.6729   0.01255   0.00645  -0.1469  0.6743  0.6267  -0.9730   0.0000   0.0000   0.0000   0.4659
   0.500   0.6843   0.01258   0.00644  -0.1470  0.6711  0.6276  -0.9829   0.0000   0.0000   0.0000   0.4623
   0.600   0.6960   0.01262   0.00645  -0.1472  0.6676  0.6286  -0.9930   0.0000   0.0000   0.0000   0.4588
   0.700   0.7081   0.01269   0.00648  -0.1475  0.6637  0.6295  -1.0032   0.0000   0.0000   0.0000   0.4555
   0.800   0.7208   0.01279   0.00655  -0.1480  0.6593  0.6304  -1.0137   0.0000   0.0000   0.0000   0.4523
   0.900   0.7314   0.01279   0.00656  -0.1479  0.6578  0.6314  -1.0232   0.0000   0.0000   0.0000   0.4491
   1.000   0.7418   0.01278   0.00656  -0.1479  0.6562  0.6323  -1.0326   0.0000   0.0000   0.0000   0.4461
   1.100   0.7522   0.01277   0.00656  -0.1478  0.6543  0.6332  -1.0420   0.0000   0.0000   0.0000   0.4431
   1.200   0.7627   0.01276   0.00656  -0.1477  0.6520  0.6342  -1.0514   0.0000   0.0000   0.0000   0.4402
   1.300   0.7732   0.01276   0.00655  -0.1477  0.6496  0.6351  -1.0610   0.0000   0.0000   0.0000   0.4374
   1.400   0.7839   0.01276   0.00655  -0.1476  0.6469  0.6360  -1.0706   0.0000   0.0000   0.0000   0.4346
   1.500   0.7946   0.01276   0.00655  -0.1476  0.6440  0.6370  -1.0802   0.0000   0.0000   0.0000   0.4319
   1.600   0.8053   0.01276   0.00655  -0.1476  0.6412  0.6380  -1.0908   0.0000   0.0000   0.0000   0.4293
   1.700   0.8160   0.01277   0.00655  -0.1476  0.6383  0.6391  -1.1018   0.0000   0.0000   0.0000   0.4267
   1.800   0.8269   0.01280   0.00656  -0.1476  0.6355  0.6404  -1.1129   0.0000   0.0000   0.0000   0.4242
   1.900   0.8379   0.01283   0.00658  -0.1476  0.6328  0.6417  -1.1240   0.0000   0.0000   0.0000   0.4218
   2.000   0.8489   0.01286   0.00659  -0.1476  0.6300  0.6430  -1.1353   0.0000   0.0000   0.0000   0.4194
   2.100   0.8600   0.01290   0.00661  -0.1477  0.6271  0.6443  -1.1465   0.0000   0.0000   0.0000   0.4171
   2.200   0.8712   0.01295   0.00663  -0.1478  0.6240  0.6454  -1.1579   0.0000   0.0000   0.0000   0.4149
   2.300   0.8828   0.01302   0.00667  -0.1480  0.6205  0.6465  -1.1694   0.0000   0.0000   0.0000   0.4128
   2.400   0.8950   0.01311   0.00673  -0.1483  0.6166  0.6475  -1.1813   0.0000   0.0000   0.0000   0.4107
   2.500   0.9078   0.01325   0.00685  -0.1488  0.6119  0.6484  -1.1934   0.0000   0.0000   0.0000   0.4088
   2.600   0.9183   0.01325   0.00686  -0.1488  0.6105  0.6493  -1.2043   0.0000   0.0000   0.0000   0.4068
   2.700   0.9286   0.01324   0.00687  -0.1487  0.6089  0.6503  -1.2152   0.0000   0.0000   0.0000   0.4048
   2.800   0.9388   0.01324   0.00688  -0.1486  0.6070  0.6512  -1.2270   0.0000   0.0000   0.0000   0.4028
   2.900   0.9491   0.01324   0.00689  -0.1485  0.6048  0.6521  -1.2394   0.0000   0.0000   0.0000   0.4009
   3.000   0.9595   0.01324   0.00691  -0.1485  0.6023  0.6530  -1.2518   0.0000   0.0000   0.0000   0.3990
   3.100   0.9700   0.01325   0.00693  -0.1484  0.5997  0.6539  -1.2643   0.0000   0.0000   0.0000   0.3972
   3.200   0.9805   0.01327   0.00695  -0.1484  0.5969  0.6548  -1.2769   0.0000   0.0000   0.0000   0.3954
   3.300   0.9911   0.01329   0.00697  -0.1483  0.5942  0.6556  -1.2896   0.0000   0.0000   0.0000   0.3936
   3.400   1.0018   0.01331   0.00700  -0.1483  0.5916  0.6565  -1.3023   0.0000   0.0000   0.0000   0.3919
   3.500   1.0125   0.01334   0.00702  -0.1483  0.5888  0.6573  -1.3151   0.0000   0.0000   0.0000   0.3902
   3.600   1.0233   0.01338   0.00705  -0.1483  0.5860  0.6581  -1.3280   0.0000   0.0000   0.0000   0.3885
   3.700   1.0341   0.01341   0.00716  -0.1484  0.5833  0.6588  -1.3410   0.0000   0.0000   0.0000   0.3869
   3.800   1.0449   0.01346   0.00719  -0.1484  0.5802  0.6595  -1.3549   0.0000   0.0000   0.0000   0.3853
   3.900   1.0556   0.01352   0.00722  -0.1484  0.5768  0.6602  -1.3697   0.0000   0.0000   0.0000   0.3837
   4.000   1.0666   0.01361   0.00728  -0.1484  0.5727  0.6608  -1.3846   0.0000   0.0000   0.0000   0.3822
   4.100   1.0785   0.01375   0.00738  -0.1487  0.5678  0.6614  -1.4001   0.0000   0.0000   0.0000   0.3808
   4.200   1.0905   0.01390   0.00751  -0.1490  0.5633  0.6619  -1.4157   0.0000   0.0000   0.0000   0.3794
   4.300   1.1001   0.01390   0.00754  -0.1488  0.5619  0.6624  -1.4297   0.0000   0.0000   0.0000   0.3779
   4.400   1.1098   0.01391   0.00758  -0.1485  0.5601  0.6629  -1.4452   0.0000   0.0000   0.0000   0.3764
   4.500   1.1203   0.01386   0.00755  -0.1486  0.5581  0.6647  -1.4619   0.0000   0.0000   0.0000   0.3750
   4.600   1.1309   0.01381   0.00751  -0.1487  0.5559  0.6670  -1.4788   0.0000   0.0000   0.0000   0.3737
   4.700   1.1414   0.01379   0.00751  -0.1487  0.5535  0.6691  -1.4956   0.0000   0.0000   0.0000   0.3724
   4.800   1.1516   0.01379   0.00752  -0.1486  0.5508  0.6710  -1.5123   0.0000   0.0000   0.0000   0.3711
   4.900   1.1616   0.01379   0.00754  -0.1485  0.5479  0.6727  -1.5289   0.0000   0.0000   0.0000   0.3697
   5.000   1.1715   0.01380   0.00757  -0.1483  0.5447  0.6744  -1.5459   0.0000   0.0000   0.0000   0.3684
   5.100   1.1814   0.01382   0.00759  -0.1481  0.5413  0.6760  -1.5652   0.0000   0.0000   0.0000   0.3670
   5.200   1.1913   0.01385   0.00761  -0.1480  0.5377  0.6775  -1.5845   0.0000   0.0000   0.0000   0.3657
   5.300   1.2011   0.01389   0.00764  -0.1478  0.5339  0.6790  -1.6038   0.0000   0.0000   0.0000   0.3644
   5.400   1.2107   0.01395   0.00767  -0.1475  0.5299  0.6804  -1.6231   0.0000   0.0000   0.0000   0.3631
   5.500   1.2203   0.01404   0.00772  -0.1473  0.5246  0.6818  -1.6422   0.0000   0.0000   0.0000   0.3618
   5.600   1.2315   0.01421   0.00784  -0.1474  0.5167  0.6831  -1.6649   0.0000   0.0000   0.0000   0.3607
   5.700   1.2396   0.01420   0.00786  -0.1469  0.5134  0.6845  -1.6859   0.0000   0.0000   0.0000   0.3593
   5.800   1.2470   0.01416   0.00786  -0.1462  0.5096  0.6858  -1.7063   0.0000   0.0000   0.0000   0.3579
   5.900   1.2545   0.01414   0.00786  -0.1455  0.5042  0.6872  -1.7269   0.0000   0.0000   0.0000   0.3565
   6.000   1.2620   0.01414   0.00786  -0.1448  0.4971  0.6887  -1.7475   0.0000   0.0000   0.0000   0.3551
   6.100   1.2689   0.01418   0.00785  -0.1440  0.4890  0.6902  -1.7677   0.0000   0.0000   0.0000   0.3537
   6.200   1.2751   0.01427   0.00786  -0.1431  0.4801  0.6919  -1.7870   0.0000   0.0000   0.0000   0.3523
   6.300   1.2809   0.01444   0.00794  -0.1421  0.4695  0.6935  -1.8057   0.0000   0.0000   0.0000   0.3509
   6.400   1.2884   0.01447   0.00800  -0.1415  0.4637  0.6953  -1.8265   0.0000   0.0000   0.0000   0.3496
   6.500   1.2955   0.01452   0.00806  -0.1408  0.4566  0.6970  -1.8472   0.0000   0.0000   0.0000   0.3483
   6.600   1.3020   0.01461   0.00811  -0.1400  0.4476  0.6987  -1.8709   0.0000   0.0000   0.0000   0.3470
   6.700   1.3072   0.01473   0.00818  -0.1389  0.4382  0.7003  -1.8928   0.0000   0.0000   0.0000   0.3456
   6.800   1.3111   0.01489   0.00826  -0.1376  0.4291  0.7018  -1.9131   0.0000   0.0000   0.0000   0.3442
   6.900   1.3156   0.01507   0.00838  -0.1365  0.4205  0.7032  -1.9363   0.0000   0.0000   0.0000   0.3428
   7.000   1.3243   0.01514   0.00848  -0.1361  0.4166  0.7046  -1.9681   0.0000   0.0000   0.0000   0.3417
   7.100   1.3326   0.01523   0.00858  -0.1357  0.4119  0.7060  -1.9995   0.0000   0.0000   0.0000   0.3406
   7.200   1.3403   0.01534   0.00870  -0.1352  0.4064  0.7073  -2.0301   0.0000   0.0000   0.0000   0.3395
   7.300   1.3473   0.01548   0.00882  -0.1345  0.4001  0.7086  -2.0596   0.0000   0.0000   0.0000   0.3383
   7.400   1.3535   0.01565   0.00895  -0.1337  0.3932  0.7099  -2.0879   0.0000   0.0000   0.0000   0.3371
   7.500   1.3767   0.01558   0.00937  -0.1361  0.4189  0.7112  -2.1471   0.0000   0.0000   0.0000   0.3371
   7.600   1.3856   0.01567   0.00950  -0.1358  0.4166  0.7124  -2.1809   0.0000   0.0000   0.0000   0.3361
   7.700   1.3934   0.01577   0.00963  -0.1353  0.4121  0.7136  -2.2128   0.0000   0.0000   0.0000   0.3350
   7.800   1.4002   0.01590   0.00977  -0.1346  0.4060  0.7146  -2.2554   0.0000   0.0000   0.0000   0.3339
   7.900   1.4060   0.01606   0.00991  -0.1337  0.3986  0.7156  -2.3258   0.0000   0.0000   0.0000   0.3327
   8.000   1.4105   0.01627   0.01006  -0.1327  0.3904  0.7164  -2.3913   0.0000   0.0000   0.0000   0.3315
   8.100   1.4140   0.01651   0.01023  -0.1314  0.3815  0.7189  -2.4529   0.0000   0.0000   0.0000   0.3302
   8.200   1.4188   0.01671   0.01041  -0.1305  0.3734  0.7222  -2.5198   0.0000   0.0000   0.0000   0.3291
   8.300   1.4263   0.01682   0.01055  -0.1300  0.3681  0.7255  -2.5987   0.0000   0.0000   0.0000   0.3281
   8.400   1.4329   0.01697   0.01072  -0.1293  0.3618  0.7286  -2.6743   0.0000   0.0000   0.0000   0.3271
   8.500   1.4382   0.01716   0.01091  -0.1285  0.3545  0.7315  -2.7456   0.0000   0.0000   0.0000   0.3260
   8.600   1.4424   0.01741   0.01113  -0.1274  0.3468  0.7344  -2.8129   0.0000   0.0000   0.0000   0.3248
   8.700   1.4456   0.01770   0.01138  -0.1262  0.3390  0.7371  -2.8761   0.0000   0.0000   0.0000   0.3236
   8.800   1.4486   0.01800   0.01165  -0.1250  0.3311  0.7399  -2.9390   0.0000   0.0000   0.0000   0.3225
   8.900   1.4553   0.01817   0.01185  -0.1244  0.3262  0.7427  -3.0184   0.0000   0.0000   0.0000   0.3215
   9.000   1.4616   0.01837   0.01207  -0.1237  0.3202  0.7456  -3.0965   0.0000   0.0000   0.0000   0.3205
   9.100   1.4664   0.01862   0.01233  -0.1228  0.3127  0.7486  -3.1683   0.0000   0.0000   0.0000   0.3195
   9.200   1.4693   0.01895   0.01263  -0.1216  0.3043  0.7514  -3.2328   0.0000   0.0000   0.0000   0.3183
   9.300   1.4707   0.01936   0.01297  -0.1203  0.2954  0.7543  -3.2908   0.0000   0.0000   0.0000   0.3172
   9.400   1.4721   0.01978   0.01334  -0.1190  0.2862  0.7571  -3.3492   0.0000   0.0000   0.0000   0.3160
   9.500   1.4780   0.02004   0.01360  -0.1183  0.2792  0.7600  -3.4276   0.0000   0.0000   0.0000   0.3151
   9.600   1.4814   0.02039   0.01394  -0.1173  0.2702  0.7627  -3.4959   0.0000   0.0000   0.0000   0.3141
   9.700   1.4826   0.02087   0.01437  -0.1160  0.2606  0.7652  -3.5541   0.0000   0.0000   0.0000   0.3130
   9.800   1.4823   0.02143   0.01486  -0.1146  0.2510  0.7675  -3.6056   0.0000   0.0000   0.0000   0.3118
  10.000   1.4889   0.02222   0.01563  -0.1128  0.2345  0.7770  -3.7415   0.0000   0.0000   0.0000   0.3099
  10.100   1.4908   0.02268   0.01608  -0.1117  0.2256  0.7824  -3.8032   0.0000   0.0000   0.0000   0.3089
  10.200   1.4903   0.02328   0.01664  -0.1103  0.2168  0.7876  -3.8541   0.0000   0.0000   0.0000   0.3079
  10.300   1.4893   0.02393   0.01725  -0.1090  0.2078  0.7928  -3.9024   0.0000   0.0000   0.0000   0.3068
  10.400   1.4925   0.02437   0.01770  -0.1081  0.2004  0.7984  -3.9704   0.0000   0.0000   0.0000   0.3059
  10.500   1.4944   0.02488   0.01820  -0.1071  0.1919  0.8042  -4.0326   0.0000   0.0000   0.0000   0.3050
  10.600   1.4940   0.02554   0.01882  -0.1059  0.1830  0.8099  -4.0830   0.0000   0.0000   0.0000   0.3040
  10.700   1.4919   0.02635   0.01957  -0.1046  0.1741  0.8155  -4.1257   0.0000   0.0000   0.0000   0.3031
  10.900   1.4933   0.02757   0.02079  -0.1026  0.1579  0.8343  -4.2356   0.0000   0.0000   0.0000   0.3013
  11.000   1.4914   0.02835   0.02155  -0.1013  0.1490  0.8460  -4.2773   0.0000   0.0000   0.0000   0.3003
  11.100   1.4879   0.02928   0.02243  -0.1000  0.1399  0.8595  -4.3105   0.0000   0.0000   0.0000   0.2994
  11.200   1.4857   0.02996   0.02313  -0.0985  0.1315  0.8840  -4.3491   0.0000   0.0000   0.0000   0.2983
  11.300   1.4791   0.03056   0.02376  -0.0964  0.1236  1.0000  -4.3681   0.0000   0.0000   0.0000   0.2970
  11.400   1.4730   0.03194   0.02502  -0.0953  0.1111  1.0000  -4.3870   0.0000   0.0000   0.0000   0.2963
  11.500   1.4686   0.03323   0.02621  -0.0943  0.0974  1.0000  -4.4116   0.0000   0.0000   0.0000   0.2956
  11.600   1.4621   0.03470   0.02756  -0.0932  0.0844  1.0000  -4.4266   0.0000   0.0000   0.0000   0.2950
  11.700   1.4575   0.03604   0.02882  -0.0923  0.0726  1.0000  -4.4480   0.0000   0.0000   0.0000   0.2943
  11.800   1.4516   0.03753   0.03023  -0.0914  0.0622  1.0000  -4.4625   0.0000   0.0000   0.0000   0.2938
  11.900   1.4463   0.03899   0.03160  -0.0906  0.0516  1.0000  -4.4782   0.0000   0.0000   0.0000   0.2932
  12.000   1.4404   0.04052   0.03306  -0.0898  0.0411  1.0000  -4.4905   0.0000   0.0000   0.0000   0.2927
  12.100   1.4347   0.04207   0.03455  -0.0890  0.0321  1.0000  -4.5022   0.0000   0.0000   0.0000   0.2922
  12.300   1.4220   0.04533   0.03772  -0.0877  0.0178  1.0000  -4.5201   0.0000   0.0000   0.0000   0.2914
  12.400   1.4194   0.04661   0.03900  -0.0872  0.0149  1.0000  -4.5417   0.0000   0.0000   0.0000   0.2910
  12.500   1.4178   0.04782   0.04023  -0.0867  0.0125  1.0000  -4.5645   0.0000   0.0000   0.0000   0.2905
  12.600   1.4173   0.04899   0.04145  -0.0864  0.0107  1.0000  -4.5841   0.0000   0.0000   0.0000   0.2901
  12.700   1.4148   0.05043   0.04302  -0.0860  0.0095  1.0000  -4.5664   0.0000   0.0000   0.0000   0.2897
  12.800   1.4151   0.05156   0.04421  -0.0857  0.0093  1.0000  -4.5984   0.0000   0.0000   0.0000   0.2893
  12.900   1.4158   0.05265   0.04536  -0.0855  0.0091  1.0000  -4.6355   0.0000   0.0000   0.0000   0.2889
  13.000   1.4166   0.05375   0.04652  -0.0853  0.0090  1.0000  -4.6749   0.0000   0.0000   0.0000   0.2885
  13.100   1.4174   0.05487   0.04769  -0.0851  0.0089  1.0000  -4.7150   0.0000   0.0000   0.0000   0.2881
  13.200   1.4181   0.05602   0.04890  -0.0849  0.0088  1.0000  -4.7546   0.0000   0.0000   0.0000   0.2877
  13.300   1.4175   0.05735   0.05030  -0.0848  0.0088  1.0000  -4.7887   0.0000   0.0000   0.0000   0.2875
  13.400   1.4168   0.05872   0.05173  -0.0847  0.0087  1.0000  -4.8224   0.0000   0.0000   0.0000   0.2872
  13.500   1.4165   0.06004   0.05312  -0.0847  0.0087  1.0000  -4.8578   0.0000   0.0000   0.0000   0.2870
  13.600   1.4163   0.06136   0.05451  -0.0846  0.0086  1.0000  -4.8936   0.0000   0.0000   0.0000   0.2867
  13.700   1.4159   0.06271   0.05592  -0.0845  0.0086  1.0000  -4.9286   0.0000   0.0000   0.0000   0.2864
  13.800   1.4153   0.06409   0.05737  -0.0845  0.0085  1.0000  -4.9628   0.0000   0.0000   0.0000   0.2862
  13.900   1.4145   0.06553   0.05887  -0.0845  0.0085  1.0000  -4.9955   0.0000   0.0000   0.0000   0.2860
  14.000   1.4125   0.06716   0.06056  -0.0846  0.0085  1.0000  -5.0218   0.0000   0.0000   0.0000   0.2860
  14.100   1.4102   0.06884   0.06232  -0.0847  0.0085  1.0000  -5.0463   0.0000   0.0000   0.0000   0.2859
  14.200   1.4086   0.07043   0.06396  -0.0848  0.0085  1.0000  -5.0741   0.0000   0.0000   0.0000   0.2858
  14.300   1.4072   0.07198   0.06558  -0.0849  0.0085  1.0000  -5.1031   0.0000   0.0000   0.0000   0.2857
  14.400   1.4059   0.07353   0.06719  -0.0850  0.0085  1.0000  -5.1316   0.0000   0.0000   0.0000   0.2856
  14.500   1.4043   0.07511   0.06883  -0.0851  0.0084  1.0000  -5.1590   0.0000   0.0000   0.0000   0.2856
  14.600   1.4025   0.07672   0.07051  -0.0853  0.0084  1.0000  -5.1845   0.0000   0.0000   0.0000   0.2855
  14.700   1.3997   0.07852   0.07238  -0.0855  0.0084  1.0000  -5.2043   0.0000   0.0000   0.0000   0.2856
  14.800   1.3965   0.08041   0.07433  -0.0859  0.0084  1.0000  -5.2216   0.0000   0.0000   0.0000   0.2858
  14.900   1.3939   0.08216   0.07615  -0.0861  0.0084  1.0000  -5.2422   0.0000   0.0000   0.0000   0.2859
  15.000   1.3918   0.08385   0.07789  -0.0864  0.0085  1.0000  -5.2643   0.0000   0.0000   0.0000   0.2859
  15.100   1.3898   0.08550   0.07960  -0.0867  0.0085  1.0000  -5.2867   0.0000   0.0000   0.0000   0.2860
  15.200   1.3879   0.08712   0.08128  -0.0869  0.0085  1.0000  -5.3097   0.0000   0.0000   0.0000   0.2861
  15.300   1.3862   0.08874   0.08296  -0.0872  0.0085  1.0000  -5.3325   0.0000   0.0000   0.0000   0.2861
  15.400   1.3843   0.09037   0.08465  -0.0875  0.0085  1.0000  -5.3541   0.0000   0.0000   0.0000   0.2862
  15.500   1.3813   0.09221   0.08655  -0.0880  0.0085  1.0000  -5.3690   0.0000   0.0000   0.0000   0.2865
  15.600   1.3784   0.09401   0.08842  -0.0885  0.0085  1.0000  -5.3842   0.0000   0.0000   0.0000   0.2867
  15.700   1.3763   0.09567   0.09013  -0.0889  0.0085  1.0000  -5.4028   0.0000   0.0000   0.0000   0.2869
  15.800   1.3746   0.09723   0.09175  -0.0892  0.0085  1.0000  -5.4233   0.0000   0.0000   0.0000   0.2870
  15.900   1.3733   0.09874   0.09331  -0.0896  0.0086  1.0000  -5.4453   0.0000   0.0000   0.0000   0.2871
  16.000   1.3721   0.10020   0.09483  -0.0899  0.0086  1.0000  -5.4675   0.0000   0.0000   0.0000   0.2871
  16.100   1.3710   0.10165   0.09633  -0.0902  0.0086  1.0000  -5.4895   0.0000   0.0000   0.0000   0.2872
  16.200   1.3700   0.10301   0.09775  -0.0906  0.0086  1.0000  -5.5111   0.0000   0.0000   0.0000   0.2873
  16.300   1.3690   0.10430   0.09909  -0.0909  0.0086  1.0000  -5.5324   0.0000   0.0000   0.0000   0.2873
  16.400   1.3680   0.10555   0.10040  -0.0913  0.0087  1.0000  -5.5534   0.0000   0.0000   0.0000   0.2874
  16.500   1.3669   0.10686   0.10177  -0.0916  0.0087  1.0000  -5.5725   0.0000   0.0000   0.0000   0.2875
  16.600   1.3652   0.10828   0.10325  -0.0921  0.0087  1.0000  -5.5881   0.0000   0.0000   0.0000   0.2877
  16.700   1.3638   0.10969   0.10471  -0.0926  0.0088  1.0000  -5.6043   0.0000   0.0000   0.0000   0.2879
  16.800   1.3628   0.11104   0.10613  -0.0930  0.0088  1.0000  -5.6219   0.0000   0.0000   0.0000   0.2880
  16.900   1.3621   0.11237   0.10751  -0.0934  0.0088  1.0000  -5.6401   0.0000   0.0000   0.0000   0.2881
  17.000   1.3616   0.11368   0.10889  -0.0938  0.0089  1.0000  -5.6586   0.0000   0.0000   0.0000   0.2882
  17.100   1.3611   0.11501   0.11028  -0.0942  0.0089  1.0000  -5.6763   0.0000   0.0000   0.0000   0.2882
  17.200   1.3605   0.11636   0.11170  -0.0945  0.0090  1.0000  -5.6927   0.0000   0.0000   0.0000   0.2883
  17.300   1.3599   0.11775   0.11316  -0.0950  0.0090  1.0000  -5.7075   0.0000   0.0000   0.0000   0.2884
  17.400   1.3591   0.11919   0.11466  -0.0954  0.0090  1.0000  -5.7203   0.0000   0.0000   0.0000   0.2886
  17.500   1.3582   0.12070   0.11624  -0.0959  0.0091  1.0000  -5.7308   0.0000   0.0000   0.0000   0.2887
  17.600   1.3569   0.12228   0.11789  -0.0964  0.0091  1.0000  -5.7385   0.0000   0.0000   0.0000   0.2889
  17.700   1.3554   0.12396   0.11964  -0.0970  0.0092  1.0000  -5.7431   0.0000   0.0000   0.0000   0.2892
  17.800   1.3535   0.12574   0.12150  -0.0976  0.0092  1.0000  -5.7441   0.0000   0.0000   0.0000   0.2896
  17.900   1.3511   0.12765   0.12349  -0.0984  0.0093  1.0000  -5.7410   0.0000   0.0000   0.0000   0.2900
  18.000   1.3476   0.12984   0.12576  -0.0993  0.0093  1.0000  -5.7307   0.0000   0.0000   0.0000   0.2907
  18.100   1.3435   0.13222   0.12822  -0.1004  0.0094  1.0000  -5.7153   0.0000   0.0000   0.0000   0.2915
  18.200   1.3395   0.13462   0.13070  -0.1015  0.0094  1.0000  -5.6982   0.0000   0.0000   0.0000   0.2923
  18.300   1.3353   0.13708   0.13325  -0.1026  0.0095  1.0000  -5.6784   0.0000   0.0000   0.0000   0.2932
  18.400   1.3309   0.13966   0.13591  -0.1038  0.0095  1.0000  -5.6545   0.0000   0.0000   0.0000   0.2941
  18.500   1.3260   0.14240   0.13874  -0.1051  0.0096  1.0000  -5.6254   0.0000   0.0000   0.0000   0.2951
  18.600   1.3205   0.14533   0.14177  -0.1064  0.0096  1.0000  -5.5901   0.0000   0.0000   0.0000   0.2963
  18.700   1.3142   0.14854   0.14506  -0.1080  0.0097  1.0000  -5.5473   0.0000   0.0000   0.0000   0.2977
  18.800   1.3065   0.15217   0.14878  -0.1099  0.0097  1.0000  -5.4960   0.0000   0.0000   0.0000   0.2994
  18.900   1.2988   0.15590   0.15260  -0.1118  0.0098  1.0000  -5.4378   0.0000   0.0000   0.0000   0.3012
  19.000   1.2901   0.15991   0.15670  -0.1137  0.0098  1.0000  -5.3652   0.0000   0.0000   0.0000   0.3031
  19.100   1.2765   0.16528   0.16220  -0.1163  0.0099  1.0000  -5.2290   0.0000   0.0000   0.0000   0.3059
  19.200   1.2711   0.16874   0.16576  -0.1179  0.0100  1.0000  -5.1855   0.0000   0.0000   0.0000   0.3075
  19.300   1.2680   0.17170   0.16877  -0.1196  0.0101  1.0000  -5.1810   0.0000   0.0000   0.0000   0.3088
  19.400   1.2658   0.17442   0.17153  -0.1210  0.0101  1.0000  -5.1845   0.0000   0.0000   0.0000   0.3099
  19.500   1.2644   0.17696   0.17411  -0.1223  0.0102  1.0000  -5.1932   0.0000   0.0000   0.0000   0.3108
  19.600   1.2631   0.17948   0.17666  -0.1236  0.0103  1.0000  -5.2028   0.0000   0.0000   0.0000   0.3118
  19.700   1.2618   0.18204   0.17926  -0.1250  0.0103  1.0000  -5.2113   0.0000   0.0000   0.0000   0.3127
  19.800   1.2602   0.18472   0.18198  -0.1263  0.0104  1.0000  -5.2162   0.0000   0.0000   0.0000   0.3137
  19.900   1.2568   0.18797   0.18528  -0.1280  0.0105  1.0000  -5.2029   0.0000   0.0000   0.0000   0.3151
  20.000   1.2522   0.19164   0.18900  -0.1299  0.0105  1.0000  -5.1764   0.0000   0.0000   0.0000   0.3168
  20.100   1.2491   0.19490   0.19231  -0.1315  0.0106  1.0000  -5.1622   0.0000   0.0000   0.0000   0.3182
  20.200   1.2462   0.19811   0.19555  -0.1331  0.0106  1.0000  -5.1496   0.0000   0.0000   0.0000   0.3196
  20.300   1.2431   0.20143   0.19892  -0.1347  0.0107  1.0000  -5.1336   0.0000   0.0000   0.0000   0.3209
  20.400   1.2390   0.20516   0.20270  -0.1365  0.0108  1.0000  -5.1043   0.0000   0.0000   0.0000   0.3226
  20.500   1.2317   0.21004   0.20763  -0.1388  0.0108  1.0000  -5.0394   0.0000   0.0000   0.0000   0.3250
  20.600   1.2263   0.21430   0.21194  -0.1407  0.0109  1.0000  -4.9923   0.0000   0.0000   0.0000   0.3270
  20.700   1.2211   0.21857   0.21626  -0.1426  0.0110  1.0000  -4.9443   0.0000   0.0000   0.0000   0.3289
  20.800   1.2145   0.22345   0.22119  -0.1448  0.0111  1.0000  -4.8768   0.0000   0.0000   0.0000   0.3312
  20.900   1.2045   0.22967   0.22747  -0.1474  0.0111  1.0000  -4.7664   0.0000   0.0000   0.0000   0.3344
  21.000   1.1962   0.23532   0.23317  -0.1497  0.0112  1.0000  -4.6704   0.0000   0.0000   0.0000   0.3372
  21.100   1.1848   0.24239   0.24029  -0.1524  0.0114  1.0000  -4.5267   0.0000   0.0000   0.0000   0.3407
  21.200   1.1704   0.25086   0.24882  -0.1553  0.0115  1.0000  -4.3285   0.0000   0.0000   0.0000   0.3450
  21.400   0.9532   0.29507   0.29324  -0.1567  0.0268  1.0000  -1.6704   0.0000   0.0000   0.0000   0.3832
  21.500   0.9472   0.29573   0.29391  -0.1568  0.0267  1.0000  -1.6380   0.0000   0.0000   0.0000   0.3843
  21.600   0.9420   0.29641   0.29466  -0.1569  0.0266  1.0000  -1.6057   0.0000   0.0000   0.0000   0.3853
  21.700   0.9376   0.29706   0.29532  -0.1570  0.0264  1.0000  -1.5822   0.0000   0.0000   0.0000   0.3861
  21.800   0.9338   0.29770   0.29597  -0.1571  0.0262  1.0000  -1.5640   0.0000   0.0000   0.0000   0.3869
  21.900   0.9305   0.29832   0.29659  -0.1572  0.0259  1.0000  -1.5492   0.0000   0.0000   0.0000   0.3876
  22.000   0.9275   0.29892   0.29721  -0.1574  0.0257  1.0000  -1.5374   0.0000   0.0000   0.0000   0.3882
  22.100   0.9249   0.29951   0.29781  -0.1575  0.0255  1.0000  -1.5280   0.0000   0.0000   0.0000   0.3888
  22.200   0.9225   0.30008   0.29839  -0.1577  0.0252  1.0000  -1.5210   0.0000   0.0000   0.0000   0.3893
  22.300   0.9204   0.30064   0.29895  -0.1578  0.0250  1.0000  -1.5161   0.0000   0.0000   0.0000   0.3897
  22.400   0.9186   0.30118   0.29950  -0.1580  0.0248  1.0000  -1.5131   0.0000   0.0000   0.0000   0.3901
  22.500   0.9169   0.30169   0.30002  -0.1581  0.0245  1.0000  -1.5121   0.0000   0.0000   0.0000   0.3905
  22.600   0.9155   0.30219   0.30053  -0.1582  0.0243  1.0000  -1.5129   0.0000   0.0000   0.0000   0.3908
  22.700   0.9142   0.30267   0.30101  -0.1583  0.0241  1.0000  -1.5155   0.0000   0.0000   0.0000   0.3910
  22.800   0.9131   0.30312   0.30147  -0.1585  0.0239  1.0000  -1.5198   0.0000   0.0000   0.0000   0.3912
  22.900   0.9122   0.30355   0.30191  -0.1585  0.0237  1.0000  -1.5259   0.0000   0.0000   0.0000   0.3913
  23.000   0.9114   0.30396   0.30233  -0.1586  0.0235  1.0000  -1.5338   0.0000   0.0000   0.0000   0.3914
  23.100   0.9107   0.30437   0.30275  -0.1587  0.0233  1.0000  -1.5420   0.0000   0.0000   0.0000   0.3914
  23.200   0.9100   0.30477   0.30316  -0.1587  0.0231  1.0000  -1.5505   0.0000   0.0000   0.0000   0.3915
  23.300   0.9093   0.30517   0.30356  -0.1588  0.0229  1.0000  -1.5599   0.0000   0.0000   0.0000   0.3915


