xflr5 v6.61

 Calculated polar for: EPPLER 393 AIRFOIL

 1 1 Reynolds number fixed          Mach number fixed         

 xtrf =   1.000 (top)        1.000 (bottom)
 Mach =   0.000     Re =     0.100 e 6     Ncrit =   9.000

  alpha     CL        CD       CDp       Cm    Top Xtr Bot Xtr   Cpmin    Chinge    XCp    
 ------- -------- --------- --------- -------- ------- ------- -------- --------- ---------
 -10.000  -0.3027   0.11620   0.11115  -0.0421  1.0000  0.0733  -1.3157   0.0000   0.0000   0.0000   0.0987
  -9.900  -0.3040   0.11556   0.11055  -0.0427  1.0000  0.0743  -1.3345   0.0000   0.0000   0.0000   0.0974
  -9.800  -0.3061   0.11515   0.11017  -0.0435  1.0000  0.0753  -1.3579   0.0000   0.0000   0.0000   0.0961
  -9.700  -0.3086   0.11495   0.11001  -0.0444  1.0000  0.0761  -1.3830   0.0000   0.0000   0.0000   0.0948
  -9.600  -0.3113   0.11476   0.10986  -0.0451  1.0000  0.0767  -1.4065   0.0000   0.0000   0.0000   0.0939
  -9.500  -0.3136   0.11443   0.10956  -0.0457  1.0000  0.0772  -1.4263   0.0000   0.0000   0.0000   0.0935
  -9.400  -0.3147   0.11392   0.10909  -0.0460  1.0000  0.0775  -1.4387   0.0000   0.0000   0.0000   0.0931
  -9.300  -0.3158   0.11329   0.10849  -0.0463  1.0000  0.0777  -1.4505   0.0000   0.0000   0.0000   0.0930
  -9.200  -0.3171   0.11257   0.10781  -0.0465  1.0000  0.0779  -1.4619   0.0000   0.0000   0.0000   0.0933
  -9.100  -0.3186   0.11179   0.10707  -0.0466  1.0000  0.0780  -1.4733   0.0000   0.0000   0.0000   0.0938
  -9.000  -0.3203   0.11099   0.10630  -0.0466  1.0000  0.0781  -1.4848   0.0000   0.0000   0.0000   0.0947
  -8.900  -0.3224   0.11017   0.10552  -0.0466  1.0000  0.0782  -1.4964   0.0000   0.0000   0.0000   0.0959
  -8.800  -0.3248   0.10936   0.10475  -0.0465  1.0000  0.0782  -1.5082   0.0000   0.0000   0.0000   0.0976
  -8.700  -0.3276   0.10857   0.10399  -0.0462  1.0000  0.0783  -1.5204   0.0000   0.0000   0.0000   0.0997
  -8.600  -0.3310   0.10781   0.10328  -0.0459  1.0000  0.0783  -1.5328   0.0000   0.0000   0.0000   0.1024
  -8.500  -0.3350   0.10710   0.10261  -0.0455  1.0000  0.0784  -1.5457   0.0000   0.0000   0.0000   0.1057
  -8.400  -0.3397   0.10645   0.10200  -0.0448  1.0000  0.0784  -1.5589   0.0000   0.0000   0.0000   0.1096
  -8.300  -0.3453   0.10588   0.10149  -0.0441  1.0000  0.0784  -1.5725   0.0000   0.0000   0.0000   0.1143
  -8.200  -0.3518   0.10541   0.10106  -0.0431  1.0000  0.0785  -1.5865   0.0000   0.0000   0.0000   0.1197
  -8.100  -0.3592   0.10504   0.10075  -0.0419  1.0000  0.0785  -1.6008   0.0000   0.0000   0.0000   0.1258
  -8.000  -0.3673   0.10475   0.10052  -0.0406  1.0000  0.0785  -1.6155   0.0000   0.0000   0.0000   0.1322
  -7.900  -0.3759   0.10450   0.10032  -0.0393  1.0000  0.0785  -1.6304   0.0000   0.0000   0.0000   0.1385
  -7.800  -0.3721   0.09571   0.09157  -0.0393  1.0000  0.0816  -1.6447   0.0000   0.0000   0.0000   0.1372
  -7.700  -0.3700   0.09447   0.09035  -0.0378  1.0000  0.0824  -1.6159   0.0000   0.0000   0.0000   0.1407
  -7.600  -0.3745   0.09393   0.08985  -0.0362  1.0000  0.0829  -1.6101   0.0000   0.0000   0.0000   0.1464
  -7.500  -0.3815   0.09363   0.08959  -0.0345  1.0000  0.0831  -1.6124   0.0000   0.0000   0.0000   0.1529
  -7.400  -0.3901   0.09346   0.08947  -0.0328  1.0000  0.0833  -1.6197   0.0000   0.0000   0.0000   0.1595
  -7.300  -0.3995   0.09335   0.08942  -0.0311  1.0000  0.0834  -1.6296   0.0000   0.0000   0.0000   0.1660
  -7.200  -0.4088   0.09322   0.08933  -0.0295  1.0000  0.0835  -1.6395   0.0000   0.0000   0.0000   0.1720
  -7.100  -0.4169   0.09299   0.08914  -0.0280  1.0000  0.0837  -1.6469   0.0000   0.0000   0.0000   0.1770
  -7.000  -0.4129   0.09186   0.08802  -0.0279  0.9990  0.0847  -1.6228   0.0000   0.0000   0.0000   0.1768
  -6.900  -0.4016   0.09019   0.08634  -0.0291  0.9969  0.0862  -1.5880   0.0000   0.0000   0.0000   0.1716
  -6.800  -0.3915   0.08849   0.08463  -0.0310  0.9940  0.0877  -1.5653   0.0000   0.0000   0.0000   0.1650
  -6.700  -0.3816   0.08670   0.08283  -0.0334  0.9909  0.0893  -1.5504   0.0000   0.0000   0.0000   0.1565
  -6.600  -0.3710   0.08475   0.08087  -0.0365  0.9881  0.0910  -1.5419   0.0000   0.0000   0.0000   0.1455
  -6.500  -0.3624   0.08282   0.07894  -0.0395  0.9842  0.0926  -1.5406   0.0000   0.0000   0.0000   0.1348
  -6.400  -0.3535   0.08075   0.07686  -0.0430  0.9797  0.0942  -1.5440   0.0000   0.0000   0.0000   0.1221
  -6.300  -0.3425   0.07836   0.07446  -0.0475  0.9758  0.0961  -1.5523   0.0000   0.0000   0.0000   0.1050
  -6.200  -0.3293   0.07560   0.07167  -0.0533  0.9727  0.0981  -1.5678   0.0000   0.0000   0.0000   0.0819
  -6.100  -0.3101   0.07474   0.07053  -0.0684  0.9613  0.1085  -1.6577   0.0000   0.0000   0.0000   0.0230
  -6.000  -0.2969   0.07313   0.06879  -0.0727  0.9575  0.1090  -1.6704   0.0000   0.0000   0.0000  -0.0015
  -5.900  -0.2969   0.06662   0.06225  -0.0778  0.9550  0.1111  -1.7430   0.0000   0.0000   0.0000  -0.0187
  -5.800  -0.2905   0.06264   0.05829  -0.0800  0.9534  0.1133  -1.7452   0.0000   0.0000   0.0000  -0.0322
  -5.700  -0.2712   0.05139   0.04646  -0.0863  0.9523  0.0494  -2.2300   0.0000   0.0000   0.0000  -0.0762
  -5.600  -0.2705   0.04958   0.04458  -0.0864  0.9462  0.0484  -2.2518   0.0000   0.0000   0.0000  -0.0774
  -5.500  -0.2621   0.04714   0.04200  -0.0882  0.9420  0.0470  -2.2786   0.0000   0.0000   0.0000  -0.0947
  -5.400  -0.2504   0.04460   0.03926  -0.0905  0.9388  0.0456  -2.3084   0.0000   0.0000   0.0000  -0.1200
  -5.300  -0.2364   0.04204   0.03647  -0.0930  0.9362  0.0443  -2.3407   0.0000   0.0000   0.0000  -0.1523
  -5.200  -0.2207   0.03957   0.03372  -0.0954  0.9341  0.0432  -2.3727   0.0000   0.0000   0.0000  -0.1918
  -5.100  -0.2038   0.03729   0.03114  -0.0977  0.9323  0.0424  -2.3999   0.0000   0.0000   0.0000  -0.2397
  -5.000  -0.1862   0.03527   0.02881  -0.0999  0.9307  0.0422  -2.4186   0.0000   0.0000   0.0000  -0.2976
  -4.900  -0.1677   0.03337   0.02642  -0.1019  0.9294  0.0429  -2.4536   0.0000   0.0000   0.0000  -0.3697
  -4.800  -0.1488   0.03190   0.02468  -0.1037  0.9282  0.0437  -2.4417   0.0000   0.0000   0.0000  -0.4609
  -4.700  -0.1420   0.03113   0.02377  -0.1033  0.9235  0.0444  -2.4314   0.0000   0.0000   0.0000  -0.4912
  -4.600  -0.1326   0.03034   0.02282  -0.1032  0.9189  0.0454  -2.4135   0.0000   0.0000   0.0000  -0.5433
  -4.500  -0.1190   0.02950   0.02181  -0.1038  0.9155  0.0469  -2.3833   0.0000   0.0000   0.0000  -0.6389
  -4.400  -0.1035   0.02874   0.02089  -0.1047  0.9126  0.0487  -2.3405   0.0000   0.0000   0.0000  -0.7801
  -4.300  -0.0868   0.02818   0.02018  -0.1056  0.9099  0.0506  -2.2797   0.0000   0.0000   0.0000  -0.9883
  -4.200  -0.0703   0.02683   0.01868  -0.1072  0.9079  0.0564  -2.2186   0.0000   0.0000   0.0000  -1.3007
  -4.100  -0.0540   0.02685   0.01890  -0.1089  0.9055  0.0666  -2.0607   0.0000   0.0000   0.0000  -1.7978
  -4.000  -0.0355   0.02671   0.01872  -0.1103  0.9036  0.0736  -1.9544   0.0000   0.0000   0.0000  -2.9041
  -3.900  -0.0163   0.02595   0.01782  -0.1116  0.9022  0.0757  -1.8889   0.0000   0.0000   0.0000  -6.7194
  -3.800   0.0031   0.02511   0.01684  -0.1129  0.9010  0.0770  -1.8274   0.0000   0.0000   0.0000  36.6413
  -3.700   0.0225   0.02429   0.01591  -0.1142  0.9000  0.0789  -1.7657   0.0000   0.0000   0.0000   5.3913
  -3.600   0.0400   0.02259   0.01420  -0.1153  0.8992  0.0860  -1.7392   0.0000   0.0000   0.0000   3.1747
  -3.500   0.0467   0.02223   0.01389  -0.1146  0.8951  0.0933  -1.7282   0.0000   0.0000   0.0000   2.7388
  -3.400   0.0506   0.02203   0.01368  -0.1134  0.8896  0.1047  -1.7519   0.0000   0.0000   0.0000   2.5181
  -3.300   0.0631   0.02113   0.01290  -0.1137  0.8866  0.1429  -1.8043   0.0000   0.0000   0.0000   2.0754
  -3.200   0.0765   0.02030   0.01246  -0.1146  0.8838  0.2019  -1.7834   0.0000   0.0000   0.0000   1.7670
  -3.100   0.0913   0.01941   0.01209  -0.1157  0.8816  0.2967  -1.7477   0.0000   0.0000   0.0000   1.5322
  -3.000   0.1052   0.01893   0.01213  -0.1163  0.8793  0.4214  -1.6910   0.0000   0.0000   0.0000   1.3684
  -2.900   0.1180   0.01883   0.01229  -0.1163  0.8769  0.4936  -1.6269   0.0000   0.0000   0.0000   1.2469
  -2.800   0.1319   0.01884   0.01233  -0.1165  0.8747  0.5386  -1.5584   0.0000   0.0000   0.0000   1.1426
  -2.700   0.1452   0.01883   0.01238  -0.1164  0.8726  0.5692  -1.4902   0.0000   0.0000   0.0000   1.0598
  -2.600   0.1602   0.01882   0.01232  -0.1168  0.8708  0.5937  -1.4188   0.0000   0.0000   0.0000   0.9863
  -2.500   0.1731   0.01881   0.01237  -0.1165  0.8690  0.6167  -1.3514   0.0000   0.0000   0.0000   0.9295
  -2.400   0.1887   0.01888   0.01234  -0.1170  0.8674  0.6394  -1.2789   0.0000   0.0000   0.0000   0.8758
  -2.300   0.2011   0.01881   0.01234  -0.1166  0.8658  0.6569  -1.2146   0.0000   0.0000   0.0000   0.8351
  -2.200   0.2054   0.01901   0.01255  -0.1152  0.8618  0.6702  -1.1744   0.0000   0.0000   0.0000   0.8160
  -2.100   0.2077   0.01923   0.01276  -0.1137  0.8564  0.6829  -1.1408   0.0000   0.0000   0.0000   0.8022
  -2.000   0.2156   0.01934   0.01282  -0.1131  0.8521  0.6964  -1.0926   0.0000   0.0000   0.0000   0.7790
  -1.900   0.2222   0.01932   0.01286  -0.1119  0.8483  0.7089  -1.0469   0.0000   0.0000   0.0000   0.7574
  -1.800   0.2315   0.01933   0.01286  -0.1111  0.8450  0.7227  -0.9952   0.0000   0.0000   0.0000   0.7336
  -1.700   0.2433   0.01932   0.01280  -0.1109  0.8422  0.7380  -0.9391   0.0000   0.0000   0.0000   0.7091
  -1.600   0.2551   0.01923   0.01269  -0.1107  0.8396  0.7511  -0.8880   0.0000   0.0000   0.0000   0.6867
  -1.500   0.2650   0.01913   0.01250  -0.1098  0.8372  0.7635  -0.8464   0.0000   0.0000   0.0000   0.6669
  -1.400   0.2764   0.01907   0.01241  -0.1093  0.8350  0.7775  -0.7910   0.0000   0.0000   0.0000   0.6478
  -1.300   0.2901   0.01902   0.01230  -0.1095  0.8330  0.7917  -0.7317   0.0000   0.0000   0.0000   0.6294
  -1.200   0.3004   0.01891   0.01219  -0.1088  0.8311  0.8034  -0.6806   0.0000   0.0000   0.0000   0.6138
  -1.100   0.3106   0.01888   0.01215  -0.1080  0.8293  0.8157  -0.6304   0.0000   0.0000   0.0000   0.5993
  -1.000   0.3201   0.01896   0.01220  -0.1075  0.8270  0.8289  -0.6081   0.0000   0.0000   0.0000   0.5871
  -0.900   0.3206   0.01921   0.01246  -0.1060  0.8222  0.8402  -0.6077   0.0000   0.0000   0.0000   0.5818
  -0.800   0.3206   0.01933   0.01263  -0.1039  0.8177  0.8514  -0.6077   0.0000   0.0000   0.0000   0.5752
  -0.700   0.3242   0.01943   0.01273  -0.1025  0.8138  0.8650  -0.6100   0.0000   0.0000   0.0000   0.5670
  -0.600   0.3306   0.01949   0.01278  -0.1016  0.8103  0.8800  -0.6138   0.0000   0.0000   0.0000   0.5581
  -0.500   0.3357   0.01945   0.01275  -0.1002  0.8072  0.8952  -0.6173   0.0000   0.0000   0.0000   0.5490
  -0.400   0.3440   0.01941   0.01270  -0.0995  0.8044  0.9137  -0.6225   0.0000   0.0000   0.0000   0.5396
  -0.300   0.3568   0.01928   0.01258  -0.0996  0.8021  0.9335  -0.6302   0.0000   0.0000   0.0000   0.5293
  -0.200   0.3771   0.01915   0.01242  -0.1013  0.8003  0.9565  -0.6419   0.0000   0.0000   0.0000   0.5185
  -0.100   0.4046   0.01900   0.01222  -0.1045  0.7988  0.9842  -0.6572   0.0000   0.0000   0.0000   0.5081
   0.000   0.4232   0.01896   0.01211  -0.1064  0.7968  1.0000  -0.6677   0.0000   0.0000   0.0000   0.5011
   0.100   0.4400   0.01895   0.01204  -0.1079  0.7949  1.0000  -0.6773   0.0000   0.0000   0.0000   0.4948
   0.200   0.4572   0.01896   0.01198  -0.1095  0.7930  1.0000  -0.6873   0.0000   0.0000   0.0000   0.4887
   0.300   0.4742   0.01899   0.01195  -0.1108  0.7913  1.0000  -0.6972   0.0000   0.0000   0.0000   0.4830
   0.400   0.4908   0.01907   0.01197  -0.1121  0.7895  1.0000  -0.7069   0.0000   0.0000   0.0000   0.4775
   0.500   0.5066   0.01925   0.01208  -0.1132  0.7874  1.0000  -0.7170   0.0000   0.0000   0.0000   0.4724
   0.600   0.5132   0.01956   0.01237  -0.1132  0.7837  1.0000  -0.7206   0.0000   0.0000   0.0000   0.4695
   0.700   0.5200   0.01986   0.01264  -0.1132  0.7795  1.0000  -0.7246   0.0000   0.0000   0.0000   0.4664
   0.800   0.5287   0.02010   0.01281  -0.1133  0.7754  1.0000  -0.7301   0.0000   0.0000   0.0000   0.4628
   0.900   0.5391   0.02027   0.01294  -0.1135  0.7716  1.0000  -0.7368   0.0000   0.0000   0.0000   0.4590
   1.000   0.5502   0.02040   0.01303  -0.1137  0.7681  1.0000  -0.7442   0.0000   0.0000   0.0000   0.4551
   1.100   0.5620   0.02050   0.01310  -0.1140  0.7650  1.0000  -0.7521   0.0000   0.0000   0.0000   0.4512
   1.200   0.5743   0.02059   0.01315  -0.1143  0.7623  1.0000  -0.7605   0.0000   0.0000   0.0000   0.4473
   1.300   0.5869   0.02068   0.01321  -0.1147  0.7598  1.0000  -0.7690   0.0000   0.0000   0.0000   0.4436
   1.400   0.5997   0.02076   0.01325  -0.1151  0.7576  1.0000  -0.7777   0.0000   0.0000   0.0000   0.4399
   1.500   0.6128   0.02082   0.01328  -0.1154  0.7555  1.0000  -0.7876   0.0000   0.0000   0.0000   0.4363
   1.600   0.6261   0.02088   0.01331  -0.1158  0.7535  1.0000  -0.7980   0.0000   0.0000   0.0000   0.4328
   1.700   0.6397   0.02094   0.01334  -0.1162  0.7515  1.0000  -0.8086   0.0000   0.0000   0.0000   0.4294
   1.800   0.6534   0.02101   0.01338  -0.1166  0.7497  1.0000  -0.8194   0.0000   0.0000   0.0000   0.4261
   1.900   0.6671   0.02113   0.01346  -0.1171  0.7478  1.0000  -0.8307   0.0000   0.0000   0.0000   0.4230
   2.000   0.6804   0.02133   0.01370  -0.1174  0.7458  1.0000  -0.8424   0.0000   0.0000   0.0000   0.4200
   2.100   0.6910   0.02170   0.01404  -0.1176  0.7434  1.0000  -0.8520   0.0000   0.0000   0.0000   0.4174
   2.200   0.6957   0.02209   0.01446  -0.1171  0.7402  1.0000  -0.8567   0.0000   0.0000   0.0000   0.4155
   2.300   0.7005   0.02251   0.01489  -0.1166  0.7364  1.0000  -0.8616   0.0000   0.0000   0.0000   0.4136
   2.400   0.7066   0.02288   0.01526  -0.1162  0.7324  1.0000  -0.8675   0.0000   0.0000   0.0000   0.4115
   2.500   0.7145   0.02315   0.01553  -0.1160  0.7285  1.0000  -0.8750   0.0000   0.0000   0.0000   0.4092
   2.600   0.7241   0.02333   0.01571  -0.1159  0.7250  1.0000  -0.8854   0.0000   0.0000   0.0000   0.4069
   2.700   0.7347   0.02346   0.01583  -0.1159  0.7217  1.0000  -0.8967   0.0000   0.0000   0.0000   0.4044
   2.800   0.7458   0.02356   0.01592  -0.1159  0.7186  1.0000  -0.9085   0.0000   0.0000   0.0000   0.4020
   2.900   0.7575   0.02364   0.01599  -0.1160  0.7159  1.0000  -0.9222   0.0000   0.0000   0.0000   0.3996
   3.000   0.7695   0.02372   0.01606  -0.1161  0.7135  1.0000  -0.9365   0.0000   0.0000   0.0000   0.3973
   3.100   0.7817   0.02380   0.01614  -0.1162  0.7114  1.0000  -0.9512   0.0000   0.0000   0.0000   0.3950
   3.200   0.7942   0.02387   0.01620  -0.1164  0.7093  1.0000  -0.9661   0.0000   0.0000   0.0000   0.3928
   3.300   0.8071   0.02392   0.01625  -0.1166  0.7073  1.0000  -0.9816   0.0000   0.0000   0.0000   0.3906
   3.400   0.8207   0.02395   0.01626  -0.1168  0.7053  1.0000  -0.9992   0.0000   0.0000   0.0000   0.3884
   3.500   0.8347   0.02400   0.01630  -0.1171  0.7032  1.0000  -1.0182   0.0000   0.0000   0.0000   0.3862
   3.600   0.8484   0.02415   0.01644  -0.1173  0.7008  1.0000  -1.0370   0.0000   0.0000   0.0000   0.3841
   3.700   0.8581   0.02459   0.01688  -0.1172  0.6978  1.0000  -1.0543   0.0000   0.0000   0.0000   0.3823
   3.800   0.8612   0.02500   0.01735  -0.1165  0.6939  1.0000  -1.0641   0.0000   0.0000   0.0000   0.3809
   3.900   0.8648   0.02547   0.01785  -0.1158  0.6894  1.0000  -1.0745   0.0000   0.0000   0.0000   0.3795
   4.000   0.8703   0.02586   0.01827  -0.1153  0.6850  1.0000  -1.0871   0.0000   0.0000   0.0000   0.3779
   4.100   0.8780   0.02615   0.01859  -0.1150  0.6810  1.0000  -1.1023   0.0000   0.0000   0.0000   0.3763
   4.200   0.8877   0.02631   0.01877  -0.1149  0.6774  1.0000  -1.1199   0.0000   0.0000   0.0000   0.3746
   4.300   0.8983   0.02639   0.01887  -0.1147  0.6739  1.0000  -1.1412   0.0000   0.0000   0.0000   0.3728
   4.400   0.9101   0.02639   0.01888  -0.1147  0.6707  1.0000  -1.1653   0.0000   0.0000   0.0000   0.3710
   4.500   0.9229   0.02632   0.01882  -0.1147  0.6678  1.0000  -1.1908   0.0000   0.0000   0.0000   0.3692
   4.600   0.9362   0.02623   0.01874  -0.1148  0.6652  1.0000  -1.2173   0.0000   0.0000   0.0000   0.3674
   4.700   0.9500   0.02611   0.01863  -0.1149  0.6627  1.0000  -1.2446   0.0000   0.0000   0.0000   0.3656
   4.800   0.9644   0.02599   0.01852  -0.1151  0.6603  1.0000  -1.2756   0.0000   0.0000   0.0000   0.3638
   4.900   0.9795   0.02587   0.01841  -0.1153  0.6579  1.0000  -1.3113   0.0000   0.0000   0.0000   0.3621
   5.000   0.9945   0.02583   0.01838  -0.1155  0.6552  1.0000  -1.3472   0.0000   0.0000   0.0000   0.3605
   5.100   1.0069   0.02621   0.01875  -0.1156  0.6515  1.0000  -1.3831   0.0000   0.0000   0.0000   0.3590
   5.200   1.0101   0.02653   0.01914  -0.1148  0.6475  1.0000  -1.4047   0.0000   0.0000   0.0000   0.3577
   5.300   1.0137   0.02691   0.01959  -0.1140  0.6426  1.0000  -1.4268   0.0000   0.0000   0.0000   0.3564
   5.400   1.0196   0.02720   0.02029  -0.1133  0.6375  1.0000  -1.4528   0.0000   0.0000   0.0000   0.3550
   5.500   1.0278   0.02735   0.02050  -0.1129  0.6329  1.0000  -1.4838   0.0000   0.0000   0.0000   0.3536
   5.600   1.0378   0.02737   0.02057  -0.1126  0.6285  1.0000  -1.5189   0.0000   0.0000   0.0000   0.3521
   5.700   1.0499   0.02722   0.02046  -0.1124  0.6244  1.0000  -1.5592   0.0000   0.0000   0.0000   0.3506
   5.800   1.0635   0.02695   0.02022  -0.1124  0.6207  1.0000  -1.6031   0.0000   0.0000   0.0000   0.3490
   5.900   1.0785   0.02662   0.01991  -0.1124  0.6173  1.0000  -1.6504   0.0000   0.0000   0.0000   0.3475
   6.000   1.0951   0.02620   0.01951  -0.1126  0.6139  1.0000  -1.7014   0.0000   0.0000   0.0000   0.3460
   6.100   1.1128   0.02574   0.01905  -0.1130  0.6103  1.0000  -1.7814   0.0000   0.0000   0.0000   0.3445
   6.200   1.1293   0.02556   0.01885  -0.1132  0.6059  1.0000  -1.8781   0.0000   0.0000   0.0000   0.3431
   6.300   1.1366   0.02581   0.01917  -0.1126  0.6012  1.0000  -1.9404   0.0000   0.0000   0.0000   0.3418
   6.400   1.1411   0.02601   0.01946  -0.1118  0.5961  1.0000  -1.9929   0.0000   0.0000   0.0000   0.3405
   6.500   1.1465   0.02619   0.01972  -0.1109  0.5903  1.0000  -2.0690   0.0000   0.0000   0.0000   0.3392
   6.600   1.1547   0.02617   0.01977  -0.1103  0.5845  1.0000  -2.1626   0.0000   0.0000   0.0000   0.3379
   6.700   1.1664   0.02592   0.01956  -0.1100  0.5789  1.0000  -2.2764   0.0000   0.0000   0.0000   0.3365
   6.800   1.1804   0.02552   0.01919  -0.1099  0.5737  1.0000  -2.4054   0.0000   0.0000   0.0000   0.3352
   6.900   1.1962   0.02500   0.01868  -0.1100  0.5686  1.0000  -2.5469   0.0000   0.0000   0.0000   0.3339
   7.000   1.2130   0.02445   0.01812  -0.1102  0.5633  1.0000  -2.6968   0.0000   0.0000   0.0000   0.3325
   7.100   1.2306   0.02411   0.01772  -0.1105  0.5569  1.0000  -2.8539   0.0000   0.0000   0.0000   0.3314
   7.200   1.2360   0.02421   0.01792  -0.1096  0.5510  1.0000  -2.9413   0.0000   0.0000   0.0000   0.3301
   7.300   1.2413   0.02425   0.01808  -0.1086  0.5441  1.0000  -3.0290   0.0000   0.0000   0.0000   0.3288
   7.400   1.2495   0.02412   0.01802  -0.1079  0.5364  1.0000  -3.1359   0.0000   0.0000   0.0000   0.3275
   7.500   1.2607   0.02378   0.01771  -0.1074  0.5285  1.0000  -3.2629   0.0000   0.0000   0.0000   0.3262
   7.600   1.2737   0.02332   0.01726  -0.1071  0.5208  1.0000  -3.4026   0.0000   0.0000   0.0000   0.3250
   7.700   1.2891   0.02286   0.01673  -0.1071  0.5127  1.0000  -3.5590   0.0000   0.0000   0.0000   0.3238
   7.800   1.2994   0.02280   0.01668  -0.1067  0.5045  1.0000  -3.6840   0.0000   0.0000   0.0000   0.3226
   7.900   1.3036   0.02287   0.01689  -0.1056  0.4957  1.0000  -3.7720   0.0000   0.0000   0.0000   0.3213
   8.000   1.3103   0.02278   0.01687  -0.1046  0.4850  1.0000  -3.8772   0.0000   0.0000   0.0000   0.3201
   8.100   1.3199   0.02249   0.01657  -0.1039  0.4733  1.0000  -4.0036   0.0000   0.0000   0.0000   0.3188
   8.200   1.3327   0.02217   0.01608  -0.1035  0.4598  1.0000  -4.1525   0.0000   0.0000   0.0000   0.3176
   8.300   1.3352   0.02235   0.01642  -0.1022  0.4479  1.0000  -4.2323   0.0000   0.0000   0.0000   0.3163
   8.400   1.3404   0.02237   0.01647  -0.1010  0.4327  1.0000  -4.3318   0.0000   0.0000   0.0000   0.3150
   8.500   1.3476   0.02232   0.01656  -0.1000  0.4161  1.0000  -4.4278   0.0000   0.0000   0.0000   0.3136
   8.600   1.3511   0.02255   0.01686  -0.0987  0.3999  1.0000  -4.5097   0.0000   0.0000   0.0000   0.3123
   8.700   1.3539   0.02275   0.01699  -0.0972  0.3796  1.0000  -4.5924   0.0000   0.0000   0.0000   0.3109
   8.800   1.3561   0.02306   0.01717  -0.0957  0.3589  1.0000  -4.6714   0.0000   0.0000   0.0000   0.3095
   8.900   1.3563   0.02347   0.01748  -0.0940  0.3357  1.0000  -4.7385   0.0000   0.0000   0.0000   0.3081
   9.000   1.3554   0.02400   0.01784  -0.0922  0.3143  1.0000  -4.7982   0.0000   0.0000   0.0000   0.3067
   9.100   1.3533   0.02460   0.01830  -0.0903  0.2930  1.0000  -4.8501   0.0000   0.0000   0.0000   0.3052
   9.200   1.3499   0.02527   0.01879  -0.0882  0.2751  1.0000  -4.8930   0.0000   0.0000   0.0000   0.3037
   9.300   1.3475   0.02593   0.01937  -0.0863  0.2569  1.0000  -4.9408   0.0000   0.0000   0.0000   0.3023
   9.400   1.3426   0.02676   0.02000  -0.0843  0.2419  1.0000  -4.9737   0.0000   0.0000   0.0000   0.3008
   9.500   1.3412   0.02747   0.02068  -0.0827  0.2263  1.0000  -5.0242   0.0000   0.0000   0.0000   0.2996
   9.600   1.3381   0.02828   0.02138  -0.0810  0.2126  1.0000  -5.0651   0.0000   0.0000   0.0000   0.2983
   9.700   1.3331   0.02929   0.02219  -0.0792  0.2005  1.0000  -5.0935   0.0000   0.0000   0.0000   0.2970
   9.800   1.3335   0.02998   0.02294  -0.0780  0.1886  1.0000  -5.1503   0.0000   0.0000   0.0000   0.2959
   9.900   1.3314   0.03084   0.02373  -0.0766  0.1782  1.0000  -5.1940   0.0000   0.0000   0.0000   0.2948
  10.000   1.3277   0.03187   0.02462  -0.0751  0.1690  1.0000  -5.2265   0.0000   0.0000   0.0000   0.2937
  10.100   1.3274   0.03281   0.02552  -0.0739  0.1589  1.0000  -5.2723   0.0000   0.0000   0.0000   0.2926
  10.200   1.3279   0.03360   0.02637  -0.0728  0.1504  1.0000  -5.3243   0.0000   0.0000   0.0000   0.2917
  10.300   1.3264   0.03452   0.02725  -0.0717  0.1427  1.0000  -5.3669   0.0000   0.0000   0.0000   0.2907
  10.400   1.3234   0.03566   0.02825  -0.0705  0.1349  1.0000  -5.3982   0.0000   0.0000   0.0000   0.2898
  10.500   1.3241   0.03666   0.02923  -0.0695  0.1261  1.0000  -5.4425   0.0000   0.0000   0.0000   0.2888
  10.600   1.3230   0.03746   0.03010  -0.0686  0.1192  1.0000  -5.4877   0.0000   0.0000   0.0000   0.2881
  10.700   1.3203   0.03837   0.03103  -0.0679  0.1126  1.0000  -5.5297   0.0000   0.0000   0.0000   0.2874
  10.800   1.3162   0.03953   0.03207  -0.0670  0.1061  1.0000  -5.5616   0.0000   0.0000   0.0000   0.2868
  10.900   1.3141   0.04074   0.03319  -0.0661  0.0977  1.0000  -5.5927   0.0000   0.0000   0.0000   0.2860
  11.000   1.3126   0.04161   0.03416  -0.0657  0.0914  1.0000  -5.6382   0.0000   0.0000   0.0000   0.2856
  11.100   1.3103   0.04266   0.03523  -0.0653  0.0850  1.0000  -5.6768   0.0000   0.0000   0.0000   0.2852
  11.200   1.3062   0.04395   0.03643  -0.0647  0.0793  1.0000  -5.7018   0.0000   0.0000   0.0000   0.2847
  11.300   1.3022   0.04543   0.03781  -0.0639  0.0720  1.0000  -5.7038   0.0000   0.0000   0.0000   0.2840
  11.400   1.3014   0.04643   0.03891  -0.0637  0.0655  1.0000  -5.7386   0.0000   0.0000   0.0000   0.2838
  11.500   1.2986   0.04766   0.04014  -0.0635  0.0595  1.0000  -5.7648   0.0000   0.0000   0.0000   0.2835
  11.600   1.2932   0.04923   0.04162  -0.0631  0.0547  1.0000  -5.7652   0.0000   0.0000   0.0000   0.2832
  11.700   1.2883   0.05090   0.04325  -0.0621  0.0490  1.0000  -5.7229   0.0000   0.0000   0.0000   0.2825
  11.800   1.2872   0.05216   0.04460  -0.0616  0.0443  1.0000  -5.6941   0.0000   0.0000   0.0000   0.2819
  11.900   1.2853   0.05347   0.04594  -0.0611  0.0408  1.0000  -5.6807   0.0000   0.0000   0.0000   0.2814
  12.000   1.2833   0.05479   0.04727  -0.0607  0.0383  1.0000  -5.6810   0.0000   0.0000   0.0000   0.2810
  12.100   1.2811   0.05619   0.04867  -0.0602  0.0362  1.0000  -5.6797   0.0000   0.0000   0.0000   0.2806
  12.200   1.2796   0.05776   0.05020  -0.0593  0.0338  1.0000  -5.6510   0.0000   0.0000   0.0000   0.2797
  12.300   1.2843   0.05925   0.05173  -0.0579  0.0316  1.0000  -5.6101   0.0000   0.0000   0.0000   0.2784
  12.400   1.2871   0.06030   0.05288  -0.0575  0.0308  1.0000  -5.6277   0.0000   0.0000   0.0000   0.2778
  12.500   1.2902   0.06141   0.05409  -0.0570  0.0300  1.0000  -5.6425   0.0000   0.0000   0.0000   0.2771
  12.600   1.2935   0.06257   0.05535  -0.0565  0.0292  1.0000  -5.6561   0.0000   0.0000   0.0000   0.2765
  12.700   1.2965   0.06380   0.05669  -0.0560  0.0285  1.0000  -5.6683   0.0000   0.0000   0.0000   0.2758
  12.800   1.2993   0.06509   0.05809  -0.0556  0.0279  1.0000  -5.6797   0.0000   0.0000   0.0000   0.2752
  12.900   1.3013   0.06647   0.05957  -0.0552  0.0274  1.0000  -5.6888   0.0000   0.0000   0.0000   0.2747
  13.000   1.3026   0.06792   0.06113  -0.0548  0.0270  1.0000  -5.6957   0.0000   0.0000   0.0000   0.2742
  13.100   1.3032   0.06943   0.06276  -0.0546  0.0266  1.0000  -5.7000   0.0000   0.0000   0.0000   0.2738
  13.200   1.3031   0.07101   0.06445  -0.0543  0.0264  1.0000  -5.7019   0.0000   0.0000   0.0000   0.2735
  13.300   1.3022   0.07266   0.06622  -0.0542  0.0261  1.0000  -5.7008   0.0000   0.0000   0.0000   0.2732
  13.400   1.3005   0.07437   0.06805  -0.0541  0.0260  1.0000  -5.6966   0.0000   0.0000   0.0000   0.2730
  13.500   1.2980   0.07615   0.06995  -0.0540  0.0259  1.0000  -5.6891   0.0000   0.0000   0.0000   0.2729
  13.600   1.2949   0.07798   0.07189  -0.0541  0.0258  1.0000  -5.6791   0.0000   0.0000   0.0000   0.2729
  13.700   1.2914   0.07986   0.07389  -0.0542  0.0257  1.0000  -5.6666   0.0000   0.0000   0.0000   0.2729
  13.800   1.2874   0.08179   0.07594  -0.0544  0.0256  1.0000  -5.6516   0.0000   0.0000   0.0000   0.2731
  13.900   1.2826   0.08378   0.07804  -0.0547  0.0256  1.0000  -5.6334   0.0000   0.0000   0.0000   0.2733
  14.000   1.2773   0.08584   0.08022  -0.0552  0.0256  1.0000  -5.6122   0.0000   0.0000   0.0000   0.2736
  14.100   1.2717   0.08794   0.08243  -0.0557  0.0256  1.0000  -5.5890   0.0000   0.0000   0.0000   0.2740
  14.200   1.2659   0.09009   0.08469  -0.0563  0.0256  1.0000  -5.5639   0.0000   0.0000   0.0000   0.2745
  14.300   1.2599   0.09229   0.08700  -0.0569  0.0257  1.0000  -5.5366   0.0000   0.0000   0.0000   0.2751
  14.400   1.2532   0.09458   0.08940  -0.0578  0.0257  1.0000  -5.5060   0.0000   0.0000   0.0000   0.2758
  14.500   1.2463   0.09691   0.09183  -0.0587  0.0258  1.0000  -5.4734   0.0000   0.0000   0.0000   0.2767
  14.600   1.2393   0.09922   0.09424  -0.0598  0.0258  1.0000  -5.4390   0.0000   0.0000   0.0000   0.2776
  14.700   1.2322   0.10160   0.09672  -0.0609  0.0259  1.0000  -5.4023   0.0000   0.0000   0.0000   0.2786
  14.800   1.2244   0.10412   0.09933  -0.0622  0.0260  1.0000  -5.3618   0.0000   0.0000   0.0000   0.2799
  14.900   1.2166   0.10677   0.10208  -0.0637  0.0261  1.0000  -5.3187   0.0000   0.0000   0.0000   0.2812
  15.000   1.2088   0.10952   0.10492  -0.0652  0.0262  1.0000  -5.2731   0.0000   0.0000   0.0000   0.2827
  15.100   1.2006   0.11246   0.10795  -0.0670  0.0263  1.0000  -5.2233   0.0000   0.0000   0.0000   0.2844
  15.200   1.1920   0.11560   0.11117  -0.0689  0.0265  1.0000  -5.1692   0.0000   0.0000   0.0000   0.2862
  15.300   1.1835   0.11888   0.11454  -0.0710  0.0266  1.0000  -5.1115   0.0000   0.0000   0.0000   0.2883
  15.400   1.1746   0.12238   0.11811  -0.0732  0.0268  1.0000  -5.0484   0.0000   0.0000   0.0000   0.2905
  15.500   1.1653   0.12613   0.12194  -0.0757  0.0270  1.0000  -4.9789   0.0000   0.0000   0.0000   0.2930
  15.600   1.1560   0.13005   0.12593  -0.0782  0.0272  1.0000  -4.9041   0.0000   0.0000   0.0000   0.2956
  15.700   1.1460   0.13435   0.13029  -0.0811  0.0274  1.0000  -4.8195   0.0000   0.0000   0.0000   0.2986
  15.800   1.1360   0.13887   0.13488  -0.0840  0.0277  1.0000  -4.7272   0.0000   0.0000   0.0000   0.3018
  15.900   1.1254   0.14380   0.13986  -0.0873  0.0280  1.0000  -4.6225   0.0000   0.0000   0.0000   0.3053
  16.000   1.1150   0.14901   0.14510  -0.0905  0.0284  1.0000  -4.5075   0.0000   0.0000   0.0000   0.3089
  16.100   1.1043   0.15458   0.15070  -0.0939  0.0288  1.0000  -4.3788   0.0000   0.0000   0.0000   0.3128
  16.200   1.0941   0.16030   0.15644  -0.0972  0.0292  1.0000  -4.2425   0.0000   0.0000   0.0000   0.3166
  16.300   1.0850   0.16594   0.16208  -0.1003  0.0297  1.0000  -4.1049   0.0000   0.0000   0.0000   0.3202
  16.400   1.0769   0.17140   0.16753  -0.1030  0.0301  1.0000  -3.9709   0.0000   0.0000   0.0000   0.3235
  16.500   1.0703   0.17654   0.17266  -0.1055  0.0304  1.0000  -3.8462   0.0000   0.0000   0.0000   0.3264
  16.600   1.0647   0.18133   0.17745  -0.1076  0.0308  1.0000  -3.7323   0.0000   0.0000   0.0000   0.3289
  16.700   1.0601   0.18586   0.18196  -0.1095  0.0311  1.0000  -3.6278   0.0000   0.0000   0.0000   0.3311
  16.800   1.0562   0.19015   0.18623  -0.1112  0.0313  1.0000  -3.5323   0.0000   0.0000   0.0000   0.3330
  16.900   1.0528   0.19426   0.19033  -0.1127  0.0316  1.0000  -3.4443   0.0000   0.0000   0.0000   0.3347
  17.000   1.0497   0.19826   0.19432  -0.1140  0.0319  1.0000  -3.3611   0.0000   0.0000   0.0000   0.3362
  17.300   1.0515   0.20688   0.20299  -0.1170  0.0328  1.0000  -3.2438   0.0000   0.0000   0.0000   0.3386
  17.400   1.0523   0.21014   0.20625  -0.1184  0.0334  1.0000  -3.1820   0.0000   0.0000   0.0000   0.3398
  17.500   1.0338   0.22460   0.22059  -0.1250  0.0396  1.0000  -2.6354   0.0000   0.0000   0.0000   0.3488
  17.600   1.0316   0.22874   0.22472  -0.1265  0.0413  1.0000  -2.5473   0.0000   0.0000   0.0000   0.3505
  17.700   1.0306   0.23228   0.22825  -0.1276  0.0429  1.0000  -2.4859   0.0000   0.0000   0.0000   0.3516
  17.800   1.0304   0.23547   0.23143  -0.1285  0.0444  1.0000  -2.4416   0.0000   0.0000   0.0000   0.3523
  17.900   1.0311   0.23836   0.23433  -0.1290  0.0461  1.0000  -2.4141   0.0000   0.0000   0.0000   0.3526
  18.000   1.0335   0.24098   0.23697  -0.1286  0.0483  1.0000  -2.4191   0.0000   0.0000   0.0000   0.3518
  18.300   1.0370   0.26044   0.25648  -0.1297  0.0729  1.0000  -2.1467   0.0000   0.0000   0.0000   0.3525
  18.400   1.0371   0.26296   0.25900  -0.1306  0.0728  1.0000  -2.1254   0.0000   0.0000   0.0000   0.3532
  18.500   1.0370   0.26538   0.26142  -0.1316  0.0727  1.0000  -2.1039   0.0000   0.0000   0.0000   0.3541
  18.600   1.0368   0.26767   0.26371  -0.1326  0.0725  1.0000  -2.0818   0.0000   0.0000   0.0000   0.3549
  18.700   1.0362   0.26976   0.26580  -0.1337  0.0723  1.0000  -2.0574   0.0000   0.0000   0.0000   0.3560
  18.800   1.0335   0.27155   0.26759  -0.1353  0.0718  1.0000  -2.0192   0.0000   0.0000   0.0000   0.3577
  18.900   1.0278   0.27280   0.26882  -0.1377  0.0706  1.0000  -1.9607   0.0000   0.0000   0.0000   0.3606
  19.000   1.0230   0.27458   0.27059  -0.1397  0.0690  1.0000  -1.9076   0.0000   0.0000   0.0000   0.3631
  19.100   1.0211   0.27685   0.27286  -0.1410  0.0677  1.0000  -1.8762   0.0000   0.0000   0.0000   0.3645
  19.200   1.0199   0.27920   0.27521  -0.1419  0.0667  1.0000  -1.8529   0.0000   0.0000   0.0000   0.3655
  19.300   1.0190   0.28156   0.27757  -0.1427  0.0657  1.0000  -1.8334   0.0000   0.0000   0.0000   0.3662
  19.400   1.0182   0.28389   0.27991  -0.1435  0.0648  1.0000  -1.8161   0.0000   0.0000   0.0000   0.3669
  19.500   1.0173   0.28619   0.28223  -0.1441  0.0640  1.0000  -1.8004   0.0000   0.0000   0.0000   0.3675
  19.600   1.0164   0.28846   0.28450  -0.1447  0.0632  1.0000  -1.7859   0.0000   0.0000   0.0000   0.3681
  19.700   1.0153   0.29068   0.28673  -0.1452  0.0625  1.0000  -1.7723   0.0000   0.0000   0.0000   0.3686
  19.800   1.0141   0.29284   0.28891  -0.1456  0.0617  1.0000  -1.7593   0.0000   0.0000   0.0000   0.3691
  19.900   1.0127   0.29495   0.29102  -0.1460  0.0611  1.0000  -1.7469   0.0000   0.0000   0.0000   0.3696
  20.000   1.0110   0.29697   0.29306  -0.1464  0.0604  1.0000  -1.7348   0.0000   0.0000   0.0000   0.3700
  20.100   1.0090   0.29891   0.29501  -0.1466  0.0598  1.0000  -1.7229   0.0000   0.0000   0.0000   0.3704
  20.200   1.0065   0.30072   0.29684  -0.1468  0.0591  1.0000  -1.7108   0.0000   0.0000   0.0000   0.3708
  20.300   1.0034   0.30237   0.29851  -0.1469  0.0586  1.0000  -1.6982   0.0000   0.0000   0.0000   0.3712
  20.400   0.9981   0.30359   0.29976  -0.1466  0.0580  1.0000  -1.6810   0.0000   0.0000   0.0000   0.3717
  20.500   0.9628   0.29869   0.29496  -0.1429  0.0581  1.0000  -1.5884   0.0000   0.0000   0.0000   0.3736
  20.600   0.9526   0.29797   0.29428  -0.1420  0.0577  1.0000  -1.5599   0.0000   0.0000   0.0000   0.3743
  20.700   0.9455   0.29774   0.29408  -0.1415  0.0572  1.0000  -1.5400   0.0000   0.0000   0.0000   0.3748
  20.800   0.9399   0.29771   0.29408  -0.1410  0.0567  1.0000  -1.5250   0.0000   0.0000   0.0000   0.3752
  20.900   0.9353   0.29781   0.29421  -0.1407  0.0562  1.0000  -1.5151   0.0000   0.0000   0.0000   0.3756
  21.000   0.9315   0.29800   0.29441  -0.1404  0.0556  1.0000  -1.5158   0.0000   0.0000   0.0000   0.3758
  21.100   0.9284   0.29824   0.29468  -0.1401  0.0551  1.0000  -1.5201   0.0000   0.0000   0.0000   0.3759
  21.200   0.9259   0.29856   0.29502  -0.1398  0.0546  1.0000  -1.5282   0.0000   0.0000   0.0000   0.3758
  21.300   0.9240   0.29896   0.29545  -0.1394  0.0541  1.0000  -1.5408   0.0000   0.0000   0.0000   0.3757
  21.400   0.9229   0.29952   0.29603  -0.1390  0.0536  1.0000  -1.5590   0.0000   0.0000   0.0000   0.3753
  21.500   0.9230   0.30036   0.29689  -0.1386  0.0530  1.0000  -1.5851   0.0000   0.0000   0.0000   0.3746
  21.600   0.9255   0.30194   0.29850  -0.1379  0.0524  1.0000  -1.6265   0.0000   0.0000   0.0000   0.3733
  21.700   0.9344   0.30740   0.30400  -0.1367  0.0514  1.0000  -1.7003   0.0000   0.0000   0.0000   0.3704
  21.800   0.9273   0.31144   0.30799  -0.1367  0.0507  1.0000  -1.6445   0.0000   0.0000   0.0000   0.3716
  21.900   0.9242   0.31188   0.30845  -0.1370  0.0507  1.0000  -1.6310   0.0000   0.0000   0.0000   0.3723
  22.000   0.9212   0.31232   0.30890  -0.1372  0.0507  1.0000  -1.6179   0.0000   0.0000   0.0000   0.3730
  22.100   0.9184   0.31275   0.30934  -0.1375  0.0506  1.0000  -1.6052   0.0000   0.0000   0.0000   0.3736
  22.200   0.9157   0.31317   0.30978  -0.1377  0.0506  1.0000  -1.5927   0.0000   0.0000   0.0000   0.3743
  22.300   0.9130   0.31355   0.31017  -0.1380  0.0506  1.0000  -1.5803   0.0000   0.0000   0.0000   0.3749
  22.400   0.9104   0.31391   0.31055  -0.1383  0.0505  1.0000  -1.5680   0.0000   0.0000   0.0000   0.3756
  22.500   0.9079   0.31426   0.31091  -0.1386  0.0505  1.0000  -1.5559   0.0000   0.0000   0.0000   0.3762
  22.600   0.9054   0.31455   0.31121  -0.1389  0.0504  1.0000  -1.5436   0.0000   0.0000   0.0000   0.3769
  22.700   0.9024   0.31467   0.31135  -0.1393  0.0504  1.0000  -1.5279   0.0000   0.0000   0.0000   0.3777
  22.800   0.8991   0.31467   0.31136  -0.1397  0.0503  1.0000  -1.5103   0.0000   0.0000   0.0000   0.3786
  22.900   0.8958   0.31458   0.31128  -0.1401  0.0502  1.0000  -1.4916   0.0000   0.0000   0.0000   0.3795
  23.000   0.8920   0.31436   0.31107  -0.1405  0.0501  1.0000  -1.4707   0.0000   0.0000   0.0000   0.3806
  23.100   0.8885   0.31415   0.31087  -0.1410  0.0500  1.0000  -1.4496   0.0000   0.0000   0.0000   0.3817
  23.200   0.8851   0.31395   0.31068  -0.1416  0.0499  1.0000  -1.4281   0.0000   0.0000   0.0000   0.3828
  23.300   0.8818   0.31379   0.31052  -0.1421  0.0497  1.0000  -1.4062   0.0000   0.0000   0.0000   0.3839
  23.400   0.8788   0.31368   0.31042  -0.1428  0.0495  1.0000  -1.3837   0.0000   0.0000   0.0000   0.3851
  23.500   0.8761   0.31369   0.31044  -0.1435  0.0491  1.0000  -1.3604   0.0000   0.0000   0.0000   0.3863
  23.600   0.8739   0.31388   0.31064  -0.1443  0.0487  1.0000  -1.3372   0.0000   0.0000   0.0000   0.3875
  23.700   0.8721   0.31432   0.31108  -0.1451  0.0481  1.0000  -1.3157   0.0000   0.0000   0.0000   0.3886
  23.800   0.8709   0.31495   0.31173  -0.1458  0.0475  1.0000  -1.2982   0.0000   0.0000   0.0000   0.3895
  23.900   0.8700   0.31568   0.31247  -0.1464  0.0467  1.0000  -1.2846   0.0000   0.0000   0.0000   0.3902
  24.000   0.8692   0.31644   0.31323  -0.1469  0.0460  1.0000  -1.2741   0.0000   0.0000   0.0000   0.3908
  24.100   0.8685   0.31720   0.31400  -0.1474  0.0453  1.0000  -1.2656   0.0000   0.0000   0.0000   0.3913
  24.200   0.8678   0.31795   0.31476  -0.1478  0.0446  1.0000  -1.2585   0.0000   0.0000   0.0000   0.3918
  24.300   0.8672   0.31868   0.31551  -0.1481  0.0439  1.0000  -1.2523   0.0000   0.0000   0.0000   0.3922
  24.400   0.8666   0.31941   0.31625  -0.1485  0.0432  1.0000  -1.2468   0.0000   0.0000   0.0000   0.3926
  24.500   0.8660   0.32014   0.31699  -0.1488  0.0426  1.0000  -1.2418   0.0000   0.0000   0.0000   0.3929
  24.600   0.8655   0.32085   0.31771  -0.1492  0.0420  1.0000  -1.2373   0.0000   0.0000   0.0000   0.3933
  24.700   0.8650   0.32156   0.31843  -0.1495  0.0414  1.0000  -1.2332   0.0000   0.0000   0.0000   0.3936
  24.800   0.8645   0.32226   0.31914  -0.1498  0.0408  1.0000  -1.2295   0.0000   0.0000   0.0000   0.3939
  24.900   0.8641   0.32295   0.31984  -0.1501  0.0402  1.0000  -1.2262   0.0000   0.0000   0.0000   0.3942
  25.000   0.8637   0.32363   0.32054  -0.1504  0.0397  1.0000  -1.2232   0.0000   0.0000   0.0000   0.3944
  25.100   0.8633   0.32430   0.32122  -0.1507  0.0391  1.0000  -1.2207   0.0000   0.0000   0.0000   0.3947
  25.200   0.8630   0.32497   0.32190  -0.1510  0.0386  1.0000  -1.2187   0.0000   0.0000   0.0000   0.3949
  25.300   0.8627   0.32562   0.32256  -0.1513  0.0380  1.0000  -1.2173   0.0000   0.0000   0.0000   0.3951
  25.400   0.8625   0.32626   0.32321  -0.1516  0.0375  1.0000  -1.2166   0.0000   0.0000   0.0000   0.3953
  25.500   0.8623   0.32689   0.32385  -0.1518  0.0370  1.0000  -1.2166   0.0000   0.0000   0.0000   0.3954
  25.600   0.8621   0.32750   0.32448  -0.1520  0.0365  1.0000  -1.2177   0.0000   0.0000   0.0000   0.3956
  25.700   0.8620   0.32811   0.32509  -0.1522  0.0361  1.0000  -1.2198   0.0000   0.0000   0.0000   0.3956
  25.800   0.8619   0.32870   0.32569  -0.1524  0.0356  1.0000  -1.2234   0.0000   0.0000   0.0000   0.3957
  25.900   0.8620   0.32928   0.32638  -0.1526  0.0352  1.0000  -1.2278   0.0000   0.0000   0.0000   0.3956
  26.000   0.8621   0.32987   0.32698  -0.1527  0.0348  1.0000  -1.2347   0.0000   0.0000   0.0000   0.3955
  26.100   0.8623   0.33050   0.32762  -0.1527  0.0344  1.0000  -1.2443   0.0000   0.0000   0.0000   0.3953
  26.200   0.8628   0.33122   0.32836  -0.1527  0.0340  1.0000  -1.2574   0.0000   0.0000   0.0000   0.3950
  26.300   0.8637   0.33219   0.32935  -0.1525  0.0335  1.0000  -1.2754   0.0000   0.0000   0.0000   0.3944
  26.400   0.8658   0.33394   0.33112  -0.1521  0.0331  1.0000  -1.3028   0.0000   0.0000   0.0000   0.3933
  26.500   0.8738   0.34378   0.34092  -0.1511  0.0321  1.0000  -1.3290   0.0000   0.0000   0.0000   0.3904
  26.600   0.8727   0.34413   0.34128  -0.1515  0.0321  1.0000  -1.3134   0.0000   0.0000   0.0000   0.3910
  26.700   0.8716   0.34444   0.34160  -0.1519  0.0321  1.0000  -1.2976   0.0000   0.0000   0.0000   0.3915
  26.800   0.8703   0.34466   0.34182  -0.1524  0.0320  1.0000  -1.2814   0.0000   0.0000   0.0000   0.3921
  26.900   0.8690   0.34479   0.34196  -0.1528  0.0320  1.0000  -1.2646   0.0000   0.0000   0.0000   0.3927
  27.000   0.8669   0.34462   0.34180  -0.1533  0.0319  1.0000  -1.2430   0.0000   0.0000   0.0000   0.3935
  27.100   0.8649   0.34441   0.34160  -0.1538  0.0319  1.0000  -1.2209   0.0000   0.0000   0.0000   0.3944
  27.200   0.8629   0.34422   0.34141  -0.1544  0.0318  1.0000  -1.1989   0.0000   0.0000   0.0000   0.3953
  27.300   0.8610   0.34405   0.34125  -0.1550  0.0317  1.0000  -1.1769   0.0000   0.0000   0.0000   0.3962
  27.400   0.8592   0.34394   0.34114  -0.1556  0.0316  1.0000  -1.1550   0.0000   0.0000   0.0000   0.3971
  27.500   0.8576   0.34389   0.34110  -0.1563  0.0315  1.0000  -1.1331   0.0000   0.0000   0.0000   0.3980
  27.600   0.8562   0.34393   0.34115  -0.1569  0.0314  1.0000  -1.1111   0.0000   0.0000   0.0000   0.3989
  27.700   0.8551   0.34411   0.34134  -0.1577  0.0312  1.0000  -1.0889   0.0000   0.0000   0.0000   0.3998
  27.800   0.8542   0.34447   0.34170  -0.1585  0.0309  1.0000  -1.0666   0.0000   0.0000   0.0000   0.4007
  27.900   0.8537   0.34504   0.34227  -0.1593  0.0306  1.0000  -1.0449   0.0000   0.0000   0.0000   0.4015
  28.000   0.8536   0.34580   0.34303  -0.1600  0.0302  1.0000  -1.0253   0.0000   0.0000   0.0000   0.4022
  28.100   0.8536   0.34666   0.34390  -0.1607  0.0297  1.0000  -1.0087   0.0000   0.0000   0.0000   0.4028
  28.200   0.8536   0.34754   0.34479  -0.1612  0.0293  1.0000  -0.9953   0.0000   0.0000   0.0000   0.4032
  28.300   0.8536   0.34841   0.34567  -0.1617  0.0288  1.0000  -0.9840   0.0000   0.0000   0.0000   0.4036
  28.400   0.8536   0.34926   0.34654  -0.1622  0.0283  1.0000  -0.9742   0.0000   0.0000   0.0000   0.4039
  28.500   0.8536   0.35010   0.34738  -0.1626  0.0279  1.0000  -0.9655   0.0000   0.0000   0.0000   0.4043
  28.600   0.8535   0.35092   0.34821  -0.1631  0.0275  1.0000  -0.9578   0.0000   0.0000   0.0000   0.4045
  28.700   0.8535   0.35173   0.34903  -0.1635  0.0271  1.0000  -0.9508   0.0000   0.0000   0.0000   0.4048
  28.800   0.8534   0.35253   0.34984  -0.1639  0.0266  1.0000  -0.9443   0.0000   0.0000   0.0000   0.4051
  28.900   0.8533   0.35332   0.35064  -0.1643  0.0263  1.0000  -0.9384   0.0000   0.0000   0.0000   0.4054
  29.000   0.8532   0.35410   0.35143  -0.1646  0.0259  1.0000  -0.9329   0.0000   0.0000   0.0000   0.4056
  29.100   0.8531   0.35488   0.35222  -0.1650  0.0255  1.0000  -0.9277   0.0000   0.0000   0.0000   0.4059


