xflr5 v6.61

 Calculated polar for: EPPLER 420 AIRFOIL

 1 1 Reynolds number fixed          Mach number fixed         

 xtrf =   1.000 (top)        1.000 (bottom)
 Mach =   0.000     Re =     0.200 e 6     Ncrit =   9.000

  alpha     CL        CD       CDp       Cm    Top Xtr Bot Xtr   Cpmin    Chinge    XCp    
 ------- -------- --------- --------- -------- ------- ------- -------- --------- ---------
 -10.000   0.3626   0.10370   0.09883  -0.1603  0.7578  0.0443  -1.0895   0.0000   0.0000   0.0000   0.7272
  -9.900   0.3652   0.10313   0.09826  -0.1604  0.7530  0.0444  -1.0923   0.0000   0.0000   0.0000   0.7237
  -9.800   0.3681   0.10254   0.09765  -0.1605  0.7480  0.0444  -1.0951   0.0000   0.0000   0.0000   0.7200
  -9.700   0.3711   0.10192   0.09701  -0.1607  0.7429  0.0445  -1.0981   0.0000   0.0000   0.0000   0.7162
  -9.600   0.3744   0.10127   0.09633  -0.1609  0.7378  0.0445  -1.1012   0.0000   0.0000   0.0000   0.7123
  -9.500   0.3778   0.10061   0.09563  -0.1611  0.7329  0.0446  -1.1044   0.0000   0.0000   0.0000   0.7084
  -9.400   0.3813   0.09994   0.09491  -0.1614  0.7280  0.0446  -1.1077   0.0000   0.0000   0.0000   0.7045
  -9.100   0.3929   0.09780   0.09266  -0.1624  0.7143  0.0447  -1.1176   0.0000   0.0000   0.0000   0.6929
  -9.000   0.3956   0.09709   0.09197  -0.1624  0.7112  0.0448  -1.1203   0.0000   0.0000   0.0000   0.6895
  -8.900   0.3985   0.09637   0.09125  -0.1624  0.7079  0.0448  -1.1230   0.0000   0.0000   0.0000   0.6861
  -8.800   0.4014   0.09563   0.09052  -0.1625  0.7044  0.0448  -1.1259   0.0000   0.0000   0.0000   0.6827
  -8.700   0.4045   0.09490   0.08978  -0.1626  0.7008  0.0448  -1.1287   0.0000   0.0000   0.0000   0.6793
  -8.600   0.4076   0.09416   0.08903  -0.1627  0.6972  0.0449  -1.1316   0.0000   0.0000   0.0000   0.6759
  -8.500   0.4108   0.09342   0.08827  -0.1628  0.6937  0.0449  -1.1346   0.0000   0.0000   0.0000   0.6726
  -8.400   0.4140   0.09268   0.08750  -0.1629  0.6902  0.0449  -1.1375   0.0000   0.0000   0.0000   0.6692
  -8.300   0.4173   0.09193   0.08673  -0.1630  0.6868  0.0449  -1.1405   0.0000   0.0000   0.0000   0.6659
  -7.800   0.4365   0.08812   0.08279  -0.1645  0.6701  0.0450  -1.1553   0.0000   0.0000   0.0000   0.6496
  -7.700   0.4391   0.08738   0.08206  -0.1645  0.6684  0.0451  -1.1576   0.0000   0.0000   0.0000   0.6468
  -7.600   0.4417   0.08662   0.08129  -0.1645  0.6666  0.0451  -1.1598   0.0000   0.0000   0.0000   0.6441
  -7.500   0.4442   0.08588   0.08057  -0.1644  0.6646  0.0451  -1.1620   0.0000   0.0000   0.0000   0.6414
  -7.400   0.4467   0.08514   0.07984  -0.1644  0.6625  0.0451  -1.1642   0.0000   0.0000   0.0000   0.6388
  -7.300   0.4492   0.08441   0.07912  -0.1643  0.6604  0.0451  -1.1663   0.0000   0.0000   0.0000   0.6362
  -7.200   0.4516   0.08368   0.07840  -0.1642  0.6582  0.0451  -1.1683   0.0000   0.0000   0.0000   0.6337
  -7.100   0.4538   0.08296   0.07769  -0.1641  0.6560  0.0451  -1.1703   0.0000   0.0000   0.0000   0.6312
  -7.000   0.4559   0.08226   0.07700  -0.1640  0.6538  0.0452  -1.1722   0.0000   0.0000   0.0000   0.6288
  -6.900   0.4579   0.08159   0.07632  -0.1638  0.6517  0.0452  -1.1739   0.0000   0.0000   0.0000   0.6265
  -6.800   0.4492   0.07627   0.07106  -0.1641  0.6507  0.0467  -1.1839   0.0000   0.0000   0.0000   0.6344
  -6.700   0.4517   0.07500   0.06979  -0.1639  0.6486  0.0471  -1.1805   0.0000   0.0000   0.0000   0.6314
  -6.600   0.4567   0.07389   0.06866  -0.1636  0.6465  0.0476  -1.1752   0.0000   0.0000   0.0000   0.6264
  -6.500   0.4629   0.07282   0.06757  -0.1633  0.6443  0.0480  -1.1809   0.0000   0.0000   0.0000   0.6205
  -6.400   0.4688   0.07188   0.06661  -0.1631  0.6422  0.0484  -1.1863   0.0000   0.0000   0.0000   0.6150
  -6.300   0.4741   0.07106   0.06577  -0.1628  0.6400  0.0488  -1.1911   0.0000   0.0000   0.0000   0.6102
  -6.200   0.4789   0.07032   0.06501  -0.1626  0.6378  0.0492  -1.1955   0.0000   0.0000   0.0000   0.6058
  -6.100   0.4836   0.06964   0.06431  -0.1624  0.6354  0.0496  -1.1995   0.0000   0.0000   0.0000   0.6017
  -6.000   0.4882   0.06902   0.06366  -0.1623  0.6329  0.0501  -1.2032   0.0000   0.0000   0.0000   0.5979
  -5.900   0.4929   0.06844   0.06306  -0.1623  0.6302  0.0506  -1.2067   0.0000   0.0000   0.0000   0.5943
  -5.800   0.4980   0.06789   0.06250  -0.1625  0.6273  0.0511  -1.2101   0.0000   0.0000   0.0000   0.5909
  -5.700   0.5024   0.06737   0.06198  -0.1626  0.6249  0.0516  -1.2129   0.0000   0.0000   0.0000   0.5878
  -5.600   0.5053   0.06680   0.06143  -0.1623  0.6241  0.0521  -1.2153   0.0000   0.0000   0.0000   0.5851
  -5.500   0.5084   0.06622   0.06088  -0.1621  0.6232  0.0527  -1.2178   0.0000   0.0000   0.0000   0.5824
  -5.400   0.5115   0.06565   0.06033  -0.1620  0.6222  0.0532  -1.2202   0.0000   0.0000   0.0000   0.5798
  -5.300   0.5147   0.06509   0.05978  -0.1619  0.6211  0.0539  -1.2225   0.0000   0.0000   0.0000   0.5773
  -5.200   0.5179   0.06452   0.05924  -0.1618  0.6199  0.0546  -1.2248   0.0000   0.0000   0.0000   0.5748
  -5.100   0.5213   0.06396   0.05869  -0.1618  0.6187  0.0553  -1.2271   0.0000   0.0000   0.0000   0.5724
  -5.000   0.5248   0.06339   0.05814  -0.1619  0.6174  0.0562  -1.2293   0.0000   0.0000   0.0000   0.5701
  -4.900   0.5284   0.06282   0.05759  -0.1620  0.6160  0.0571  -1.2316   0.0000   0.0000   0.0000   0.5679
  -4.800   0.5323   0.06225   0.05703  -0.1622  0.6146  0.0581  -1.2338   0.0000   0.0000   0.0000   0.5657
  -4.700   0.5364   0.06166   0.05645  -0.1626  0.6132  0.0592  -1.2361   0.0000   0.0000   0.0000   0.5636
  -4.600   0.5409   0.06107   0.05587  -0.1630  0.6118  0.0604  -1.2384   0.0000   0.0000   0.0000   0.5616
  -4.500   0.5458   0.06049   0.05530  -0.1637  0.6103  0.0618  -1.2408   0.0000   0.0000   0.0000   0.5598
  -4.400   0.5516   0.05993   0.05475  -0.1648  0.6088  0.0635  -1.2433   0.0000   0.0000   0.0000   0.5582
  -4.300   0.5605   0.05965   0.05446  -0.1673  0.6073  0.0661  -1.2462   0.0000   0.0000   0.0000   0.5575
  -4.200   0.5789   0.06036   0.05515  -0.1723  0.6055  0.0690  -1.2530   0.0000   0.0000   0.0000   0.5560
  -4.100   0.5887   0.05993   0.05470  -0.1738  0.6040  0.0694  -1.2589   0.0000   0.0000   0.0000   0.5534
  -4.000   0.5977   0.05926   0.05402  -0.1752  0.6026  0.0696  -1.2646   0.0000   0.0000   0.0000   0.5508
  -3.900   0.6065   0.05848   0.05323  -0.1765  0.6011  0.0698  -1.2704   0.0000   0.0000   0.0000   0.5484
  -3.800   0.6153   0.05764   0.05237  -0.1778  0.5997  0.0699  -1.2761   0.0000   0.0000   0.0000   0.5459
  -3.700   0.6242   0.05674   0.05146  -0.1790  0.5984  0.0700  -1.2819   0.0000   0.0000   0.0000   0.5435
  -3.600   0.6334   0.05580   0.05050  -0.1803  0.5970  0.0701  -1.2879   0.0000   0.0000   0.0000   0.5411
  -3.500   0.6429   0.05482   0.04949  -0.1817  0.5957  0.0701  -1.2940   0.0000   0.0000   0.0000   0.5386
  -3.400   0.6529   0.05381   0.04846  -0.1831  0.5943  0.0702  -1.3005   0.0000   0.0000   0.0000   0.5362
  -3.300   0.6633   0.05277   0.04739  -0.1847  0.5929  0.0702  -1.3071   0.0000   0.0000   0.0000   0.5338
  -3.200   0.6743   0.05170   0.04629  -0.1863  0.5915  0.0703  -1.3140   0.0000   0.0000   0.0000   0.5314
  -3.100   0.6857   0.05059   0.04514  -0.1880  0.5901  0.0703  -1.3211   0.0000   0.0000   0.0000   0.5290
  -3.000   0.6976   0.04946   0.04397  -0.1898  0.5886  0.0704  -1.3284   0.0000   0.0000   0.0000   0.5266
  -2.900   0.7059   0.04416   0.03866  -0.1952  0.5876  0.0727  -1.3291   0.0000   0.0000   0.0000   0.5308
  -2.800   0.7212   0.04308   0.03752  -0.1975  0.5859  0.0724  -1.3381   0.0000   0.0000   0.0000   0.5279
  -2.700   0.7905   0.02845   0.02218  -0.2214  0.5850  0.0471  -1.8260   0.0000   0.0000   0.0000   0.5339
  -2.600   0.8168   0.02583   0.01915  -0.2269  0.5831  0.0474  -1.8970   0.0000   0.0000   0.0000   0.5312
  -2.500   0.8371   0.02429   0.01728  -0.2300  0.5810  0.0486  -1.9242   0.0000   0.0000   0.0000   0.5281
  -2.400   0.8510   0.02391   0.01678  -0.2312  0.5785  0.0504  -1.9041   0.0000   0.0000   0.0000   0.5248
  -2.300   0.8618   0.02377   0.01663  -0.2313  0.5779  0.0525  -1.8519   0.0000   0.0000   0.0000   0.5212
  -2.200   0.8723   0.02372   0.01659  -0.2313  0.5773  0.0547  -1.7962   0.0000   0.0000   0.0000   0.5176
  -2.100   0.8834   0.02355   0.01638  -0.2314  0.5766  0.0571  -1.7503   0.0000   0.0000   0.0000   0.5142
  -2.000   0.8953   0.02321   0.01596  -0.2316  0.5759  0.0596  -1.7162   0.0000   0.0000   0.0000   0.5107
  -1.900   0.9075   0.02282   0.01545  -0.2320  0.5751  0.0623  -1.6900   0.0000   0.0000   0.0000   0.5074
  -1.800   0.9186   0.02265   0.01523  -0.2320  0.5742  0.0655  -1.6532   0.0000   0.0000   0.0000   0.5041
  -1.700   0.9289   0.02266   0.01519  -0.2318  0.5733  0.0684  -1.6081   0.0000   0.0000   0.0000   0.5009
  -1.600   0.9387   0.02279   0.01531  -0.2315  0.5724  0.0702  -1.5580   0.0000   0.0000   0.0000   0.4976
  -1.500   0.9548   0.02151   0.01380  -0.2330  0.5714  0.0795  -1.5659   0.0000   0.0000   0.0000   0.4949
  -1.400   0.9645   0.02167   0.01398  -0.2327  0.5705  0.0847  -1.5091   0.0000   0.0000   0.0000   0.4919
  -1.300   0.9737   0.02192   0.01428  -0.2323  0.5696  0.0906  -1.4916   0.0000   0.0000   0.0000   0.4890
  -1.200   0.9832   0.02214   0.01450  -0.2319  0.5686  0.0960  -1.4997   0.0000   0.0000   0.0000   0.4861
  -1.100   0.9927   0.02235   0.01471  -0.2316  0.5677  0.0994  -1.5077   0.0000   0.0000   0.0000   0.4832
  -1.000   1.0054   0.02189   0.01410  -0.2321  0.5667  0.1047  -1.5172   0.0000   0.0000   0.0000   0.4806
  -0.900   1.0166   0.02168   0.01389  -0.2323  0.5657  0.1116  -1.5260   0.0000   0.0000   0.0000   0.4780
  -0.800   1.0263   0.02182   0.01406  -0.2320  0.5648  0.1164  -1.5342   0.0000   0.0000   0.0000   0.4754
  -0.700   1.0356   0.02204   0.01432  -0.2316  0.5637  0.1220  -1.5421   0.0000   0.0000   0.0000   0.4728
  -0.600   1.0450   0.02225   0.01454  -0.2313  0.5627  0.1278  -1.5502   0.0000   0.0000   0.0000   0.4702
  -0.500   1.0547   0.02243   0.01471  -0.2310  0.5617  0.1326  -1.5583   0.0000   0.0000   0.0000   0.4677
  -0.400   1.0644   0.02261   0.01487  -0.2307  0.5607  0.1356  -1.5664   0.0000   0.0000   0.0000   0.4652
  -0.300   1.0742   0.02277   0.01501  -0.2304  0.5597  0.1373  -1.5746   0.0000   0.0000   0.0000   0.4627
  -0.200   1.0878   0.02210   0.01422  -0.2312  0.5587  0.1467  -1.5846   0.0000   0.0000   0.0000   0.4606
  -0.100   1.0979   0.02216   0.01430  -0.2311  0.5577  0.1512  -1.5930   0.0000   0.0000   0.0000   0.4583
   0.000   1.1079   0.02227   0.01442  -0.2309  0.5567  0.1555  -1.6013   0.0000   0.0000   0.0000   0.4560
   0.100   1.1180   0.02237   0.01452  -0.2307  0.5556  0.1603  -1.6097   0.0000   0.0000   0.0000   0.4538
   0.200   1.1282   0.02245   0.01459  -0.2305  0.5546  0.1653  -1.6181   0.0000   0.0000   0.0000   0.4515
   0.300   1.1385   0.02254   0.01465  -0.2304  0.5536  0.1701  -1.6266   0.0000   0.0000   0.0000   0.4494
   0.400   1.1486   0.02266   0.01475  -0.2302  0.5527  0.1742  -1.6351   0.0000   0.0000   0.0000   0.4472
   0.500   1.1585   0.02284   0.01491  -0.2299  0.5517  0.1774  -1.6434   0.0000   0.0000   0.0000   0.4451
   0.600   1.1681   0.02307   0.01513  -0.2296  0.5507  0.1794  -1.6516   0.0000   0.0000   0.0000   0.4430
   0.700   1.1808   0.02265   0.01467  -0.2302  0.5497  0.1907  -1.6615   0.0000   0.0000   0.0000   0.4412
   0.800   1.1910   0.02273   0.01477  -0.2301  0.5488  0.1958  -1.6701   0.0000   0.0000   0.0000   0.4392
   0.900   1.2013   0.02283   0.01487  -0.2299  0.5478  0.2005  -1.6797   0.0000   0.0000   0.0000   0.4372
   1.000   1.2117   0.02293   0.01495  -0.2298  0.5468  0.2053  -1.6898   0.0000   0.0000   0.0000   0.4353
   1.100   1.2222   0.02302   0.01503  -0.2298  0.5459  0.2103  -1.7000   0.0000   0.0000   0.0000   0.4334
   1.200   1.2328   0.02312   0.01511  -0.2297  0.5449  0.2153  -1.7101   0.0000   0.0000   0.0000   0.4315
   1.300   1.2432   0.02325   0.01521  -0.2296  0.5439  0.2198  -1.7202   0.0000   0.0000   0.0000   0.4297
   1.400   1.2536   0.02340   0.01533  -0.2295  0.5429  0.2233  -1.7301   0.0000   0.0000   0.0000   0.4279
   1.500   1.2637   0.02359   0.01550  -0.2293  0.5418  0.2259  -1.7399   0.0000   0.0000   0.0000   0.4261
   1.600   1.2737   0.02382   0.01572  -0.2292  0.5407  0.2277  -1.7495   0.0000   0.0000   0.0000   0.4244
   1.700   1.2855   0.02369   0.01555  -0.2296  0.5395  0.2393  -1.7599   0.0000   0.0000   0.0000   0.4229
   1.800   1.2952   0.02393   0.01582  -0.2295  0.5383  0.2456  -1.7688   0.0000   0.0000   0.0000   0.4213
   1.900   1.3041   0.02429   0.01620  -0.2293  0.5368  0.2510  -1.7769   0.0000   0.0000   0.0000   0.4197
   2.000   1.3119   0.02480   0.01673  -0.2289  0.5352  0.2560  -1.7836   0.0000   0.0000   0.0000   0.4182
   2.100   1.3170   0.02561   0.01758  -0.2282  0.5332  0.2604  -1.7871   0.0000   0.0000   0.0000   0.4168
   2.200   1.3208   0.02640   0.01842  -0.2272  0.5315  0.2643  -1.7897   0.0000   0.0000   0.0000   0.4154
   2.300   1.3297   0.02647   0.01849  -0.2268  0.5311  0.2689  -1.7985   0.0000   0.0000   0.0000   0.4138
   2.400   1.3385   0.02653   0.01855  -0.2264  0.5306  0.2731  -1.8073   0.0000   0.0000   0.0000   0.4122
   2.500   1.3471   0.02661   0.01863  -0.2260  0.5301  0.2767  -1.8160   0.0000   0.0000   0.0000   0.4106
   2.600   1.3555   0.02670   0.01872  -0.2256  0.5296  0.2795  -1.8246   0.0000   0.0000   0.0000   0.4090
   2.700   1.3638   0.02680   0.01883  -0.2251  0.5289  0.2815  -1.8330   0.0000   0.0000   0.0000   0.4075
   2.800   1.3727   0.02676   0.01878  -0.2249  0.5283  0.2892  -1.8417   0.0000   0.0000   0.0000   0.4060
   2.900   1.3810   0.02680   0.01886  -0.2245  0.5276  0.2966  -1.8499   0.0000   0.0000   0.0000   0.4045
   3.000   1.3889   0.02691   0.01900  -0.2240  0.5269  0.3026  -1.8576   0.0000   0.0000   0.0000   0.4031
   3.100   1.3964   0.02708   0.01921  -0.2235  0.5262  0.3082  -1.8650   0.0000   0.0000   0.0000   0.4017
   3.200   1.4036   0.02728   0.01943  -0.2229  0.5255  0.3138  -1.8720   0.0000   0.0000   0.0000   0.4002
   3.300   1.4106   0.02749   0.01967  -0.2223  0.5248  0.3198  -1.8788   0.0000   0.0000   0.0000   0.3988
   3.400   1.4175   0.02772   0.01992  -0.2217  0.5241  0.3257  -1.8855   0.0000   0.0000   0.0000   0.3975
   3.500   1.4242   0.02796   0.02018  -0.2210  0.5233  0.3312  -1.8919   0.0000   0.0000   0.0000   0.3961
   3.600   1.4306   0.02821   0.02045  -0.2204  0.5225  0.3359  -1.8982   0.0000   0.0000   0.0000   0.3947
   3.700   1.4369   0.02848   0.02073  -0.2196  0.5217  0.3396  -1.9042   0.0000   0.0000   0.0000   0.3933
   3.800   1.4432   0.02873   0.02100  -0.2190  0.5208  0.3453  -1.9102   0.0000   0.0000   0.0000   0.3920
   3.900   1.4496   0.02894   0.02125  -0.2183  0.5200  0.3565  -1.9161   0.0000   0.0000   0.0000   0.3907
   4.000   1.4554   0.02920   0.02156  -0.2176  0.5191  0.3661  -1.9216   0.0000   0.0000   0.0000   0.3894
   4.100   1.4610   0.02948   0.02190  -0.2168  0.5182  0.3746  -1.9269   0.0000   0.0000   0.0000   0.3881
   4.200   1.4662   0.02977   0.02223  -0.2160  0.5172  0.3830  -1.9318   0.0000   0.0000   0.0000   0.3868
   4.300   1.4707   0.03008   0.02257  -0.2150  0.5163  0.3913  -1.9362   0.0000   0.0000   0.0000   0.3855
   4.400   1.4744   0.03040   0.02291  -0.2139  0.5153  0.3988  -1.9398   0.0000   0.0000   0.0000   0.3842
   4.600   1.4820   0.03103   0.02364  -0.2118  0.5133  0.4307  -1.9471   0.0000   0.0000   0.0000   0.3816
   4.700   1.4861   0.03134   0.02403  -0.2108  0.5123  0.4562  -1.9525   0.0000   0.0000   0.0000   0.3804
   4.800   1.4916   0.03149   0.02446  -0.2101  0.5114  0.5761  -1.9592   0.0000   0.0000   0.0000   0.3792
   5.000   1.4920   0.03182   0.02518  -0.2065  0.5094  1.0000  -1.9640   0.0000   0.0000   0.0000   0.3764
   5.100   1.4956   0.03221   0.02556  -0.2054  0.5083  1.0000  -1.9691   0.0000   0.0000   0.0000   0.3751
   5.200   1.4992   0.03261   0.02595  -0.2044  0.5073  1.0000  -1.9741   0.0000   0.0000   0.0000   0.3739
   5.300   1.5030   0.03300   0.02633  -0.2034  0.5063  1.0000  -1.9793   0.0000   0.0000   0.0000   0.3727
   5.400   1.5071   0.03337   0.02670  -0.2024  0.5053  1.0000  -1.9848   0.0000   0.0000   0.0000   0.3715
   5.500   1.5116   0.03374   0.02706  -0.2015  0.5043  1.0000  -1.9907   0.0000   0.0000   0.0000   0.3703
   5.600   1.5166   0.03408   0.02740  -0.2007  0.5033  1.0000  -1.9970   0.0000   0.0000   0.0000   0.3691
   5.700   1.5222   0.03441   0.02772  -0.2000  0.5024  1.0000  -2.0039   0.0000   0.0000   0.0000   0.3680
   5.800   1.5287   0.03469   0.02799  -0.1994  0.5014  1.0000  -2.0117   0.0000   0.0000   0.0000   0.3668
   5.900   1.5369   0.03488   0.02816  -0.1991  0.5005  1.0000  -2.0213   0.0000   0.0000   0.0000   0.3657
   6.000   1.5464   0.03499   0.02826  -0.1989  0.4995  1.0000  -2.0322   0.0000   0.0000   0.0000   0.3645
   6.100   1.5571   0.03505   0.02829  -0.1988  0.4986  1.0000  -2.0444   0.0000   0.0000   0.0000   0.3634
   6.200   1.5687   0.03508   0.02829  -0.1989  0.4977  1.0000  -2.0574   0.0000   0.0000   0.0000   0.3623
   6.300   1.5807   0.03509   0.02828  -0.1991  0.4967  1.0000  -2.0710   0.0000   0.0000   0.0000   0.3612
   6.400   1.5929   0.03511   0.02828  -0.1993  0.4957  1.0000  -2.0847   0.0000   0.0000   0.0000   0.3602
   6.500   1.6048   0.03519   0.02833  -0.1994  0.4947  1.0000  -2.0979   0.0000   0.0000   0.0000   0.3592
   6.600   1.6157   0.03536   0.02848  -0.1995  0.4936  1.0000  -2.1100   0.0000   0.0000   0.0000   0.3582
   6.700   1.6245   0.03569   0.02880  -0.1993  0.4924  1.0000  -2.1212   0.0000   0.0000   0.0000   0.3572
   6.800   1.6297   0.03633   0.02944  -0.1987  0.4910  1.0000  -2.1285   0.0000   0.0000   0.0000   0.3562
   6.900   1.6225   0.03803   0.03118  -0.1966  0.4886  1.0000  -2.1224   0.0000   0.0000   0.0000   0.3553
   7.300   1.2491   0.07669   0.07082  -0.1697  0.4498  1.0000  -1.6716   0.0000   0.0000   0.0000   0.3693
   7.400   1.2601   0.07653   0.07064  -0.1694  0.4493  1.0000  -1.6859   0.0000   0.0000   0.0000   0.3676
   7.500   1.2708   0.07639   0.07048  -0.1692  0.4487  1.0000  -1.7005   0.0000   0.0000   0.0000   0.3661
   7.600   1.2813   0.07630   0.07037  -0.1689  0.4482  1.0000  -1.7156   0.0000   0.0000   0.0000   0.3645
   7.700   1.2913   0.07629   0.07034  -0.1687  0.4476  1.0000  -1.7299   0.0000   0.0000   0.0000   0.3631
   7.800   1.3011   0.07631   0.07034  -0.1684  0.4471  1.0000  -1.7440   0.0000   0.0000   0.0000   0.3617
   7.900   1.3109   0.07633   0.07035  -0.1681  0.4465  1.0000  -1.7581   0.0000   0.0000   0.0000   0.3603
   8.000   1.3206   0.07636   0.07037  -0.1679  0.4460  1.0000  -1.7721   0.0000   0.0000   0.0000   0.3589
   8.100   1.3301   0.07643   0.07042  -0.1676  0.4454  1.0000  -1.7859   0.0000   0.0000   0.0000   0.3575
   8.200   1.3392   0.07655   0.07054  -0.1673  0.4447  1.0000  -1.7992   0.0000   0.0000   0.0000   0.3562
   8.300   1.3476   0.07682   0.07080  -0.1669  0.4439  1.0000  -1.8114   0.0000   0.0000   0.0000   0.3549
   8.400   1.1723   0.10150   0.09585  -0.1665  0.4150  1.0000  -1.5440   0.0000   0.0000   0.0000   0.3737
   8.500   1.1806   0.10164   0.09597  -0.1662  0.4138  1.0000  -1.5558   0.0000   0.0000   0.0000   0.3723
   8.600   1.1896   0.10168   0.09600  -0.1660  0.4127  1.0000  -1.5689   0.0000   0.0000   0.0000   0.3707
   8.700   1.1990   0.10167   0.09598  -0.1657  0.4117  1.0000  -1.5840   0.0000   0.0000   0.0000   0.3691
   8.800   1.2087   0.10164   0.09592  -0.1655  0.4108  1.0000  -1.5996   0.0000   0.0000   0.0000   0.3676
   8.900   1.2184   0.10160   0.09587  -0.1652  0.4099  1.0000  -1.6153   0.0000   0.0000   0.0000   0.3660
   9.000   1.2281   0.10158   0.09584  -0.1650  0.4092  1.0000  -1.6308   0.0000   0.0000   0.0000   0.3645
   9.100   1.2372   0.10163   0.09588  -0.1647  0.4084  1.0000  -1.6455   0.0000   0.0000   0.0000   0.3631
   9.200   1.2457   0.10175   0.09599  -0.1645  0.4076  1.0000  -1.6593   0.0000   0.0000   0.0000   0.3617
   9.300   1.2544   0.10183   0.09606  -0.1642  0.4068  1.0000  -1.6735   0.0000   0.0000   0.0000   0.3603
   9.400   1.2634   0.10187   0.09610  -0.1640  0.4061  1.0000  -1.6882   0.0000   0.0000   0.0000   0.3589
   9.500   1.2726   0.10188   0.09611  -0.1637  0.4054  1.0000  -1.7033   0.0000   0.0000   0.0000   0.3575
   9.600   1.2820   0.10188   0.09609  -0.1634  0.4048  1.0000  -1.7186   0.0000   0.0000   0.0000   0.3561
   9.700   1.2914   0.10185   0.09606  -0.1632  0.4042  1.0000  -1.7342   0.0000   0.0000   0.0000   0.3547
   9.800   1.3010   0.10181   0.09602  -0.1629  0.4036  1.0000  -1.7500   0.0000   0.0000   0.0000   0.3533
   9.900   1.3107   0.10176   0.09596  -0.1626  0.4030  1.0000  -1.7660   0.0000   0.0000   0.0000   0.3519
  10.000   1.3204   0.10170   0.09591  -0.1624  0.4025  1.0000  -1.7821   0.0000   0.0000   0.0000   0.3505
  10.100   1.3301   0.10165   0.09586  -0.1621  0.4019  1.0000  -1.7982   0.0000   0.0000   0.0000   0.3492
  10.200   1.3398   0.10162   0.09582  -0.1618  0.4013  1.0000  -1.8143   0.0000   0.0000   0.0000   0.3478
  10.300   1.3493   0.10160   0.09580  -0.1615  0.4007  1.0000  -1.8303   0.0000   0.0000   0.0000   0.3465
  10.400   1.3589   0.10158   0.09579  -0.1612  0.4000  1.0000  -1.8464   0.0000   0.0000   0.0000   0.3451
  10.500   1.3678   0.10171   0.09591  -0.1608  0.3992  1.0000  -1.8627   0.0000   0.0000   0.0000   0.3438
  10.600   1.2529   0.11939   0.11378  -0.1631  0.3742  1.0000  -1.6726   0.0000   0.0000   0.0000   0.3570
  10.700   1.2594   0.11974   0.11413  -0.1629  0.3726  1.0000  -1.6851   0.0000   0.0000   0.0000   0.3559
  10.800   1.2662   0.12005   0.11444  -0.1627  0.3713  1.0000  -1.6980   0.0000   0.0000   0.0000   0.3548
  10.900   1.2736   0.12027   0.11467  -0.1626  0.3701  1.0000  -1.7120   0.0000   0.0000   0.0000   0.3537
  11.000   1.2815   0.12042   0.11482  -0.1624  0.3691  1.0000  -1.7270   0.0000   0.0000   0.0000   0.3524
  11.100   1.2899   0.12049   0.11489  -0.1621  0.3682  1.0000  -1.7429   0.0000   0.0000   0.0000   0.3512
  11.200   1.2981   0.12057   0.11497  -0.1619  0.3672  1.0000  -1.7585   0.0000   0.0000   0.0000   0.3499
  11.300   1.3062   0.12064   0.11505  -0.1617  0.3663  1.0000  -1.7740   0.0000   0.0000   0.0000   0.3487
  11.400   1.3146   0.12067   0.11508  -0.1615  0.3654  1.0000  -1.7901   0.0000   0.0000   0.0000   0.3475
  11.500   1.3232   0.12065   0.11507  -0.1612  0.3646  1.0000  -1.8068   0.0000   0.0000   0.0000   0.3462
  11.600   1.3321   0.12059   0.11501  -0.1610  0.3639  1.0000  -1.8239   0.0000   0.0000   0.0000   0.3449
  11.700   1.3412   0.12050   0.11493  -0.1607  0.3632  1.0000  -1.8414   0.0000   0.0000   0.0000   0.3436
  11.800   1.3505   0.12039   0.11482  -0.1605  0.3626  1.0000  -1.8593   0.0000   0.0000   0.0000   0.3423
  11.900   1.3598   0.12025   0.11468  -0.1602  0.3620  1.0000  -1.8774   0.0000   0.0000   0.0000   0.3410
  12.000   1.3695   0.12006   0.11451  -0.1599  0.3614  1.0000  -1.8961   0.0000   0.0000   0.0000   0.3397
  12.100   1.3794   0.11981   0.11425  -0.1596  0.3608  1.0000  -1.9163   0.0000   0.0000   0.0000   0.3384
  12.200   1.3897   0.11949   0.11394  -0.1593  0.3603  1.0000  -1.9387   0.0000   0.0000   0.0000   0.3370
  12.300   1.4003   0.11913   0.11358  -0.1590  0.3597  1.0000  -1.9616   0.0000   0.0000   0.0000   0.3356
  12.400   1.4110   0.11873   0.11320  -0.1587  0.3592  1.0000  -1.9850   0.0000   0.0000   0.0000   0.3342
  12.500   1.4217   0.11832   0.11279  -0.1583  0.3586  1.0000  -2.0085   0.0000   0.0000   0.0000   0.3329
  12.600   1.4323   0.11792   0.11240  -0.1580  0.3581  1.0000  -2.0319   0.0000   0.0000   0.0000   0.3315
  12.700   1.4425   0.11760   0.11209  -0.1577  0.3573  1.0000  -2.0546   0.0000   0.0000   0.0000   0.3302
  12.800   1.4506   0.11763   0.11213  -0.1573  0.3561  1.0000  -2.0739   0.0000   0.0000   0.0000   0.3290
  12.900   1.3493   0.13513   0.12975  -0.1614  0.3320  1.0000  -1.8824   0.0000   0.0000   0.0000   0.3408
  13.000   1.3559   0.13538   0.13001  -0.1613  0.3306  1.0000  -1.8976   0.0000   0.0000   0.0000   0.3399
  13.100   1.3622   0.13564   0.13028  -0.1612  0.3292  1.0000  -1.9126   0.0000   0.0000   0.0000   0.3389
  13.200   1.3692   0.13579   0.13045  -0.1610  0.3280  1.0000  -1.9288   0.0000   0.0000   0.0000   0.3379
  13.300   1.3767   0.13585   0.13052  -0.1609  0.3269  1.0000  -1.9461   0.0000   0.0000   0.0000   0.3369
  13.400   1.3847   0.13583   0.13051  -0.1607  0.3259  1.0000  -1.9644   0.0000   0.0000   0.0000   0.3358
  13.500   1.3930   0.13576   0.13045  -0.1604  0.3251  1.0000  -1.9835   0.0000   0.0000   0.0000   0.3346
  13.600   1.4015   0.13563   0.13033  -0.1602  0.3243  1.0000  -2.0032   0.0000   0.0000   0.0000   0.3334
  13.700   1.4104   0.13546   0.13019  -0.1600  0.3235  1.0000  -2.0242   0.0000   0.0000   0.0000   0.3322
  13.800   1.4195   0.13524   0.12997  -0.1597  0.3229  1.0000  -2.0479   0.0000   0.0000   0.0000   0.3310
  13.900   1.4291   0.13492   0.12967  -0.1594  0.3222  1.0000  -2.0727   0.0000   0.0000   0.0000   0.3298
  14.000   1.4390   0.13452   0.12928  -0.1591  0.3217  1.0000  -2.0985   0.0000   0.0000   0.0000   0.3285
  14.100   1.4494   0.13406   0.12883  -0.1588  0.3211  1.0000  -2.1251   0.0000   0.0000   0.0000   0.3271
  14.200   1.4600   0.13354   0.12832  -0.1585  0.3206  1.0000  -2.1524   0.0000   0.0000   0.0000   0.3258
  14.300   1.4708   0.13298   0.12777  -0.1582  0.3201  1.0000  -2.1802   0.0000   0.0000   0.0000   0.3244
  14.400   1.4817   0.13240   0.12720  -0.1578  0.3196  1.0000  -2.2083   0.0000   0.0000   0.0000   0.3231
  14.500   1.4925   0.13182   0.12663  -0.1575  0.3191  1.0000  -2.2365   0.0000   0.0000   0.0000   0.3218
  14.600   1.5033   0.13126   0.12613  -0.1572  0.3186  1.0000  -2.2644   0.0000   0.0000   0.0000   0.3205
  14.700   1.5136   0.13075   0.12564  -0.1569  0.3180  1.0000  -2.2917   0.0000   0.0000   0.0000   0.3192
  14.800   1.5234   0.13034   0.12524  -0.1566  0.3174  1.0000  -2.3179   0.0000   0.0000   0.0000   0.3180
  14.900   1.5321   0.13010   0.12501  -0.1563  0.3165  1.0000  -2.3418   0.0000   0.0000   0.0000   0.3169
  15.000   1.4378   0.14748   0.14243  -0.1615  0.2933  1.0000  -2.1398   0.0000   0.0000   0.0000   0.3278
  15.100   1.4430   0.14781   0.14278  -0.1615  0.2916  1.0000  -2.1556   0.0000   0.0000   0.0000   0.3271
  15.200   1.4494   0.14794   0.14297  -0.1614  0.2902  1.0000  -2.1739   0.0000   0.0000   0.0000   0.3263
  15.300   1.4566   0.14794   0.14299  -0.1612  0.2890  1.0000  -2.1942   0.0000   0.0000   0.0000   0.3253
  15.400   1.4643   0.14785   0.14291  -0.1611  0.2880  1.0000  -2.2179   0.0000   0.0000   0.0000   0.3243
  15.500   1.4724   0.14768   0.14276  -0.1609  0.2871  1.0000  -2.2439   0.0000   0.0000   0.0000   0.3233
  15.600   1.4811   0.14741   0.14250  -0.1607  0.2863  1.0000  -2.2713   0.0000   0.0000   0.0000   0.3221
  15.700   1.4904   0.14703   0.14214  -0.1604  0.2856  1.0000  -2.3003   0.0000   0.0000   0.0000   0.3209
  15.800   1.5002   0.14655   0.14167  -0.1601  0.2850  1.0000  -2.3308   0.0000   0.0000   0.0000   0.3197
  15.900   1.5105   0.14599   0.14113  -0.1598  0.2844  1.0000  -2.3624   0.0000   0.0000   0.0000   0.3184
  16.000   1.5210   0.14538   0.14053  -0.1595  0.2839  1.0000  -2.3951   0.0000   0.0000   0.0000   0.3171
  16.100   1.5318   0.14473   0.13990  -0.1591  0.2834  1.0000  -2.4282   0.0000   0.0000   0.0000   0.3158
  16.200   1.5425   0.14408   0.13926  -0.1588  0.2829  1.0000  -2.4615   0.0000   0.0000   0.0000   0.3145
  16.300   1.5532   0.14343   0.13863  -0.1585  0.2824  1.0000  -2.4949   0.0000   0.0000   0.0000   0.3132
  16.400   1.5638   0.14281   0.13802  -0.1582  0.2819  1.0000  -2.5281   0.0000   0.0000   0.0000   0.3120
  16.500   1.5745   0.14220   0.13743  -0.1579  0.2814  1.0000  -2.5612   0.0000   0.0000   0.0000   0.3108
  16.600   1.5848   0.14166   0.13690  -0.1576  0.2808  1.0000  -2.5936   0.0000   0.0000   0.0000   0.3096
  16.700   1.5950   0.14115   0.13640  -0.1573  0.2802  1.0000  -2.6256   0.0000   0.0000   0.0000   0.3084
  16.800   1.6051   0.14064   0.13591  -0.1570  0.2795  1.0000  -2.6576   0.0000   0.0000   0.0000   0.3073
  16.900   1.6154   0.14010   0.13538  -0.1567  0.2788  1.0000  -2.6917   0.0000   0.0000   0.0000   0.3061
  17.000   1.6267   0.13943   0.13473  -0.1564  0.2781  1.0000  -2.7310   0.0000   0.0000   0.0000   0.3049
  17.100   1.6385   0.13867   0.13399  -0.1560  0.2773  1.0000  -2.7718   0.0000   0.0000   0.0000   0.3036
  17.200   1.6498   0.13797   0.13330  -0.1557  0.2761  1.0000  -2.8116   0.0000   0.0000   0.0000   0.3024
  17.500   1.5567   0.15760   0.15306  -0.1623  0.2509  1.0000  -2.5991   0.0000   0.0000   0.0000   0.3123
  17.600   1.5658   0.15715   0.15262  -0.1620  0.2502  1.0000  -2.6345   0.0000   0.0000   0.0000   0.3111
  17.700   1.5762   0.15650   0.15199  -0.1617  0.2495  1.0000  -2.6732   0.0000   0.0000   0.0000   0.3099
  17.800   1.5876   0.15567   0.15118  -0.1613  0.2491  1.0000  -2.7149   0.0000   0.0000   0.0000   0.3085
  17.900   1.5997   0.15473   0.15025  -0.1609  0.2487  1.0000  -2.7587   0.0000   0.0000   0.0000   0.3071
  18.000   1.6122   0.15373   0.14928  -0.1605  0.2483  1.0000  -2.8036   0.0000   0.0000   0.0000   0.3057
  18.100   1.6243   0.15283   0.14839  -0.1601  0.2478  1.0000  -2.8475   0.0000   0.0000   0.0000   0.3043
  18.200   1.6360   0.15203   0.14770  -0.1598  0.2471  1.0000  -2.8902   0.0000   0.0000   0.0000   0.3030
  18.300   1.6471   0.15133   0.14702  -0.1594  0.2464  1.0000  -2.9314   0.0000   0.0000   0.0000   0.3018
  18.400   1.6584   0.15061   0.14631  -0.1591  0.2457  1.0000  -2.9753   0.0000   0.0000   0.0000   0.3006
  18.500   1.6708   0.14971   0.14542  -0.1587  0.2450  1.0000  -3.0267   0.0000   0.0000   0.0000   0.2992
  18.600   1.6839   0.14871   0.14444  -0.1583  0.2443  1.0000  -3.0799   0.0000   0.0000   0.0000   0.2979
  18.700   1.6977   0.14760   0.14334  -0.1579  0.2435  1.0000  -3.1353   0.0000   0.0000   0.0000   0.2964
  18.800   1.7126   0.14633   0.14207  -0.1573  0.2427  1.0000  -3.1940   0.0000   0.0000   0.0000   0.2950
  18.900   1.7295   0.14474   0.14048  -0.1567  0.2419  1.0000  -3.2585   0.0000   0.0000   0.0000   0.2933
  19.000   1.7483   0.14287   0.13860  -0.1560  0.2409  1.0000  -3.3288   0.0000   0.0000   0.0000   0.2915
  19.100   1.7663   0.14112   0.13684  -0.1554  0.2392  1.0000  -3.3967   0.0000   0.0000   0.0000   0.2898
  19.300   1.6293   0.16724   0.16318  -0.1645  0.2182  1.0000  -3.0147   0.0000   0.0000   0.0000   0.3033
  19.400   1.6394   0.16662   0.16258  -0.1642  0.2172  1.0000  -3.0610   0.0000   0.0000   0.0000   0.3021
  19.500   1.6516   0.16562   0.16160  -0.1638  0.2165  1.0000  -3.1138   0.0000   0.0000   0.0000   0.3007
  19.600   1.6659   0.16423   0.16022  -0.1633  0.2159  1.0000  -3.1738   0.0000   0.0000   0.0000   0.2991
  19.700   1.6830   0.16234   0.15834  -0.1625  0.2155  1.0000  -3.2428   0.0000   0.0000   0.0000   0.2972
  19.800   1.6985   0.16081   0.15681  -0.1619  0.2147  1.0000  -3.3067   0.0000   0.0000   0.0000   0.2955
  19.900   1.7133   0.15940   0.15540  -0.1614  0.2137  1.0000  -3.3687   0.0000   0.0000   0.0000   0.2940
  20.000   1.7287   0.15792   0.15391  -0.1608  0.2127  1.0000  -3.4324   0.0000   0.0000   0.0000   0.2924
  20.100   1.7433   0.15659   0.15257  -0.1602  0.2114  1.0000  -3.5011   0.0000   0.0000   0.0000   0.2909
  20.200   1.7573   0.15535   0.15131  -0.1597  0.2099  1.0000  -3.5702   0.0000   0.0000   0.0000   0.2894
  20.300   1.7716   0.15405   0.14998  -0.1592  0.2082  1.0000  -3.6405   0.0000   0.0000   0.0000   0.2880
  20.400   1.7869   0.15257   0.14847  -0.1586  0.2060  1.0000  -3.7139   0.0000   0.0000   0.0000   0.2865
  20.500   1.8063   0.15034   0.14619  -0.1577  0.2033  1.0000  -3.8012   0.0000   0.0000   0.0000   0.2846
  20.600   1.8024   0.15207   0.14796  -0.1582  0.2004  1.0000  -3.8092   0.0000   0.0000   0.0000   0.2848
  20.700   1.7767   0.15776   0.15377  -0.1603  0.1980  1.0000  -3.7419   0.0000   0.0000   0.0000   0.2871
  20.800   1.7568   0.16253   0.15863  -0.1620  0.1950  1.0000  -3.6931   0.0000   0.0000   0.0000   0.2889
  20.900   1.7394   0.16698   0.16315  -0.1637  0.1915  1.0000  -3.6516   0.0000   0.0000   0.0000   0.2906
  21.000   1.7228   0.17142   0.16765  -0.1654  0.1877  1.0000  -3.6117   0.0000   0.0000   0.0000   0.2923
  21.100   1.7283   0.17167   0.16791  -0.1654  0.1856  1.0000  -3.6528   0.0000   0.0000   0.0000   0.2917
  21.200   1.7369   0.17133   0.16756  -0.1653  0.1837  1.0000  -3.7055   0.0000   0.0000   0.0000   0.2907
  21.300   1.7481   0.17049   0.16671  -0.1650  0.1819  1.0000  -3.7680   0.0000   0.0000   0.0000   0.2895
  21.400   1.7678   0.16805   0.16424  -0.1640  0.1803  1.0000  -3.8619   0.0000   0.0000   0.0000   0.2875
  21.500   1.7823   0.16660   0.16274  -0.1634  0.1783  1.0000  -3.9373   0.0000   0.0000   0.0000   0.2859
  21.600   1.7956   0.16535   0.16143  -0.1629  0.1760  1.0000  -4.0082   0.0000   0.0000   0.0000   0.2846
  21.700   1.8079   0.16426   0.16028  -0.1625  0.1733  1.0000  -4.0748   0.0000   0.0000   0.0000   0.2833
  21.800   1.8208   0.16300   0.15896  -0.1619  0.1699  1.0000  -4.1468   0.0000   0.0000   0.0000   0.2819
  21.900   1.8241   0.16347   0.15945  -0.1619  0.1669  1.0000  -4.1881   0.0000   0.0000   0.0000   0.2815
  22.000   1.8136   0.16665   0.16272  -0.1632  0.1656  1.0000  -4.1732   0.0000   0.0000   0.0000   0.2824
  22.100   1.8009   0.17029   0.16645  -0.1646  0.1640  1.0000  -4.1480   0.0000   0.0000   0.0000   0.2835
  22.200   1.7778   0.17606   0.17233  -0.1669  0.1617  1.0000  -4.0776   0.0000   0.0000   0.0000   0.2858
  22.300   1.7675   0.17942   0.17576  -0.1682  0.1594  1.0000  -4.0606   0.0000   0.0000   0.0000   0.2869
  22.400   1.7629   0.18168   0.17805  -0.1691  0.1570  1.0000  -4.0680   0.0000   0.0000   0.0000   0.2873
  22.500   1.7617   0.18325   0.17966  -0.1697  0.1548  1.0000  -4.0902   0.0000   0.0000   0.0000   0.2874
  22.600   1.7629   0.18435   0.18077  -0.1702  0.1527  1.0000  -4.1231   0.0000   0.0000   0.0000   0.2873
  22.700   1.7657   0.18510   0.18153  -0.1705  0.1507  1.0000  -4.1635   0.0000   0.0000   0.0000   0.2869
  22.800   1.7717   0.18518   0.18171  -0.1705  0.1487  1.0000  -4.2186   0.0000   0.0000   0.0000   0.2862
  22.900   1.7804   0.18469   0.18119  -0.1703  0.1467  1.0000  -4.2862   0.0000   0.0000   0.0000   0.2852
  23.000   1.7898   0.18402   0.18046  -0.1700  0.1444  1.0000  -4.3576   0.0000   0.0000   0.0000   0.2842
  23.100   1.8004   0.18307   0.17944  -0.1696  0.1416  1.0000  -4.4340   0.0000   0.0000   0.0000   0.2829
  23.200   1.8131   0.18157   0.17787  -0.1689  0.1375  1.0000  -4.5183   0.0000   0.0000   0.0000   0.2815
  23.300   1.8100   0.18341   0.17974  -0.1696  0.1354  1.0000  -4.5323   0.0000   0.0000   0.0000   0.2817
  23.400   1.8013   0.18657   0.18299  -0.1709  0.1343  1.0000  -4.5214   0.0000   0.0000   0.0000   0.2826
  23.500   1.7928   0.18971   0.18621  -0.1722  0.1330  1.0000  -4.5109   0.0000   0.0000   0.0000   0.2835
  23.600   1.7840   0.19295   0.18952  -0.1736  0.1314  1.0000  -4.4983   0.0000   0.0000   0.0000   0.2844
  23.700   1.7748   0.19630   0.19295  -0.1750  0.1296  1.0000  -4.4834   0.0000   0.0000   0.0000   0.2854
  23.800   1.7593   0.20113   0.19786  -0.1770  0.1275  1.0000  -4.4375   0.0000   0.0000   0.0000   0.2872
  23.900   1.7520   0.20423   0.20100  -0.1782  0.1255  1.0000  -4.4299   0.0000   0.0000   0.0000   0.2881
  24.000   1.7508   0.20592   0.20272  -0.1790  0.1234  1.0000  -4.4522   0.0000   0.0000   0.0000   0.2882
  24.100   1.7520   0.20705   0.20386  -0.1795  0.1215  1.0000  -4.4866   0.0000   0.0000   0.0000   0.2880
  24.200   1.7551   0.20774   0.20455  -0.1798  0.1196  1.0000  -4.5302   0.0000   0.0000   0.0000   0.2877
  24.300   1.7611   0.20773   0.20451  -0.1798  0.1178  1.0000  -4.5884   0.0000   0.0000   0.0000   0.2869
  24.400   1.7684   0.20740   0.20414  -0.1797  0.1159  1.0000  -4.6530   0.0000   0.0000   0.0000   0.2860
  24.500   1.7763   0.20691   0.20360  -0.1796  0.1138  1.0000  -4.7199   0.0000   0.0000   0.0000   0.2850
  24.600   1.7865   0.20578   0.20240  -0.1791  0.1110  1.0000  -4.7978   0.0000   0.0000   0.0000   0.2837
  24.700   1.7978   0.20427   0.20084  -0.1783  0.1073  1.0000  -4.8766   0.0000   0.0000   0.0000   0.2822
  24.800   1.7824   0.20929   0.20598  -0.1804  0.1067  1.0000  -4.8288   0.0000   0.0000   0.0000   0.2840
  24.900   1.7720   0.21320   0.20997  -0.1820  0.1059  1.0000  -4.8047   0.0000   0.0000   0.0000   0.2852
  25.000   1.7622   0.21703   0.21389  -0.1836  0.1048  1.0000  -4.7822   0.0000   0.0000   0.0000   0.2864
  25.100   1.7511   0.22121   0.21815  -0.1853  0.1036  1.0000  -4.7524   0.0000   0.0000   0.0000   0.2878
  25.200   1.7365   0.22634   0.22338  -0.1874  0.1022  1.0000  -4.7029   0.0000   0.0000   0.0000   0.2897
  25.300   1.7044   0.23628   0.23345  -0.1913  0.1002  1.0000  -4.5569   0.0000   0.0000   0.0000   0.2940
  25.400   1.6906   0.24159   0.23882  -0.1934  0.0983  1.0000  -4.5067   0.0000   0.0000   0.0000   0.2960
  25.500   1.6818   0.24561   0.24288  -0.1950  0.0964  1.0000  -4.4829   0.0000   0.0000   0.0000   0.2973
  25.600   1.6805   0.24756   0.24486  -0.1958  0.0948  1.0000  -4.5008   0.0000   0.0000   0.0000   0.2975
  25.700   1.6851   0.24781   0.24512  -0.1959  0.0935  1.0000  -4.5531   0.0000   0.0000   0.0000   0.2968
  25.800   1.6917   0.24750   0.24481  -0.1959  0.0922  1.0000  -4.6181   0.0000   0.0000   0.0000   0.2959
  25.900   1.6999   0.24674   0.24402  -0.1957  0.0909  1.0000  -4.7077   0.0000   0.0000   0.0000   0.2947
  26.000   1.7131   0.24459   0.24183  -0.1950  0.0895  1.0000  -4.8298   0.0000   0.0000   0.0000   0.2928
  26.100   1.7261   0.24248   0.23965  -0.1943  0.0877  1.0000  -4.9513   0.0000   0.0000   0.0000   0.2910
  26.200   1.7372   0.24082   0.23791  -0.1937  0.0853  1.0000  -5.0595   0.0000   0.0000   0.0000   0.2894
  26.300   1.7340   0.24283   0.23992  -0.1943  0.0818  1.0000  -5.0699   0.0000   0.0000   0.0000   0.2896
  26.400   1.7210   0.24798   0.24516  -0.1963  0.0813  1.0000  -5.0236   0.0000   0.0000   0.0000   0.2914
  26.500   1.7005   0.25537   0.25267  -0.1991  0.0806  1.0000  -4.9255   0.0000   0.0000   0.0000   0.2943


