xflr5 v6.61

 Calculated polar for: EPPLER 393 AIRFOIL

 1 1 Reynolds number fixed          Mach number fixed         

 xtrf =   1.000 (top)        1.000 (bottom)
 Mach =   0.000     Re =     1.000 e 6     Ncrit =   9.000

  alpha     CL        CD       CDp       Cm    Top Xtr Bot Xtr   Cpmin    Chinge    XCp    
 ------- -------- --------- --------- -------- ------- ------- -------- --------- ---------
 -10.000  -0.2961   0.10856   0.10693  -0.0401  1.0000  0.0152  -1.5467   0.0000   0.0000   0.0000   0.1014
  -9.900  -0.2956   0.10739   0.10576  -0.0402  1.0000  0.0152  -1.5541   0.0000   0.0000   0.0000   0.1011
  -9.800  -0.2954   0.10622   0.10461  -0.0402  1.0000  0.0152  -1.5618   0.0000   0.0000   0.0000   0.1011
  -9.700  -0.2952   0.10507   0.10346  -0.0402  1.0000  0.0152  -1.5698   0.0000   0.0000   0.0000   0.1012
  -9.600  -0.2902   0.10333   0.10172  -0.0417  0.9996  0.0152  -1.5763   0.0000   0.0000   0.0000   0.0935
  -9.500  -0.2849   0.10154   0.09994  -0.0434  0.9992  0.0152  -1.5831   0.0000   0.0000   0.0000   0.0848
  -9.400  -0.2796   0.09976   0.09815  -0.0451  0.9986  0.0153  -1.5904   0.0000   0.0000   0.0000   0.0758
  -9.300  -0.2742   0.09797   0.09636  -0.0468  0.9979  0.0153  -1.5983   0.0000   0.0000   0.0000   0.0664
  -9.200  -0.2690   0.09618   0.09457  -0.0485  0.9972  0.0153  -1.6066   0.0000   0.0000   0.0000   0.0566
  -9.100  -0.2640   0.09441   0.09281  -0.0501  0.9964  0.0153  -1.6157   0.0000   0.0000   0.0000   0.0469
  -9.000  -0.2594   0.09264   0.09104  -0.0517  0.9955  0.0153  -1.6266   0.0000   0.0000   0.0000   0.0374
  -8.900  -0.2548   0.09087   0.08927  -0.0533  0.9944  0.0153  -1.6383   0.0000   0.0000   0.0000   0.0274
  -8.800  -0.2501   0.08907   0.08747  -0.0550  0.9933  0.0153  -1.6507   0.0000   0.0000   0.0000   0.0166
  -8.700  -0.2450   0.08720   0.08560  -0.0568  0.9920  0.0153  -1.6637   0.0000   0.0000   0.0000   0.0043
  -8.600  -0.2396   0.08530   0.08370  -0.0587  0.9908  0.0153  -1.6774   0.0000   0.0000   0.0000  -0.0091
  -8.500  -0.2341   0.08335   0.08175  -0.0608  0.9895  0.0153  -1.6921   0.0000   0.0000   0.0000  -0.0238
  -8.400  -0.2283   0.08137   0.07977  -0.0630  0.9883  0.0153  -1.7077   0.0000   0.0000   0.0000  -0.0401
  -8.200  -0.2198   0.07764   0.07605  -0.0665  0.9838  0.0153  -1.7421   0.0000   0.0000   0.0000  -0.0671
  -8.100  -0.2157   0.07577   0.07418  -0.0683  0.9804  0.0153  -1.7611   0.0000   0.0000   0.0000  -0.0811
  -8.000  -0.2105   0.07372   0.07213  -0.0706  0.9773  0.0153  -1.7818   0.0000   0.0000   0.0000  -0.0999
  -7.900  -0.2036   0.07143   0.06984  -0.0735  0.9748  0.0153  -1.8051   0.0000   0.0000   0.0000  -0.1262
  -7.700  -0.1903   0.06672   0.06512  -0.0797  0.9666  0.0153  -1.8595   0.0000   0.0000   0.0000  -0.1846
  -7.600  -0.1827   0.06409   0.06248  -0.0834  0.9595  0.0153  -1.8933   0.0000   0.0000   0.0000  -0.2229
  -7.500  -0.1722   0.06089   0.05927  -0.0886  0.9526  0.0153  -1.9367   0.0000   0.0000   0.0000  -0.2817
  -7.400  -0.1649   0.05774   0.05610  -0.0934  0.9385  0.0154  -1.9894   0.0000   0.0000   0.0000  -0.3337
  -7.300  -0.1562   0.05282   0.05111  -0.1017  0.9207  0.0154  -2.0978   0.0000   0.0000   0.0000  -0.4197
  -7.200  -0.1528   0.04898   0.04711  -0.1081  0.8984  0.0154  -2.1917   0.0000   0.0000   0.0000  -0.4756
  -7.100  -0.1522   0.04676   0.04478  -0.1102  0.8831  0.0154  -2.2414   0.0000   0.0000   0.0000  -0.4922
  -7.000  -0.1516   0.04481   0.04270  -0.1117  0.8674  0.0154  -2.2818   0.0000   0.0000   0.0000  -0.5048
  -6.900  -0.1501   0.04293   0.04072  -0.1130  0.8573  0.0154  -2.3163   0.0000   0.0000   0.0000  -0.5202
  -6.800  -0.1481   0.04113   0.03881  -0.1141  0.8470  0.0154  -2.3456   0.0000   0.0000   0.0000  -0.5376
  -6.700  -0.1458   0.03943   0.03700  -0.1149  0.8365  0.0154  -2.3701   0.0000   0.0000   0.0000  -0.5558
  -6.600  -0.1427   0.03776   0.03520  -0.1156  0.8268  0.0154  -2.3916   0.0000   0.0000   0.0000  -0.5778
  -6.500  -0.1385   0.03602   0.03337  -0.1164  0.8214  0.0153  -2.4111   0.0000   0.0000   0.0000  -0.6082
  -6.400  -0.1339   0.03431   0.03154  -0.1171  0.8152  0.0153  -2.4291   0.0000   0.0000   0.0000  -0.6422
  -6.300  -0.1292   0.03256   0.02967  -0.1177  0.8086  0.0153  -2.4490   0.0000   0.0000   0.0000  -0.6795
  -6.200  -0.1425   0.02261   0.01899  -0.1203  0.8010  0.0128  -3.0712   0.0000   0.0000   0.0000  -0.6120
  -6.100  -0.1372   0.01926   0.01525  -0.1205  0.7939  0.0112  -3.2753   0.0000   0.0000   0.0000  -0.6469
  -6.000  -0.1297   0.01640   0.01201  -0.1205  0.7870  0.0099  -3.4676   0.0000   0.0000   0.0000  -0.6982
  -5.900  -0.1209   0.01389   0.00918  -0.1203  0.7845  0.0088  -3.6492   0.0000   0.0000   0.0000  -0.7656
  -5.800  -0.1113   0.01224   0.00727  -0.1201  0.7814  0.0081  -3.7480   0.0000   0.0000   0.0000  -0.8507
  -5.700  -0.1011   0.01136   0.00623  -0.1199  0.7776  0.0077  -3.7492   0.0000   0.0000   0.0000  -0.9608
  -5.600  -0.0904   0.01084   0.00561  -0.1199  0.7734  0.0075  -3.6961   0.0000   0.0000   0.0000  -1.1017
  -5.500  -0.0797   0.01047   0.00515  -0.1198  0.7688  0.0073  -3.6199   0.0000   0.0000   0.0000  -1.2828
  -5.400  -0.0689   0.01018   0.00477  -0.1198  0.7639  0.0072  -3.5385   0.0000   0.0000   0.0000  -1.5210
  -5.300  -0.0581   0.00993   0.00443  -0.1197  0.7585  0.0071  -3.4578   0.0000   0.0000   0.0000  -1.8466
  -5.200  -0.0474   0.00962   0.00396  -0.1196  0.7525  0.0071  -3.4026   0.0000   0.0000   0.0000  -2.3219
  -5.000  -0.0250   0.00922   0.00342  -0.1197  0.7429  0.0072  -3.2257   0.0000   0.0000   0.0000  -4.6183
  -4.900  -0.0135   0.00903   0.00317  -0.1197  0.7410  0.0073  -3.1387   0.0000   0.0000   0.0000  -8.7450
  -4.800  -0.0021   0.00885   0.00293  -0.1198  0.7386  0.0076  -3.0557   0.0000   0.0000   0.0000  -59.0592
  -4.700   0.0094   0.00868   0.00270  -0.1198  0.7356  0.0082  -2.9798   0.0000   0.0000   0.0000  13.1483
  -4.600   0.0209   0.00855   0.00254  -0.1198  0.7323  0.0096  -2.8989   0.0000   0.0000   0.0000   6.0825
  -4.500   0.0321   0.00847   0.00247  -0.1199  0.7285  0.0110  -2.7927   0.0000   0.0000   0.0000   4.0356
  -4.400   0.0433   0.00842   0.00242  -0.1199  0.7244  0.0122  -2.6772   0.0000   0.0000   0.0000   3.0579
  -4.300   0.0544   0.00838   0.00237  -0.1199  0.7200  0.0132  -2.5593   0.0000   0.0000   0.0000   2.4845
  -4.200   0.0654   0.00836   0.00232  -0.1199  0.7152  0.0141  -2.4408   0.0000   0.0000   0.0000   2.1074
  -4.100   0.0764   0.00835   0.00228  -0.1198  0.7097  0.0146  -2.3211   0.0000   0.0000   0.0000   1.8397
  -4.000   0.0874   0.00835   0.00227  -0.1199  0.7040  0.0150  -2.1996   0.0000   0.0000   0.0000   1.6383
  -3.800   0.1100   0.00836   0.00229  -0.1200  0.6977  0.0153  -1.9548   0.0000   0.0000   0.0000   1.3533
  -3.700   0.1219   0.00809   0.00198  -0.1201  0.6966  0.0239  -1.8906   0.0000   0.0000   0.0000   1.2459
  -3.600   0.1334   0.00799   0.00192  -0.1202  0.6953  0.0293  -1.8092   0.0000   0.0000   0.0000   1.1605
  -3.500   0.1449   0.00793   0.00187  -0.1203  0.6937  0.0349  -1.7420   0.0000   0.0000   0.0000   1.0885
  -3.400   0.1564   0.00782   0.00181  -0.1204  0.6918  0.0440  -1.6754   0.0000   0.0000   0.0000   1.0276
  -3.300   0.1679   0.00775   0.00175  -0.1205  0.6898  0.0500  -1.6090   0.0000   0.0000   0.0000   0.9748
  -3.200   0.1793   0.00770   0.00171  -0.1206  0.6875  0.0551  -1.5435   0.0000   0.0000   0.0000   0.9287
  -3.100   0.1907   0.00762   0.00167  -0.1207  0.6851  0.0656  -1.4792   0.0000   0.0000   0.0000   0.8884
  -3.000   0.2021   0.00755   0.00162  -0.1208  0.6825  0.0739  -1.4155   0.0000   0.0000   0.0000   0.8527
  -2.900   0.2134   0.00751   0.00158  -0.1208  0.6798  0.0809  -1.3527   0.0000   0.0000   0.0000   0.8207
  -2.800   0.2247   0.00743   0.00154  -0.1209  0.6770  0.0962  -1.2911   0.0000   0.0000   0.0000   0.7922
  -2.700   0.2360   0.00736   0.00150  -0.1210  0.6739  0.1081  -1.2302   0.0000   0.0000   0.0000   0.7665
  -2.600   0.2472   0.00729   0.00147  -0.1211  0.6706  0.1276  -1.1705   0.0000   0.0000   0.0000   0.7432
  -2.500   0.2584   0.00720   0.00143  -0.1212  0.6669  0.1490  -1.1116   0.0000   0.0000   0.0000   0.7220
  -2.400   0.2697   0.00706   0.00140  -0.1214  0.6629  0.1823  -1.0539   0.0000   0.0000   0.0000   0.7027
  -2.300   0.2810   0.00692   0.00136  -0.1216  0.6588  0.2218  -0.9971   0.0000   0.0000   0.0000   0.6850
  -2.200   0.2924   0.00680   0.00134  -0.1218  0.6549  0.2590  -0.9413   0.0000   0.0000   0.0000   0.6686
  -2.100   0.3038   0.00680   0.00133  -0.1218  0.6517  0.2629  -0.8870   0.0000   0.0000   0.0000   0.6528
  -2.000   0.3154   0.00720   0.00130  -0.1215  0.6511  0.1618  -0.8379   0.0000   0.0000   0.0000   0.6368
  -1.900   0.3270   0.00709   0.00128  -0.1216  0.6505  0.1847  -0.7826   0.0000   0.0000   0.0000   0.6235
  -1.800   0.3386   0.00692   0.00125  -0.1219  0.6497  0.2270  -0.7283   0.0000   0.0000   0.0000   0.6113
  -1.700   0.3502   0.00669   0.00122  -0.1222  0.6488  0.2886  -0.6750   0.0000   0.0000   0.0000   0.6000
  -1.600   0.3618   0.00645   0.00121  -0.1225  0.6478  0.3582  -0.6565   0.0000   0.0000   0.0000   0.5895
  -1.500   0.3733   0.00629   0.00122  -0.1227  0.6465  0.4110  -0.6634   0.0000   0.0000   0.0000   0.5795
  -1.400   0.3848   0.00620   0.00124  -0.1229  0.6451  0.4462  -0.6702   0.0000   0.0000   0.0000   0.5698
  -1.300   0.3963   0.00614   0.00125  -0.1230  0.6434  0.4732  -0.6771   0.0000   0.0000   0.0000   0.5607
  -1.200   0.4077   0.00610   0.00126  -0.1231  0.6414  0.4971  -0.6839   0.0000   0.0000   0.0000   0.5521
  -1.100   0.4191   0.00606   0.00128  -0.1231  0.6393  0.5145  -0.6907   0.0000   0.0000   0.0000   0.5439
  -1.000   0.4305   0.00606   0.00128  -0.1232  0.6369  0.5230  -0.6975   0.0000   0.0000   0.0000   0.5361
  -0.900   0.4418   0.00607   0.00128  -0.1232  0.6345  0.5283  -0.7045   0.0000   0.0000   0.0000   0.5287
  -0.800   0.4532   0.00609   0.00128  -0.1232  0.6320  0.5312  -0.7121   0.0000   0.0000   0.0000   0.5216
  -0.700   0.4645   0.00608   0.00128  -0.1233  0.6294  0.5427  -0.7197   0.0000   0.0000   0.0000   0.5150
  -0.600   0.4758   0.00608   0.00129  -0.1233  0.6268  0.5546  -0.7272   0.0000   0.0000   0.0000   0.5087
  -0.500   0.4870   0.00608   0.00131  -0.1234  0.6240  0.5636  -0.7347   0.0000   0.0000   0.0000   0.5026
  -0.400   0.4981   0.00609   0.00132  -0.1234  0.6208  0.5707  -0.7422   0.0000   0.0000   0.0000   0.4969
  -0.300   0.5093   0.00612   0.00133  -0.1234  0.6174  0.5761  -0.7497   0.0000   0.0000   0.0000   0.4914
  -0.200   0.5206   0.00615   0.00134  -0.1234  0.6137  0.5808  -0.7572   0.0000   0.0000   0.0000   0.4861
  -0.100   0.5318   0.00618   0.00136  -0.1234  0.6101  0.5844  -0.7647   0.0000   0.0000   0.0000   0.4810
   0.000   0.5432   0.00622   0.00138  -0.1235  0.6065  0.5880  -0.7722   0.0000   0.0000   0.0000   0.4761
   0.100   0.5546   0.00623   0.00141  -0.1236  0.6038  0.5992  -0.7798   0.0000   0.0000   0.0000   0.4715
   0.200   0.5661   0.00621   0.00141  -0.1237  0.6034  0.6093  -0.7876   0.0000   0.0000   0.0000   0.4670
   0.300   0.5776   0.00619   0.00143  -0.1237  0.6029  0.6174  -0.7953   0.0000   0.0000   0.0000   0.4627
   0.400   0.5890   0.00618   0.00144  -0.1238  0.6024  0.6241  -0.8030   0.0000   0.0000   0.0000   0.4586
   0.500   0.6005   0.00617   0.00145  -0.1239  0.6017  0.6297  -0.8108   0.0000   0.0000   0.0000   0.4546
   0.600   0.6120   0.00617   0.00146  -0.1240  0.6009  0.6346  -0.8186   0.0000   0.0000   0.0000   0.4507
   0.700   0.6235   0.00617   0.00147  -0.1240  0.5999  0.6386  -0.8263   0.0000   0.0000   0.0000   0.4470
   0.800   0.6350   0.00617   0.00148  -0.1241  0.5987  0.6439  -0.8341   0.0000   0.0000   0.0000   0.4434
   0.900   0.6464   0.00615   0.00149  -0.1242  0.5974  0.6566  -0.8419   0.0000   0.0000   0.0000   0.4400
   1.000   0.6577   0.00613   0.00151  -0.1242  0.5958  0.6670  -0.8496   0.0000   0.0000   0.0000   0.4367
   1.100   0.6691   0.00613   0.00153  -0.1243  0.5940  0.6754  -0.8574   0.0000   0.0000   0.0000   0.4335
   1.200   0.6804   0.00613   0.00155  -0.1243  0.5920  0.6828  -0.8651   0.0000   0.0000   0.0000   0.4303
   1.300   0.6917   0.00614   0.00156  -0.1244  0.5900  0.6892  -0.8728   0.0000   0.0000   0.0000   0.4273
   1.400   0.7030   0.00616   0.00158  -0.1244  0.5878  0.6938  -0.8813   0.0000   0.0000   0.0000   0.4244
   1.500   0.7142   0.00615   0.00162  -0.1244  0.5854  0.7068  -0.8899   0.0000   0.0000   0.0000   0.4216
   1.600   0.7252   0.00615   0.00164  -0.1244  0.5825  0.7186  -0.8984   0.0000   0.0000   0.0000   0.4188
   1.700   0.7361   0.00617   0.00166  -0.1244  0.5792  0.7289  -0.9069   0.0000   0.0000   0.0000   0.4161
   1.800   0.7469   0.00620   0.00168  -0.1244  0.5752  0.7376  -0.9154   0.0000   0.0000   0.0000   0.4135
   1.900   0.7577   0.00624   0.00170  -0.1243  0.5705  0.7443  -0.9238   0.0000   0.0000   0.0000   0.4110
   2.000   0.7685   0.00626   0.00173  -0.1243  0.5657  0.7569  -0.9323   0.0000   0.0000   0.0000   0.4085
   2.100   0.7792   0.00629   0.00178  -0.1242  0.5612  0.7691  -0.9428   0.0000   0.0000   0.0000   0.4061
   2.200   0.7901   0.00632   0.00182  -0.1242  0.5571  0.7795  -0.9535   0.0000   0.0000   0.0000   0.4038
   2.300   0.8013   0.00633   0.00185  -0.1242  0.5555  0.7884  -0.9645   0.0000   0.0000   0.0000   0.4016
   2.500   0.8234   0.00630   0.00190  -0.1242  0.5540  0.8117  -0.9867   0.0000   0.0000   0.0000   0.3972
   2.600   0.8343   0.00628   0.00192  -0.1241  0.5528  0.8243  -1.0001   0.0000   0.0000   0.0000   0.3950
   2.700   0.8453   0.00627   0.00194  -0.1241  0.5513  0.8354  -1.0143   0.0000   0.0000   0.0000   0.3930
   2.800   0.8559   0.00625   0.00197  -0.1239  0.5496  0.8491  -1.0282   0.0000   0.0000   0.0000   0.3909
   2.900   0.8661   0.00624   0.00199  -0.1237  0.5476  0.8645  -1.0419   0.0000   0.0000   0.0000   0.3888
   3.000   0.8766   0.00624   0.00202  -0.1236  0.5456  0.8781  -1.0559   0.0000   0.0000   0.0000   0.3869
   3.100   0.8859   0.00622   0.00205  -0.1232  0.5436  0.8957  -1.0700   0.0000   0.0000   0.0000   0.3848
   3.200   0.8954   0.00621   0.00207  -0.1228  0.5412  0.9137  -1.0855   0.0000   0.0000   0.0000   0.3828
   3.300   0.9032   0.00618   0.00208  -0.1220  0.5384  0.9389  -1.1020   0.0000   0.0000   0.0000   0.3806
   3.400   0.9142   0.00616   0.00206  -0.1219  0.5346  0.9819  -1.1215   0.0000   0.0000   0.0000   0.3788
   3.500   0.9254   0.00621   0.00208  -0.1220  0.5298  1.0000  -1.1412   0.0000   0.0000   0.0000   0.3772
   3.600   0.9361   0.00628   0.00211  -0.1220  0.5240  1.0000  -1.1605   0.0000   0.0000   0.0000   0.3756
   3.700   0.9469   0.00635   0.00215  -0.1220  0.5177  1.0000  -1.1801   0.0000   0.0000   0.0000   0.3740
   3.800   0.9577   0.00642   0.00220  -0.1220  0.5119  1.0000  -1.2032   0.0000   0.0000   0.0000   0.3724
   3.900   0.9688   0.00648   0.00225  -0.1220  0.5076  1.0000  -1.2267   0.0000   0.0000   0.0000   0.3709
   4.000   0.9803   0.00650   0.00228  -0.1221  0.5070  1.0000  -1.2508   0.0000   0.0000   0.0000   0.3694
   4.100   0.9917   0.00652   0.00231  -0.1222  0.5062  1.0000  -1.2750   0.0000   0.0000   0.0000   0.3680
   4.200   1.0031   0.00654   0.00235  -0.1223  0.5050  1.0000  -1.3003   0.0000   0.0000   0.0000   0.3666
   4.300   1.0145   0.00657   0.00238  -0.1224  0.5025  1.0000  -1.3300   0.0000   0.0000   0.0000   0.3652
   4.400   1.0255   0.00661   0.00240  -0.1225  0.4969  1.0000  -1.3596   0.0000   0.0000   0.0000   0.3638
   4.500   1.0358   0.00670   0.00244  -0.1223  0.4860  1.0000  -1.3883   0.0000   0.0000   0.0000   0.3624
   4.600   1.0449   0.00687   0.00249  -0.1220  0.4684  1.0000  -1.4154   0.0000   0.0000   0.0000   0.3610
   4.700   1.0574   0.00683   0.00265  -0.1223  0.4781  1.0000  -1.4529   0.0000   0.0000   0.0000   0.3598
   4.800   1.0680   0.00691   0.00271  -0.1223  0.4725  1.0000  -1.4890   0.0000   0.0000   0.0000   0.3585
   4.900   1.0784   0.00700   0.00278  -0.1222  0.4647  1.0000  -1.5254   0.0000   0.0000   0.0000   0.3572
   5.000   1.0892   0.00706   0.00284  -0.1222  0.4594  1.0000  -1.5629   0.0000   0.0000   0.0000   0.3559
   5.100   1.1003   0.00710   0.00288  -0.1223  0.4566  1.0000  -1.6014   0.0000   0.0000   0.0000   0.3547
   5.200   1.1112   0.00715   0.00294  -0.1223  0.4514  1.0000  -1.6398   0.0000   0.0000   0.0000   0.3535
   5.300   1.1216   0.00724   0.00300  -0.1222  0.4432  1.0000  -1.6777   0.0000   0.0000   0.0000   0.3523
   5.400   1.1314   0.00738   0.00307  -0.1220  0.4325  1.0000  -1.7148   0.0000   0.0000   0.0000   0.3511
   5.500   1.1410   0.00752   0.00315  -0.1218  0.4207  1.0000  -1.7631   0.0000   0.0000   0.0000   0.3499
   5.600   1.1514   0.00762   0.00323  -0.1217  0.4125  1.0000  -1.8652   0.0000   0.0000   0.0000   0.3488
   5.700   1.1621   0.00768   0.00330  -0.1217  0.4076  1.0000  -1.9710   0.0000   0.0000   0.0000   0.3477
   5.800   1.1713   0.00786   0.00340  -0.1215  0.3907  1.0000  -2.0714   0.0000   0.0000   0.0000   0.3465
   5.900   1.1788   0.00819   0.00355  -0.1210  0.3623  1.0000  -2.1647   0.0000   0.0000   0.0000   0.3453
   6.000   1.1849   0.00864   0.00378  -0.1202  0.3245  1.0000  -2.2520   0.0000   0.0000   0.0000   0.3440
   6.100   1.1912   0.00908   0.00402  -0.1196  0.2910  1.0000  -2.3411   0.0000   0.0000   0.0000   0.3428
   6.200   1.1977   0.00950   0.00427  -0.1189  0.2587  1.0000  -2.4327   0.0000   0.0000   0.0000   0.3416
   6.300   1.2043   0.00992   0.00451  -0.1183  0.2288  1.0000  -2.5252   0.0000   0.0000   0.0000   0.3404
   6.400   1.2104   0.01038   0.00479  -0.1176  0.1993  1.0000  -2.6160   0.0000   0.0000   0.0000   0.3392
   6.500   1.2186   0.01064   0.00497  -0.1172  0.1843  1.0000  -2.7200   0.0000   0.0000   0.0000   0.3381
   6.600   1.2258   0.01099   0.00520  -0.1167  0.1652  1.0000  -2.8196   0.0000   0.0000   0.0000   0.3370
   6.700   1.2347   0.01118   0.00534  -0.1164  0.1551  1.0000  -2.9304   0.0000   0.0000   0.0000   0.3360
   6.800   1.2420   0.01151   0.00557  -0.1159  0.1404  1.0000  -3.0333   0.0000   0.0000   0.0000   0.3349
   6.900   1.2503   0.01175   0.00575  -0.1155  0.1270  1.0000  -3.1424   0.0000   0.0000   0.0000   0.3339
   7.000   1.2585   0.01199   0.00593  -0.1152  0.1172  1.0000  -3.2532   0.0000   0.0000   0.0000   0.3328
   7.100   1.2657   0.01231   0.00616  -0.1146  0.1040  1.0000  -3.3589   0.0000   0.0000   0.0000   0.3318
   7.200   1.2744   0.01251   0.00632  -0.1143  0.0961  1.0000  -3.4752   0.0000   0.0000   0.0000   0.3308
   7.300   1.2823   0.01276   0.00651  -0.1139  0.0875  1.0000  -3.5876   0.0000   0.0000   0.0000   0.3297
   7.400   1.2893   0.01308   0.00674  -0.1133  0.0760  1.0000  -3.6962   0.0000   0.0000   0.0000   0.3287
   7.500   1.2979   0.01327   0.00691  -0.1130  0.0698  1.0000  -3.8152   0.0000   0.0000   0.0000   0.3277
   7.600   1.3055   0.01353   0.00712  -0.1125  0.0630  1.0000  -3.9295   0.0000   0.0000   0.0000   0.3267
   7.700   1.3125   0.01383   0.00734  -0.1120  0.0543  1.0000  -4.0408   0.0000   0.0000   0.0000   0.3257
   7.800   1.3209   0.01402   0.00752  -0.1116  0.0488  1.0000  -4.1615   0.0000   0.0000   0.0000   0.3247
   7.900   1.3285   0.01426   0.00773  -0.1111  0.0437  1.0000  -4.2787   0.0000   0.0000   0.0000   0.3238
   8.000   1.3347   0.01460   0.00800  -0.1104  0.0364  1.0000  -4.3868   0.0000   0.0000   0.0000   0.3227
   8.100   1.3424   0.01483   0.00819  -0.1100  0.0305  1.0000  -4.5048   0.0000   0.0000   0.0000   0.3218
   8.300   1.3447   0.01618   0.00935  -0.1069  0.0045  1.0000  -4.5373   0.0000   0.0000   0.0000   0.3191
   8.400   1.3521   0.01642   0.00962  -0.1063  0.0038  1.0000  -4.5841   0.0000   0.0000   0.0000   0.3180
   8.500   1.3596   0.01662   0.00986  -0.1057  0.0036  1.0000  -4.6656   0.0000   0.0000   0.0000   0.3171
   8.600   1.3669   0.01683   0.01009  -0.1051  0.0035  1.0000  -4.7543   0.0000   0.0000   0.0000   0.3161
   8.700   1.3736   0.01703   0.01034  -0.1044  0.0034  1.0000  -4.8447   0.0000   0.0000   0.0000   0.3150
   8.800   1.3800   0.01725   0.01058  -0.1037  0.0034  1.0000  -4.9361   0.0000   0.0000   0.0000   0.3140
   8.900   1.3861   0.01747   0.01084  -0.1029  0.0034  1.0000  -5.0280   0.0000   0.0000   0.0000   0.3129
   9.000   1.3919   0.01771   0.01111  -0.1021  0.0033  1.0000  -5.1195   0.0000   0.0000   0.0000   0.3119
   9.100   1.3974   0.01795   0.01140  -0.1012  0.0033  1.0000  -5.2107   0.0000   0.0000   0.0000   0.3108
   9.200   1.4028   0.01821   0.01169  -0.1003  0.0033  1.0000  -5.3020   0.0000   0.0000   0.0000   0.3098
   9.300   1.4081   0.01848   0.01200  -0.0994  0.0033  1.0000  -5.3932   0.0000   0.0000   0.0000   0.3087
   9.400   1.4131   0.01876   0.01232  -0.0985  0.0033  1.0000  -5.4831   0.0000   0.0000   0.0000   0.3077
   9.500   1.4178   0.01906   0.01266  -0.0976  0.0033  1.0000  -5.5719   0.0000   0.0000   0.0000   0.3066
   9.600   1.4224   0.01937   0.01301  -0.0966  0.0033  1.0000  -5.6604   0.0000   0.0000   0.0000   0.3056
   9.700   1.4269   0.01970   0.01337  -0.0957  0.0033  1.0000  -5.7485   0.0000   0.0000   0.0000   0.3046
   9.800   1.4310   0.02004   0.01376  -0.0947  0.0033  1.0000  -5.8346   0.0000   0.0000   0.0000   0.3036
   9.900   1.4349   0.02041   0.01417  -0.0937  0.0033  1.0000  -5.9186   0.0000   0.0000   0.0000   0.3025
  10.000   1.4385   0.02079   0.01459  -0.0927  0.0034  1.0000  -6.0016   0.0000   0.0000   0.0000   0.3015
  10.100   1.4420   0.02119   0.01504  -0.0917  0.0034  1.0000  -6.0832   0.0000   0.0000   0.0000   0.3005
  10.200   1.4451   0.02162   0.01551  -0.0907  0.0034  1.0000  -6.1617   0.0000   0.0000   0.0000   0.2995
  10.300   1.4477   0.02207   0.01601  -0.0896  0.0034  1.0000  -6.2371   0.0000   0.0000   0.0000   0.2985
  10.400   1.4503   0.02255   0.01654  -0.0886  0.0034  1.0000  -6.3116   0.0000   0.0000   0.0000   0.2975
  10.500   1.4528   0.02306   0.01710  -0.0876  0.0034  1.0000  -6.3847   0.0000   0.0000   0.0000   0.2966
  10.600   1.4547   0.02361   0.01770  -0.0866  0.0035  1.0000  -6.4530   0.0000   0.0000   0.0000   0.2956
  10.700   1.4563   0.02419   0.01834  -0.0855  0.0035  1.0000  -6.5183   0.0000   0.0000   0.0000   0.2947
  10.800   1.4578   0.02480   0.01900  -0.0845  0.0035  1.0000  -6.5823   0.0000   0.0000   0.0000   0.2938
  10.900   1.4590   0.02546   0.01971  -0.0835  0.0035  1.0000  -6.6424   0.0000   0.0000   0.0000   0.2929
  11.000   1.4595   0.02617   0.02048  -0.0825  0.0036  1.0000  -6.6967   0.0000   0.0000   0.0000   0.2920
  11.100   1.4600   0.02691   0.02127  -0.0815  0.0036  1.0000  -6.7494   0.0000   0.0000   0.0000   0.2911
  11.200   1.4601   0.02767   0.02210  -0.0805  0.0036  1.0000  -6.7983   0.0000   0.0000   0.0000   0.2902
  11.300   1.4593   0.02851   0.02300  -0.0795  0.0037  1.0000  -6.8402   0.0000   0.0000   0.0000   0.2894
  11.400   1.4585   0.02939   0.02394  -0.0786  0.0037  1.0000  -6.8800   0.0000   0.0000   0.0000   0.2886
  11.500   1.4579   0.03030   0.02491  -0.0776  0.0037  1.0000  -6.9195   0.0000   0.0000   0.0000   0.2878
  11.600   1.4572   0.03126   0.02594  -0.0768  0.0038  1.0000  -6.9563   0.0000   0.0000   0.0000   0.2871
  11.700   1.4556   0.03232   0.02706  -0.0759  0.0038  1.0000  -6.9875   0.0000   0.0000   0.0000   0.2863
  11.800   1.4544   0.03338   0.02818  -0.0751  0.0038  1.0000  -7.0187   0.0000   0.0000   0.0000   0.2857
  11.900   1.4534   0.03445   0.02932  -0.0743  0.0039  1.0000  -7.0495   0.0000   0.0000   0.0000   0.2850
  12.000   1.4523   0.03555   0.03049  -0.0736  0.0039  1.0000  -7.0781   0.0000   0.0000   0.0000   0.2843
  12.100   1.4504   0.03676   0.03177  -0.0729  0.0039  1.0000  -7.1011   0.0000   0.0000   0.0000   0.2837
  12.200   1.4486   0.03797   0.03304  -0.0722  0.0040  1.0000  -7.1235   0.0000   0.0000   0.0000   0.2831
  12.300   1.4472   0.03917   0.03431  -0.0715  0.0040  1.0000  -7.1459   0.0000   0.0000   0.0000   0.2825
  12.400   1.4459   0.04037   0.03558  -0.0708  0.0041  1.0000  -7.1673   0.0000   0.0000   0.0000   0.2819
  12.500   1.4446   0.04159   0.03687  -0.0701  0.0041  1.0000  -7.1872   0.0000   0.0000   0.0000   0.2813
  12.600   1.4429   0.04287   0.03822  -0.0695  0.0042  1.0000  -7.2034   0.0000   0.0000   0.0000   0.2807
  12.700   1.4406   0.04421   0.03963  -0.0689  0.0042  1.0000  -7.2164   0.0000   0.0000   0.0000   0.2802
  12.800   1.4387   0.04553   0.04103  -0.0684  0.0043  1.0000  -7.2292   0.0000   0.0000   0.0000   0.2797
  12.900   1.4369   0.04683   0.04240  -0.0677  0.0044  1.0000  -7.2407   0.0000   0.0000   0.0000   0.2791
  13.000   1.4348   0.04811   0.04375  -0.0671  0.0044  1.0000  -7.2502   0.0000   0.0000   0.0000   0.2786
  13.100   1.4330   0.04945   0.04517  -0.0666  0.0045  1.0000  -7.2586   0.0000   0.0000   0.0000   0.2781
  13.200   1.4312   0.05086   0.04666  -0.0660  0.0045  1.0000  -7.2635   0.0000   0.0000   0.0000   0.2776
  13.300   1.4293   0.05233   0.04822  -0.0655  0.0046  1.0000  -7.2661   0.0000   0.0000   0.0000   0.2771
  13.400   1.4265   0.05395   0.04992  -0.0651  0.0047  1.0000  -7.2645   0.0000   0.0000   0.0000   0.2767
  13.500   1.4233   0.05565   0.05170  -0.0648  0.0047  1.0000  -7.2600   0.0000   0.0000   0.0000   0.2764
  13.600   1.4203   0.05738   0.05351  -0.0645  0.0048  1.0000  -7.2544   0.0000   0.0000   0.0000   0.2761
  13.700   1.4174   0.05914   0.05536  -0.0642  0.0049  1.0000  -7.2472   0.0000   0.0000   0.0000   0.2758
  13.800   1.4143   0.06096   0.05726  -0.0640  0.0050  1.0000  -7.2379   0.0000   0.0000   0.0000   0.2756
  13.900   1.4109   0.06283   0.05922  -0.0638  0.0050  1.0000  -7.2263   0.0000   0.0000   0.0000   0.2754
  14.000   1.4071   0.06477   0.06124  -0.0637  0.0051  1.0000  -7.2124   0.0000   0.0000   0.0000   0.2752
  14.100   1.4024   0.06682   0.06337  -0.0638  0.0052  1.0000  -7.1954   0.0000   0.0000   0.0000   0.2752
  14.200   1.3967   0.06900   0.06564  -0.0640  0.0052  1.0000  -7.1755   0.0000   0.0000   0.0000   0.2754
  14.300   1.3914   0.07117   0.06789  -0.0642  0.0053  1.0000  -7.1549   0.0000   0.0000   0.0000   0.2755
  14.400   1.3861   0.07335   0.07016  -0.0644  0.0053  1.0000  -7.1329   0.0000   0.0000   0.0000   0.2757
  14.500   1.3807   0.07557   0.07246  -0.0648  0.0054  1.0000  -7.1092   0.0000   0.0000   0.0000   0.2759
  14.600   1.3749   0.07784   0.07482  -0.0652  0.0054  1.0000  -7.0837   0.0000   0.0000   0.0000   0.2762
  14.700   1.3677   0.08030   0.07735  -0.0659  0.0055  1.0000  -7.0562   0.0000   0.0000   0.0000   0.2767
  14.800   1.3610   0.08274   0.07987  -0.0666  0.0055  1.0000  -7.0277   0.0000   0.0000   0.0000   0.2773
  14.900   1.3546   0.08515   0.08235  -0.0673  0.0056  1.0000  -6.9981   0.0000   0.0000   0.0000   0.2778
  15.000   1.3482   0.08759   0.08487  -0.0681  0.0056  1.0000  -6.9671   0.0000   0.0000   0.0000   0.2785
  15.100   1.3413   0.09011   0.08747  -0.0690  0.0056  1.0000  -6.9349   0.0000   0.0000   0.0000   0.2792
  15.200   1.3336   0.09280   0.09022  -0.0702  0.0057  1.0000  -6.9018   0.0000   0.0000   0.0000   0.2802
  15.300   1.3267   0.09542   0.09292  -0.0713  0.0057  1.0000  -6.8675   0.0000   0.0000   0.0000   0.2811
  15.400   1.3199   0.09799   0.09556  -0.0725  0.0057  1.0000  -6.8323   0.0000   0.0000   0.0000   0.2821
  15.500   1.3131   0.10042   0.09806  -0.0737  0.0057  1.0000  -6.7966   0.0000   0.0000   0.0000   0.2831
  15.600   1.3053   0.10310   0.10080  -0.0753  0.0058  1.0000  -6.7600   0.0000   0.0000   0.0000   0.2845
  15.700   1.2982   0.10573   0.10350  -0.0768  0.0058  1.0000  -6.7220   0.0000   0.0000   0.0000   0.2858
  15.800   1.2914   0.10837   0.10620  -0.0783  0.0058  1.0000  -6.6826   0.0000   0.0000   0.0000   0.2871
  15.900   1.2846   0.11115   0.10905  -0.0800  0.0058  1.0000  -6.6415   0.0000   0.0000   0.0000   0.2885
  16.000   1.2769   0.11426   0.11222  -0.0820  0.0058  1.0000  -6.5991   0.0000   0.0000   0.0000   0.2902
  16.100   1.2700   0.11728   0.11530  -0.0838  0.0058  1.0000  -6.5549   0.0000   0.0000   0.0000   0.2919
  16.200   1.2633   0.12035   0.11843  -0.0857  0.0058  1.0000  -6.5087   0.0000   0.0000   0.0000   0.2936
  16.300   1.2562   0.12367   0.12180  -0.0878  0.0059  1.0000  -6.4606   0.0000   0.0000   0.0000   0.2955
  16.400   1.2490   0.12711   0.12530  -0.0901  0.0059  1.0000  -6.4106   0.0000   0.0000   0.0000   0.2975
  16.500   1.2423   0.13051   0.12875  -0.0922  0.0059  1.0000  -6.3581   0.0000   0.0000   0.0000   0.2995
  16.600   1.2354   0.13410   0.13240  -0.0946  0.0059  1.0000  -6.3028   0.0000   0.0000   0.0000   0.3016
  16.700   1.2283   0.13793   0.13628  -0.0971  0.0058  1.0000  -6.2448   0.0000   0.0000   0.0000   0.3040
  16.800   1.2216   0.14168   0.14008  -0.0994  0.0058  1.0000  -6.1838   0.0000   0.0000   0.0000   0.3062
  16.900   1.2146   0.14572   0.14418  -0.1020  0.0058  1.0000  -6.1185   0.0000   0.0000   0.0000   0.3087
  17.000   1.2077   0.14987   0.14837  -0.1047  0.0058  1.0000  -6.0492   0.0000   0.0000   0.0000   0.3113
  17.100   1.2010   0.15402   0.15256  -0.1072  0.0058  1.0000  -5.9754   0.0000   0.0000   0.0000   0.3137
  17.200   1.1937   0.15866   0.15724  -0.1100  0.0058  1.0000  -5.8928   0.0000   0.0000   0.0000   0.3166
  17.300   1.1869   0.16318   0.16181  -0.1127  0.0058  1.0000  -5.8049   0.0000   0.0000   0.0000   0.3193
  17.400   1.1793   0.16821   0.16689  -0.1156  0.0057  1.0000  -5.7031   0.0000   0.0000   0.0000   0.3224
  17.500   1.1719   0.17328   0.17199  -0.1184  0.0057  1.0000  -5.5920   0.0000   0.0000   0.0000   0.3253
  17.600   1.1635   0.17899   0.17774  -0.1215  0.0057  1.0000  -5.4562   0.0000   0.0000   0.0000   0.3287
  17.700   1.1550   0.18489   0.18367  -0.1244  0.0057  1.0000  -5.3012   0.0000   0.0000   0.0000   0.3320
  17.800   1.1450   0.19179   0.19059  -0.1276  0.0056  1.0000  -5.0961   0.0000   0.0000   0.0000   0.3359
  17.900   1.1330   0.19985   0.19867  -0.1310  0.0056  1.0000  -4.8162   0.0000   0.0000   0.0000   0.3403
  18.000   1.1191   0.20933   0.20816  -0.1344  0.0057  1.0000  -4.4244   0.0000   0.0000   0.0000   0.3450
  18.100   1.1083   0.21756   0.21638  -0.1373  0.0058  1.0000  -4.0897   0.0000   0.0000   0.0000   0.3489
  18.200   1.1009   0.22423   0.22304  -0.1396  0.0060  1.0000  -3.8476   0.0000   0.0000   0.0000   0.3520
  18.300   1.0950   0.23024   0.22904  -0.1417  0.0061  1.0000  -3.6429   0.0000   0.0000   0.0000   0.3546
  18.400   1.0897   0.23597   0.23477  -0.1436  0.0063  1.0000  -3.4534   0.0000   0.0000   0.0000   0.3570
  18.500   1.0839   0.24197   0.24076  -0.1455  0.0065  1.0000  -3.2480   0.0000   0.0000   0.0000   0.3595
  18.700   1.0629   0.25855   0.25731  -0.1499  0.0073  1.0000  -2.5775   0.0000   0.0000   0.0000   0.3666
  18.800   1.0625   0.26169   0.26046  -0.1509  0.0073  1.0000  -2.5511   0.0000   0.0000   0.0000   0.3674
  18.900   1.0622   0.26480   0.26357  -0.1518  0.0073  1.0000  -2.5299   0.0000   0.0000   0.0000   0.3682
  19.000   1.0618   0.26788   0.26665  -0.1527  0.0073  1.0000  -2.5101   0.0000   0.0000   0.0000   0.3689
  19.100   1.0614   0.27093   0.26970  -0.1535  0.0073  1.0000  -2.4915   0.0000   0.0000   0.0000   0.3697
  19.200   1.0610   0.27395   0.27272  -0.1544  0.0073  1.0000  -2.4739   0.0000   0.0000   0.0000   0.3704
  19.300   1.0605   0.27694   0.27571  -0.1552  0.0073  1.0000  -2.4573   0.0000   0.0000   0.0000   0.3711
  19.400   1.0599   0.27990   0.27867  -0.1560  0.0073  1.0000  -2.4415   0.0000   0.0000   0.0000   0.3718
  19.500   1.0592   0.28283   0.28161  -0.1568  0.0073  1.0000  -2.4262   0.0000   0.0000   0.0000   0.3725
  19.600   1.0584   0.28573   0.28451  -0.1575  0.0073  1.0000  -2.4114   0.0000   0.0000   0.0000   0.3732
  19.700   1.0575   0.28859   0.28737  -0.1582  0.0073  1.0000  -2.3970   0.0000   0.0000   0.0000   0.3739
  19.800   1.0563   0.29141   0.29020  -0.1589  0.0073  1.0000  -2.3827   0.0000   0.0000   0.0000   0.3746
  19.900   1.0550   0.29418   0.29297  -0.1596  0.0073  1.0000  -2.3686   0.0000   0.0000   0.0000   0.3753
  20.000   1.0534   0.29690   0.29569  -0.1602  0.0073  1.0000  -2.3544   0.0000   0.0000   0.0000   0.3760
  20.100   1.0515   0.29954   0.29834  -0.1608  0.0073  1.0000  -2.3398   0.0000   0.0000   0.0000   0.3766
  20.200   1.0491   0.30210   0.30090  -0.1613  0.0073  1.0000  -2.3244   0.0000   0.0000   0.0000   0.3774
  20.300   1.0461   0.30453   0.30335  -0.1617  0.0073  1.0000  -2.3076   0.0000   0.0000   0.0000   0.3781
  20.400   1.0421   0.30680   0.30562  -0.1620  0.0073  1.0000  -2.2881   0.0000   0.0000   0.0000   0.3789
  20.600   0.9680   0.29675   0.29565  -0.1550  0.0073  1.0000  -2.0340   0.0000   0.0000   0.0000   0.3844
  20.700   0.9617   0.29702   0.29593  -0.1548  0.0073  1.0000  -2.0094   0.0000   0.0000   0.0000   0.3853
  20.800   0.9563   0.29740   0.29632  -0.1548  0.0073  1.0000  -1.9876   0.0000   0.0000   0.0000   0.3861
  20.900   0.9515   0.29785   0.29677  -0.1547  0.0073  1.0000  -1.9675   0.0000   0.0000   0.0000   0.3868
  21.000   0.9471   0.29835   0.29728  -0.1547  0.0073  1.0000  -1.9484   0.0000   0.0000   0.0000   0.3875
  21.100   0.9432   0.29890   0.29784  -0.1548  0.0072  1.0000  -1.9308   0.0000   0.0000   0.0000   0.3882
  21.200   0.9396   0.29947   0.29842  -0.1549  0.0072  1.0000  -1.9144   0.0000   0.0000   0.0000   0.3888
  21.300   0.9362   0.30008   0.29903  -0.1550  0.0072  1.0000  -1.8990   0.0000   0.0000   0.0000   0.3894
  21.400   0.9332   0.30070   0.29966  -0.1551  0.0072  1.0000  -1.8843   0.0000   0.0000   0.0000   0.3900
  21.500   0.9303   0.30135   0.30031  -0.1553  0.0072  1.0000  -1.8702   0.0000   0.0000   0.0000   0.3906
  21.600   0.9276   0.30201   0.30098  -0.1554  0.0072  1.0000  -1.8565   0.0000   0.0000   0.0000   0.3912


