xflr5 v6.61

 Calculated polar for: EPPLER E852 AIRFOIL

 1 1 Reynolds number fixed          Mach number fixed         

 xtrf =   1.000 (top)        1.000 (bottom)
 Mach =   0.000     Re =     0.160 e 6     Ncrit =   9.000

  alpha     CL        CD       CDp       Cm    Top Xtr Bot Xtr   Cpmin    Chinge    XCp    
 ------- -------- --------- --------- -------- ------- ------- -------- --------- ---------
 -10.000  -0.4310   0.10666   0.10279  -0.0448  1.0000  0.0445  -2.2358   0.0000   0.0000   0.0000   0.1378
  -9.900  -0.4281   0.10522   0.10135  -0.0440  1.0000  0.0451  -2.1999   0.0000   0.0000   0.0000   0.1390
  -9.800  -0.4259   0.10395   0.10009  -0.0435  1.0000  0.0457  -2.1733   0.0000   0.0000   0.0000   0.1397
  -9.700  -0.4242   0.10274   0.09888  -0.0432  1.0000  0.0463  -2.1537   0.0000   0.0000   0.0000   0.1402
  -9.600  -0.4225   0.10156   0.09771  -0.0429  1.0000  0.0468  -2.1362   0.0000   0.0000   0.0000   0.1406
  -9.500  -0.4212   0.10038   0.09654  -0.0427  1.0000  0.0474  -2.1237   0.0000   0.0000   0.0000   0.1408
  -9.400  -0.4204   0.09919   0.09537  -0.0426  1.0000  0.0479  -2.1160   0.0000   0.0000   0.0000   0.1410
  -9.300  -0.4199   0.09799   0.09418  -0.0426  1.0000  0.0485  -2.1121   0.0000   0.0000   0.0000   0.1411
  -9.200  -0.4197   0.09678   0.09299  -0.0426  1.0000  0.0490  -2.1112   0.0000   0.0000   0.0000   0.1412
  -9.100  -0.4199   0.09556   0.09179  -0.0426  1.0000  0.0495  -2.1131   0.0000   0.0000   0.0000   0.1413
  -9.000  -0.4203   0.09433   0.09059  -0.0426  1.0000  0.0500  -2.1172   0.0000   0.0000   0.0000   0.1414
  -8.900  -0.4211   0.09311   0.08938  -0.0427  1.0000  0.0506  -2.1234   0.0000   0.0000   0.0000   0.1416
  -8.800  -0.4221   0.09188   0.08818  -0.0427  1.0000  0.0511  -2.1315   0.0000   0.0000   0.0000   0.1418
  -8.700  -0.4236   0.09065   0.08697  -0.0428  1.0000  0.0516  -2.1413   0.0000   0.0000   0.0000   0.1422
  -8.600  -0.4253   0.08943   0.08578  -0.0428  1.0000  0.0521  -2.1528   0.0000   0.0000   0.0000   0.1426
  -8.500  -0.4275   0.08821   0.08459  -0.0428  1.0000  0.0526  -2.1658   0.0000   0.0000   0.0000   0.1433
  -8.400  -0.4300   0.08701   0.08342  -0.0428  1.0000  0.0530  -2.1803   0.0000   0.0000   0.0000   0.1441
  -8.300  -0.4331   0.08583   0.08227  -0.0427  1.0000  0.0535  -2.1961   0.0000   0.0000   0.0000   0.1451
  -8.200  -0.4368   0.08468   0.08115  -0.0426  1.0000  0.0539  -2.2134   0.0000   0.0000   0.0000   0.1465
  -8.100  -0.4411   0.08358   0.08009  -0.0423  1.0000  0.0542  -2.2319   0.0000   0.0000   0.0000   0.1482
  -8.000  -0.4463   0.08254   0.07909  -0.0419  1.0000  0.0545  -2.2517   0.0000   0.0000   0.0000   0.1504
  -7.900  -0.4525   0.08159   0.07817  -0.0413  1.0000  0.0547  -2.2726   0.0000   0.0000   0.0000   0.1532
  -7.800  -0.4598   0.08074   0.07737  -0.0404  1.0000  0.0549  -2.2944   0.0000   0.0000   0.0000   0.1566
  -7.700  -0.4684   0.08002   0.07669  -0.0393  1.0000  0.0549  -2.3170   0.0000   0.0000   0.0000   0.1608
  -7.600  -0.4781   0.07941   0.07613  -0.0380  1.0000  0.0548  -2.3403   0.0000   0.0000   0.0000   0.1654
  -7.500  -0.4885   0.07885   0.07561  -0.0366  1.0000  0.0547  -2.3645   0.0000   0.0000   0.0000   0.1701
  -7.400  -0.4979   0.07809   0.07489  -0.0358  1.0000  0.0547  -2.3898   0.0000   0.0000   0.0000   0.1735
  -7.300  -0.5061   0.07707   0.07391  -0.0355  1.0000  0.0546  -2.4171   0.0000   0.0000   0.0000   0.1753
  -7.200  -0.5140   0.07588   0.07275  -0.0356  1.0000  0.0546  -2.4472   0.0000   0.0000   0.0000   0.1763
  -7.100  -0.5215   0.07445   0.07134  -0.0363  1.0000  0.0546  -2.4812   0.0000   0.0000   0.0000   0.1762
  -7.000  -0.5283   0.07285   0.06975  -0.0372  1.0000  0.0546  -2.5174   0.0000   0.0000   0.0000   0.1755
  -6.900  -0.5339   0.07142   0.06831  -0.0376  1.0000  0.0548  -2.5465   0.0000   0.0000   0.0000   0.1755
  -6.800  -0.5375   0.06984   0.06671  -0.0384  0.9998  0.0551  -2.5734   0.0000   0.0000   0.0000   0.1746
  -6.700  -0.5281   0.06671   0.06350  -0.0433  0.9973  0.0565  -2.6054   0.0000   0.0000   0.0000   0.1641
  -6.600  -0.5192   0.06389   0.06058  -0.0475  0.9947  0.0580  -2.6359   0.0000   0.0000   0.0000   0.1545
  -6.500  -0.5090   0.06134   0.05789  -0.0515  0.9919  0.0600  -2.6668   0.0000   0.0000   0.0000   0.1448
  -6.400  -0.4834   0.06339   0.05955  -0.0558  0.9886  0.0652  -2.6330   0.0000   0.0000   0.0000   0.1304
  -6.300  -0.4720   0.06181   0.05781  -0.0583  0.9866  0.0654  -2.6330   0.0000   0.0000   0.0000   0.1225
  -6.200  -0.4638   0.06014   0.05601  -0.0597  0.9838  0.0656  -2.6348   0.0000   0.0000   0.0000   0.1172
  -6.100  -0.4724   0.05093   0.04669  -0.0641  0.9813  0.0688  -2.7923   0.0000   0.0000   0.0000   0.1103
  -6.000  -0.4644   0.04856   0.04431  -0.0653  0.9795  0.0704  -2.7626   0.0000   0.0000   0.0000   0.1053
  -5.900  -0.4542   0.04691   0.04268  -0.0662  0.9780  0.0719  -2.7165   0.0000   0.0000   0.0000   0.1001
  -5.800  -0.4432   0.04535   0.04108  -0.0674  0.9766  0.0734  -2.6781   0.0000   0.0000   0.0000   0.0940
  -5.700  -0.4313   0.04373   0.03937  -0.0687  0.9753  0.0748  -2.6497   0.0000   0.0000   0.0000   0.0866
  -5.600  -0.4103   0.03760   0.03242  -0.0700  0.9744  0.0377  -3.1438   0.0000   0.0000   0.0000   0.0748
  -5.500  -0.3977   0.03490   0.02946  -0.0715  0.9736  0.0348  -3.2051   0.0000   0.0000   0.0000   0.0656
  -5.400  -0.3836   0.03239   0.02663  -0.0726  0.9729  0.0321  -3.2888   0.0000   0.0000   0.0000   0.0559
  -5.300  -0.3735   0.03036   0.02427  -0.0726  0.9711  0.0301  -3.3787   0.0000   0.0000   0.0000   0.0507
  -5.200  -0.3624   0.02866   0.02228  -0.0726  0.9695  0.0287  -3.4446   0.0000   0.0000   0.0000   0.0446
  -5.100  -0.3505   0.02733   0.02072  -0.0728  0.9679  0.0279  -3.4684   0.0000   0.0000   0.0000   0.0374
  -5.000  -0.3382   0.02621   0.01939  -0.0730  0.9665  0.0276  -3.4646   0.0000   0.0000   0.0000   0.0291
  -4.900  -0.3256   0.02517   0.01819  -0.0733  0.9652  0.0276  -3.4451   0.0000   0.0000   0.0000   0.0198
  -4.800  -0.3128   0.02420   0.01708  -0.0737  0.9640  0.0279  -3.4153   0.0000   0.0000   0.0000   0.0093
  -4.700  -0.3000   0.02344   0.01626  -0.0742  0.9627  0.0293  -3.3475   0.0000   0.0000   0.0000  -0.0025
  -4.600  -0.2869   0.02309   0.01589  -0.0748  0.9613  0.0323  -3.2309   0.0000   0.0000   0.0000  -0.0162
  -4.500  -0.2733   0.02264   0.01538  -0.0754  0.9601  0.0352  -3.1453   0.0000   0.0000   0.0000  -0.0315
  -4.400  -0.2593   0.02191   0.01454  -0.0759  0.9592  0.0370  -3.1075   0.0000   0.0000   0.0000  -0.0483
  -4.300  -0.2451   0.02116   0.01369  -0.0763  0.9583  0.0387  -3.0755   0.0000   0.0000   0.0000  -0.0671
  -4.200  -0.2307   0.02058   0.01303  -0.0768  0.9575  0.0409  -3.0228   0.0000   0.0000   0.0000  -0.0888
  -4.100  -0.2166   0.01968   0.01196  -0.0773  0.9568  0.0439  -3.0095   0.0000   0.0000   0.0000  -0.1130
  -4.000  -0.2027   0.01882   0.01116  -0.0783  0.9561  0.0548  -2.9604   0.0000   0.0000   0.0000  -0.1425
  -3.900  -0.1875   0.01847   0.01076  -0.0791  0.9553  0.0638  -2.9056   0.0000   0.0000   0.0000  -0.1785
  -3.800  -0.1725   0.01753   0.00984  -0.0801  0.9548  0.0797  -2.8734   0.0000   0.0000   0.0000  -0.2214
  -3.700  -0.1571   0.01684   0.00928  -0.0813  0.9542  0.1166  -2.7945   0.0000   0.0000   0.0000  -0.2749
  -3.600  -0.1439   0.01511   0.00893  -0.0831  0.9541  0.3921  -2.7086   0.0000   0.0000   0.0000  -0.3354
  -3.500  -0.1353   0.01504   0.00910  -0.0826  0.9522  0.4713  -2.5970   0.0000   0.0000   0.0000  -0.3690
  -3.400  -0.1280   0.01508   0.00913  -0.0819  0.9496  0.4972  -2.4915   0.0000   0.0000   0.0000  -0.3977
  -3.300  -0.1193   0.01513   0.00922  -0.0814  0.9473  0.5193  -2.3742   0.0000   0.0000   0.0000  -0.4408
  -3.200  -0.1087   0.01525   0.00925  -0.0813  0.9452  0.5378  -2.2468   0.0000   0.0000   0.0000  -0.5071
  -3.100  -0.0983   0.01528   0.00934  -0.0810  0.9433  0.5566  -2.1198   0.0000   0.0000   0.0000  -0.5844
  -3.000  -0.0870   0.01538   0.00946  -0.0809  0.9413  0.5735  -1.9882   0.0000   0.0000   0.0000  -0.6907
  -2.900  -0.0742   0.01550   0.00951  -0.0812  0.9395  0.5870  -1.8507   0.0000   0.0000   0.0000  -0.8565
  -2.800  -0.0605   0.01558   0.00952  -0.0817  0.9378  0.5975  -1.7113   0.0000   0.0000   0.0000  -1.1139
  -2.700  -0.0474   0.01553   0.00951  -0.0819  0.9363  0.6094  -1.5773   0.0000   0.0000   0.0000  -1.4939
  -2.600  -0.0337   0.01556   0.00954  -0.0823  0.9349  0.6189  -1.4422   0.0000   0.0000   0.0000  -2.2127
  -2.500  -0.0194   0.01562   0.00956  -0.0829  0.9336  0.6280  -1.3071   0.0000   0.0000   0.0000  -4.0568
  -2.400  -0.0047   0.01569   0.00958  -0.0835  0.9324  0.6370  -1.1730   0.0000   0.0000   0.0000  -17.7645
  -2.300   0.0103   0.01581   0.00963  -0.0842  0.9314  0.6457  -1.0402   0.0000   0.0000   0.0000   8.5324
  -2.200   0.0241   0.01577   0.00956  -0.0847  0.9305  0.6569  -0.9137   0.0000   0.0000   0.0000   3.7928
  -2.100   0.0374   0.01581   0.00964  -0.0850  0.9296  0.6672  -0.7962   0.0000   0.0000   0.0000   2.5387
  -2.000   0.0371   0.01593   0.00977  -0.0828  0.9260  0.6735  -0.7466   0.0000   0.0000   0.0000   2.4946
  -1.900   0.0434   0.01602   0.00986  -0.0819  0.9233  0.6810  -0.6811   0.0000   0.0000   0.0000   2.1498
  -1.800   0.0522   0.01610   0.00991  -0.0815  0.9209  0.6878  -0.6383   0.0000   0.0000   0.0000   1.8212
  -1.700   0.0626   0.01616   0.00993  -0.0815  0.9189  0.6932  -0.5957   0.0000   0.0000   0.0000   1.5588
  -1.600   0.0741   0.01622   0.00993  -0.0817  0.9170  0.6975  -0.5518   0.0000   0.0000   0.0000   1.3588
  -1.500   0.0861   0.01621   0.00989  -0.0820  0.9154  0.7020  -0.5100   0.0000   0.0000   0.0000   1.2077
  -1.400   0.0978   0.01614   0.00982  -0.0822  0.9139  0.7081  -0.4712   0.0000   0.0000   0.0000   1.0948
  -1.300   0.1098   0.01612   0.00981  -0.0825  0.9124  0.7135  -0.4323   0.0000   0.0000   0.0000   1.0046
  -1.200   0.1222   0.01612   0.00980  -0.0828  0.9110  0.7186  -0.3977   0.0000   0.0000   0.0000   0.9301
  -1.100   0.1350   0.01613   0.00980  -0.0832  0.9097  0.7235  -0.3701   0.0000   0.0000   0.0000   0.8685
  -1.000   0.1482   0.01613   0.00979  -0.0837  0.9085  0.7284  -0.3715   0.0000   0.0000   0.0000   0.8164
  -0.900   0.1619   0.01614   0.00976  -0.0843  0.9073  0.7331  -0.3769   0.0000   0.0000   0.0000   0.7721
  -0.800   0.1760   0.01615   0.00974  -0.0850  0.9063  0.7379  -0.3826   0.0000   0.0000   0.0000   0.7342
  -0.700   0.1904   0.01617   0.00973  -0.0858  0.9053  0.7425  -0.3884   0.0000   0.0000   0.0000   0.7015
  -0.600   0.2052   0.01619   0.00973  -0.0866  0.9044  0.7468  -0.3948   0.0000   0.0000   0.0000   0.6729
  -0.500   0.2205   0.01618   0.00970  -0.0876  0.9035  0.7510  -0.4017   0.0000   0.0000   0.0000   0.6477
  -0.400   0.2354   0.01611   0.00966  -0.0884  0.9026  0.7573  -0.4085   0.0000   0.0000   0.0000   0.6257
  -0.300   0.2504   0.01608   0.00965  -0.0891  0.9018  0.7634  -0.4155   0.0000   0.0000   0.0000   0.6060
  -0.200   0.2659   0.01607   0.00967  -0.0899  0.9010  0.7696  -0.4227   0.0000   0.0000   0.0000   0.5882
  -0.100   0.2551   0.01632   0.00993  -0.0860  0.8945  0.7755  -0.4162   0.0000   0.0000   0.0000   0.5869
   0.000   0.2619   0.01640   0.01002  -0.0853  0.8915  0.7820  -0.4188   0.0000   0.0000   0.0000   0.5754
   0.100   0.2709   0.01647   0.01009  -0.0850  0.8892  0.7886  -0.4224   0.0000   0.0000   0.0000   0.5635
   0.200   0.2812   0.01654   0.01016  -0.0851  0.8872  0.7947  -0.4267   0.0000   0.0000   0.0000   0.5520
   0.300   0.2917   0.01656   0.01019  -0.0851  0.8853  0.8013  -0.4318   0.0000   0.0000   0.0000   0.5410
   0.400   0.3019   0.01655   0.01023  -0.0849  0.8836  0.8085  -0.4369   0.0000   0.0000   0.0000   0.5306
   0.500   0.3129   0.01655   0.01026  -0.0849  0.8819  0.8160  -0.4425   0.0000   0.0000   0.0000   0.5206
   0.600   0.3250   0.01654   0.01027  -0.0851  0.8803  0.8240  -0.4486   0.0000   0.0000   0.0000   0.5110
   0.700   0.3380   0.01652   0.01027  -0.0855  0.8787  0.8325  -0.4554   0.0000   0.0000   0.0000   0.5020
   0.800   0.3523   0.01649   0.01025  -0.0862  0.8773  0.8407  -0.4633   0.0000   0.0000   0.0000   0.4935
   0.900   0.3652   0.01639   0.01020  -0.0864  0.8759  0.8500  -0.4708   0.0000   0.0000   0.0000   0.4853
   1.000   0.3788   0.01630   0.01016  -0.0867  0.8746  0.8603  -0.4786   0.0000   0.0000   0.0000   0.4776
   1.100   0.3932   0.01623   0.01012  -0.0872  0.8735  0.8718  -0.4872   0.0000   0.0000   0.0000   0.4705
   1.200   0.4078   0.01616   0.01009  -0.0878  0.8725  0.8837  -0.4963   0.0000   0.0000   0.0000   0.4640
   1.300   0.4214   0.01609   0.01007  -0.0881  0.8715  0.8983  -0.5054   0.0000   0.0000   0.0000   0.4577
   1.500   0.4537   0.01598   0.01008  -0.0900  0.8699  0.9397  -0.5283   0.0000   0.0000   0.0000   0.4468
   1.600   0.4775   0.01590   0.01004  -0.0926  0.8693  0.9765  -0.5459   0.0000   0.0000   0.0000   0.4423
   1.700   0.4970   0.01590   0.01005  -0.0945  0.8683  1.0000  -0.5667   0.0000   0.0000   0.0000   0.4384
   1.800   0.4889   0.01635   0.01047  -0.0918  0.8614  1.0000  -0.5662   0.0000   0.0000   0.0000   0.4360
   1.900   0.4946   0.01654   0.01065  -0.0912  0.8571  1.0000  -0.5811   0.0000   0.0000   0.0000   0.4325
   2.000   0.5059   0.01661   0.01072  -0.0915  0.8540  1.0000  -0.6022   0.0000   0.0000   0.0000   0.4288
   2.100   0.5191   0.01664   0.01076  -0.0921  0.8516  1.0000  -0.6255   0.0000   0.0000   0.0000   0.4252
   2.200   0.5336   0.01664   0.01077  -0.0928  0.8494  1.0000  -0.6504   0.0000   0.0000   0.0000   0.4217
   2.300   0.5488   0.01661   0.01079  -0.0936  0.8473  1.0000  -0.6766   0.0000   0.0000   0.0000   0.4183
   2.400   0.5650   0.01653   0.01074  -0.0945  0.8453  1.0000  -0.7112   0.0000   0.0000   0.0000   0.4150
   2.500   0.5814   0.01644   0.01067  -0.0955  0.8434  1.0000  -0.7464   0.0000   0.0000   0.0000   0.4118
   2.600   0.5984   0.01631   0.01058  -0.0964  0.8416  1.0000  -0.7835   0.0000   0.0000   0.0000   0.4087
   2.700   0.6162   0.01616   0.01045  -0.0975  0.8398  1.0000  -0.8343   0.0000   0.0000   0.0000   0.4058
   2.800   0.6348   0.01595   0.01028  -0.0987  0.8379  1.0000  -0.8874   0.0000   0.0000   0.0000   0.4028
   2.900   0.6537   0.01573   0.01010  -0.0998  0.8360  1.0000  -0.9421   0.0000   0.0000   0.0000   0.4000
   3.000   0.6738   0.01550   0.00990  -0.1011  0.8338  1.0000  -0.9999   0.0000   0.0000   0.0000   0.3973
   3.100   0.6902   0.01539   0.00983  -0.1018  0.8305  1.0000  -1.0527   0.0000   0.0000   0.0000   0.3947
   3.200   0.6915   0.01554   0.01001  -0.1001  0.8244  1.0000  -1.0825   0.0000   0.0000   0.0000   0.3918
   3.300   0.6992   0.01550   0.01000  -0.0993  0.8182  1.0000  -1.1292   0.0000   0.0000   0.0000   0.3890
   3.400   0.7129   0.01521   0.00981  -0.0992  0.8122  1.0000  -1.1930   0.0000   0.0000   0.0000   0.3862
   3.500   0.7312   0.01470   0.00934  -0.0998  0.8062  1.0000  -1.3483   0.0000   0.0000   0.0000   0.3834
   3.600   0.7529   0.01411   0.00878  -0.1008  0.8003  1.0000  -1.5374   0.0000   0.0000   0.0000   0.3808
   3.700   0.7727   0.01372   0.00842  -0.1018  0.7950  1.0000  -1.7202   0.0000   0.0000   0.0000   0.3784
   3.800   0.7852   0.01365   0.00839  -0.1017  0.7895  1.0000  -1.8612   0.0000   0.0000   0.0000   0.3762
   3.900   0.7910   0.01366   0.00845  -0.1006  0.7833  1.0000  -1.9632   0.0000   0.0000   0.0000   0.3737
   4.000   0.8000   0.01357   0.00842  -0.0999  0.7763  1.0000  -2.0875   0.0000   0.0000   0.0000   0.3714
   4.100   0.8122   0.01335   0.00825  -0.0997  0.7685  1.0000  -2.2359   0.0000   0.0000   0.0000   0.3691
   4.200   0.8271   0.01303   0.00796  -0.0997  0.7604  1.0000  -2.4051   0.0000   0.0000   0.0000   0.3669
   4.300   0.8452   0.01272   0.00763  -0.1003  0.7511  1.0000  -2.5996   0.0000   0.0000   0.0000   0.3649
   4.400   0.8521   0.01266   0.00764  -0.0993  0.7419  1.0000  -2.7200   0.0000   0.0000   0.0000   0.3626
   4.500   0.8594   0.01254   0.00758  -0.0982  0.7296  1.0000  -2.8458   0.0000   0.0000   0.0000   0.3602
   4.600   0.8717   0.01228   0.00732  -0.0977  0.7147  1.0000  -3.0084   0.0000   0.0000   0.0000   0.3580
   4.700   0.8842   0.01215   0.00718  -0.0975  0.7014  1.0000  -3.1728   0.0000   0.0000   0.0000   0.3561
   4.800   0.8902   0.01214   0.00726  -0.0963  0.6861  1.0000  -3.2919   0.0000   0.0000   0.0000   0.3539
   4.900   0.9012   0.01198   0.00701  -0.0956  0.6606  1.0000  -3.4504   0.0000   0.0000   0.0000   0.3517
   5.000   0.9072   0.01197   0.00697  -0.0942  0.6250  1.0000  -3.5724   0.0000   0.0000   0.0000   0.3494
   5.100   0.9124   0.01210   0.00675  -0.0924  0.5530  1.0000  -3.6928   0.0000   0.0000   0.0000   0.3467
   5.200   0.9107   0.01271   0.00683  -0.0897  0.4571  1.0000  -3.7632   0.0000   0.0000   0.0000   0.3438
   5.300   0.9068   0.01357   0.00714  -0.0869  0.3714  1.0000  -3.8147   0.0000   0.0000   0.0000   0.3411
   5.400   0.9038   0.01448   0.00757  -0.0846  0.2888  1.0000  -3.8687   0.0000   0.0000   0.0000   0.3387
   5.500   0.9017   0.01543   0.00805  -0.0825  0.2134  1.0000  -3.9247   0.0000   0.0000   0.0000   0.3365
   5.600   0.9008   0.01639   0.00859  -0.0807  0.1522  1.0000  -3.9817   0.0000   0.0000   0.0000   0.3345
   5.700   0.9021   0.01724   0.00919  -0.0791  0.1143  1.0000  -4.0382   0.0000   0.0000   0.0000   0.3325
   5.800   0.9029   0.01817   0.00992  -0.0773  0.0919  1.0000  -4.0751   0.0000   0.0000   0.0000   0.3304
   5.900   0.9093   0.01863   0.01039  -0.0765  0.0790  1.0000  -4.1659   0.0000   0.0000   0.0000   0.3288
   6.000   0.9094   0.01969   0.01133  -0.0746  0.0663  1.0000  -4.1890   0.0000   0.0000   0.0000   0.3266
   6.100   0.9181   0.01997   0.01168  -0.0741  0.0598  1.0000  -4.2825   0.0000   0.0000   0.0000   0.3252
   6.200   0.9241   0.02052   0.01224  -0.0732  0.0531  1.0000  -4.3420   0.0000   0.0000   0.0000   0.3236
   6.300   0.9268   0.02160   0.01326  -0.0718  0.0461  1.0000  -4.3578   0.0000   0.0000   0.0000   0.3218
   6.400   0.9339   0.02221   0.01390  -0.0711  0.0409  1.0000  -4.4132   0.0000   0.0000   0.0000   0.3203
   6.500   0.9420   0.02270   0.01443  -0.0705  0.0366  1.0000  -4.4598   0.0000   0.0000   0.0000   0.3189
   6.600   0.9497   0.02339   0.01514  -0.0698  0.0335  1.0000  -4.5048   0.0000   0.0000   0.0000   0.3175
   6.700   0.9576   0.02418   0.01599  -0.0692  0.0311  1.0000  -4.5637   0.0000   0.0000   0.0000   0.3162
   6.800   0.9669   0.02536   0.01718  -0.0688  0.0290  1.0000  -4.6034   0.0000   0.0000   0.0000   0.3150
   6.900   0.9809   0.02753   0.01943  -0.0691  0.0273  1.0000  -4.5970   0.0000   0.0000   0.0000   0.3141
   7.000   0.9958   0.03039   0.02248  -0.0695  0.0257  1.0000  -4.5649   0.0000   0.0000   0.0000   0.3135
   7.100   1.0035   0.03016   0.02232  -0.0688  0.0246  1.0000  -4.6895   0.0000   0.0000   0.0000   0.3121
   7.200   1.0123   0.03049   0.02273  -0.0684  0.0232  1.0000  -4.7912   0.0000   0.0000   0.0000   0.3109
   7.300   1.0221   0.03134   0.02369  -0.0680  0.0222  1.0000  -4.8585   0.0000   0.0000   0.0000   0.3098
   7.400   1.0323   0.03265   0.02515  -0.0676  0.0219  1.0000  -4.8885   0.0000   0.0000   0.0000   0.3087
   7.500   1.0417   0.03403   0.02669  -0.0671  0.0217  1.0000  -4.9112   0.0000   0.0000   0.0000   0.3075
   7.600   1.0503   0.03549   0.02831  -0.0665  0.0216  1.0000  -4.9267   0.0000   0.0000   0.0000   0.3063
   7.700   1.0578   0.03700   0.03000  -0.0658  0.0216  1.0000  -4.9355   0.0000   0.0000   0.0000   0.3051
   7.800   1.0644   0.03856   0.03174  -0.0649  0.0217  1.0000  -4.9380   0.0000   0.0000   0.0000   0.3038
   7.900   1.0700   0.04017   0.03354  -0.0639  0.0219  1.0000  -4.9350   0.0000   0.0000   0.0000   0.3025
   8.000   1.0746   0.04184   0.03538  -0.0629  0.0221  1.0000  -4.9271   0.0000   0.0000   0.0000   0.3012
   8.100   1.0782   0.04354   0.03726  -0.0618  0.0224  1.0000  -4.9151   0.0000   0.0000   0.0000   0.2999
   8.200   1.0809   0.04529   0.03919  -0.0606  0.0227  1.0000  -4.8993   0.0000   0.0000   0.0000   0.2986
   8.300   1.0827   0.04709   0.04116  -0.0594  0.0230  1.0000  -4.8799   0.0000   0.0000   0.0000   0.2973
   8.400   1.0835   0.04895   0.04318  -0.0581  0.0234  1.0000  -4.8570   0.0000   0.0000   0.0000   0.2960
   8.500   1.0833   0.05090   0.04528  -0.0568  0.0238  1.0000  -4.8296   0.0000   0.0000   0.0000   0.2947
   8.600   1.0820   0.05297   0.04750  -0.0555  0.0242  1.0000  -4.7957   0.0000   0.0000   0.0000   0.2935
   8.700   1.0789   0.05531   0.04998  -0.0542  0.0247  1.0000  -4.7482   0.0000   0.0000   0.0000   0.2923
   9.500   1.0448   0.07351   0.06973  -0.0406  0.0533  1.0000  -3.8074   0.0000   0.0000   0.0000   0.2806
   9.600   1.0377   0.07485   0.07114  -0.0395  0.0531  1.0000  -3.7926   0.0000   0.0000   0.0000   0.2797
   9.700   1.0302   0.07625   0.07259  -0.0385  0.0529  1.0000  -3.7760   0.0000   0.0000   0.0000   0.2789
   9.800   1.0224   0.07770   0.07409  -0.0377  0.0528  1.0000  -3.7575   0.0000   0.0000   0.0000   0.2783
   9.900   1.0143   0.07923   0.07568  -0.0370  0.0527  1.0000  -3.7370   0.0000   0.0000   0.0000   0.2779
  10.000   1.0060   0.08085   0.07735  -0.0366  0.0526  1.0000  -3.7141   0.0000   0.0000   0.0000   0.2777
  10.100   0.9974   0.08254   0.07910  -0.0364  0.0525  1.0000  -3.6887   0.0000   0.0000   0.0000   0.2777
  10.200   0.9887   0.08435   0.08095  -0.0364  0.0524  1.0000  -3.6609   0.0000   0.0000   0.0000   0.2779
  10.300   0.9799   0.08629   0.08294  -0.0367  0.0524  1.0000  -3.6303   0.0000   0.0000   0.0000   0.2784
  10.400   0.9711   0.08837   0.08507  -0.0373  0.0523  1.0000  -3.5968   0.0000   0.0000   0.0000   0.2792
  10.500   0.9623   0.09060   0.08733  -0.0380  0.0523  1.0000  -3.5601   0.0000   0.0000   0.0000   0.2802
  10.600   0.9533   0.09299   0.08976  -0.0391  0.0523  1.0000  -3.5195   0.0000   0.0000   0.0000   0.2816
  10.700   0.9444   0.09554   0.09235  -0.0405  0.0522  1.0000  -3.4754   0.0000   0.0000   0.0000   0.2833
  10.800   0.9356   0.09827   0.09510  -0.0421  0.0522  1.0000  -3.4272   0.0000   0.0000   0.0000   0.2854
  10.900   0.9271   0.10119   0.09804  -0.0440  0.0522  1.0000  -3.3748   0.0000   0.0000   0.0000   0.2878
  11.000   0.9192   0.10431   0.10119  -0.0462  0.0521  1.0000  -3.3188   0.0000   0.0000   0.0000   0.2905
  11.100   0.9121   0.10769   0.10458  -0.0487  0.0520  1.0000  -3.2592   0.0000   0.0000   0.0000   0.2935
  11.200   0.9059   0.11137   0.10826  -0.0515  0.0519  1.0000  -3.1949   0.0000   0.0000   0.0000   0.2970
  11.300   0.9013   0.11476   0.11164  -0.0539  0.0517  1.0000  -3.1409   0.0000   0.0000   0.0000   0.2999
  11.400   0.8976   0.11780   0.11467  -0.0559  0.0514  1.0000  -3.0970   0.0000   0.0000   0.0000   0.3022
  11.500   0.8946   0.12062   0.11748  -0.0576  0.0512  1.0000  -3.0598   0.0000   0.0000   0.0000   0.3043
  11.600   0.8921   0.12329   0.12013  -0.0591  0.0509  1.0000  -3.0277   0.0000   0.0000   0.0000   0.3061
  11.700   0.8901   0.12582   0.12266  -0.0605  0.0506  1.0000  -3.0000   0.0000   0.0000   0.0000   0.3077
  11.800   0.8884   0.12825   0.12508  -0.0618  0.0503  1.0000  -2.9762   0.0000   0.0000   0.0000   0.3092
  11.900   0.8872   0.13059   0.12741  -0.0630  0.0500  1.0000  -2.9562   0.0000   0.0000   0.0000   0.3105
  12.000   0.8862   0.13284   0.12965  -0.0641  0.0496  1.0000  -2.9399   0.0000   0.0000   0.0000   0.3117
  12.100   0.8856   0.13500   0.13181  -0.0650  0.0493  1.0000  -2.9272   0.0000   0.0000   0.0000   0.3128
  12.200   0.8854   0.13710   0.13389  -0.0659  0.0489  1.0000  -2.9182   0.0000   0.0000   0.0000   0.3137
  12.300   0.8854   0.13911   0.13590  -0.0667  0.0485  1.0000  -2.9133   0.0000   0.0000   0.0000   0.3145
  12.400   0.8859   0.14105   0.13784  -0.0674  0.0482  1.0000  -2.9130   0.0000   0.0000   0.0000   0.3151
  12.500   0.8866   0.14292   0.13971  -0.0680  0.0478  1.0000  -2.9173   0.0000   0.0000   0.0000   0.3156
  12.600   0.8878   0.14473   0.14151  -0.0684  0.0473  1.0000  -2.9269   0.0000   0.0000   0.0000   0.3159
  12.700   0.8893   0.14648   0.14326  -0.0687  0.0469  1.0000  -2.9428   0.0000   0.0000   0.0000   0.3159
  12.800   0.8913   0.14818   0.14497  -0.0688  0.0464  1.0000  -2.9664   0.0000   0.0000   0.0000   0.3157
  12.900   0.8915   0.15033   0.14712  -0.0693  0.0460  1.0000  -2.9677   0.0000   0.0000   0.0000   0.3161
  13.000   0.8901   0.15293   0.14971  -0.0700  0.0454  1.0000  -2.9525   0.0000   0.0000   0.0000   0.3170
  13.100   0.8849   0.15698   0.15374  -0.0711  0.0446  1.0000  -2.8918   0.0000   0.0000   0.0000   0.3186
  13.200   0.8752   0.16301   0.15970  -0.0734  0.0439  1.0000  -2.7455   0.0000   0.0000   0.0000   0.3221
  13.300   0.8756   0.16528   0.16196  -0.0746  0.0439  1.0000  -2.7187   0.0000   0.0000   0.0000   0.3234
  13.400   0.8761   0.16751   0.16418  -0.0758  0.0438  1.0000  -2.6929   0.0000   0.0000   0.0000   0.3246
  13.500   0.8767   0.16968   0.16634  -0.0769  0.0438  1.0000  -2.6679   0.0000   0.0000   0.0000   0.3257
  13.600   0.8775   0.17176   0.16842  -0.0781  0.0438  1.0000  -2.6439   0.0000   0.0000   0.0000   0.3269
  13.700   0.8783   0.17377   0.17043  -0.0792  0.0438  1.0000  -2.6207   0.0000   0.0000   0.0000   0.3280
  13.800   0.8792   0.17574   0.17238  -0.0804  0.0437  1.0000  -2.5982   0.0000   0.0000   0.0000   0.3291
  13.900   0.8803   0.17766   0.17430  -0.0815  0.0437  1.0000  -2.5762   0.0000   0.0000   0.0000   0.3302
  14.000   0.8814   0.17955   0.17619  -0.0826  0.0436  1.0000  -2.5549   0.0000   0.0000   0.0000   0.3312
  14.100   0.8825   0.18141   0.17804  -0.0837  0.0436  1.0000  -2.5340   0.0000   0.0000   0.0000   0.3323
  14.200   0.8838   0.18323   0.17985  -0.0849  0.0435  1.0000  -2.5136   0.0000   0.0000   0.0000   0.3333
  14.300   0.8851   0.18500   0.18162  -0.0860  0.0434  1.0000  -2.4936   0.0000   0.0000   0.0000   0.3343
  14.400   0.8865   0.18671   0.18332  -0.0872  0.0433  1.0000  -2.4739   0.0000   0.0000   0.0000   0.3354
  14.500   0.8880   0.18833   0.18493  -0.0884  0.0431  1.0000  -2.4545   0.0000   0.0000   0.0000   0.3364
  14.600   0.8897   0.18980   0.18640  -0.0896  0.0429  1.0000  -2.4351   0.0000   0.0000   0.0000   0.3375
  14.700   0.8916   0.19106   0.18765  -0.0910  0.0424  1.0000  -2.4137   0.0000   0.0000   0.0000   0.3388
  14.800   0.8923   0.19237   0.18895  -0.0928  0.0418  1.0000  -2.3763   0.0000   0.0000   0.0000   0.3406
  14.900   0.8931   0.19383   0.19040  -0.0945  0.0410  1.0000  -2.3384   0.0000   0.0000   0.0000   0.3423
  15.000   0.8940   0.19548   0.19204  -0.0960  0.0403  1.0000  -2.3047   0.0000   0.0000   0.0000   0.3438
  15.100   0.8949   0.19719   0.19375  -0.0974  0.0395  1.0000  -2.2766   0.0000   0.0000   0.0000   0.3451
  15.200   0.8960   0.19893   0.19548  -0.0986  0.0388  1.0000  -2.2534   0.0000   0.0000   0.0000   0.3462
  15.300   0.8974   0.20072   0.19726  -0.0997  0.0382  1.0000  -2.2341   0.0000   0.0000   0.0000   0.3471
  15.400   0.8989   0.20253   0.19907  -0.1007  0.0375  1.0000  -2.2177   0.0000   0.0000   0.0000   0.3479
  15.500   0.9005   0.20435   0.20089  -0.1017  0.0369  1.0000  -2.2036   0.0000   0.0000   0.0000   0.3487
  15.600   0.9022   0.20618   0.20272  -0.1026  0.0363  1.0000  -2.1913   0.0000   0.0000   0.0000   0.3494
  15.700   0.9039   0.20802   0.20455  -0.1035  0.0357  1.0000  -2.1807   0.0000   0.0000   0.0000   0.3501
  15.800   0.9057   0.20985   0.20638  -0.1044  0.0351  1.0000  -2.1715   0.0000   0.0000   0.0000   0.3507
  15.900   0.9076   0.21168   0.20821  -0.1053  0.0346  1.0000  -2.1635   0.0000   0.0000   0.0000   0.3512
  16.000   0.9095   0.21352   0.21005  -0.1061  0.0340  1.0000  -2.1569   0.0000   0.0000   0.0000   0.3518
  16.100   0.9115   0.21535   0.21188  -0.1069  0.0335  1.0000  -2.1514   0.0000   0.0000   0.0000   0.3523
  16.200   0.9135   0.21719   0.21371  -0.1077  0.0330  1.0000  -2.1472   0.0000   0.0000   0.0000   0.3528
  16.300   0.9156   0.21902   0.21554  -0.1085  0.0325  1.0000  -2.1444   0.0000   0.0000   0.0000   0.3532
  16.400   0.9177   0.22085   0.21737  -0.1092  0.0321  1.0000  -2.1430   0.0000   0.0000   0.0000   0.3536
  16.500   0.9198   0.22267   0.21920  -0.1099  0.0316  1.0000  -2.1431   0.0000   0.0000   0.0000   0.3540
  16.600   0.9220   0.22449   0.22102  -0.1106  0.0312  1.0000  -2.1450   0.0000   0.0000   0.0000   0.3543
  16.700   0.9243   0.22632   0.22285  -0.1113  0.0307  1.0000  -2.1488   0.0000   0.0000   0.0000   0.3546
  16.800   0.9266   0.22814   0.22467  -0.1119  0.0303  1.0000  -2.1548   0.0000   0.0000   0.0000   0.3548
  16.900   0.9290   0.22996   0.22650  -0.1125  0.0299  1.0000  -2.1635   0.0000   0.0000   0.0000   0.3550
  17.000   0.9315   0.23180   0.22834  -0.1130  0.0295  1.0000  -2.1753   0.0000   0.0000   0.0000   0.3551
  17.100   0.9342   0.23365   0.23019  -0.1134  0.0291  1.0000  -2.1911   0.0000   0.0000   0.0000   0.3550
  17.200   0.9371   0.23553   0.23208  -0.1138  0.0287  1.0000  -2.2118   0.0000   0.0000   0.0000   0.3549
  17.300   0.9404   0.23749   0.23405  -0.1140  0.0283  1.0000  -2.2407   0.0000   0.0000   0.0000   0.3545
  17.400   0.9445   0.23965   0.23622  -0.1138  0.0278  1.0000  -2.2855   0.0000   0.0000   0.0000   0.3537
  17.500   0.9493   0.24232   0.23891  -0.1133  0.0273  1.0000  -2.3447   0.0000   0.0000   0.0000   0.3523
  17.600   0.9509   0.24610   0.24269  -0.1133  0.0267  1.0000  -2.3541   0.0000   0.0000   0.0000   0.3520
  17.700   0.9466   0.25355   0.25008  -0.1143  0.0259  1.0000  -2.2239   0.0000   0.0000   0.0000   0.3536
  17.800   0.9483   0.25564   0.25217  -0.1152  0.0259  1.0000  -2.2091   0.0000   0.0000   0.0000   0.3542
  17.900   0.9501   0.25773   0.25426  -0.1161  0.0259  1.0000  -2.1944   0.0000   0.0000   0.0000   0.3548
  18.000   0.9518   0.25981   0.25634  -0.1169  0.0259  1.0000  -2.1800   0.0000   0.0000   0.0000   0.3553
  18.100   0.9536   0.26188   0.25841  -0.1178  0.0259  1.0000  -2.1656   0.0000   0.0000   0.0000   0.3559
  18.200   0.9553   0.26394   0.26047  -0.1187  0.0258  1.0000  -2.1515   0.0000   0.0000   0.0000   0.3564
  18.300   0.9569   0.26598   0.26251  -0.1196  0.0258  1.0000  -2.1374   0.0000   0.0000   0.0000   0.3570
  18.400   0.9586   0.26801   0.26454  -0.1204  0.0258  1.0000  -2.1235   0.0000   0.0000   0.0000   0.3575
  18.500   0.9602   0.27003   0.26656  -0.1213  0.0258  1.0000  -2.1098   0.0000   0.0000   0.0000   0.3581
  18.600   0.9618   0.27203   0.26856  -0.1222  0.0257  1.0000  -2.0962   0.0000   0.0000   0.0000   0.3587
  18.700   0.9634   0.27401   0.27054  -0.1230  0.0257  1.0000  -2.0827   0.0000   0.0000   0.0000   0.3592
  18.800   0.9649   0.27596   0.27250  -0.1239  0.0257  1.0000  -2.0694   0.0000   0.0000   0.0000   0.3598
  18.900   0.9665   0.27790   0.27443  -0.1248  0.0256  1.0000  -2.0561   0.0000   0.0000   0.0000   0.3603
  19.000   0.9679   0.27980   0.27634  -0.1256  0.0256  1.0000  -2.0429   0.0000   0.0000   0.0000   0.3609
  19.100   0.9694   0.28166   0.27821  -0.1265  0.0255  1.0000  -2.0297   0.0000   0.0000   0.0000   0.3614
  19.200   0.9708   0.28349   0.28003  -0.1274  0.0254  1.0000  -2.0165   0.0000   0.0000   0.0000   0.3620
  19.300   0.9721   0.28527   0.28181  -0.1283  0.0253  1.0000  -2.0030   0.0000   0.0000   0.0000   0.3626
  19.400   0.9729   0.28695   0.28350  -0.1293  0.0252  1.0000  -1.9840   0.0000   0.0000   0.0000   0.3634
  19.500   0.9734   0.28857   0.28512  -0.1304  0.0251  1.0000  -1.9622   0.0000   0.0000   0.0000   0.3643
  19.600   0.9739   0.29016   0.28671  -0.1315  0.0250  1.0000  -1.9395   0.0000   0.0000   0.0000   0.3652
  19.700   0.9744   0.29174   0.28828  -0.1327  0.0249  1.0000  -1.9161   0.0000   0.0000   0.0000   0.3661
  19.800   0.9751   0.29332   0.28986  -0.1338  0.0246  1.0000  -1.8920   0.0000   0.0000   0.0000   0.3670
  19.900   0.9760   0.29494   0.29148  -0.1349  0.0244  1.0000  -1.8676   0.0000   0.0000   0.0000   0.3679
  20.000   0.9770   0.29665   0.29319  -0.1360  0.0241  1.0000  -1.8436   0.0000   0.0000   0.0000   0.3688
  20.100   0.9782   0.29848   0.29502  -0.1371  0.0237  1.0000  -1.8214   0.0000   0.0000   0.0000   0.3695
  20.200   0.9794   0.30042   0.29697  -0.1380  0.0234  1.0000  -1.8017   0.0000   0.0000   0.0000   0.3701
  20.300   0.9805   0.30246   0.29901  -0.1389  0.0230  1.0000  -1.7845   0.0000   0.0000   0.0000   0.3707
  20.400   0.9816   0.30454   0.30110  -0.1396  0.0226  1.0000  -1.7693   0.0000   0.0000   0.0000   0.3712
  20.500   0.9825   0.30666   0.30323  -0.1404  0.0223  1.0000  -1.7557   0.0000   0.0000   0.0000   0.3717
  20.600   0.9834   0.30880   0.30537  -0.1411  0.0220  1.0000  -1.7431   0.0000   0.0000   0.0000   0.3721
  20.700   0.9841   0.31094   0.30751  -0.1418  0.0217  1.0000  -1.7314   0.0000   0.0000   0.0000   0.3726
  20.800   0.9847   0.31308   0.30966  -0.1424  0.0214  1.0000  -1.7202   0.0000   0.0000   0.0000   0.3730
  20.900   0.9852   0.31522   0.31181  -0.1430  0.0211  1.0000  -1.7094   0.0000   0.0000   0.0000   0.3734
  21.000   0.9855   0.31735   0.31395  -0.1436  0.0208  1.0000  -1.6988   0.0000   0.0000   0.0000   0.3738
  21.100   0.9856   0.31947   0.31608  -0.1442  0.0205  1.0000  -1.6884   0.0000   0.0000   0.0000   0.3742
  21.200   0.9856   0.32157   0.31819  -0.1447  0.0203  1.0000  -1.6780   0.0000   0.0000   0.0000   0.3746
  21.300   0.9853   0.32365   0.32028  -0.1452  0.0200  1.0000  -1.6674   0.0000   0.0000   0.0000   0.3751
  21.400   0.9848   0.32570   0.32233  -0.1457  0.0198  1.0000  -1.6566   0.0000   0.0000   0.0000   0.3755
  21.500   0.9840   0.32770   0.32435  -0.1461  0.0196  1.0000  -1.6454   0.0000   0.0000   0.0000   0.3759
  21.600   0.9827   0.32965   0.32631  -0.1465  0.0193  1.0000  -1.6335   0.0000   0.0000   0.0000   0.3764
  21.700   0.9809   0.33151   0.32818  -0.1468  0.0191  1.0000  -1.6206   0.0000   0.0000   0.0000   0.3768
  21.800   0.9783   0.33324   0.32993  -0.1470  0.0189  1.0000  -1.6060   0.0000   0.0000   0.0000   0.3773
  21.900   0.9744   0.33475   0.33157  -0.1471  0.0188  1.0000  -1.5881   0.0000   0.0000   0.0000   0.3779
  22.000   0.9023   0.32058   0.31750  -0.1386  0.0195  1.0000  -1.4047   0.0000   0.0000   0.0000   0.3816
  22.100   0.8966   0.32030   0.31724  -0.1383  0.0193  1.0000  -1.3831   0.0000   0.0000   0.0000   0.3823
  22.200   0.8919   0.32020   0.31716  -0.1381  0.0192  1.0000  -1.3640   0.0000   0.0000   0.0000   0.3829
  22.300   0.8878   0.32021   0.31729  -0.1381  0.0190  1.0000  -1.3464   0.0000   0.0000   0.0000   0.3835
  22.400   0.8842   0.32030   0.31739  -0.1380  0.0188  1.0000  -1.3305   0.0000   0.0000   0.0000   0.3840
  22.500   0.8810   0.32044   0.31755  -0.1380  0.0186  1.0000  -1.3158   0.0000   0.0000   0.0000   0.3845
  22.600   0.8780   0.32063   0.31776  -0.1381  0.0185  1.0000  -1.3020   0.0000   0.0000   0.0000   0.3850
  22.700   0.8754   0.32085   0.31800  -0.1382  0.0183  1.0000  -1.2891   0.0000   0.0000   0.0000   0.3855
  22.800   0.8729   0.32111   0.31828  -0.1383  0.0181  1.0000  -1.2769   0.0000   0.0000   0.0000   0.3860
  22.900   0.8707   0.32140   0.31858  -0.1384  0.0179  1.0000  -1.2655   0.0000   0.0000   0.0000   0.3864
  23.000   0.8686   0.32172   0.31891  -0.1386  0.0178  1.0000  -1.2556   0.0000   0.0000   0.0000   0.3869
  23.100   0.8667   0.32205   0.31926  -0.1387  0.0176  1.0000  -1.2518   0.0000   0.0000   0.0000   0.3873
  23.200   0.8649   0.32240   0.31962  -0.1389  0.0174  1.0000  -1.2485   0.0000   0.0000   0.0000   0.3878
  23.300   0.8632   0.32277   0.32000  -0.1391  0.0172  1.0000  -1.2456   0.0000   0.0000   0.0000   0.3882
  23.400   0.8617   0.32315   0.32040  -0.1393  0.0171  1.0000  -1.2431   0.0000   0.0000   0.0000   0.3886
  23.500   0.8602   0.32354   0.32080  -0.1395  0.0169  1.0000  -1.2409   0.0000   0.0000   0.0000   0.3890
  23.600   0.8588   0.32394   0.32122  -0.1397  0.0167  1.0000  -1.2391   0.0000   0.0000   0.0000   0.3894
  23.700   0.8575   0.32436   0.32164  -0.1399  0.0166  1.0000  -1.2376   0.0000   0.0000   0.0000   0.3898
  23.800   0.8563   0.32478   0.32208  -0.1401  0.0164  1.0000  -1.2365   0.0000   0.0000   0.0000   0.3901
  23.900   0.8552   0.32521   0.32252  -0.1404  0.0163  1.0000  -1.2356   0.0000   0.0000   0.0000   0.3905
  24.000   0.8541   0.32564   0.32296  -0.1406  0.0161  1.0000  -1.2351   0.0000   0.0000   0.0000   0.3909
  24.100   0.8530   0.32608   0.32342  -0.1409  0.0160  1.0000  -1.2350   0.0000   0.0000   0.0000   0.3912
  24.200   0.8521   0.32653   0.32387  -0.1411  0.0158  1.0000  -1.2351   0.0000   0.0000   0.0000   0.3916
  24.300   0.8511   0.32698   0.32433  -0.1414  0.0157  1.0000  -1.2356   0.0000   0.0000   0.0000   0.3919
  24.400   0.8503   0.32743   0.32480  -0.1416  0.0155  1.0000  -1.2364   0.0000   0.0000   0.0000   0.3923
  24.500   0.8494   0.32788   0.32526  -0.1419  0.0154  1.0000  -1.2375   0.0000   0.0000   0.0000   0.3926
  24.600   0.8486   0.32834   0.32573  -0.1421  0.0152  1.0000  -1.2391   0.0000   0.0000   0.0000   0.3929
  24.700   0.8479   0.32880   0.32620  -0.1424  0.0151  1.0000  -1.2409   0.0000   0.0000   0.0000   0.3932
  24.800   0.8471   0.32926   0.32667  -0.1426  0.0150  1.0000  -1.2432   0.0000   0.0000   0.0000   0.3935
  24.900   0.8464   0.32972   0.32714  -0.1429  0.0148  1.0000  -1.2460   0.0000   0.0000   0.0000   0.3938
  25.000   0.8458   0.33018   0.32761  -0.1431  0.0147  1.0000  -1.2491   0.0000   0.0000   0.0000   0.3941
  25.100   0.8452   0.33064   0.32808  -0.1434  0.0146  1.0000  -1.2528   0.0000   0.0000   0.0000   0.3943
  25.200   0.8445   0.33110   0.32855  -0.1436  0.0144  1.0000  -1.2569   0.0000   0.0000   0.0000   0.3946
  25.300   0.8440   0.33156   0.32903  -0.1438  0.0143  1.0000  -1.2616   0.0000   0.0000   0.0000   0.3948
  25.400   0.8434   0.33202   0.32950  -0.1441  0.0142  1.0000  -1.2670   0.0000   0.0000   0.0000   0.3951
  25.500   0.8429   0.33249   0.32998  -0.1443  0.0141  1.0000  -1.2729   0.0000   0.0000   0.0000   0.3953
  25.600   0.8424   0.33296   0.33047  -0.1445  0.0140  1.0000  -1.2796   0.0000   0.0000   0.0000   0.3954
  25.700   0.8419   0.33345   0.33096  -0.1447  0.0138  1.0000  -1.2871   0.0000   0.0000   0.0000   0.3956
  25.800   0.8414   0.33395   0.33148  -0.1448  0.0137  1.0000  -1.2956   0.0000   0.0000   0.0000   0.3957
  25.900   0.8410   0.33449   0.33203  -0.1449  0.0136  1.0000  -1.3050   0.0000   0.0000   0.0000   0.3958
  26.000   0.8407   0.33508   0.33263  -0.1450  0.0135  1.0000  -1.3154   0.0000   0.0000   0.0000   0.3958
  26.100   0.8404   0.33578   0.33334  -0.1451  0.0133  1.0000  -1.3268   0.0000   0.0000   0.0000   0.3958
  26.200   0.8403   0.33666   0.33424  -0.1451  0.0132  1.0000  -1.3391   0.0000   0.0000   0.0000   0.3956
  26.300   0.8406   0.33795   0.33554  -0.1450  0.0131  1.0000  -1.3519   0.0000   0.0000   0.0000   0.3953
  26.400   0.8413   0.34045   0.33805  -0.1447  0.0128  1.0000  -1.3550   0.0000   0.0000   0.0000   0.3948


