xflr5 v6.61

 Calculated polar for: EPPLER 654 AIRFOIL

 1 1 Reynolds number fixed          Mach number fixed         

 xtrf =   1.000 (top)        1.000 (bottom)
 Mach =   0.000     Re =     0.625 e 6     Ncrit =   9.000

  alpha     CL        CD       CDp       Cm    Top Xtr Bot Xtr   Cpmin    Chinge    XCp    
 ------- -------- --------- --------- -------- ------- ------- -------- --------- ---------
 -10.000  -0.2897   0.03553   0.03148  -0.1405  0.7229  0.0127  -5.0407   0.0000   0.0000   0.0000  -0.2678
  -9.900  -0.2913   0.03477   0.03068  -0.1400  0.7220  0.0127  -5.0299   0.0000   0.0000   0.0000  -0.2627
  -9.800  -0.2931   0.03409   0.02995  -0.1393  0.7211  0.0126  -5.0177   0.0000   0.0000   0.0000  -0.2567
  -9.700  -0.2953   0.03353   0.02935  -0.1385  0.7202  0.0126  -5.0050   0.0000   0.0000   0.0000  -0.2495
  -9.600  -0.2951   0.03291   0.02867  -0.1379  0.7194  0.0125  -4.9839   0.0000   0.0000   0.0000  -0.2477
  -9.500  -0.2933   0.03226   0.02796  -0.1375  0.7185  0.0124  -4.9572   0.0000   0.0000   0.0000  -0.2489
  -9.400  -0.2909   0.03160   0.02725  -0.1371  0.7177  0.0124  -4.9281   0.0000   0.0000   0.0000  -0.2511
  -9.300  -0.2880   0.03095   0.02654  -0.1367  0.7169  0.0123  -4.8973   0.0000   0.0000   0.0000  -0.2543
  -9.200  -0.2847   0.03030   0.02582  -0.1363  0.7161  0.0123  -4.8653   0.0000   0.0000   0.0000  -0.2584
  -9.100  -0.2809   0.02964   0.02510  -0.1359  0.7153  0.0122  -4.8324   0.0000   0.0000   0.0000  -0.2634
  -9.000  -0.2769   0.02897   0.02437  -0.1355  0.7144  0.0122  -4.7990   0.0000   0.0000   0.0000  -0.2692
  -8.900  -0.2725   0.02829   0.02362  -0.1352  0.7136  0.0122  -4.7653   0.0000   0.0000   0.0000  -0.2758
  -8.800  -0.2678   0.02760   0.02286  -0.1348  0.7128  0.0121  -4.7318   0.0000   0.0000   0.0000  -0.2832
  -8.700  -0.2628   0.02690   0.02209  -0.1345  0.7119  0.0121  -4.6985   0.0000   0.0000   0.0000  -0.2916
  -8.600  -0.2576   0.02619   0.02130  -0.1341  0.7111  0.0121  -4.6658   0.0000   0.0000   0.0000  -0.3008
  -8.500  -0.2522   0.02546   0.02049  -0.1338  0.7102  0.0121  -4.6337   0.0000   0.0000   0.0000  -0.3109
  -8.400  -0.2465   0.02471   0.01967  -0.1335  0.7093  0.0120  -4.6024   0.0000   0.0000   0.0000  -0.3221
  -8.300  -0.2406   0.02396   0.01882  -0.1332  0.7084  0.0120  -4.5721   0.0000   0.0000   0.0000  -0.3343
  -8.200  -0.2345   0.02319   0.01797  -0.1329  0.7075  0.0120  -4.5426   0.0000   0.0000   0.0000  -0.3478
  -8.100  -0.2282   0.02241   0.01709  -0.1325  0.7066  0.0120  -4.5141   0.0000   0.0000   0.0000  -0.3626
  -8.000  -0.2216   0.02162   0.01621  -0.1322  0.7056  0.0121  -4.4865   0.0000   0.0000   0.0000  -0.3790
  -7.900  -0.2148   0.02083   0.01532  -0.1319  0.7046  0.0121  -4.4595   0.0000   0.0000   0.0000  -0.3970
  -7.800  -0.2077   0.02004   0.01444  -0.1316  0.7036  0.0122  -4.4326   0.0000   0.0000   0.0000  -0.4170
  -7.700  -0.2004   0.01928   0.01358  -0.1313  0.7025  0.0122  -4.4050   0.0000   0.0000   0.0000  -0.4393
  -7.600  -0.1929   0.01854   0.01275  -0.1310  0.7014  0.0124  -4.3760   0.0000   0.0000   0.0000  -0.4640
  -7.500  -0.1852   0.01785   0.01197  -0.1307  0.7002  0.0125  -4.3449   0.0000   0.0000   0.0000  -0.4917
  -7.400  -0.1773   0.01720   0.01124  -0.1304  0.6989  0.0126  -4.3112   0.0000   0.0000   0.0000  -0.5226
  -7.300  -0.1692   0.01661   0.01057  -0.1302  0.6976  0.0129  -4.2746   0.0000   0.0000   0.0000  -0.5571
  -7.200  -0.1611   0.01607   0.00995  -0.1299  0.6962  0.0131  -4.2360   0.0000   0.0000   0.0000  -0.5955
  -7.100  -0.1528   0.01559   0.00941  -0.1296  0.6948  0.0135  -4.1930   0.0000   0.0000   0.0000  -0.6394
  -7.000  -0.1442   0.01518   0.00895  -0.1294  0.6932  0.0139  -4.1442   0.0000   0.0000   0.0000  -0.6904
  -6.900  -0.1353   0.01485   0.00857  -0.1293  0.6916  0.0144  -4.0898   0.0000   0.0000   0.0000  -0.7503
  -6.800  -0.1261   0.01459   0.00827  -0.1291  0.6900  0.0149  -4.0333   0.0000   0.0000   0.0000  -0.8208
  -6.700  -0.1168   0.01436   0.00802  -0.1290  0.6886  0.0155  -3.9805   0.0000   0.0000   0.0000  -0.9044
  -6.600  -0.1069   0.01410   0.00772  -0.1289  0.6884  0.0161  -3.9216   0.0000   0.0000   0.0000  -1.0096
  -6.500  -0.0968   0.01387   0.00747  -0.1289  0.6882  0.0167  -3.8580   0.0000   0.0000   0.0000  -1.1397
  -6.400  -0.0865   0.01366   0.00724  -0.1289  0.6880  0.0174  -3.7900   0.0000   0.0000   0.0000  -1.3039
  -6.300  -0.0761   0.01347   0.00704  -0.1289  0.6878  0.0182  -3.7188   0.0000   0.0000   0.0000  -1.5157
  -6.200  -0.0655   0.01330   0.00685  -0.1289  0.6875  0.0190  -3.6454   0.0000   0.0000   0.0000  -1.7984
  -6.100  -0.0549   0.01313   0.00667  -0.1289  0.6872  0.0200  -3.5706   0.0000   0.0000   0.0000  -2.1941
  -6.000  -0.0441   0.01298   0.00645  -0.1289  0.6869  0.0210  -3.4944   0.0000   0.0000   0.0000  -2.7871
  -5.900  -0.0333   0.01285   0.00630  -0.1290  0.6865  0.0222  -3.4146   0.0000   0.0000   0.0000  -3.7733
  -5.800  -0.0224   0.01273   0.00617  -0.1290  0.6862  0.0234  -3.3322   0.0000   0.0000   0.0000  -5.7329
  -5.700  -0.0114   0.01263   0.00606  -0.1291  0.6857  0.0244  -3.2465   0.0000   0.0000   0.0000  -11.5297
  -5.600  -0.0002   0.01256   0.00599  -0.1292  0.6853  0.0253  -3.1572   0.0000   0.0000   0.0000  -551.6835
  -5.500   0.0110   0.01251   0.00594  -0.1293  0.6849  0.0258  -3.0654   0.0000   0.0000   0.0000  12.4658
  -5.400   0.0222   0.01248   0.00591  -0.1294  0.6844  0.0262  -2.9727   0.0000   0.0000   0.0000   6.2770
  -5.300   0.0322   0.01207   0.00542  -0.1294  0.6840  0.0325  -2.9330   0.0000   0.0000   0.0000   4.4022
  -5.200   0.0429   0.01186   0.00526  -0.1295  0.6836  0.0387  -2.8593   0.0000   0.0000   0.0000   3.3696
  -5.100   0.0539   0.01174   0.00517  -0.1296  0.6831  0.0432  -2.7762   0.0000   0.0000   0.0000   2.7336
  -5.000   0.0651   0.01168   0.00510  -0.1297  0.6826  0.0458  -2.6893   0.0000   0.0000   0.0000   2.3059
  -4.900   0.0761   0.01152   0.00497  -0.1298  0.6822  0.0549  -2.6119   0.0000   0.0000   0.0000   2.0086
  -4.800   0.0870   0.01135   0.00488  -0.1300  0.6817  0.0643  -2.5300   0.0000   0.0000   0.0000   1.7897
  -4.700   0.0982   0.01126   0.00482  -0.1301  0.6812  0.0700  -2.4453   0.0000   0.0000   0.0000   1.6148
  -4.600   0.1095   0.01119   0.00474  -0.1303  0.6806  0.0775  -2.3617   0.0000   0.0000   0.0000   1.4739
  -4.500   0.1207   0.01108   0.00467  -0.1304  0.6801  0.0925  -2.2797   0.0000   0.0000   0.0000   1.3609
  -4.400   0.1319   0.01097   0.00461  -0.1306  0.6796  0.1039  -2.1972   0.0000   0.0000   0.0000   1.2672
  -4.300   0.1432   0.01089   0.00456  -0.1308  0.6790  0.1128  -2.1148   0.0000   0.0000   0.0000   1.1872
  -4.200   0.1543   0.01071   0.00449  -0.1310  0.6785  0.1307  -2.0347   0.0000   0.0000   0.0000   1.1210
  -4.100   0.1656   0.01059   0.00444  -0.1312  0.6779  0.1504  -1.9546   0.0000   0.0000   0.0000   1.0625
  -4.000   0.1768   0.01044   0.00438  -0.1315  0.6773  0.1702  -1.8753   0.0000   0.0000   0.0000   1.0117
  -3.900   0.1881   0.01029   0.00433  -0.1317  0.6767  0.1954  -1.7968   0.0000   0.0000   0.0000   0.9668
  -3.800   0.1995   0.01017   0.00428  -0.1320  0.6762  0.2166  -1.7187   0.0000   0.0000   0.0000   0.9266
  -3.700   0.2109   0.01000   0.00422  -0.1323  0.6756  0.2467  -1.6419   0.0000   0.0000   0.0000   0.8911
  -3.600   0.2225   0.00990   0.00418  -0.1325  0.6750  0.2672  -1.5651   0.0000   0.0000   0.0000   0.8585
  -3.500   0.2340   0.00974   0.00413  -0.1328  0.6744  0.2960  -1.4896   0.0000   0.0000   0.0000   0.8294
  -3.400   0.2457   0.00965   0.00410  -0.1331  0.6738  0.3183  -1.4146   0.0000   0.0000   0.0000   0.8026
  -3.300   0.2573   0.00950   0.00405  -0.1334  0.6732  0.3485  -1.3406   0.0000   0.0000   0.0000   0.7785
  -3.200   0.2691   0.00939   0.00402  -0.1337  0.6726  0.3751  -1.2673   0.0000   0.0000   0.0000   0.7562
  -3.100   0.2808   0.00926   0.00399  -0.1341  0.6720  0.4047  -1.1950   0.0000   0.0000   0.0000   0.7358
  -3.000   0.2927   0.00913   0.00395  -0.1344  0.6714  0.4360  -1.1234   0.0000   0.0000   0.0000   0.7170
  -2.900   0.3045   0.00903   0.00394  -0.1347  0.6707  0.4679  -1.0529   0.0000   0.0000   0.0000   0.6995
  -2.800   0.3163   0.00888   0.00390  -0.1350  0.6701  0.5105  -0.9843   0.0000   0.0000   0.0000   0.6835
  -2.700   0.3280   0.00877   0.00393  -0.1353  0.6695  0.5486  -0.9192   0.0000   0.0000   0.0000   0.6684
  -2.600   0.3397   0.00874   0.00395  -0.1355  0.6689  0.5724  -0.8551   0.0000   0.0000   0.0000   0.6542
  -2.500   0.3513   0.00872   0.00401  -0.1356  0.6683  0.5954  -0.8570   0.0000   0.0000   0.0000   0.6410
  -2.400   0.3629   0.00873   0.00403  -0.1357  0.6676  0.6100  -0.8628   0.0000   0.0000   0.0000   0.6285
  -2.300   0.3747   0.00875   0.00404  -0.1358  0.6670  0.6195  -0.8688   0.0000   0.0000   0.0000   0.6167
  -2.200   0.3863   0.00876   0.00408  -0.1359  0.6664  0.6308  -0.8746   0.0000   0.0000   0.0000   0.6057
  -2.100   0.3977   0.00878   0.00413  -0.1360  0.6657  0.6414  -0.8804   0.0000   0.0000   0.0000   0.5954
  -2.000   0.4092   0.00880   0.00417  -0.1360  0.6651  0.6491  -0.8862   0.0000   0.0000   0.0000   0.5856
  -1.900   0.4208   0.00883   0.00419  -0.1362  0.6644  0.6549  -0.8921   0.0000   0.0000   0.0000   0.5763
  -1.800   0.4325   0.00886   0.00420  -0.1363  0.6636  0.6604  -0.8980   0.0000   0.0000   0.0000   0.5675
  -1.700   0.4443   0.00889   0.00422  -0.1364  0.6628  0.6655  -0.9042   0.0000   0.0000   0.0000   0.5591
  -1.600   0.4560   0.00893   0.00423  -0.1365  0.6620  0.6693  -0.9110   0.0000   0.0000   0.0000   0.5512
  -1.500   0.4678   0.00897   0.00425  -0.1366  0.6611  0.6717  -0.9178   0.0000   0.0000   0.0000   0.5436
  -1.400   0.4794   0.00899   0.00425  -0.1367  0.6602  0.6744  -0.9245   0.0000   0.0000   0.0000   0.5365
  -1.300   0.4909   0.00898   0.00424  -0.1368  0.6593  0.6803  -0.9311   0.0000   0.0000   0.0000   0.5298
  -1.200   0.5022   0.00900   0.00427  -0.1369  0.6583  0.6858  -0.9376   0.0000   0.0000   0.0000   0.5233
  -1.100   0.5134   0.00904   0.00432  -0.1369  0.6574  0.6903  -0.9441   0.0000   0.0000   0.0000   0.5171
  -1.000   0.5247   0.00909   0.00437  -0.1369  0.6565  0.6941  -0.9505   0.0000   0.0000   0.0000   0.5112
  -0.900   0.5361   0.00914   0.00442  -0.1370  0.6555  0.6972  -0.9569   0.0000   0.0000   0.0000   0.5056
  -0.800   0.5475   0.00920   0.00448  -0.1370  0.6545  0.6999  -0.9634   0.0000   0.0000   0.0000   0.5002
  -0.700   0.5589   0.00927   0.00454  -0.1371  0.6534  0.7028  -0.9697   0.0000   0.0000   0.0000   0.4950
  -0.600   0.5702   0.00935   0.00461  -0.1372  0.6521  0.7056  -0.9760   0.0000   0.0000   0.0000   0.4900
  -0.500   0.5815   0.00945   0.00470  -0.1373  0.6508  0.7084  -0.9822   0.0000   0.0000   0.0000   0.4853
  -0.400   0.5927   0.00957   0.00481  -0.1373  0.6493  0.7112  -0.9883   0.0000   0.0000   0.0000   0.4807
  -0.300   0.6037   0.00973   0.00497  -0.1374  0.6473  0.7136  -0.9941   0.0000   0.0000   0.0000   0.4764
  -0.200   0.6140   0.00998   0.00523  -0.1373  0.6447  0.7157  -0.9990   0.0000   0.0000   0.0000   0.4724
  -0.100   0.6244   0.01016   0.00542  -0.1373  0.6431  0.7174  -1.0044   0.0000   0.0000   0.0000   0.4684
   0.000   0.6361   0.01017   0.00542  -0.1374  0.6429  0.7189  -1.0119   0.0000   0.0000   0.0000   0.4644
   0.100   0.6479   0.01017   0.00542  -0.1375  0.6426  0.7202  -1.0196   0.0000   0.0000   0.0000   0.4605
   0.200   0.6596   0.01018   0.00542  -0.1377  0.6424  0.7213  -1.0272   0.0000   0.0000   0.0000   0.4567
   0.300   0.6712   0.01020   0.00544  -0.1378  0.6421  0.7222  -1.0347   0.0000   0.0000   0.0000   0.4531
   0.400   0.6827   0.01023   0.00546  -0.1379  0.6418  0.7230  -1.0422   0.0000   0.0000   0.0000   0.4496
   0.500   0.6945   0.01017   0.00539  -0.1381  0.6415  0.7270  -1.0498   0.0000   0.0000   0.0000   0.4463
   0.600   0.7061   0.01012   0.00535  -0.1383  0.6411  0.7306  -1.0573   0.0000   0.0000   0.0000   0.4431
   0.700   0.7175   0.01009   0.00533  -0.1383  0.6407  0.7338  -1.0647   0.0000   0.0000   0.0000   0.4400
   0.800   0.7288   0.01008   0.00533  -0.1384  0.6403  0.7366  -1.0722   0.0000   0.0000   0.0000   0.4369
   0.900   0.7400   0.01007   0.00532  -0.1384  0.6398  0.7389  -1.0805   0.0000   0.0000   0.0000   0.4339
   1.000   0.7513   0.01006   0.00532  -0.1385  0.6392  0.7409  -1.0888   0.0000   0.0000   0.0000   0.4310
   1.100   0.7626   0.01006   0.00533  -0.1385  0.6386  0.7428  -1.0970   0.0000   0.0000   0.0000   0.4282
   1.200   0.7738   0.01007   0.00534  -0.1386  0.6380  0.7446  -1.1053   0.0000   0.0000   0.0000   0.4255
   1.300   0.7851   0.01008   0.00537  -0.1386  0.6374  0.7465  -1.1135   0.0000   0.0000   0.0000   0.4228
   1.400   0.7963   0.01010   0.00539  -0.1387  0.6368  0.7482  -1.1217   0.0000   0.0000   0.0000   0.4202
   1.500   0.8076   0.01011   0.00540  -0.1387  0.6361  0.7499  -1.1299   0.0000   0.0000   0.0000   0.4177
   1.600   0.8188   0.01012   0.00541  -0.1388  0.6353  0.7516  -1.1382   0.0000   0.0000   0.0000   0.4153
   1.700   0.8301   0.01012   0.00542  -0.1388  0.6344  0.7534  -1.1475   0.0000   0.0000   0.0000   0.4129
   1.800   0.8415   0.01012   0.00542  -0.1389  0.6335  0.7551  -1.1569   0.0000   0.0000   0.0000   0.4106
   1.900   0.8528   0.01012   0.00543  -0.1390  0.6326  0.7567  -1.1662   0.0000   0.0000   0.0000   0.4084
   2.000   0.8643   0.01013   0.00543  -0.1391  0.6316  0.7582  -1.1756   0.0000   0.0000   0.0000   0.4062
   2.100   0.8757   0.01013   0.00544  -0.1392  0.6306  0.7596  -1.1850   0.0000   0.0000   0.0000   0.4041
   2.200   0.8872   0.01013   0.00544  -0.1393  0.6296  0.7609  -1.1945   0.0000   0.0000   0.0000   0.4020
   2.300   0.8986   0.01014   0.00545  -0.1395  0.6285  0.7622  -1.2050   0.0000   0.0000   0.0000   0.4000
   2.400   0.9101   0.01014   0.00545  -0.1396  0.6274  0.7635  -1.2156   0.0000   0.0000   0.0000   0.3980
   2.500   0.9217   0.01013   0.00544  -0.1397  0.6263  0.7647  -1.2263   0.0000   0.0000   0.0000   0.3961
   2.600   0.9332   0.01013   0.00544  -0.1398  0.6251  0.7658  -1.2370   0.0000   0.0000   0.0000   0.3942
   2.700   0.9448   0.01013   0.00543  -0.1400  0.6239  0.7668  -1.2477   0.0000   0.0000   0.0000   0.3924
   2.800   0.9564   0.01013   0.00543  -0.1401  0.6228  0.7676  -1.2584   0.0000   0.0000   0.0000   0.3906
   2.900   0.9680   0.01013   0.00543  -0.1403  0.6218  0.7683  -1.2691   0.0000   0.0000   0.0000   0.3889
   3.000   0.9796   0.01013   0.00542  -0.1404  0.6207  0.7689  -1.2810   0.0000   0.0000   0.0000   0.3872
   3.100   0.9912   0.01012   0.00541  -0.1406  0.6195  0.7695  -1.2931   0.0000   0.0000   0.0000   0.3855
   3.200   1.0027   0.01011   0.00540  -0.1407  0.6182  0.7700  -1.3052   0.0000   0.0000   0.0000   0.3839
   3.300   1.0142   0.01010   0.00538  -0.1408  0.6169  0.7706  -1.3173   0.0000   0.0000   0.0000   0.3823
   3.400   1.0256   0.01009   0.00537  -0.1410  0.6155  0.7711  -1.3293   0.0000   0.0000   0.0000   0.3807
   3.500   1.0370   0.01010   0.00537  -0.1411  0.6141  0.7716  -1.3414   0.0000   0.0000   0.0000   0.3791
   3.600   1.0483   0.01012   0.00539  -0.1411  0.6126  0.7721  -1.3533   0.0000   0.0000   0.0000   0.3776
   3.700   1.0598   0.01012   0.00538  -0.1413  0.6111  0.7733  -1.3667   0.0000   0.0000   0.0000   0.3762
   3.800   1.0715   0.01009   0.00534  -0.1416  0.6093  0.7758  -1.3804   0.0000   0.0000   0.0000   0.3748
   3.900   1.0830   0.01010   0.00534  -0.1418  0.6072  0.7779  -1.3940   0.0000   0.0000   0.0000   0.3735
   4.000   1.0945   0.01014   0.00537  -0.1420  0.6046  0.7796  -1.4076   0.0000   0.0000   0.0000   0.3721
   4.100   1.1059   0.01022   0.00545  -0.1422  0.6016  0.7812  -1.4211   0.0000   0.0000   0.0000   0.3708
   4.200   1.1170   0.01038   0.00562  -0.1423  0.5982  0.7827  -1.4343   0.0000   0.0000   0.0000   0.3696
   4.300   1.1281   0.01037   0.00562  -0.1424  0.5975  0.7841  -1.4478   0.0000   0.0000   0.0000   0.3683
   4.400   1.1393   0.01034   0.00561  -0.1425  0.5971  0.7855  -1.4631   0.0000   0.0000   0.0000   0.3669
   4.500   1.1503   0.01032   0.00561  -0.1426  0.5966  0.7868  -1.4784   0.0000   0.0000   0.0000   0.3657
   4.600   1.1613   0.01030   0.00561  -0.1426  0.5961  0.7881  -1.4938   0.0000   0.0000   0.0000   0.3644
   4.700   1.1722   0.01027   0.00560  -0.1427  0.5953  0.7893  -1.5091   0.0000   0.0000   0.0000   0.3631
   4.800   1.1831   0.01025   0.00560  -0.1427  0.5945  0.7905  -1.5244   0.0000   0.0000   0.0000   0.3619
   4.900   1.1940   0.01022   0.00560  -0.1427  0.5934  0.7917  -1.5409   0.0000   0.0000   0.0000   0.3606
   5.000   1.2048   0.01020   0.00559  -0.1427  0.5922  0.7929  -1.5584   0.0000   0.0000   0.0000   0.3594
   5.100   1.2156   0.01019   0.00560  -0.1427  0.5908  0.7940  -1.5760   0.0000   0.0000   0.0000   0.3582
   5.200   1.2265   0.01017   0.00560  -0.1428  0.5894  0.7952  -1.5936   0.0000   0.0000   0.0000   0.3571
   5.300   1.2373   0.01017   0.00561  -0.1428  0.5877  0.7964  -1.6113   0.0000   0.0000   0.0000   0.3559
   5.400   1.2481   0.01015   0.00561  -0.1428  0.5859  0.7976  -1.6290   0.0000   0.0000   0.0000   0.3548
   5.500   1.2589   0.01014   0.00561  -0.1428  0.5838  0.7988  -1.6467   0.0000   0.0000   0.0000   0.3537
   5.600   1.2696   0.01013   0.00561  -0.1428  0.5815  0.8002  -1.6644   0.0000   0.0000   0.0000   0.3525
   5.700   1.2802   0.01012   0.00561  -0.1427  0.5791  0.8017  -1.6822   0.0000   0.0000   0.0000   0.3514
   5.800   1.2909   0.01012   0.00562  -0.1427  0.5766  0.8032  -1.7014   0.0000   0.0000   0.0000   0.3503
   5.900   1.3015   0.01012   0.00563  -0.1427  0.5742  0.8047  -1.7218   0.0000   0.0000   0.0000   0.3493
   6.000   1.3120   0.01013   0.00564  -0.1426  0.5718  0.8061  -1.7422   0.0000   0.0000   0.0000   0.3482
   6.100   1.3223   0.01015   0.00565  -0.1425  0.5691  0.8074  -1.7625   0.0000   0.0000   0.0000   0.3471
   6.200   1.3323   0.01017   0.00566  -0.1424  0.5661  0.8087  -1.7825   0.0000   0.0000   0.0000   0.3461
   6.300   1.3420   0.01021   0.00568  -0.1422  0.5625  0.8098  -1.8022   0.0000   0.0000   0.0000   0.3450
   6.400   1.3515   0.01026   0.00571  -0.1420  0.5580  0.8110  -1.8218   0.0000   0.0000   0.0000   0.3439
   6.500   1.3618   0.01035   0.00578  -0.1420  0.5529  0.8120  -1.8449   0.0000   0.0000   0.0000   0.3430
   6.600   1.3718   0.01036   0.00582  -0.1419  0.5515  0.8131  -1.8684   0.0000   0.0000   0.0000   0.3420
   6.700   1.3819   0.01038   0.00587  -0.1418  0.5499  0.8141  -1.8921   0.0000   0.0000   0.0000   0.3410
   6.800   1.3920   0.01041   0.00593  -0.1417  0.5478  0.8150  -1.9160   0.0000   0.0000   0.0000   0.3400
   6.900   1.4022   0.01044   0.00598  -0.1416  0.5454  0.8158  -1.9400   0.0000   0.0000   0.0000   0.3391
   7.000   1.4121   0.01047   0.00606  -0.1415  0.5424  0.8166  -1.9638   0.0000   0.0000   0.0000   0.3381
   7.100   1.4218   0.01051   0.00611  -0.1413  0.5386  0.8174  -1.9874   0.0000   0.0000   0.0000   0.3372
   7.200   1.4310   0.01056   0.00615  -0.1410  0.5338  0.8181  -2.0105   0.0000   0.0000   0.0000   0.3362
   7.300   1.4394   0.01062   0.00619  -0.1406  0.5280  0.8187  -2.0361   0.0000   0.0000   0.0000   0.3352
   7.400   1.4466   0.01071   0.00624  -0.1400  0.5215  0.8193  -2.0609   0.0000   0.0000   0.0000   0.3341
   7.500   1.4525   0.01082   0.00630  -0.1391  0.5141  0.8207  -2.0838   0.0000   0.0000   0.0000   0.3329
   7.600   1.4592   0.01092   0.00638  -0.1384  0.5070  0.8234  -2.1080   0.0000   0.0000   0.0000   0.3318
   7.700   1.4687   0.01096   0.00645  -0.1383  0.5043  0.8258  -2.1360   0.0000   0.0000   0.0000   0.3310
   7.800   1.4776   0.01102   0.00653  -0.1380  0.5005  0.8281  -2.1634   0.0000   0.0000   0.0000   0.3300
   7.900   1.4857   0.01110   0.00661  -0.1376  0.4954  0.8304  -2.1897   0.0000   0.0000   0.0000   0.3291
   8.000   1.4919   0.01120   0.00671  -0.1367  0.4887  0.8327  -2.2136   0.0000   0.0000   0.0000   0.3280
   8.100   1.4952   0.01134   0.00682  -0.1354  0.4808  0.8350  -2.2334   0.0000   0.0000   0.0000   0.3267
   8.200   1.4956   0.01155   0.00697  -0.1335  0.4720  0.8374  -2.2498   0.0000   0.0000   0.0000   0.3252
   8.300   1.4951   0.01181   0.00719  -0.1315  0.4621  0.8398  -2.2676   0.0000   0.0000   0.0000   0.3238
   8.400   1.5014   0.01194   0.00733  -0.1307  0.4568  0.8418  -2.2968   0.0000   0.0000   0.0000   0.3227
   8.500   1.5062   0.01212   0.00750  -0.1297  0.4495  0.8438  -2.3234   0.0000   0.0000   0.0000   0.3216
   8.600   1.5087   0.01236   0.00771  -0.1283  0.4411  0.8461  -2.3465   0.0000   0.0000   0.0000   0.3204
   8.700   1.5087   0.01268   0.00799  -0.1266  0.4325  0.8484  -2.3651   0.0000   0.0000   0.0000   0.3190
   8.800   1.5071   0.01306   0.00832  -0.1246  0.4233  0.8508  -2.3811   0.0000   0.0000   0.0000   0.3176
   8.900   1.5085   0.01337   0.00862  -0.1231  0.4157  0.8531  -2.4020   0.0000   0.0000   0.0000   0.3164
   9.000   1.5140   0.01357   0.00882  -0.1224  0.4112  0.8550  -2.4302   0.0000   0.0000   0.0000   0.3155
   9.100   1.5183   0.01382   0.00907  -0.1215  0.4054  0.8570  -2.4563   0.0000   0.0000   0.0000   0.3144
   9.200   1.5209   0.01414   0.00937  -0.1203  0.3988  0.8589  -2.4795   0.0000   0.0000   0.0000   0.3134
   9.300   1.5208   0.01456   0.00977  -0.1188  0.3916  0.8609  -2.4982   0.0000   0.0000   0.0000   0.3122
   9.400   1.5188   0.01509   0.01026  -0.1170  0.3836  0.8626  -2.5173   0.0000   0.0000   0.0000   0.3109
   9.600   1.5188   0.01603   0.01118  -0.1143  0.3691  0.8703  -2.5639   0.0000   0.0000   0.0000   0.3088
   9.700   1.5223   0.01635   0.01151  -0.1134  0.3636  0.8746  -2.5949   0.0000   0.0000   0.0000   0.3078
   9.800   1.5234   0.01680   0.01196  -0.1122  0.3569  0.8790  -2.6208   0.0000   0.0000   0.0000   0.3068
   9.900   1.5217   0.01739   0.01254  -0.1107  0.3498  0.8835  -2.6407   0.0000   0.0000   0.0000   0.3057
  10.000   1.5188   0.01808   0.01320  -0.1091  0.3422  0.8881  -2.6577   0.0000   0.0000   0.0000   0.3046
  10.100   1.5149   0.01886   0.01395  -0.1074  0.3338  0.8930  -2.6724   0.0000   0.0000   0.0000   0.3035
  10.200   1.5140   0.01951   0.01460  -0.1062  0.3268  0.8976  -2.6937   0.0000   0.0000   0.0000   0.3025
  10.300   1.5180   0.01990   0.01500  -0.1056  0.3229  0.9016  -2.7260   0.0000   0.0000   0.0000   0.3017
  10.500   1.5214   0.02080   0.01594  -0.1035  0.3130  0.9186  -2.7808   0.0000   0.0000   0.0000   0.2998
  10.600   1.5205   0.02139   0.01653  -0.1022  0.3075  0.9314  -2.8024   0.0000   0.0000   0.0000   0.2988
  10.700   1.5181   0.02220   0.01736  -0.1011  0.3016  0.9638  -2.8204   0.0000   0.0000   0.0000   0.2980
  10.900   1.5153   0.02387   0.01896  -0.0992  0.2868  1.0000  -2.8603   0.0000   0.0000   0.0000   0.2964
  11.000   1.5197   0.02436   0.01945  -0.0988  0.2826  1.0000  -2.8941   0.0000   0.0000   0.0000   0.2957
  11.100   1.5238   0.02486   0.01996  -0.0983  0.2783  1.0000  -2.9271   0.0000   0.0000   0.0000   0.2951
  11.200   1.5257   0.02553   0.02061  -0.0977  0.2728  1.0000  -2.9549   0.0000   0.0000   0.0000   0.2944
  11.300   1.5240   0.02647   0.02154  -0.0969  0.2670  1.0000  -2.9744   0.0000   0.0000   0.0000   0.2937
  11.400   1.5219   0.02741   0.02244  -0.0959  0.2607  1.0000  -2.9952   0.0000   0.0000   0.0000   0.2929
  11.500   1.5195   0.02838   0.02336  -0.0950  0.2534  1.0000  -3.0190   0.0000   0.0000   0.0000   0.2922
  11.600   1.5185   0.02926   0.02421  -0.0941  0.2453  1.0000  -3.0465   0.0000   0.0000   0.0000   0.2914
  11.700   1.5225   0.02979   0.02474  -0.0937  0.2415  1.0000  -3.0892   0.0000   0.0000   0.0000   0.2908
  11.800   1.5261   0.03035   0.02530  -0.0933  0.2377  1.0000  -3.1309   0.0000   0.0000   0.0000   0.2902
  11.900   1.5286   0.03100   0.02595  -0.0928  0.2334  1.0000  -3.1694   0.0000   0.0000   0.0000   0.2895
  12.000   1.5286   0.03189   0.02683  -0.0921  0.2288  1.0000  -3.2004   0.0000   0.0000   0.0000   0.2889
  12.100   1.5265   0.03297   0.02789  -0.0914  0.2242  1.0000  -3.2249   0.0000   0.0000   0.0000   0.2883
  12.200   1.5254   0.03395   0.02885  -0.0907  0.2189  1.0000  -3.2528   0.0000   0.0000   0.0000   0.2876
  12.300   1.5250   0.03489   0.02984  -0.0900  0.2127  1.0000  -3.2825   0.0000   0.0000   0.0000   0.2870
  12.400   1.5258   0.03572   0.03065  -0.0894  0.2061  1.0000  -3.3161   0.0000   0.0000   0.0000   0.2864
  12.500   1.5303   0.03624   0.03119  -0.0891  0.2034  1.0000  -3.3616   0.0000   0.0000   0.0000   0.2858
  12.600   1.5345   0.03680   0.03175  -0.0888  0.2005  1.0000  -3.4063   0.0000   0.0000   0.0000   0.2852
  12.700   1.5378   0.03744   0.03239  -0.0884  0.1967  1.0000  -3.4483   0.0000   0.0000   0.0000   0.2846
  12.800   1.5398   0.03819   0.03313  -0.0880  0.1922  1.0000  -3.4863   0.0000   0.0000   0.0000   0.2840
  12.900   1.5402   0.03908   0.03399  -0.0874  0.1872  1.0000  -3.5195   0.0000   0.0000   0.0000   0.2835
  13.000   1.5391   0.04011   0.03499  -0.0868  0.1818  1.0000  -3.5480   0.0000   0.0000   0.0000   0.2829
  13.100   1.5351   0.04148   0.03635  -0.0862  0.1765  1.0000  -3.5666   0.0000   0.0000   0.0000   0.2824
  13.200   1.5331   0.04269   0.03755  -0.0856  0.1703  1.0000  -3.5915   0.0000   0.0000   0.0000   0.2819
  13.300   1.5364   0.04338   0.03824  -0.0853  0.1674  1.0000  -3.6341   0.0000   0.0000   0.0000   0.2813
  13.400   1.5398   0.04404   0.03891  -0.0850  0.1644  1.0000  -3.6773   0.0000   0.0000   0.0000   0.2808
  13.500   1.5424   0.04476   0.03963  -0.0847  0.1605  1.0000  -3.7226   0.0000   0.0000   0.0000   0.2803
  13.600   1.5441   0.04555   0.04039  -0.0843  0.1562  1.0000  -3.7692   0.0000   0.0000   0.0000   0.2797
  13.700   1.5452   0.04640   0.04122  -0.0839  0.1518  1.0000  -3.8133   0.0000   0.0000   0.0000   0.2792
  13.800   1.5457   0.04732   0.04211  -0.0835  0.1473  1.0000  -3.8577   0.0000   0.0000   0.0000   0.2787
  13.900   1.5466   0.04823   0.04300  -0.0831  0.1421  1.0000  -3.9146   0.0000   0.0000   0.0000   0.2782
  14.000   1.5482   0.04910   0.04386  -0.0827  0.1367  1.0000  -3.9751   0.0000   0.0000   0.0000   0.2777
  14.100   1.5523   0.04974   0.04452  -0.0825  0.1346  1.0000  -4.0492   0.0000   0.0000   0.0000   0.2772
  14.200   1.5563   0.05038   0.04518  -0.0823  0.1327  1.0000  -4.1236   0.0000   0.0000   0.0000   0.2767
  14.300   1.5595   0.05112   0.04592  -0.0821  0.1302  1.0000  -4.1941   0.0000   0.0000   0.0000   0.2762
  14.400   1.5618   0.05195   0.04676  -0.0818  0.1273  1.0000  -4.2602   0.0000   0.0000   0.0000   0.2758
  14.500   1.5630   0.05290   0.04770  -0.0816  0.1240  1.0000  -4.3211   0.0000   0.0000   0.0000   0.2753
  14.600   1.5611   0.05424   0.04903  -0.0812  0.1211  1.0000  -4.3653   0.0000   0.0000   0.0000   0.2749
  14.700   1.5581   0.05572   0.05050  -0.0809  0.1181  1.0000  -4.4036   0.0000   0.0000   0.0000   0.2746
  14.800   1.5573   0.05691   0.05168  -0.0806  0.1142  1.0000  -4.4543   0.0000   0.0000   0.0000   0.2742
  14.900   1.5579   0.05796   0.05272  -0.0803  0.1096  1.0000  -4.5122   0.0000   0.0000   0.0000   0.2738
  15.000   1.5597   0.05889   0.05366  -0.0801  0.1054  1.0000  -4.5768   0.0000   0.0000   0.0000   0.2733
  15.100   1.5642   0.05953   0.05433  -0.0800  0.1042  1.0000  -4.6570   0.0000   0.0000   0.0000   0.2729
  15.200   1.5681   0.06024   0.05505  -0.0799  0.1026  1.0000  -4.7345   0.0000   0.0000   0.0000   0.2725
  15.300   1.5713   0.06101   0.05584  -0.0798  0.1004  1.0000  -4.8090   0.0000   0.0000   0.0000   0.2720
  15.400   1.5739   0.06186   0.05668  -0.0796  0.0979  1.0000  -4.8801   0.0000   0.0000   0.0000   0.2716
  15.500   1.5757   0.06279   0.05760  -0.0794  0.0951  1.0000  -4.9474   0.0000   0.0000   0.0000   0.2712
  15.600   1.5768   0.06380   0.05859  -0.0793  0.0922  1.0000  -5.0109   0.0000   0.0000   0.0000   0.2709
  15.700   1.5775   0.06488   0.05964  -0.0791  0.0890  1.0000  -5.0717   0.0000   0.0000   0.0000   0.2705
  15.800   1.5777   0.06601   0.06076  -0.0789  0.0854  1.0000  -5.1299   0.0000   0.0000   0.0000   0.2701
  15.900   1.5778   0.06716   0.06191  -0.0788  0.0814  1.0000  -5.1877   0.0000   0.0000   0.0000   0.2698
  16.000   1.5787   0.06824   0.06302  -0.0787  0.0786  1.0000  -5.2498   0.0000   0.0000   0.0000   0.2695
  16.100   1.5812   0.06913   0.06395  -0.0786  0.0778  1.0000  -5.3233   0.0000   0.0000   0.0000   0.2691
  16.200   1.5794   0.07061   0.06546  -0.0786  0.0769  1.0000  -5.3704   0.0000   0.0000   0.0000   0.2689
  16.300   1.5795   0.07182   0.06670  -0.0785  0.0755  1.0000  -5.4293   0.0000   0.0000   0.0000   0.2686
  16.400   1.5806   0.07290   0.06779  -0.0785  0.0736  1.0000  -5.4945   0.0000   0.0000   0.0000   0.2683
  16.500   1.5816   0.07399   0.06887  -0.0785  0.0715  1.0000  -5.5594   0.0000   0.0000   0.0000   0.2680
  16.600   1.5821   0.07512   0.06999  -0.0784  0.0691  1.0000  -5.6220   0.0000   0.0000   0.0000   0.2677
  16.700   1.5823   0.07629   0.07113  -0.0784  0.0665  1.0000  -5.6839   0.0000   0.0000   0.0000   0.2675
  16.800   1.5822   0.07745   0.07227  -0.0783  0.0637  1.0000  -5.7449   0.0000   0.0000   0.0000   0.2672
  16.900   1.5822   0.07862   0.07343  -0.0783  0.0604  1.0000  -5.8053   0.0000   0.0000   0.0000   0.2669
  17.000   1.5820   0.07983   0.07465  -0.0782  0.0572  1.0000  -5.8641   0.0000   0.0000   0.0000   0.2666
  17.100   1.5830   0.08089   0.07575  -0.0782  0.0555  1.0000  -5.9320   0.0000   0.0000   0.0000   0.2664
  17.200   1.5862   0.08171   0.07660  -0.0783  0.0550  1.0000  -6.0153   0.0000   0.0000   0.0000   0.2660
  17.300   1.5887   0.08263   0.07755  -0.0783  0.0543  1.0000  -6.0943   0.0000   0.0000   0.0000   0.2657
  17.400   1.5905   0.08364   0.07859  -0.0784  0.0534  1.0000  -6.1686   0.0000   0.0000   0.0000   0.2655
  17.500   1.5913   0.08478   0.07976  -0.0784  0.0523  1.0000  -6.2372   0.0000   0.0000   0.0000   0.2652
  17.600   1.5875   0.08663   0.08165  -0.0786  0.0514  1.0000  -6.2733   0.0000   0.0000   0.0000   0.2652
  17.700   1.5854   0.08821   0.08331  -0.0788  0.0503  1.0000  -6.3215   0.0000   0.0000   0.0000   0.2651
  17.800   1.5850   0.08957   0.08467  -0.0790  0.0489  1.0000  -6.3814   0.0000   0.0000   0.0000   0.2650
  17.900   1.5848   0.09089   0.08599  -0.0791  0.0474  1.0000  -6.4426   0.0000   0.0000   0.0000   0.2648
  18.000   1.5844   0.09224   0.08733  -0.0793  0.0458  1.0000  -6.5027   0.0000   0.0000   0.0000   0.2647
  18.100   1.5839   0.09360   0.08868  -0.0794  0.0440  1.0000  -6.5616   0.0000   0.0000   0.0000   0.2645
  18.200   1.5833   0.09499   0.09007  -0.0796  0.0418  1.0000  -6.6189   0.0000   0.0000   0.0000   0.2644
  18.300   1.5819   0.09650   0.09159  -0.0798  0.0395  1.0000  -6.6695   0.0000   0.0000   0.0000   0.2643
  18.400   1.5789   0.09824   0.09336  -0.0800  0.0373  1.0000  -6.7072   0.0000   0.0000   0.0000   0.2643
  18.500   1.5783   0.09966   0.09481  -0.0803  0.0363  1.0000  -6.7639   0.0000   0.0000   0.0000   0.2642
  18.600   1.5804   0.10068   0.09587  -0.0805  0.0361  1.0000  -6.8439   0.0000   0.0000   0.0000   0.2640
  18.700   1.5807   0.10201   0.09724  -0.0808  0.0358  1.0000  -6.9094   0.0000   0.0000   0.0000   0.2639
  18.800   1.5778   0.10384   0.09912  -0.0812  0.0356  1.0000  -6.9513   0.0000   0.0000   0.0000   0.2641
  18.900   1.5780   0.10516   0.10049  -0.0816  0.0352  1.0000  -7.0164   0.0000   0.0000   0.0000   0.2640
  19.000   1.5790   0.10636   0.10172  -0.0819  0.0347  1.0000  -7.0877   0.0000   0.0000   0.0000   0.2639
  19.100   1.5803   0.10752   0.10291  -0.0822  0.0340  1.0000  -7.1611   0.0000   0.0000   0.0000   0.2638
  19.200   1.5813   0.10870   0.10412  -0.0825  0.0333  1.0000  -7.2328   0.0000   0.0000   0.0000   0.2637
  19.300   1.5821   0.10993   0.10536  -0.0828  0.0325  1.0000  -7.3024   0.0000   0.0000   0.0000   0.2636
  19.400   1.5824   0.11121   0.10666  -0.0831  0.0317  1.0000  -7.3687   0.0000   0.0000   0.0000   0.2635
  19.500   1.5822   0.11257   0.10803  -0.0835  0.0308  1.0000  -7.4308   0.0000   0.0000   0.0000   0.2635
  19.600   1.5813   0.11402   0.10949  -0.0839  0.0300  1.0000  -7.4877   0.0000   0.0000   0.0000   0.2635
  19.700   1.5797   0.11559   0.11106  -0.0844  0.0291  1.0000  -7.5386   0.0000   0.0000   0.0000   0.2636
  19.800   1.5773   0.11730   0.11278  -0.0850  0.0282  1.0000  -7.5817   0.0000   0.0000   0.0000   0.2637
  19.900   1.5703   0.11980   0.11533  -0.0859  0.0276  1.0000  -7.5868   0.0000   0.0000   0.0000   0.2643
  20.000   1.5665   0.12174   0.11728  -0.0865  0.0266  1.0000  -7.6174   0.0000   0.0000   0.0000   0.2646
  20.100   1.5637   0.12351   0.11907  -0.0872  0.0254  1.0000  -7.6538   0.0000   0.0000   0.0000   0.2648
  20.200   1.5606   0.12533   0.12092  -0.0878  0.0240  1.0000  -7.6859   0.0000   0.0000   0.0000   0.2650
  20.300   1.5561   0.12735   0.12299  -0.0885  0.0226  1.0000  -7.7036   0.0000   0.0000   0.0000   0.2654
  20.400   1.5486   0.12983   0.12554  -0.0894  0.0211  1.0000  -7.6908   0.0000   0.0000   0.0000   0.2659
  20.500   1.5498   0.13098   0.12672  -0.0899  0.0210  1.0000  -7.7634   0.0000   0.0000   0.0000   0.2659
  20.600   1.5512   0.13212   0.12789  -0.0904  0.0209  1.0000  -7.8382   0.0000   0.0000   0.0000   0.2659
  20.700   1.5509   0.13354   0.12935  -0.0910  0.0208  1.0000  -7.8980   0.0000   0.0000   0.0000   0.2661
  20.800   1.5469   0.13561   0.13146  -0.0920  0.0207  1.0000  -7.9242   0.0000   0.0000   0.0000   0.2666
  20.900   1.5467   0.13701   0.13290  -0.0927  0.0206  1.0000  -7.9838   0.0000   0.0000   0.0000   0.2667
  21.000   1.5473   0.13825   0.13418  -0.0933  0.0204  1.0000  -8.0515   0.0000   0.0000   0.0000   0.2668
  21.100   1.5482   0.13943   0.13539  -0.0939  0.0202  1.0000  -8.1214   0.0000   0.0000   0.0000   0.2669
  21.200   1.5493   0.14053   0.13652  -0.0944  0.0199  1.0000  -8.1934   0.0000   0.0000   0.0000   0.2669
  21.300   1.5503   0.14161   0.13763  -0.0950  0.0197  1.0000  -8.2641   0.0000   0.0000   0.0000   0.2670
  21.400   1.5511   0.14270   0.13875  -0.0956  0.0194  1.0000  -8.3326   0.0000   0.0000   0.0000   0.2670
  21.500   1.5517   0.14383   0.13991  -0.0963  0.0190  1.0000  -8.3981   0.0000   0.0000   0.0000   0.2671
  21.600   1.5518   0.14502   0.14113  -0.0970  0.0187  1.0000  -8.4600   0.0000   0.0000   0.0000   0.2673
  21.700   1.5514   0.14629   0.14244  -0.0977  0.0184  1.0000  -8.5169   0.0000   0.0000   0.0000   0.2675
  21.800   1.5504   0.14770   0.14388  -0.0985  0.0180  1.0000  -8.5669   0.0000   0.0000   0.0000   0.2677
  21.900   1.5447   0.14995   0.14619  -0.0998  0.0178  1.0000  -8.5700   0.0000   0.0000   0.0000   0.2686
  22.000   1.5414   0.15180   0.14807  -0.1009  0.0176  1.0000  -8.5970   0.0000   0.0000   0.0000   0.2691
  22.100   1.5399   0.15334   0.14964  -0.1018  0.0173  1.0000  -8.6415   0.0000   0.0000   0.0000   0.2695
  22.200   1.5391   0.15480   0.15112  -0.1027  0.0169  1.0000  -8.6921   0.0000   0.0000   0.0000   0.2697
  22.300   1.5384   0.15625   0.15259  -0.1035  0.0166  1.0000  -8.7439   0.0000   0.0000   0.0000   0.2700
  22.400   1.5375   0.15773   0.15410  -0.1044  0.0162  1.0000  -8.7940   0.0000   0.0000   0.0000   0.2703
  22.500   1.5363   0.15928   0.15567  -0.1053  0.0159  1.0000  -8.8410   0.0000   0.0000   0.0000   0.2707
  22.600   1.5348   0.16093   0.15734  -0.1063  0.0156  1.0000  -8.8831   0.0000   0.0000   0.0000   0.2711
  22.700   1.5326   0.16271   0.15914  -0.1073  0.0153  1.0000  -8.9184   0.0000   0.0000   0.0000   0.2716
  22.800   1.5281   0.16497   0.16144  -0.1086  0.0150  1.0000  -8.9284   0.0000   0.0000   0.0000   0.2723
  22.900   1.5216   0.16770   0.16422  -0.1102  0.0149  1.0000  -8.9146   0.0000   0.0000   0.0000   0.2734
  23.000   1.5187   0.16970   0.16624  -0.1114  0.0146  1.0000  -8.9397   0.0000   0.0000   0.0000   0.2740
  23.100   1.5167   0.17153   0.16809  -0.1125  0.0142  1.0000  -8.9745   0.0000   0.0000   0.0000   0.2745
  23.200   1.5149   0.17336   0.16995  -0.1136  0.0139  1.0000  -9.0093   0.0000   0.0000   0.0000   0.2750
  23.300   1.5129   0.17523   0.17184  -0.1147  0.0135  1.0000  -9.0415   0.0000   0.0000   0.0000   0.2755
  23.400   1.5106   0.17718   0.17383  -0.1158  0.0131  1.0000  -9.0691   0.0000   0.0000   0.0000   0.2761
  23.500   1.5078   0.17926   0.17594  -0.1170  0.0128  1.0000  -9.0899   0.0000   0.0000   0.0000   0.2768
  23.600   1.5042   0.18150   0.17823  -0.1183  0.0124  1.0000  -9.1016   0.0000   0.0000   0.0000   0.2775
  23.700   1.4966   0.18474   0.18152  -0.1202  0.0122  1.0000  -9.0652   0.0000   0.0000   0.0000   0.2789
  23.800   1.4914   0.18744   0.18428  -0.1217  0.0120  1.0000  -9.0545   0.0000   0.0000   0.0000   0.2799
  23.900   1.4881   0.18975   0.18664  -0.1230  0.0115  1.0000  -9.0623   0.0000   0.0000   0.0000   0.2807
  24.000   1.4847   0.19206   0.18899  -0.1243  0.0111  1.0000  -9.0677   0.0000   0.0000   0.0000   0.2814
  24.100   1.4807   0.19449   0.19149  -0.1256  0.0106  1.0000  -9.0627   0.0000   0.0000   0.0000   0.2823
  24.200   1.4754   0.19724   0.19431  -0.1271  0.0101  1.0000  -9.0359   0.0000   0.0000   0.0000   0.2833
  24.300   1.4713   0.19975   0.19688  -0.1285  0.0098  1.0000  -9.0281   0.0000   0.0000   0.0000   0.2841
  24.400   1.4715   0.20137   0.19853  -0.1295  0.0098  1.0000  -9.0849   0.0000   0.0000   0.0000   0.2845
  24.500   1.4713   0.20310   0.20029  -0.1305  0.0098  1.0000  -9.1365   0.0000   0.0000   0.0000   0.2849
  24.600   1.4706   0.20498   0.20220  -0.1316  0.0098  1.0000  -9.1802   0.0000   0.0000   0.0000   0.2854
  24.700   1.4666   0.20770   0.20496  -0.1332  0.0097  1.0000  -9.1816   0.0000   0.0000   0.0000   0.2864
  24.800   1.4615   0.21078   0.20809  -0.1349  0.0097  1.0000  -9.1652   0.0000   0.0000   0.0000   0.2876
  24.900   1.4605   0.21279   0.21013  -0.1360  0.0097  1.0000  -9.2041   0.0000   0.0000   0.0000   0.2882
  25.000   1.4601   0.21463   0.21199  -0.1371  0.0096  1.0000  -9.2520   0.0000   0.0000   0.0000   0.2886
  25.100   1.4600   0.21641   0.21380  -0.1381  0.0096  1.0000  -9.3027   0.0000   0.0000   0.0000   0.2890
  25.200   1.4599   0.21819   0.21560  -0.1392  0.0095  1.0000  -9.3538   0.0000   0.0000   0.0000   0.2894
  25.300   1.4598   0.21999   0.21743  -0.1402  0.0095  1.0000  -9.4034   0.0000   0.0000   0.0000   0.2898
  25.400   1.4594   0.22186   0.21933  -0.1413  0.0094  1.0000  -9.4499   0.0000   0.0000   0.0000   0.2902
  25.500   1.4586   0.22383   0.22132  -0.1424  0.0094  1.0000  -9.4916   0.0000   0.0000   0.0000   0.2907
  25.600   1.4574   0.22594   0.22346  -0.1436  0.0093  1.0000  -9.5260   0.0000   0.0000   0.0000   0.2913
  25.700   1.4555   0.22826   0.22582  -0.1449  0.0092  1.0000  -9.5497   0.0000   0.0000   0.0000   0.2920
  25.800   1.4519   0.23110   0.22875  -0.1464  0.0092  1.0000  -9.5481   0.0000   0.0000   0.0000   0.2930
  25.900   1.4432   0.23552   0.23324  -0.1487  0.0091  1.0000  -9.4694   0.0000   0.0000   0.0000   0.2950
  26.000   1.4409   0.23804   0.23579  -0.1500  0.0090  1.0000  -9.4849   0.0000   0.0000   0.0000   0.2958
  26.100   1.4394   0.24034   0.23812  -0.1513  0.0089  1.0000  -9.5113   0.0000   0.0000   0.0000   0.2964
  26.200   1.4381   0.24259   0.24040  -0.1525  0.0089  1.0000  -9.5401   0.0000   0.0000   0.0000   0.2970
  26.300   1.4368   0.24486   0.24270  -0.1537  0.0087  1.0000  -9.5679   0.0000   0.0000   0.0000   0.2976
  26.400   1.4352   0.24720   0.24507  -0.1549  0.0086  1.0000  -9.5922   0.0000   0.0000   0.0000   0.2983
  26.500   1.4333   0.24966   0.24757  -0.1562  0.0085  1.0000  -9.6104   0.0000   0.0000   0.0000   0.2990
  26.600   1.4308   0.25233   0.25028  -0.1576  0.0084  1.0000  -9.6186   0.0000   0.0000   0.0000   0.2999
  26.700   1.4273   0.25535   0.25334  -0.1591  0.0083  1.0000  -9.6099   0.0000   0.0000   0.0000   0.3009
  26.800   1.4178   0.26042   0.25847  -0.1614  0.0083  1.0000  -9.5038   0.0000   0.0000   0.0000   0.3031
  26.900   1.4098   0.26508   0.26319  -0.1636  0.0082  1.0000  -9.4185   0.0000   0.0000   0.0000   0.3051
  27.000   1.4066   0.26816   0.26630  -0.1650  0.0081  1.0000  -9.4092   0.0000   0.0000   0.0000   0.3061
  27.100   1.4038   0.27105   0.26923  -0.1664  0.0080  1.0000  -9.4085   0.0000   0.0000   0.0000   0.3070
  27.200   1.4012   0.27394   0.27215  -0.1678  0.0079  1.0000  -9.4081   0.0000   0.0000   0.0000   0.3079
  27.300   1.3983   0.27694   0.27518  -0.1691  0.0077  1.0000  -9.4028   0.0000   0.0000   0.0000   0.3088
  27.400   1.3948   0.28017   0.27845  -0.1706  0.0076  1.0000  -9.3865   0.0000   0.0000   0.0000   0.3099
  27.500   1.3899   0.28391   0.28223  -0.1723  0.0075  1.0000  -9.3466   0.0000   0.0000   0.0000   0.3112
  27.600   1.3823   0.28877   0.28714  -0.1743  0.0074  1.0000  -9.2547   0.0000   0.0000   0.0000   0.3132
  27.700   1.3618   0.29869   0.29717  -0.1779  0.0075  1.0000  -8.9288   0.0000   0.0000   0.0000   0.3179
  27.800   1.3565   0.30280   0.30133  -0.1796  0.0073  1.0000  -8.8733   0.0000   0.0000   0.0000   0.3194
  27.900   1.3509   0.30706   0.30562  -0.1812  0.0072  1.0000  -8.8112   0.0000   0.0000   0.0000   0.3209
  28.000   1.3428   0.31233   0.31094  -0.1831  0.0071  1.0000  -8.7024   0.0000   0.0000   0.0000   0.3230


