xflr5 v6.61

 Calculated polar for: EPPLER 580 AIRFOIL

 1 1 Reynolds number fixed          Mach number fixed         

 xtrf =   1.000 (top)        1.000 (bottom)
 Mach =   0.000     Re =     0.160 e 6     Ncrit =   9.000

  alpha     CL        CD       CDp       Cm    Top Xtr Bot Xtr   Cpmin    Chinge    XCp    
 ------- -------- --------- --------- -------- ------- ------- -------- --------- ---------
 -10.000  -0.3528   0.12064   0.11707  -0.0391  1.0000  0.0716  -1.4784   0.0000   0.0000   0.0000   0.1201
  -9.900  -0.3539   0.12015   0.11660  -0.0399  0.9995  0.0723  -1.4919   0.0000   0.0000   0.0000   0.1185
  -9.800  -0.3478   0.11883   0.11528  -0.0431  0.9979  0.0729  -1.5050   0.0000   0.0000   0.0000   0.1073
  -9.700  -0.3425   0.11722   0.11366  -0.0460  0.9963  0.0732  -1.5189   0.0000   0.0000   0.0000   0.0967
  -9.600  -0.3379   0.11539   0.11183  -0.0487  0.9944  0.0734  -1.5339   0.0000   0.0000   0.0000   0.0868
  -9.500  -0.3335   0.11342   0.10986  -0.0515  0.9924  0.0735  -1.5508   0.0000   0.0000   0.0000   0.0766
  -9.400  -0.3294   0.11130   0.10774  -0.0544  0.9905  0.0736  -1.5703   0.0000   0.0000   0.0000   0.0658
  -9.300  -0.3255   0.10902   0.10545  -0.0575  0.9888  0.0737  -1.5934   0.0000   0.0000   0.0000   0.0541
  -9.200  -0.3222   0.10653   0.10296  -0.0609  0.9873  0.0738  -1.6218   0.0000   0.0000   0.0000   0.0415
  -9.100  -0.3427   0.09778   0.09429  -0.0642  0.9861  0.0760  -1.7708   0.0000   0.0000   0.0000   0.0443
  -9.000  -0.3392   0.09558   0.09209  -0.0642  0.9842  0.0772  -1.7524   0.0000   0.0000   0.0000   0.0422
  -8.900  -0.3258   0.09500   0.09151  -0.0630  0.9829  0.0784  -1.6789   0.0000   0.0000   0.0000   0.0375
  -8.800  -0.3147   0.09417   0.09067  -0.0629  0.9812  0.0794  -1.6257   0.0000   0.0000   0.0000   0.0308
  -8.700  -0.3050   0.09316   0.08965  -0.0634  0.9794  0.0806  -1.5850   0.0000   0.0000   0.0000   0.0225
  -8.600  -0.2962   0.09199   0.08848  -0.0643  0.9777  0.0818  -1.5536   0.0000   0.0000   0.0000   0.0129
  -8.500  -0.2878   0.09070   0.08719  -0.0655  0.9761  0.0831  -1.5281   0.0000   0.0000   0.0000   0.0019
  -8.400  -0.2798   0.08930   0.08578  -0.0671  0.9746  0.0845  -1.5084   0.0000   0.0000   0.0000  -0.0105
  -8.300  -0.2725   0.08773   0.08421  -0.0690  0.9733  0.0861  -1.4961   0.0000   0.0000   0.0000  -0.0243
  -8.200  -0.2657   0.08595   0.08243  -0.0714  0.9721  0.0879  -1.4911   0.0000   0.0000   0.0000  -0.0400
  -8.100  -0.2659   0.08444   0.08093  -0.0723  0.9677  0.0892  -1.4977   0.0000   0.0000   0.0000  -0.0429
  -8.000  -0.2651   0.08263   0.07913  -0.0740  0.9636  0.0907  -1.5091   0.0000   0.0000   0.0000  -0.0498
  -7.900  -0.2641   0.08040   0.07690  -0.0767  0.9603  0.0926  -1.5293   0.0000   0.0000   0.0000  -0.0613
  -7.800  -0.2649   0.07742   0.07392  -0.0810  0.9571  0.0945  -1.5695   0.0000   0.0000   0.0000  -0.0761
  -7.700  -0.2691   0.07390   0.07038  -0.0867  0.9541  0.0964  -1.6298   0.0000   0.0000   0.0000  -0.0923
  -7.600  -0.2800   0.07210   0.06857  -0.0881  0.9474  0.0970  -1.6697   0.0000   0.0000   0.0000  -0.0837
  -7.500  -0.2893   0.07036   0.06681  -0.0897  0.9398  0.0977  -1.7045   0.0000   0.0000   0.0000  -0.0780
  -7.400  -0.2887   0.06795   0.06429  -0.0958  0.9343  0.1001  -1.7385   0.0000   0.0000   0.0000  -0.0994
  -7.300  -0.2764   0.06914   0.06523  -0.1016  0.9305  0.1034  -1.7218   0.0000   0.0000   0.0000  -0.1352
  -7.100  -0.2803   0.06794   0.06388  -0.1015  0.9187  0.1039  -1.7270   0.0000   0.0000   0.0000  -0.1291
  -7.000  -0.3057   0.05954   0.05535  -0.1053  0.9126  0.1067  -1.8611   0.0000   0.0000   0.0000  -0.1099
  -6.900  -0.3032   0.05595   0.05180  -0.1066  0.9106  0.1094  -1.8583   0.0000   0.0000   0.0000  -0.1171
  -6.800  -0.2916   0.05449   0.05042  -0.1069  0.9094  0.1116  -1.8118   0.0000   0.0000   0.0000  -0.1324
  -6.700  -0.2793   0.05337   0.04936  -0.1073  0.9081  0.1138  -1.7657   0.0000   0.0000   0.0000  -0.1505
  -6.600  -0.2672   0.05227   0.04827  -0.1082  0.9068  0.1164  -1.7260   0.0000   0.0000   0.0000  -0.1717
  -6.500  -0.2552   0.05106   0.04696  -0.1096  0.9054  0.1196  -1.6974   0.0000   0.0000   0.0000  -0.1966
  -5.500  -0.1469   0.03212   0.02582  -0.1206  0.8777  0.0623  -1.9230   0.0000   0.0000   0.0000  -0.5976
  -5.400  -0.1270   0.03025   0.02337  -0.1212  0.8766  0.0512  -2.0206   0.0000   0.0000   0.0000  -0.7341
  -5.300  -0.1085   0.03040   0.02349  -0.1220  0.8754  0.0496  -1.9577   0.0000   0.0000   0.0000  -0.9082
  -5.200  -0.0902   0.03062   0.02371  -0.1229  0.8744  0.0486  -1.8853   0.0000   0.0000   0.0000  -1.1526
  -5.100  -0.0764   0.02780   0.02071  -0.1238  0.8738  0.0460  -1.9234   0.0000   0.0000   0.0000  -1.4179
  -5.000  -0.0602   0.02650   0.01930  -0.1248  0.8731  0.0449  -1.9088   0.0000   0.0000   0.0000  -1.8797
  -4.900  -0.0437   0.02543   0.01814  -0.1257  0.8724  0.0439  -1.8874   0.0000   0.0000   0.0000  -2.7052
  -4.800  -0.0268   0.02450   0.01712  -0.1266  0.8717  0.0430  -1.8621   0.0000   0.0000   0.0000  -4.6030
  -4.700  -0.0095   0.02366   0.01620  -0.1276  0.8710  0.0422  -1.8336   0.0000   0.0000   0.0000  -13.5687
  -4.600   0.0080   0.02289   0.01538  -0.1286  0.8703  0.0415  -1.8026   0.0000   0.0000   0.0000  16.7942
  -4.500   0.0253   0.02220   0.01464  -0.1296  0.8695  0.0409  -1.7695   0.0000   0.0000   0.0000   5.5017
  -4.400   0.0423   0.02157   0.01397  -0.1305  0.8686  0.0405  -1.7345   0.0000   0.0000   0.0000   3.4095
  -4.300   0.0302   0.02182   0.01422  -0.1264  0.8592  0.0404  -1.7385   0.0000   0.0000   0.0000   4.5322
  -4.200   0.0370   0.02150   0.01388  -0.1256  0.8548  0.0402  -1.7158   0.0000   0.0000   0.0000   3.7205
  -4.100   0.0491   0.02106   0.01341  -0.1257  0.8520  0.0400  -1.6847   0.0000   0.0000   0.0000   2.8697
  -4.000   0.0631   0.02060   0.01291  -0.1263  0.8498  0.0399  -1.6495   0.0000   0.0000   0.0000   2.2941
  -3.900   0.0787   0.02012   0.01239  -0.1272  0.8478  0.0399  -1.6109   0.0000   0.0000   0.0000   1.9007
  -3.800   0.0956   0.01965   0.01186  -0.1284  0.8461  0.0401  -1.5692   0.0000   0.0000   0.0000   1.6208
  -3.700   0.1131   0.01920   0.01134  -0.1298  0.8446  0.0406  -1.5258   0.0000   0.0000   0.0000   1.4199
  -3.600   0.1310   0.01878   0.01084  -0.1312  0.8430  0.0413  -1.4812   0.0000   0.0000   0.0000   1.2700
  -3.500   0.1492   0.01840   0.01035  -0.1327  0.8416  0.0424  -1.4363   0.0000   0.0000   0.0000   1.1544
  -3.400   0.1676   0.01804   0.00990  -0.1341  0.8401  0.0440  -1.3918   0.0000   0.0000   0.0000   1.0633
  -3.300   0.1861   0.01771   0.00946  -0.1355  0.8386  0.0467  -1.3489   0.0000   0.0000   0.0000   0.9895
  -3.200   0.2059   0.01716   0.00896  -0.1373  0.8372  0.0702  -1.3311   0.0000   0.0000   0.0000   0.9265
  -3.100   0.2313   0.01540   0.00896  -0.1424  0.8361  0.5025  -1.2678   0.0000   0.0000   0.0000   0.8740
  -3.000   0.2485   0.01515   0.00847  -0.1436  0.8342  0.4688  -1.1502   0.0000   0.0000   0.0000   0.8355
  -2.900   0.2637   0.01557   0.00899  -0.1435  0.8321  0.5257  -1.1051   0.0000   0.0000   0.0000   0.8009
  -2.800   0.2678   0.01590   0.00932  -0.1418  0.8275  0.5399  -1.0740   0.0000   0.0000   0.0000   0.7860
  -2.700   0.2726   0.01644   0.00982  -0.1402  0.8224  0.5568  -1.0374   0.0000   0.0000   0.0000   0.7702
  -2.600   0.2762   0.01676   0.01028  -0.1379  0.8180  0.5682  -1.0005   0.0000   0.0000   0.0000   0.7547
  -2.500   0.2852   0.01697   0.01050  -0.1370  0.8144  0.5735  -0.9517   0.0000   0.0000   0.0000   0.7353
  -2.400   0.2958   0.01714   0.01067  -0.1364  0.8113  0.5787  -0.8979   0.0000   0.0000   0.0000   0.7157
  -2.300   0.3076   0.01728   0.01080  -0.1361  0.8085  0.5838  -0.8406   0.0000   0.0000   0.0000   0.6967
  -2.200   0.3205   0.01738   0.01087  -0.1361  0.8060  0.5886  -0.7806   0.0000   0.0000   0.0000   0.6785
  -2.100   0.3344   0.01746   0.01091  -0.1364  0.8035  0.5933  -0.7187   0.0000   0.0000   0.0000   0.6613
  -2.000   0.3488   0.01752   0.01093  -0.1369  0.8012  0.5975  -0.7270   0.0000   0.0000   0.0000   0.6453
  -1.900   0.3636   0.01762   0.01099  -0.1374  0.7989  0.6019  -0.7365   0.0000   0.0000   0.0000   0.6303
  -1.800   0.3776   0.01818   0.01151  -0.1372  0.7965  0.6087  -0.7458   0.0000   0.0000   0.0000   0.6156
  -1.700   0.3855   0.01821   0.01161  -0.1357  0.7939  0.6201  -0.7522   0.0000   0.0000   0.0000   0.6040
  -1.600   0.3884   0.01882   0.01230  -0.1327  0.7908  0.6283  -0.7560   0.0000   0.0000   0.0000   0.5936
  -1.500   0.3876   0.01928   0.01283  -0.1296  0.7871  0.6355  -0.7579   0.0000   0.0000   0.0000   0.5860
  -1.400   0.3888   0.01973   0.01333  -0.1268  0.7832  0.6436  -0.7610   0.0000   0.0000   0.0000   0.5777
  -1.300   0.3939   0.02017   0.01378  -0.1250  0.7793  0.6525  -0.7662   0.0000   0.0000   0.0000   0.5686
  -1.200   0.4033   0.02066   0.01426  -0.1242  0.7756  0.6596  -0.7737   0.0000   0.0000   0.0000   0.5589
  -1.100   0.4154   0.02106   0.01462  -0.1241  0.7722  0.6627  -0.7827   0.0000   0.0000   0.0000   0.5494
  -1.000   0.4288   0.02059   0.01411  -0.1250  0.7691  0.6648  -0.7922   0.0000   0.0000   0.0000   0.5419
  -0.900   0.4413   0.02017   0.01365  -0.1255  0.7661  0.6671  -0.8014   0.0000   0.0000   0.0000   0.5346
  -0.800   0.4537   0.01991   0.01337  -0.1258  0.7633  0.6691  -0.8107   0.0000   0.0000   0.0000   0.5272
  -0.700   0.4662   0.01975   0.01318  -0.1260  0.7606  0.6709  -0.8200   0.0000   0.0000   0.0000   0.5201
  -0.600   0.4792   0.01964   0.01303  -0.1263  0.7580  0.6726  -0.8296   0.0000   0.0000   0.0000   0.5132
  -0.500   0.4929   0.01957   0.01293  -0.1268  0.7555  0.6741  -0.8395   0.0000   0.0000   0.0000   0.5067
  -0.400   0.5072   0.01954   0.01286  -0.1275  0.7527  0.6754  -0.8497   0.0000   0.0000   0.0000   0.5006
  -0.300   0.5211   0.01960   0.01288  -0.1282  0.7495  0.6765  -0.8594   0.0000   0.0000   0.0000   0.4950
  -0.200   0.5281   0.01958   0.01287  -0.1276  0.7470  0.6776  -0.8651   0.0000   0.0000   0.0000   0.4905
  -0.100   0.5355   0.01957   0.01287  -0.1271  0.7442  0.6788  -0.8711   0.0000   0.0000   0.0000   0.4860
   0.000   0.5438   0.01956   0.01287  -0.1267  0.7412  0.6800  -0.8775   0.0000   0.0000   0.0000   0.4815
   0.100   0.5528   0.01955   0.01286  -0.1265  0.7380  0.6812  -0.8852   0.0000   0.0000   0.0000   0.4771
   0.200   0.5627   0.01953   0.01283  -0.1264  0.7349  0.6824  -0.8938   0.0000   0.0000   0.0000   0.4728
   0.300   0.5734   0.01949   0.01279  -0.1265  0.7317  0.6837  -0.9029   0.0000   0.0000   0.0000   0.4685
   0.400   0.5848   0.01944   0.01272  -0.1266  0.7285  0.6849  -0.9126   0.0000   0.0000   0.0000   0.4644
   0.500   0.5969   0.01937   0.01264  -0.1269  0.7255  0.6862  -0.9228   0.0000   0.0000   0.0000   0.4603
   0.600   0.6095   0.01931   0.01261  -0.1273  0.7225  0.6876  -0.9333   0.0000   0.0000   0.0000   0.4563
   0.700   0.6227   0.01923   0.01249  -0.1277  0.7196  0.6889  -0.9442   0.0000   0.0000   0.0000   0.4525
   0.800   0.6361   0.01916   0.01239  -0.1283  0.7168  0.6901  -0.9553   0.0000   0.0000   0.0000   0.4489
   0.900   0.6501   0.01911   0.01229  -0.1289  0.7139  0.6914  -0.9668   0.0000   0.0000   0.0000   0.4454
   1.000   0.6645   0.01910   0.01223  -0.1297  0.7110  0.6926  -0.9784   0.0000   0.0000   0.0000   0.4421
   1.100   0.6790   0.01917   0.01226  -0.1305  0.7077  0.6938  -0.9899   0.0000   0.0000   0.0000   0.4390
   1.200   0.6913   0.01930   0.01237  -0.1310  0.7046  0.6951  -0.9999   0.0000   0.0000   0.0000   0.4362
   1.300   0.7000   0.01930   0.01238  -0.1307  0.7025  0.6963  -1.0077   0.0000   0.0000   0.0000   0.4333
   1.400   0.7089   0.01931   0.01241  -0.1305  0.7000  0.6975  -1.0156   0.0000   0.0000   0.0000   0.4306
   1.500   0.7182   0.01932   0.01243  -0.1304  0.6974  0.6987  -1.0239   0.0000   0.0000   0.0000   0.4279
   1.600   0.7280   0.01934   0.01245  -0.1304  0.6945  0.6998  -1.0325   0.0000   0.0000   0.0000   0.4253
   1.700   0.7383   0.01935   0.01246  -0.1305  0.6916  0.7010  -1.0427   0.0000   0.0000   0.0000   0.4228
   1.800   0.7492   0.01935   0.01246  -0.1306  0.6885  0.7021  -1.0533   0.0000   0.0000   0.0000   0.4203
   1.900   0.7606   0.01934   0.01245  -0.1308  0.6855  0.7034  -1.0643   0.0000   0.0000   0.0000   0.4178
   2.000   0.7723   0.01933   0.01242  -0.1311  0.6824  0.7048  -1.0757   0.0000   0.0000   0.0000   0.4154
   2.100   0.7846   0.01930   0.01238  -0.1314  0.6793  0.7063  -1.0876   0.0000   0.0000   0.0000   0.4130
   2.200   0.7973   0.01928   0.01233  -0.1318  0.6763  0.7078  -1.0998   0.0000   0.0000   0.0000   0.4107
   2.300   0.8103   0.01925   0.01228  -0.1322  0.6733  0.7092  -1.1122   0.0000   0.0000   0.0000   0.4084
   2.400   0.8235   0.01924   0.01223  -0.1327  0.6704  0.7105  -1.1249   0.0000   0.0000   0.0000   0.4063
   2.500   0.8374   0.01925   0.01221  -0.1333  0.6673  0.7116  -1.1380   0.0000   0.0000   0.0000   0.4042
   2.600   0.8517   0.01933   0.01224  -0.1340  0.6640  0.7125  -1.1511   0.0000   0.0000   0.0000   0.4023
   2.700   0.8658   0.01953   0.01241  -0.1349  0.6602  0.7133  -1.1639   0.0000   0.0000   0.0000   0.4006
   2.800   0.8761   0.01965   0.01254  -0.1350  0.6577  0.7140  -1.1741   0.0000   0.0000   0.0000   0.3987
   2.900   0.8851   0.01968   0.01260  -0.1348  0.6556  0.7147  -1.1848   0.0000   0.0000   0.0000   0.3968
   3.000   0.8943   0.01973   0.01267  -0.1346  0.6532  0.7153  -1.1959   0.0000   0.0000   0.0000   0.3950
   3.100   0.9038   0.01978   0.01275  -0.1345  0.6506  0.7160  -1.2071   0.0000   0.0000   0.0000   0.3931
   3.200   0.9135   0.01984   0.01282  -0.1344  0.6478  0.7165  -1.2186   0.0000   0.0000   0.0000   0.3914
   3.300   0.9243   0.01976   0.01276  -0.1347  0.6448  0.7180  -1.2309   0.0000   0.0000   0.0000   0.3898
   3.400   0.9354   0.01966   0.01267  -0.1349  0.6416  0.7196  -1.2434   0.0000   0.0000   0.0000   0.3882
   3.500   0.9465   0.01958   0.01259  -0.1351  0.6384  0.7211  -1.2561   0.0000   0.0000   0.0000   0.3866
   3.600   0.9578   0.01950   0.01252  -0.1353  0.6352  0.7226  -1.2692   0.0000   0.0000   0.0000   0.3849
   3.700   0.9695   0.01943   0.01244  -0.1354  0.6320  0.7240  -1.2826   0.0000   0.0000   0.0000   0.3833
   3.800   0.9814   0.01936   0.01237  -0.1356  0.6288  0.7254  -1.2962   0.0000   0.0000   0.0000   0.3817
   3.900   0.9933   0.01931   0.01230  -0.1358  0.6257  0.7268  -1.3108   0.0000   0.0000   0.0000   0.3800
   4.000   1.0056   0.01928   0.01238  -0.1361  0.6228  0.7282  -1.3267   0.0000   0.0000   0.0000   0.3785
   4.100   1.0184   0.01930   0.01238  -0.1364  0.6196  0.7296  -1.3430   0.0000   0.0000   0.0000   0.3770
   4.200   1.0315   0.01942   0.01247  -0.1369  0.6161  0.7310  -1.3592   0.0000   0.0000   0.0000   0.3757
   4.300   1.0441   0.01975   0.01278  -0.1374  0.6116  0.7324  -1.3748   0.0000   0.0000   0.0000   0.3745
   4.400   1.0522   0.01977   0.01284  -0.1370  0.6098  0.7339  -1.3870   0.0000   0.0000   0.0000   0.3729
   4.500   1.0602   0.01980   0.01292  -0.1365  0.6076  0.7354  -1.3993   0.0000   0.0000   0.0000   0.3714
   4.600   1.0684   0.01984   0.01300  -0.1361  0.6050  0.7369  -1.4137   0.0000   0.0000   0.0000   0.3698
   4.700   1.0769   0.01988   0.01307  -0.1357  0.6020  0.7384  -1.4284   0.0000   0.0000   0.0000   0.3684
   4.800   1.0858   0.01991   0.01313  -0.1354  0.5988  0.7400  -1.4436   0.0000   0.0000   0.0000   0.3669
   4.900   1.0953   0.01993   0.01317  -0.1352  0.5953  0.7416  -1.4594   0.0000   0.0000   0.0000   0.3655
   5.000   1.1054   0.01993   0.01319  -0.1351  0.5918  0.7432  -1.4758   0.0000   0.0000   0.0000   0.3641
   5.100   1.1160   0.01992   0.01319  -0.1350  0.5882  0.7449  -1.4928   0.0000   0.0000   0.0000   0.3628
   5.200   1.1272   0.01990   0.01317  -0.1351  0.5848  0.7465  -1.5106   0.0000   0.0000   0.0000   0.3615
   5.300   1.1387   0.01988   0.01315  -0.1352  0.5815  0.7482  -1.5313   0.0000   0.0000   0.0000   0.3603
   5.400   1.1504   0.01988   0.01314  -0.1354  0.5783  0.7499  -1.5523   0.0000   0.0000   0.0000   0.3591
   5.500   1.1627   0.01992   0.01315  -0.1357  0.5752  0.7516  -1.5739   0.0000   0.0000   0.0000   0.3580
   5.600   1.1757   0.01999   0.01319  -0.1361  0.5717  0.7533  -1.5962   0.0000   0.0000   0.0000   0.3569
   5.700   1.1893   0.02017   0.01334  -0.1367  0.5674  0.7549  -1.6190   0.0000   0.0000   0.0000   0.3560
   5.800   1.2009   0.02047   0.01363  -0.1371  0.5629  0.7566  -1.6410   0.0000   0.0000   0.0000   0.3550
   5.900   1.2084   0.02048   0.01370  -0.1365  0.5607  0.7585  -1.6607   0.0000   0.0000   0.0000   0.3537
   6.000   1.2160   0.02052   0.01378  -0.1360  0.5578  0.7604  -1.6806   0.0000   0.0000   0.0000   0.3524
   6.100   1.2240   0.02056   0.01387  -0.1355  0.5545  0.7623  -1.7011   0.0000   0.0000   0.0000   0.3511
   6.200   1.2325   0.02060   0.01395  -0.1351  0.5509  0.7641  -1.7222   0.0000   0.0000   0.0000   0.3499
   6.300   1.2415   0.02065   0.01402  -0.1348  0.5471  0.7657  -1.7441   0.0000   0.0000   0.0000   0.3487
   6.400   1.2511   0.02068   0.01407  -0.1346  0.5433  0.7672  -1.7667   0.0000   0.0000   0.0000   0.3476
   6.500   1.2613   0.02071   0.01411  -0.1345  0.5396  0.7684  -1.7902   0.0000   0.0000   0.0000   0.3465
   6.600   1.2721   0.02065   0.01406  -0.1345  0.5358  0.7707  -1.8145   0.0000   0.0000   0.0000   0.3455
   6.700   1.2830   0.02058   0.01399  -0.1345  0.5321  0.7731  -1.8430   0.0000   0.0000   0.0000   0.3445
   6.800   1.2946   0.02054   0.01392  -0.1347  0.5281  0.7754  -1.8736   0.0000   0.0000   0.0000   0.3435
   6.900   1.3068   0.02056   0.01390  -0.1349  0.5238  0.7776  -1.9051   0.0000   0.0000   0.0000   0.3425
   7.000   1.3201   0.02073   0.01403  -0.1354  0.5185  0.7798  -1.9430   0.0000   0.0000   0.0000   0.3417
   7.100   1.3297   0.02092   0.01425  -0.1353  0.5143  0.7820  -1.9757   0.0000   0.0000   0.0000   0.3407
   7.200   1.3356   0.02094   0.01434  -0.1344  0.5116  0.7842  -2.0029   0.0000   0.0000   0.0000   0.3395
   7.300   1.3414   0.02093   0.01440  -0.1335  0.5080  0.7864  -2.0302   0.0000   0.0000   0.0000   0.3382
   7.400   1.3473   0.02089   0.01440  -0.1325  0.5031  0.7888  -2.0582   0.0000   0.0000   0.0000   0.3369
   7.500   1.3537   0.02080   0.01434  -0.1316  0.4973  0.7912  -2.0873   0.0000   0.0000   0.0000   0.3356
   7.600   1.3631   0.02112   0.01503  -0.1315  0.4957  0.7937  -2.1238   0.0000   0.0000   0.0000   0.3348
   7.700   1.3712   0.02113   0.01507  -0.1310  0.4912  0.7963  -2.1566   0.0000   0.0000   0.0000   0.3337
   7.800   1.3802   0.02113   0.01509  -0.1307  0.4868  0.7990  -2.1907   0.0000   0.0000   0.0000   0.3326
   7.900   1.3904   0.02114   0.01509  -0.1305  0.4823  0.8017  -2.2269   0.0000   0.0000   0.0000   0.3317
   8.000   1.4013   0.02119   0.01510  -0.1305  0.4776  0.8045  -2.2946   0.0000   0.0000   0.0000   0.3308
   8.100   1.4140   0.02134   0.01519  -0.1309  0.4717  0.8072  -2.3916   0.0000   0.0000   0.0000   0.3301
   8.200   1.4242   0.02155   0.01541  -0.1309  0.4665  0.8100  -2.4787   0.0000   0.0000   0.0000   0.3292
   8.300   1.4290   0.02161   0.01556  -0.1299  0.4633  0.8127  -2.5455   0.0000   0.0000   0.0000   0.3281
   8.400   1.4344   0.02170   0.01572  -0.1290  0.4595  0.8154  -2.6148   0.0000   0.0000   0.0000   0.3269
   8.500   1.4402   0.02178   0.01586  -0.1282  0.4550  0.8178  -2.6866   0.0000   0.0000   0.0000   0.3258
   8.600   1.4456   0.02179   0.01592  -0.1272  0.4499  0.8218  -2.7578   0.0000   0.0000   0.0000   0.3247
   8.700   1.4503   0.02177   0.01592  -0.1261  0.4444  0.8261  -2.8272   0.0000   0.0000   0.0000   0.3235
   8.800   1.4552   0.02173   0.01586  -0.1249  0.4381  0.8305  -2.8985   0.0000   0.0000   0.0000   0.3222
   8.900   1.4607   0.02171   0.01576  -0.1239  0.4308  0.8349  -2.9737   0.0000   0.0000   0.0000   0.3210
   9.000   1.4691   0.02184   0.01575  -0.1234  0.4204  0.8395  -3.0616   0.0000   0.0000   0.0000   0.3200
   9.100   1.4682   0.02190   0.01591  -0.1213  0.4160  0.8447  -3.1086   0.0000   0.0000   0.0000   0.3185
   9.200   1.4686   0.02200   0.01608  -0.1196  0.4097  0.8501  -3.1618   0.0000   0.0000   0.0000   0.3171
   9.300   1.4701   0.02211   0.01620  -0.1180  0.4015  0.8557  -3.2203   0.0000   0.0000   0.0000   0.3158
   9.400   1.4718   0.02225   0.01629  -0.1165  0.3925  0.8613  -3.2806   0.0000   0.0000   0.0000   0.3145
   9.500   1.4727   0.02243   0.01638  -0.1149  0.3833  0.8680  -3.3381   0.0000   0.0000   0.0000   0.3132
   9.600   1.4736   0.02266   0.01652  -0.1132  0.3739  0.8764  -3.3947   0.0000   0.0000   0.0000   0.3118
   9.700   1.4737   0.02281   0.01677  -0.1115  0.3678  0.8867  -3.4472   0.0000   0.0000   0.0000   0.3105
   9.800   1.4740   0.02301   0.01702  -0.1099  0.3601  0.8991  -3.5009   0.0000   0.0000   0.0000   0.3092
   9.900   1.4727   0.02317   0.01722  -0.1080  0.3527  0.9203  -3.5474   0.0000   0.0000   0.0000   0.3078
  10.000   1.4712   0.02334   0.01738  -0.1061  0.3453  1.0000  -3.5935   0.0000   0.0000   0.0000   0.3065
  10.100   1.4742   0.02380   0.01774  -0.1054  0.3367  1.0000  -3.6600   0.0000   0.0000   0.0000   0.3056
  10.200   1.4780   0.02427   0.01814  -0.1047  0.3292  1.0000  -3.7297   0.0000   0.0000   0.0000   0.3048
  10.300   1.4841   0.02462   0.01854  -0.1044  0.3234  1.0000  -3.8095   0.0000   0.0000   0.0000   0.3042
  10.400   1.4888   0.02501   0.01895  -0.1039  0.3162  1.0000  -3.8843   0.0000   0.0000   0.0000   0.3034
  10.500   1.4922   0.02546   0.01938  -0.1032  0.3083  1.0000  -3.9532   0.0000   0.0000   0.0000   0.3026
  10.600   1.4938   0.02598   0.01985  -0.1022  0.3005  1.0000  -4.0144   0.0000   0.0000   0.0000   0.3017
  10.700   1.4937   0.02659   0.02038  -0.1011  0.2930  1.0000  -4.0675   0.0000   0.0000   0.0000   0.3008
  10.800   1.4939   0.02720   0.02093  -0.1000  0.2858  1.0000  -4.1215   0.0000   0.0000   0.0000   0.2998
  10.900   1.4981   0.02763   0.02140  -0.0994  0.2793  1.0000  -4.1950   0.0000   0.0000   0.0000   0.2991
  11.000   1.5006   0.02815   0.02193  -0.0987  0.2717  1.0000  -4.2605   0.0000   0.0000   0.0000   0.2983
  11.100   1.5012   0.02878   0.02254  -0.0977  0.2640  1.0000  -4.3170   0.0000   0.0000   0.0000   0.2974
  11.200   1.5005   0.02950   0.02321  -0.0967  0.2566  1.0000  -4.3669   0.0000   0.0000   0.0000   0.2965
  11.300   1.4988   0.03030   0.02395  -0.0955  0.2495  1.0000  -4.4122   0.0000   0.0000   0.0000   0.2957
  11.400   1.4994   0.03100   0.02463  -0.0947  0.2431  1.0000  -4.4682   0.0000   0.0000   0.0000   0.2949
  11.500   1.5021   0.03159   0.02525  -0.0940  0.2365  1.0000  -4.5342   0.0000   0.0000   0.0000   0.2941
  11.600   1.5032   0.03230   0.02595  -0.0933  0.2293  1.0000  -4.5918   0.0000   0.0000   0.0000   0.2934
  11.700   1.5027   0.03311   0.02673  -0.0924  0.2219  1.0000  -4.6421   0.0000   0.0000   0.0000   0.2927
  11.800   1.5009   0.03403   0.02761  -0.0915  0.2149  1.0000  -4.6849   0.0000   0.0000   0.0000   0.2919
  11.900   1.4946   0.03528   0.02888  -0.0903  0.2051  1.0000  -4.6912   0.0000   0.0000   0.0000   0.2911
  12.000   1.4924   0.03630   0.02986  -0.0895  0.1928  1.0000  -4.7196   0.0000   0.0000   0.0000   0.2905
  12.100   1.4872   0.03756   0.03103  -0.0885  0.1816  1.0000  -4.7411   0.0000   0.0000   0.0000   0.2898
  12.200   1.4804   0.03898   0.03236  -0.0875  0.1722  1.0000  -4.7548   0.0000   0.0000   0.0000   0.2892
  12.300   1.4765   0.04022   0.03355  -0.0867  0.1610  1.0000  -4.7812   0.0000   0.0000   0.0000   0.2886
  12.400   1.4714   0.04159   0.03485  -0.0860  0.1497  1.0000  -4.8016   0.0000   0.0000   0.0000   0.2881
  12.500   1.4653   0.04308   0.03625  -0.0852  0.1407  1.0000  -4.8168   0.0000   0.0000   0.0000   0.2876
  12.600   1.4617   0.04435   0.03750  -0.0846  0.1329  1.0000  -4.8417   0.0000   0.0000   0.0000   0.2871
  12.700   1.4585   0.04562   0.03875  -0.0841  0.1243  1.0000  -4.8671   0.0000   0.0000   0.0000   0.2866
  12.800   1.4535   0.04708   0.04017  -0.0835  0.1157  1.0000  -4.8842   0.0000   0.0000   0.0000   0.2862
  12.900   1.4473   0.04871   0.04173  -0.0830  0.1078  1.0000  -4.8953   0.0000   0.0000   0.0000   0.2859
  13.000   1.4436   0.05014   0.04313  -0.0826  0.0979  1.0000  -4.9151   0.0000   0.0000   0.0000   0.2855
  13.100   1.4377   0.05185   0.04479  -0.0822  0.0881  1.0000  -4.9251   0.0000   0.0000   0.0000   0.2853
  13.200   1.4306   0.05376   0.04662  -0.0818  0.0801  1.0000  -4.9291   0.0000   0.0000   0.0000   0.2851
  13.300   1.4260   0.05542   0.04825  -0.0816  0.0703  1.0000  -4.9406   0.0000   0.0000   0.0000   0.2849
  13.400   1.4195   0.05733   0.05010  -0.0813  0.0604  1.0000  -4.9439   0.0000   0.0000   0.0000   0.2848
  13.500   1.4129   0.05929   0.05199  -0.0811  0.0512  1.0000  -4.9451   0.0000   0.0000   0.0000   0.2847
  13.600   1.4058   0.06138   0.05403  -0.0810  0.0421  1.0000  -4.9433   0.0000   0.0000   0.0000   0.2846
  13.700   1.3987   0.06351   0.05609  -0.0809  0.0348  1.0000  -4.9403   0.0000   0.0000   0.0000   0.2847
  13.800   1.3930   0.06547   0.05804  -0.0809  0.0290  1.0000  -4.9397   0.0000   0.0000   0.0000   0.2846
  13.900   1.3872   0.06748   0.06001  -0.0808  0.0249  1.0000  -4.9379   0.0000   0.0000   0.0000   0.2846
  14.000   1.3821   0.06945   0.06199  -0.0808  0.0212  1.0000  -4.9300   0.0000   0.0000   0.0000   0.2846
  14.100   1.3792   0.07118   0.06378  -0.0809  0.0201  1.0000  -4.9392   0.0000   0.0000   0.0000   0.2846
  14.200   1.3768   0.07284   0.06551  -0.0810  0.0192  1.0000  -4.9522   0.0000   0.0000   0.0000   0.2845
  14.300   1.3747   0.07446   0.06719  -0.0811  0.0185  1.0000  -4.9681   0.0000   0.0000   0.0000   0.2845
  14.400   1.3730   0.07605   0.06886  -0.0813  0.0179  1.0000  -4.9861   0.0000   0.0000   0.0000   0.2844
  14.500   1.3712   0.07765   0.07052  -0.0814  0.0173  1.0000  -5.0047   0.0000   0.0000   0.0000   0.2844
  14.600   1.3692   0.07928   0.07221  -0.0816  0.0169  1.0000  -5.0227   0.0000   0.0000   0.0000   0.2844
  14.700   1.3667   0.08097   0.07398  -0.0819  0.0166  1.0000  -5.0389   0.0000   0.0000   0.0000   0.2845
  14.800   1.3636   0.08279   0.07586  -0.0822  0.0163  1.0000  -5.0522   0.0000   0.0000   0.0000   0.2847
  14.900   1.3610   0.08455   0.07770  -0.0826  0.0160  1.0000  -5.0675   0.0000   0.0000   0.0000   0.2848
  15.000   1.3587   0.08626   0.07947  -0.0829  0.0157  1.0000  -5.0841   0.0000   0.0000   0.0000   0.2849
  15.100   1.3565   0.08793   0.08120  -0.0832  0.0155  1.0000  -5.1013   0.0000   0.0000   0.0000   0.2851
  15.200   1.3543   0.08958   0.08293  -0.0836  0.0153  1.0000  -5.1186   0.0000   0.0000   0.0000   0.2852
  15.300   1.3521   0.09124   0.08466  -0.0840  0.0151  1.0000  -5.1355   0.0000   0.0000   0.0000   0.2854
  15.400   1.3497   0.09298   0.08646  -0.0844  0.0149  1.0000  -5.1507   0.0000   0.0000   0.0000   0.2856
  15.500   1.3465   0.09484   0.08839  -0.0850  0.0148  1.0000  -5.1618   0.0000   0.0000   0.0000   0.2859
  15.600   1.3436   0.09666   0.09028  -0.0856  0.0147  1.0000  -5.1736   0.0000   0.0000   0.0000   0.2863
  15.700   1.3410   0.09839   0.09208  -0.0861  0.0146  1.0000  -5.1872   0.0000   0.0000   0.0000   0.2866
  15.800   1.3387   0.10007   0.09382  -0.0866  0.0144  1.0000  -5.2018   0.0000   0.0000   0.0000   0.2868
  15.900   1.3366   0.10169   0.09551  -0.0871  0.0143  1.0000  -5.2170   0.0000   0.0000   0.0000   0.2871
  16.000   1.3346   0.10324   0.09712  -0.0877  0.0142  1.0000  -5.2327   0.0000   0.0000   0.0000   0.2874
  16.100   1.3327   0.10476   0.09869  -0.0882  0.0141  1.0000  -5.2484   0.0000   0.0000   0.0000   0.2877
  16.200   1.3306   0.10632   0.10032  -0.0888  0.0141  1.0000  -5.2623   0.0000   0.0000   0.0000   0.2880
  16.300   1.3280   0.10800   0.10205  -0.0895  0.0140  1.0000  -5.2733   0.0000   0.0000   0.0000   0.2884
  16.400   1.3260   0.10959   0.10371  -0.0901  0.0139  1.0000  -5.2868   0.0000   0.0000   0.0000   0.2887
  16.500   1.3245   0.11110   0.10527  -0.0907  0.0139  1.0000  -5.3029   0.0000   0.0000   0.0000   0.2890
  16.600   1.3234   0.11256   0.10679  -0.0912  0.0138  1.0000  -5.3210   0.0000   0.0000   0.0000   0.2893
  16.700   1.3225   0.11401   0.10829  -0.0917  0.0137  1.0000  -5.3400   0.0000   0.0000   0.0000   0.2895
  16.800   1.3220   0.11540   0.10974  -0.0922  0.0137  1.0000  -5.3605   0.0000   0.0000   0.0000   0.2897
  16.900   1.3218   0.11674   0.11113  -0.0927  0.0136  1.0000  -5.3826   0.0000   0.0000   0.0000   0.2898
  17.000   1.3216   0.11810   0.11254  -0.0932  0.0136  1.0000  -5.4043   0.0000   0.0000   0.0000   0.2899
  17.100   1.3216   0.11944   0.11393  -0.0936  0.0136  1.0000  -5.4266   0.0000   0.0000   0.0000   0.2900
  17.200   1.3218   0.12075   0.11529  -0.0941  0.0135  1.0000  -5.4496   0.0000   0.0000   0.0000   0.2901
  17.300   1.3222   0.12203   0.11663  -0.0945  0.0135  1.0000  -5.4734   0.0000   0.0000   0.0000   0.2902
  17.400   1.3226   0.12334   0.11798  -0.0949  0.0135  1.0000  -5.4963   0.0000   0.0000   0.0000   0.2903
  17.500   1.3229   0.12469   0.11939  -0.0954  0.0135  1.0000  -5.5178   0.0000   0.0000   0.0000   0.2903
  17.600   1.3233   0.12602   0.12078  -0.0958  0.0135  1.0000  -5.5396   0.0000   0.0000   0.0000   0.2904
  17.700   1.3239   0.12733   0.12214  -0.0962  0.0135  1.0000  -5.5619   0.0000   0.0000   0.0000   0.2905
  17.800   1.3241   0.12875   0.12362  -0.0967  0.0135  1.0000  -5.5806   0.0000   0.0000   0.0000   0.2906
  17.900   1.3244   0.13018   0.12512  -0.0972  0.0135  1.0000  -5.5987   0.0000   0.0000   0.0000   0.2907
  18.000   1.3246   0.13163   0.12663  -0.0976  0.0135  1.0000  -5.6156   0.0000   0.0000   0.0000   0.2908
  18.100   1.3247   0.13315   0.12822  -0.0982  0.0136  1.0000  -5.6303   0.0000   0.0000   0.0000   0.2909
  18.200   1.3244   0.13477   0.12992  -0.0987  0.0136  1.0000  -5.6414   0.0000   0.0000   0.0000   0.2912
  18.300   1.3239   0.13647   0.13170  -0.0994  0.0136  1.0000  -5.6500   0.0000   0.0000   0.0000   0.2915
  18.400   1.3231   0.13827   0.13357  -0.1000  0.0137  1.0000  -5.6556   0.0000   0.0000   0.0000   0.2918
  18.500   1.3219   0.14017   0.13556  -0.1008  0.0138  1.0000  -5.6574   0.0000   0.0000   0.0000   0.2922
  18.600   1.3203   0.14221   0.13769  -0.1016  0.0138  1.0000  -5.6551   0.0000   0.0000   0.0000   0.2927
  18.700   1.3182   0.14440   0.13997  -0.1025  0.0139  1.0000  -5.6482   0.0000   0.0000   0.0000   0.2933
  18.800   1.3155   0.14678   0.14244  -0.1036  0.0140  1.0000  -5.6357   0.0000   0.0000   0.0000   0.2940
  18.900   1.3116   0.14949   0.14524  -0.1049  0.0140  1.0000  -5.6144   0.0000   0.0000   0.0000   0.2950
  19.000   1.3067   0.15251   0.14836  -0.1064  0.0141  1.0000  -5.5849   0.0000   0.0000   0.0000   0.2963
  19.100   1.3017   0.15559   0.15153  -0.1079  0.0142  1.0000  -5.5531   0.0000   0.0000   0.0000   0.2976
  19.200   1.2965   0.15876   0.15480  -0.1095  0.0143  1.0000  -5.5183   0.0000   0.0000   0.0000   0.2989
  19.300   1.2910   0.16210   0.15824  -0.1111  0.0144  1.0000  -5.4791   0.0000   0.0000   0.0000   0.3004
  19.400   1.2850   0.16567   0.16191  -0.1129  0.0144  1.0000  -5.4338   0.0000   0.0000   0.0000   0.3020
  19.500   1.2775   0.16971   0.16604  -0.1150  0.0145  1.0000  -5.3765   0.0000   0.0000   0.0000   0.3040
  19.600   1.2695   0.17399   0.17042  -0.1172  0.0146  1.0000  -5.3125   0.0000   0.0000   0.0000   0.3061
  19.700   1.2615   0.17836   0.17488  -0.1194  0.0147  1.0000  -5.2451   0.0000   0.0000   0.0000   0.3083
  19.800   1.2530   0.18301   0.17963  -0.1217  0.0148  1.0000  -5.1699   0.0000   0.0000   0.0000   0.3107
  19.900   1.2426   0.18838   0.18509  -0.1244  0.0149  1.0000  -5.0757   0.0000   0.0000   0.0000   0.3136
  20.000   1.2316   0.19405   0.19086  -0.1272  0.0150  1.0000  -4.9714   0.0000   0.0000   0.0000   0.3167
  20.100   1.2200   0.20012   0.19702  -0.1301  0.0152  1.0000  -4.8539   0.0000   0.0000   0.0000   0.3200
  20.200   1.2052   0.20756   0.20454  -0.1336  0.0153  1.0000  -4.6967   0.0000   0.0000   0.0000   0.3243
  20.300   1.1890   0.21576   0.21283  -0.1372  0.0155  1.0000  -4.5102   0.0000   0.0000   0.0000   0.3290
  20.400   1.1628   0.22835   0.22553  -0.1423  0.0159  1.0000  -4.1779   0.0000   0.0000   0.0000   0.3364
  20.500   1.1240   0.24727   0.24450  -0.1485  0.0167  1.0000  -3.6017   0.0000   0.0000   0.0000   0.3471
  20.600   1.1027   0.25934   0.25657  -0.1516  0.0174  1.0000  -3.2408   0.0000   0.0000   0.0000   0.3529
  20.700   1.0913   0.26678   0.26401  -0.1534  0.0180  1.0000  -3.0485   0.0000   0.0000   0.0000   0.3562
  20.800   1.0826   0.27269   0.26991  -0.1547  0.0184  1.0000  -2.9114   0.0000   0.0000   0.0000   0.3586
  20.900   1.0750   0.27782   0.27504  -0.1557  0.0189  1.0000  -2.8003   0.0000   0.0000   0.0000   0.3607
  21.000   1.0676   0.28244   0.27967  -0.1566  0.0193  1.0000  -2.7032   0.0000   0.0000   0.0000   0.3625
  21.100   1.0596   0.28670   0.28393  -0.1572  0.0198  1.0000  -2.6125   0.0000   0.0000   0.0000   0.3643
  21.200   1.0498   0.29066   0.28791  -0.1576  0.0203  1.0000  -2.5180   0.0000   0.0000   0.0000   0.3660
  21.300   1.0081   0.28799   0.28538  -0.1531  0.0216  1.0000  -2.3574   0.0000   0.0000   0.0000   0.3685
  21.400   1.0034   0.28772   0.28514  -0.1527  0.0220  1.0000  -2.3588   0.0000   0.0000   0.0000   0.3687
  21.600   0.9329   0.29526   0.29273  -0.1514  0.0412  1.0000  -1.5529   0.0000   0.0000   0.0000   0.3813
  21.700   0.9269   0.29613   0.29362  -0.1516  0.0413  1.0000  -1.5125   0.0000   0.0000   0.0000   0.3826
  21.800   0.9222   0.29690   0.29440  -0.1518  0.0414  1.0000  -1.4835   0.0000   0.0000   0.0000   0.3836
  21.900   0.9183   0.29761   0.29512  -0.1519  0.0413  1.0000  -1.4611   0.0000   0.0000   0.0000   0.3844
  22.000   0.9150   0.29828   0.29580  -0.1521  0.0412  1.0000  -1.4431   0.0000   0.0000   0.0000   0.3851
  22.100   0.9121   0.29892   0.29645  -0.1522  0.0411  1.0000  -1.4286   0.0000   0.0000   0.0000   0.3857
  22.300   0.9076   0.30010   0.29773  -0.1524  0.0406  1.0000  -1.4025   0.0000   0.0000   0.0000   0.3866
  22.400   0.9057   0.30068   0.29832  -0.1525  0.0404  1.0000  -1.3949   0.0000   0.0000   0.0000   0.3870
  22.500   0.9040   0.30124   0.29889  -0.1526  0.0401  1.0000  -1.3894   0.0000   0.0000   0.0000   0.3873
  22.600   0.9026   0.30179   0.29945  -0.1527  0.0399  1.0000  -1.3860   0.0000   0.0000   0.0000   0.3876
  22.700   0.9014   0.30233   0.30001  -0.1528  0.0397  1.0000  -1.3846   0.0000   0.0000   0.0000   0.3877
  22.800   0.9004   0.30286   0.30055  -0.1528  0.0394  1.0000  -1.3852   0.0000   0.0000   0.0000   0.3878
  22.900   0.8997   0.30339   0.30108  -0.1528  0.0392  1.0000  -1.3878   0.0000   0.0000   0.0000   0.3879
  23.000   0.8992   0.30392   0.30163  -0.1528  0.0390  1.0000  -1.3926   0.0000   0.0000   0.0000   0.3878
  23.100   0.8991   0.30447   0.30219  -0.1528  0.0387  1.0000  -1.3997   0.0000   0.0000   0.0000   0.3876
  23.200   0.8992   0.30507   0.30281  -0.1526  0.0384  1.0000  -1.4095   0.0000   0.0000   0.0000   0.3873
  23.300   0.8992   0.30576   0.30351  -0.1525  0.0381  1.0000  -1.4184   0.0000   0.0000   0.0000   0.3870
  23.400   0.8984   0.30669   0.30445  -0.1523  0.0378  1.0000  -1.4215   0.0000   0.0000   0.0000   0.3868
  23.500   0.8865   0.31041   0.30813  -0.1521  0.0367  1.0000  -1.3189   0.0000   0.0000   0.0000   0.3892
  23.600   0.8852   0.31130   0.30904  -0.1525  0.0367  1.0000  -1.3056   0.0000   0.0000   0.0000   0.3898
  23.700   0.8838   0.31219   0.30993  -0.1528  0.0367  1.0000  -1.2925   0.0000   0.0000   0.0000   0.3903
  23.800   0.8826   0.31307   0.31082  -0.1532  0.0367  1.0000  -1.2797   0.0000   0.0000   0.0000   0.3909
  23.900   0.8813   0.31393   0.31169  -0.1536  0.0367  1.0000  -1.2672   0.0000   0.0000   0.0000   0.3915
  24.000   0.8802   0.31478   0.31255  -0.1540  0.0366  1.0000  -1.2549   0.0000   0.0000   0.0000   0.3920
  24.100   0.8790   0.31562   0.31340  -0.1543  0.0366  1.0000  -1.2428   0.0000   0.0000   0.0000   0.3926
  24.200   0.8779   0.31644   0.31422  -0.1547  0.0366  1.0000  -1.2309   0.0000   0.0000   0.0000   0.3931
  24.300   0.8768   0.31724   0.31503  -0.1551  0.0365  1.0000  -1.2191   0.0000   0.0000   0.0000   0.3937
  24.400   0.8757   0.31803   0.31583  -0.1556  0.0365  1.0000  -1.2075   0.0000   0.0000   0.0000   0.3943
  24.500   0.8747   0.31880   0.31661  -0.1560  0.0365  1.0000  -1.1961   0.0000   0.0000   0.0000   0.3948
  24.600   0.8737   0.31956   0.31737  -0.1564  0.0364  1.0000  -1.1849   0.0000   0.0000   0.0000   0.3954
  24.700   0.8727   0.32029   0.31811  -0.1568  0.0364  1.0000  -1.1737   0.0000   0.0000   0.0000   0.3960
  24.800   0.8717   0.32100   0.31883  -0.1573  0.0363  1.0000  -1.1625   0.0000   0.0000   0.0000   0.3966
  24.900   0.8707   0.32169   0.31952  -0.1577  0.0363  1.0000  -1.1514   0.0000   0.0000   0.0000   0.3972


