xflr5 v6.61

 Calculated polar for: EPPLER E854 AIRFOIL

 1 1 Reynolds number fixed          Mach number fixed         

 xtrf =   1.000 (top)        1.000 (bottom)
 Mach =   0.000     Re =     0.500 e 6     Ncrit =   9.000

  alpha     CL        CD       CDp       Cm    Top Xtr Bot Xtr   Cpmin    Chinge    XCp    
 ------- -------- --------- --------- -------- ------- ------- -------- --------- ---------
 -10.000  -0.3741   0.09653   0.09436  -0.0449  1.0000  0.0193  -2.4979   0.0000   0.0000   0.0000   0.1155
  -9.200  -0.4359   0.07487   0.07286  -0.0507  1.0000  0.0170  -3.2754   0.0000   0.0000   0.0000   0.1217
  -9.100  -0.4483   0.07081   0.06882  -0.0527  1.0000  0.0167  -3.4310   0.0000   0.0000   0.0000   0.1208
  -9.000  -0.4577   0.06543   0.06339  -0.0584  0.9988  0.0163  -3.6126   0.0000   0.0000   0.0000   0.1109
  -8.900  -0.5303   0.04062   0.03773  -0.0858  0.9847  0.0106  -5.4175   0.0000   0.0000   0.0000   0.0776
  -8.800  -0.5238   0.03920   0.03619  -0.0870  0.9815  0.0104  -5.4033   0.0000   0.0000   0.0000   0.0733
  -8.700  -0.5153   0.03786   0.03474  -0.0885  0.9791  0.0103  -5.3674   0.0000   0.0000   0.0000   0.0678
  -8.600  -0.5057   0.03656   0.03334  -0.0899  0.9771  0.0102  -5.3212   0.0000   0.0000   0.0000   0.0616
  -8.500  -0.4952   0.03529   0.03196  -0.0914  0.9755  0.0101  -5.2690   0.0000   0.0000   0.0000   0.0549
  -8.400  -0.4842   0.03403   0.03058  -0.0929  0.9742  0.0100  -5.2129   0.0000   0.0000   0.0000   0.0475
  -8.200  -0.4641   0.03166   0.02792  -0.0950  0.9710  0.0099  -5.1029   0.0000   0.0000   0.0000   0.0346
  -8.100  -0.4600   0.03075   0.02693  -0.0945  0.9660  0.0099  -5.0637   0.0000   0.0000   0.0000   0.0341
  -8.000  -0.4510   0.02966   0.02574  -0.0950  0.9630  0.0098  -5.0104   0.0000   0.0000   0.0000   0.0287
  -7.900  -0.4410   0.02842   0.02437  -0.0959  0.9607  0.0098  -4.9630   0.0000   0.0000   0.0000   0.0221
  -7.800  -0.4316   0.02664   0.02242  -0.0969  0.9586  0.0099  -4.9570   0.0000   0.0000   0.0000   0.0150
  -7.700  -0.4218   0.02468   0.02026  -0.0979  0.9568  0.0100  -4.9649   0.0000   0.0000   0.0000   0.0073
  -7.600  -0.4110   0.02293   0.01833  -0.0988  0.9554  0.0102  -4.9550   0.0000   0.0000   0.0000  -0.0013
  -7.500  -0.3992   0.02151   0.01676  -0.0998  0.9543  0.0103  -4.9180   0.0000   0.0000   0.0000  -0.0108
  -7.400  -0.3864   0.02035   0.01548  -0.1006  0.9533  0.0104  -4.8601   0.0000   0.0000   0.0000  -0.0215
  -7.300  -0.3845   0.01974   0.01480  -0.0989  0.9463  0.0105  -4.8246   0.0000   0.0000   0.0000  -0.0181
  -7.200  -0.3744   0.01892   0.01389  -0.0990  0.9431  0.0105  -4.7603   0.0000   0.0000   0.0000  -0.0254
  -7.100  -0.3630   0.01814   0.01303  -0.0993  0.9404  0.0105  -4.6881   0.0000   0.0000   0.0000  -0.0346
  -7.000  -0.3511   0.01737   0.01217  -0.0997  0.9381  0.0106  -4.6141   0.0000   0.0000   0.0000  -0.0451
  -6.900  -0.3388   0.01660   0.01132  -0.1002  0.9360  0.0106  -4.5396   0.0000   0.0000   0.0000  -0.0569
  -6.800  -0.3256   0.01583   0.01046  -0.1008  0.9341  0.0107  -4.4631   0.0000   0.0000   0.0000  -0.0710
  -6.700  -0.3116   0.01507   0.00962  -0.1016  0.9325  0.0109  -4.3837   0.0000   0.0000   0.0000  -0.0878
  -6.600  -0.2969   0.01435   0.00882  -0.1026  0.9310  0.0112  -4.3008   0.0000   0.0000   0.0000  -0.1075
  -6.500  -0.2815   0.01369   0.00808  -0.1038  0.9296  0.0117  -4.2109   0.0000   0.0000   0.0000  -0.1309
  -6.400  -0.2740   0.01328   0.00763  -0.1031  0.9236  0.0122  -4.1430   0.0000   0.0000   0.0000  -0.1387
  -6.300  -0.2615   0.01287   0.00717  -0.1036  0.9196  0.0128  -4.0479   0.0000   0.0000   0.0000  -0.1585
  -6.200  -0.2470   0.01251   0.00678  -0.1044  0.9165  0.0138  -3.9347   0.0000   0.0000   0.0000  -0.1857
  -6.100  -0.2310   0.01218   0.00642  -0.1056  0.9138  0.0151  -3.8150   0.0000   0.0000   0.0000  -0.2205
  -6.000  -0.2138   0.01187   0.00607  -0.1070  0.9113  0.0169  -3.6933   0.0000   0.0000   0.0000  -0.2646
  -5.900  -0.1956   0.01166   0.00583  -0.1086  0.9088  0.0187  -3.5647   0.0000   0.0000   0.0000  -0.3202
  -5.800  -0.1782   0.01093   0.00500  -0.1101  0.9059  0.0269  -3.5436   0.0000   0.0000   0.0000  -0.3843
  -5.700  -0.1599   0.01069   0.00479  -0.1118  0.9030  0.0333  -3.4093   0.0000   0.0000   0.0000  -0.4670
  -5.600  -0.1432   0.01064   0.00472  -0.1131  0.8992  0.0360  -3.2623   0.0000   0.0000   0.0000  -0.5591
  -5.500  -0.1315   0.01031   0.00437  -0.1134  0.8930  0.0453  -3.1729   0.0000   0.0000   0.0000  -0.6324
  -5.400  -0.1178   0.01008   0.00420  -0.1141  0.8870  0.0538  -3.0546   0.0000   0.0000   0.0000  -0.7406
  -5.300  -0.1027   0.00999   0.00407  -0.1150  0.8813  0.0583  -2.9227   0.0000   0.0000   0.0000  -0.8941
  -5.200  -0.0879   0.00966   0.00382  -0.1160  0.8754  0.0781  -2.8057   0.0000   0.0000   0.0000  -1.0981
  -5.100  -0.0726   0.00950   0.00364  -0.1170  0.8694  0.0916  -2.6798   0.0000   0.0000   0.0000  -1.3936
  -5.000  -0.0613   0.00928   0.00349  -0.1172  0.8633  0.1093  -2.5735   0.0000   0.0000   0.0000  -1.6995
  -4.900  -0.0505   0.00911   0.00336  -0.1173  0.8568  0.1283  -2.4696   0.0000   0.0000   0.0000  -2.1169
  -4.700  -0.0276   0.00863   0.00303  -0.1179  0.8432  0.1876  -2.2588   0.0000   0.0000   0.0000  -4.0911
  -4.600  -0.0161   0.00835   0.00286  -0.1183  0.8363  0.2308  -2.1553   0.0000   0.0000   0.0000  -7.2208
  -4.500  -0.0050   0.00808   0.00273  -0.1186  0.8295  0.2806  -2.0547   0.0000   0.0000   0.0000  -23.8718
  -4.400   0.0047   0.00787   0.00266  -0.1185  0.8246  0.3227  -1.9607   0.0000   0.0000   0.0000  25.7337
  -4.300   0.0149   0.00771   0.00263  -0.1184  0.8188  0.3597  -1.8654   0.0000   0.0000   0.0000   8.3124
  -4.200   0.0258   0.00765   0.00259  -0.1184  0.8126  0.3804  -1.7684   0.0000   0.0000   0.0000   4.9085
  -4.100   0.0367   0.00760   0.00257  -0.1184  0.8062  0.4018  -1.6727   0.0000   0.0000   0.0000   3.5202
  -4.000   0.0480   0.00762   0.00254  -0.1184  0.7996  0.4153  -1.5766   0.0000   0.0000   0.0000   2.7532
  -3.800   0.0700   0.00761   0.00252  -0.1183  0.7873  0.4394  -1.3910   0.0000   0.0000   0.0000   1.9632
  -3.700   0.0805   0.00760   0.00253  -0.1182  0.7828  0.4496  -1.3022   0.0000   0.0000   0.0000   1.7363
  -3.600   0.0913   0.00761   0.00252  -0.1181  0.7777  0.4568  -1.2140   0.0000   0.0000   0.0000   1.5588
  -3.500   0.1023   0.00763   0.00250  -0.1180  0.7722  0.4620  -1.1268   0.0000   0.0000   0.0000   1.4174
  -3.400   0.1133   0.00767   0.00249  -0.1180  0.7667  0.4667  -1.0409   0.0000   0.0000   0.0000   1.3028
  -3.300   0.1243   0.00774   0.00248  -0.1179  0.7611  0.4702  -0.9565   0.0000   0.0000   0.0000   1.2085
  -3.200   0.1353   0.00781   0.00249  -0.1178  0.7552  0.4723  -0.8740   0.0000   0.0000   0.0000   1.1298
  -3.000   0.1573   0.00778   0.00241  -0.1178  0.7451  0.4847  -0.7467   0.0000   0.0000   0.0000   1.0057
  -2.900   0.1682   0.00776   0.00240  -0.1177  0.7422  0.4897  -0.7067   0.0000   0.0000   0.0000   0.9563
  -2.800   0.1791   0.00775   0.00240  -0.1177  0.7389  0.4949  -0.6671   0.0000   0.0000   0.0000   0.9128
  -2.700   0.1899   0.00775   0.00241  -0.1176  0.7351  0.4999  -0.6278   0.0000   0.0000   0.0000   0.8742
  -2.600   0.2008   0.00777   0.00241  -0.1175  0.7311  0.5044  -0.5890   0.0000   0.0000   0.0000   0.8397
  -2.500   0.2118   0.00779   0.00241  -0.1175  0.7269  0.5081  -0.5944   0.0000   0.0000   0.0000   0.8086
  -2.400   0.2227   0.00782   0.00240  -0.1174  0.7226  0.5109  -0.6009   0.0000   0.0000   0.0000   0.7807
  -2.300   0.2336   0.00785   0.00239  -0.1173  0.7182  0.5136  -0.6073   0.0000   0.0000   0.0000   0.7554
  -2.200   0.2444   0.00790   0.00238  -0.1172  0.7133  0.5168  -0.6137   0.0000   0.0000   0.0000   0.7325
  -2.100   0.2553   0.00798   0.00240  -0.1172  0.7079  0.5200  -0.6201   0.0000   0.0000   0.0000   0.7114
  -1.900   0.2779   0.00812   0.00248  -0.1172  0.6999  0.5246  -0.6332   0.0000   0.0000   0.0000   0.6736
  -1.800   0.2889   0.00814   0.00250  -0.1172  0.6979  0.5266  -0.6397   0.0000   0.0000   0.0000   0.6571
  -1.700   0.2999   0.00806   0.00242  -0.1172  0.6957  0.5337  -0.6462   0.0000   0.0000   0.0000   0.6421
  -1.600   0.3108   0.00802   0.00240  -0.1171  0.6932  0.5395  -0.6526   0.0000   0.0000   0.0000   0.6280
  -1.500   0.3218   0.00801   0.00238  -0.1171  0.6903  0.5438  -0.6591   0.0000   0.0000   0.0000   0.6149
  -1.400   0.3328   0.00800   0.00238  -0.1171  0.6872  0.5471  -0.6655   0.0000   0.0000   0.0000   0.6026
  -1.300   0.3438   0.00801   0.00237  -0.1171  0.6841  0.5500  -0.6720   0.0000   0.0000   0.0000   0.5911
  -1.200   0.3547   0.00802   0.00237  -0.1170  0.6808  0.5527  -0.6785   0.0000   0.0000   0.0000   0.5803
  -1.100   0.3656   0.00804   0.00237  -0.1170  0.6774  0.5554  -0.6849   0.0000   0.0000   0.0000   0.5701
  -1.000   0.3765   0.00806   0.00238  -0.1169  0.6740  0.5580  -0.6918   0.0000   0.0000   0.0000   0.5606
  -0.900   0.3873   0.00809   0.00237  -0.1169  0.6703  0.5604  -0.6990   0.0000   0.0000   0.0000   0.5516
  -0.800   0.3981   0.00813   0.00238  -0.1168  0.6663  0.5626  -0.7062   0.0000   0.0000   0.0000   0.5431
  -0.700   0.4092   0.00818   0.00239  -0.1168  0.6618  0.5646  -0.7135   0.0000   0.0000   0.0000   0.5350
  -0.600   0.4207   0.00824   0.00241  -0.1169  0.6568  0.5665  -0.7209   0.0000   0.0000   0.0000   0.5273
  -0.500   0.4322   0.00827   0.00243  -0.1170  0.6536  0.5683  -0.7284   0.0000   0.0000   0.0000   0.5200
  -0.400   0.4432   0.00827   0.00243  -0.1170  0.6524  0.5701  -0.7358   0.0000   0.0000   0.0000   0.5131
  -0.300   0.4543   0.00827   0.00243  -0.1170  0.6508  0.5717  -0.7432   0.0000   0.0000   0.0000   0.5066
  -0.200   0.4653   0.00827   0.00243  -0.1170  0.6490  0.5732  -0.7506   0.0000   0.0000   0.0000   0.5003
  -0.100   0.4764   0.00828   0.00243  -0.1170  0.6470  0.5746  -0.7580   0.0000   0.0000   0.0000   0.4943
   0.000   0.4875   0.00829   0.00244  -0.1170  0.6449  0.5759  -0.7655   0.0000   0.0000   0.0000   0.4886
   0.100   0.4986   0.00830   0.00244  -0.1170  0.6426  0.5770  -0.7729   0.0000   0.0000   0.0000   0.4832
   0.200   0.5097   0.00832   0.00245  -0.1170  0.6402  0.5780  -0.7803   0.0000   0.0000   0.0000   0.4780
   0.300   0.5208   0.00835   0.00247  -0.1170  0.6378  0.5790  -0.7877   0.0000   0.0000   0.0000   0.4730
   0.400   0.5319   0.00838   0.00248  -0.1170  0.6353  0.5798  -0.7952   0.0000   0.0000   0.0000   0.4682
   0.500   0.5429   0.00836   0.00246  -0.1170  0.6328  0.5847  -0.8025   0.0000   0.0000   0.0000   0.4636
   0.600   0.5538   0.00835   0.00245  -0.1170  0.6302  0.5897  -0.8099   0.0000   0.0000   0.0000   0.4593
   0.700   0.5647   0.00835   0.00246  -0.1170  0.6276  0.5942  -0.8172   0.0000   0.0000   0.0000   0.4551
   0.800   0.5755   0.00837   0.00248  -0.1169  0.6248  0.5982  -0.8245   0.0000   0.0000   0.0000   0.4510
   0.900   0.5863   0.00839   0.00250  -0.1169  0.6218  0.6017  -0.8317   0.0000   0.0000   0.0000   0.4471
   1.000   0.5971   0.00843   0.00253  -0.1168  0.6186  0.6048  -0.8389   0.0000   0.0000   0.0000   0.4433
   1.100   0.6082   0.00848   0.00257  -0.1169  0.6150  0.6079  -0.8462   0.0000   0.0000   0.0000   0.4397
   1.200   0.6196   0.00854   0.00263  -0.1170  0.6112  0.6109  -0.8536   0.0000   0.0000   0.0000   0.4362
   1.300   0.6313   0.00861   0.00270  -0.1171  0.6074  0.6139  -0.8611   0.0000   0.0000   0.0000   0.4329
   1.400   0.6426   0.00865   0.00275  -0.1172  0.6055  0.6168  -0.8685   0.0000   0.0000   0.0000   0.4297
   1.500   0.6537   0.00865   0.00277  -0.1172  0.6048  0.6197  -0.8760   0.0000   0.0000   0.0000   0.4265
   1.600   0.6647   0.00866   0.00280  -0.1172  0.6039  0.6224  -0.8834   0.0000   0.0000   0.0000   0.4234
   1.700   0.6758   0.00867   0.00282  -0.1172  0.6029  0.6249  -0.8908   0.0000   0.0000   0.0000   0.4204
   1.800   0.6869   0.00868   0.00285  -0.1172  0.6018  0.6273  -0.8983   0.0000   0.0000   0.0000   0.4175
   1.900   0.6979   0.00870   0.00288  -0.1172  0.6006  0.6294  -0.9057   0.0000   0.0000   0.0000   0.4147
   2.000   0.7090   0.00872   0.00291  -0.1172  0.5992  0.6313  -0.9133   0.0000   0.0000   0.0000   0.4120
   2.100   0.7201   0.00875   0.00294  -0.1172  0.5976  0.6329  -0.9218   0.0000   0.0000   0.0000   0.4094
   2.200   0.7311   0.00876   0.00297  -0.1172  0.5959  0.6352  -0.9302   0.0000   0.0000   0.0000   0.4069
   2.300   0.7420   0.00875   0.00299  -0.1172  0.5941  0.6416  -0.9385   0.0000   0.0000   0.0000   0.4044
   2.400   0.7528   0.00874   0.00303  -0.1172  0.5921  0.6476  -0.9469   0.0000   0.0000   0.0000   0.4020
   2.500   0.7636   0.00875   0.00307  -0.1171  0.5899  0.6531  -0.9552   0.0000   0.0000   0.0000   0.3996
   2.600   0.7744   0.00876   0.00310  -0.1171  0.5878  0.6580  -0.9636   0.0000   0.0000   0.0000   0.3973
   2.700   0.7852   0.00877   0.00315  -0.1170  0.5855  0.6629  -0.9719   0.0000   0.0000   0.0000   0.3951
   2.800   0.7960   0.00880   0.00319  -0.1170  0.5834  0.6678  -0.9803   0.0000   0.0000   0.0000   0.3929
   2.900   0.8067   0.00883   0.00324  -0.1169  0.5813  0.6727  -0.9897   0.0000   0.0000   0.0000   0.3908
   3.000   0.8174   0.00887   0.00328  -0.1168  0.5789  0.6773  -1.0003   0.0000   0.0000   0.0000   0.3887
   3.100   0.8280   0.00891   0.00332  -0.1167  0.5760  0.6815  -1.0116   0.0000   0.0000   0.0000   0.3866
   3.200   0.8386   0.00897   0.00336  -0.1166  0.5725  0.6849  -1.0289   0.0000   0.0000   0.0000   0.3846
   3.400   0.8602   0.00911   0.00350  -0.1166  0.5635  0.6978  -1.0726   0.0000   0.0000   0.0000   0.3809
   3.500   0.8715   0.00920   0.00362  -0.1167  0.5584  0.7056  -1.0957   0.0000   0.0000   0.0000   0.3792
   3.600   0.8821   0.00921   0.00368  -0.1166  0.5566  0.7127  -1.1183   0.0000   0.0000   0.0000   0.3774
   3.700   0.8925   0.00919   0.00373  -0.1164  0.5555  0.7195  -1.1409   0.0000   0.0000   0.0000   0.3755
   3.800   0.9029   0.00917   0.00376  -0.1163  0.5541  0.7262  -1.1652   0.0000   0.0000   0.0000   0.3737
   3.900   0.9132   0.00916   0.00378  -0.1161  0.5522  0.7324  -1.1931   0.0000   0.0000   0.0000   0.3720
   4.000   0.9236   0.00915   0.00380  -0.1160  0.5498  0.7376  -1.2212   0.0000   0.0000   0.0000   0.3703
   4.100   0.9338   0.00913   0.00383  -0.1157  0.5471  0.7473  -1.2491   0.0000   0.0000   0.0000   0.3686
   4.200   0.9437   0.00910   0.00386  -0.1155  0.5438  0.7576  -1.2769   0.0000   0.0000   0.0000   0.3669
   4.300   0.9536   0.00909   0.00389  -0.1152  0.5401  0.7675  -1.3049   0.0000   0.0000   0.0000   0.3653
   4.400   0.9635   0.00910   0.00392  -0.1149  0.5360  0.7772  -1.3377   0.0000   0.0000   0.0000   0.3636
   4.500   0.9735   0.00913   0.00395  -0.1147  0.5320  0.7859  -1.3735   0.0000   0.0000   0.0000   0.3621
   4.600   0.9829   0.00914   0.00400  -0.1143  0.5283  0.7984  -1.4086   0.0000   0.0000   0.0000   0.3604
   4.700   0.9921   0.00916   0.00406  -0.1139  0.5248  0.8120  -1.4435   0.0000   0.0000   0.0000   0.3588
   4.800   1.0013   0.00920   0.00412  -0.1135  0.5208  0.8257  -1.4788   0.0000   0.0000   0.0000   0.3573
   4.900   1.0104   0.00926   0.00420  -0.1131  0.5158  0.8405  -1.5139   0.0000   0.0000   0.0000   0.3557
   5.000   1.0192   0.00931   0.00429  -0.1126  0.5101  0.8597  -1.5487   0.0000   0.0000   0.0000   0.3541
   5.100   1.0274   0.00929   0.00434  -0.1119  0.5077  0.8815  -1.5909   0.0000   0.0000   0.0000   0.3525
   5.300   1.0481   0.00913   0.00436  -0.1114  0.5041  1.0000  -1.6940   0.0000   0.0000   0.0000   0.3496
   5.400   1.0590   0.00915   0.00442  -0.1114  0.5020  1.0000  -1.7474   0.0000   0.0000   0.0000   0.3484
   5.500   1.0697   0.00918   0.00447  -0.1114  0.4992  1.0000  -1.8009   0.0000   0.0000   0.0000   0.3472
   5.600   1.0802   0.00922   0.00452  -0.1113  0.4952  1.0000  -1.8576   0.0000   0.0000   0.0000   0.3460
   5.700   1.0904   0.00926   0.00461  -0.1111  0.4900  1.0000  -1.9435   0.0000   0.0000   0.0000   0.3448
   5.800   1.1002   0.00933   0.00465  -0.1109  0.4838  1.0000  -2.0433   0.0000   0.0000   0.0000   0.3435
   5.900   1.1094   0.00941   0.00471  -0.1105  0.4772  1.0000  -2.1427   0.0000   0.0000   0.0000   0.3423
   6.000   1.1184   0.00951   0.00478  -0.1101  0.4706  1.0000  -2.2423   0.0000   0.0000   0.0000   0.3410
   6.100   1.1275   0.00963   0.00487  -0.1098  0.4627  1.0000  -2.3433   0.0000   0.0000   0.0000   0.3398
   6.200   1.1378   0.00968   0.00494  -0.1096  0.4583  1.0000  -2.4525   0.0000   0.0000   0.0000   0.3387
   6.300   1.1481   0.00972   0.00501  -0.1095  0.4528  1.0000  -2.5633   0.0000   0.0000   0.0000   0.3376
   6.400   1.1576   0.00980   0.00507  -0.1092  0.4436  1.0000  -2.6721   0.0000   0.0000   0.0000   0.3364
   6.500   1.1658   0.00992   0.00514  -0.1087  0.4315  1.0000  -2.7756   0.0000   0.0000   0.0000   0.3352
   6.600   1.1726   0.01010   0.00524  -0.1079  0.4182  1.0000  -2.8730   0.0000   0.0000   0.0000   0.3338
   6.700   1.1817   0.01022   0.00535  -0.1076  0.4094  1.0000  -2.9832   0.0000   0.0000   0.0000   0.3327
   6.800   1.1908   0.01033   0.00545  -0.1072  0.3979  1.0000  -3.0952   0.0000   0.0000   0.0000   0.3316
   6.900   1.1973   0.01056   0.00557  -0.1064  0.3795  1.0000  -3.1943   0.0000   0.0000   0.0000   0.3303
   7.000   1.2034   0.01080   0.00573  -0.1055  0.3613  1.0000  -3.2923   0.0000   0.0000   0.0000   0.3290
   7.100   1.2089   0.01110   0.00591  -0.1046  0.3371  1.0000  -3.3881   0.0000   0.0000   0.0000   0.3277
   7.200   1.2131   0.01147   0.00614  -0.1034  0.3117  1.0000  -3.4768   0.0000   0.0000   0.0000   0.3263
   7.300   1.2160   0.01194   0.00643  -0.1021  0.2830  1.0000  -3.5588   0.0000   0.0000   0.0000   0.3249
   7.400   1.2205   0.01232   0.00669  -0.1010  0.2591  1.0000  -3.6506   0.0000   0.0000   0.0000   0.3236
   7.500   1.2237   0.01278   0.00700  -0.0997  0.2341  1.0000  -3.7350   0.0000   0.0000   0.0000   0.3222
   7.600   1.2273   0.01321   0.00730  -0.0985  0.2120  1.0000  -3.8226   0.0000   0.0000   0.0000   0.3209
   7.700   1.2309   0.01362   0.00760  -0.0974  0.1911  1.0000  -3.9111   0.0000   0.0000   0.0000   0.3195
   7.800   1.2335   0.01405   0.00791  -0.0960  0.1726  1.0000  -3.9938   0.0000   0.0000   0.0000   0.3181
   7.900   1.2372   0.01441   0.00818  -0.0948  0.1558  1.0000  -4.0842   0.0000   0.0000   0.0000   0.3168
   8.000   1.2403   0.01479   0.00848  -0.0935  0.1418  1.0000  -4.1711   0.0000   0.0000   0.0000   0.3154
   8.100   1.2437   0.01517   0.00877  -0.0922  0.1271  1.0000  -4.2605   0.0000   0.0000   0.0000   0.3141
   8.200   1.2486   0.01547   0.00903  -0.0912  0.1178  1.0000  -4.3599   0.0000   0.0000   0.0000   0.3129
   8.300   1.2514   0.01586   0.00935  -0.0899  0.1073  1.0000  -4.4469   0.0000   0.0000   0.0000   0.3116
   8.400   1.2557   0.01619   0.00962  -0.0888  0.0968  1.0000  -4.5435   0.0000   0.0000   0.0000   0.3103
   8.500   1.2608   0.01646   0.00987  -0.0879  0.0903  1.0000  -4.6468   0.0000   0.0000   0.0000   0.3092
   8.600   1.2642   0.01684   0.01019  -0.0867  0.0829  1.0000  -4.7391   0.0000   0.0000   0.0000   0.3079
   8.700   1.2674   0.01722   0.01052  -0.0855  0.0736  1.0000  -4.8298   0.0000   0.0000   0.0000   0.3067
   8.800   1.2731   0.01747   0.01078  -0.0847  0.0690  1.0000  -4.9385   0.0000   0.0000   0.0000   0.3056
   8.900   1.2777   0.01778   0.01106  -0.0838  0.0641  1.0000  -5.0410   0.0000   0.0000   0.0000   0.3045
   9.000   1.2806   0.01817   0.01147  -0.0826  0.0584  1.0000  -5.1333   0.0000   0.0000   0.0000   0.3032
   9.100   1.2830   0.01860   0.01186  -0.0813  0.0512  1.0000  -5.2199   0.0000   0.0000   0.0000   0.3020
   9.200   1.2882   0.01888   0.01216  -0.0805  0.0477  1.0000  -5.3269   0.0000   0.0000   0.0000   0.3009
   9.300   1.2935   0.01916   0.01245  -0.0797  0.0452  1.0000  -5.4363   0.0000   0.0000   0.0000   0.2999
   9.400   1.2973   0.01952   0.01279  -0.0787  0.0420  1.0000  -5.5354   0.0000   0.0000   0.0000   0.2988
   9.500   1.2998   0.01994   0.01317  -0.0775  0.0384  1.0000  -5.6246   0.0000   0.0000   0.0000   0.2977
   9.600   1.3009   0.02047   0.01368  -0.0761  0.0337  1.0000  -5.6977   0.0000   0.0000   0.0000   0.2964
   9.700   1.3017   0.02103   0.01427  -0.0747  0.0301  1.0000  -5.7633   0.0000   0.0000   0.0000   0.2951
   9.800   1.3079   0.02127   0.01454  -0.0741  0.0294  1.0000  -5.8831   0.0000   0.0000   0.0000   0.2943
   9.900   1.3131   0.02156   0.01486  -0.0734  0.0284  1.0000  -5.9951   0.0000   0.0000   0.0000   0.2933
  10.000   1.3175   0.02191   0.01524  -0.0726  0.0269  1.0000  -6.1004   0.0000   0.0000   0.0000   0.2924
  10.100   1.3212   0.02232   0.01565  -0.0717  0.0253  1.0000  -6.1990   0.0000   0.0000   0.0000   0.2914
  10.200   1.3239   0.02279   0.01611  -0.0708  0.0234  1.0000  -6.2907   0.0000   0.0000   0.0000   0.2904
  10.300   1.3252   0.02335   0.01665  -0.0696  0.0214  1.0000  -6.3680   0.0000   0.0000   0.0000   0.2894
  10.400   1.3235   0.02412   0.01744  -0.0682  0.0187  1.0000  -6.4077   0.0000   0.0000   0.0000   0.2882
  10.500   1.3147   0.02542   0.01887  -0.0659  0.0162  1.0000  -6.3660   0.0000   0.0000   0.0000   0.2866
  10.600   1.3206   0.02571   0.01916  -0.0655  0.0158  1.0000  -6.4895   0.0000   0.0000   0.0000   0.2859
  10.700   1.3275   0.02595   0.01940  -0.0651  0.0155  1.0000  -6.6238   0.0000   0.0000   0.0000   0.2853
  10.800   1.3335   0.02625   0.01972  -0.0647  0.0150  1.0000  -6.7484   0.0000   0.0000   0.0000   0.2846
  10.900   1.3384   0.02664   0.02013  -0.0642  0.0144  1.0000  -6.8583   0.0000   0.0000   0.0000   0.2838
  11.000   1.3420   0.02713   0.02065  -0.0635  0.0136  1.0000  -6.9535   0.0000   0.0000   0.0000   0.2831
  11.100   1.3447   0.02771   0.02126  -0.0628  0.0128  1.0000  -7.0497   0.0000   0.0000   0.0000   0.2823
  11.200   1.3468   0.02833   0.02191  -0.0621  0.0120  1.0000  -7.1392   0.0000   0.0000   0.0000   0.2815
  11.300   1.3486   0.02900   0.02260  -0.0613  0.0113  1.0000  -7.2254   0.0000   0.0000   0.0000   0.2807
  11.400   1.3502   0.02970   0.02331  -0.0606  0.0105  1.0000  -7.3084   0.0000   0.0000   0.0000   0.2799
  11.500   1.3514   0.03045   0.02408  -0.0599  0.0099  1.0000  -7.3848   0.0000   0.0000   0.0000   0.2792
  11.600   1.3511   0.03133   0.02500  -0.0591  0.0093  1.0000  -7.4451   0.0000   0.0000   0.0000   0.2784
  11.700   1.3497   0.03232   0.02604  -0.0582  0.0087  1.0000  -7.4900   0.0000   0.0000   0.0000   0.2776
  11.800   1.3476   0.03341   0.02719  -0.0573  0.0082  1.0000  -7.5215   0.0000   0.0000   0.0000   0.2769
  11.900   1.3443   0.03460   0.02846  -0.0564  0.0078  1.0000  -7.5399   0.0000   0.0000   0.0000   0.2761
  12.000   1.3396   0.03593   0.02986  -0.0555  0.0075  1.0000  -7.5465   0.0000   0.0000   0.0000   0.2754
  12.100   1.3348   0.03733   0.03134  -0.0546  0.0072  1.0000  -7.5454   0.0000   0.0000   0.0000   0.2747
  12.200   1.3294   0.03882   0.03293  -0.0537  0.0069  1.0000  -7.5345   0.0000   0.0000   0.0000   0.2740
  12.300   1.3232   0.04046   0.03467  -0.0529  0.0067  1.0000  -7.5136   0.0000   0.0000   0.0000   0.2733
  12.400   1.3164   0.04221   0.03652  -0.0520  0.0065  1.0000  -7.4826   0.0000   0.0000   0.0000   0.2727
  12.500   1.3091   0.04405   0.03848  -0.0511  0.0063  1.0000  -7.4372   0.0000   0.0000   0.0000   0.2721
  12.600   1.3033   0.04580   0.04032  -0.0502  0.0062  1.0000  -7.4030   0.0000   0.0000   0.0000   0.2714
  12.700   1.3083   0.04634   0.04087  -0.0502  0.0061  1.0000  -7.5295   0.0000   0.0000   0.0000   0.2710
  12.800   1.3123   0.04699   0.04156  -0.0500  0.0060  1.0000  -7.6421   0.0000   0.0000   0.0000   0.2706
  12.900   1.3149   0.04782   0.04241  -0.0499  0.0059  1.0000  -7.7390   0.0000   0.0000   0.0000   0.2702
  13.000   1.3166   0.04874   0.04337  -0.0497  0.0058  1.0000  -7.8267   0.0000   0.0000   0.0000   0.2699
  13.100   1.3184   0.04968   0.04434  -0.0496  0.0057  1.0000  -7.9134   0.0000   0.0000   0.0000   0.2695
  13.200   1.3201   0.05061   0.04531  -0.0494  0.0056  1.0000  -8.0007   0.0000   0.0000   0.0000   0.2691
  13.300   1.3219   0.05155   0.04627  -0.0493  0.0055  1.0000  -8.0885   0.0000   0.0000   0.0000   0.2688
  13.400   1.3236   0.05249   0.04725  -0.0491  0.0055  1.0000  -8.1770   0.0000   0.0000   0.0000   0.2684
  13.500   1.3253   0.05345   0.04824  -0.0490  0.0054  1.0000  -8.2660   0.0000   0.0000   0.0000   0.2681
  13.600   1.3268   0.05442   0.04924  -0.0489  0.0053  1.0000  -8.3548   0.0000   0.0000   0.0000   0.2678
  13.700   1.3278   0.05547   0.05033  -0.0488  0.0052  1.0000  -8.4393   0.0000   0.0000   0.0000   0.2675
  13.800   1.3279   0.05664   0.05154  -0.0489  0.0052  1.0000  -8.5162   0.0000   0.0000   0.0000   0.2673
  13.900   1.3283   0.05779   0.05271  -0.0489  0.0051  1.0000  -8.5965   0.0000   0.0000   0.0000   0.2671
  14.000   1.3290   0.05890   0.05386  -0.0489  0.0051  1.0000  -8.6812   0.0000   0.0000   0.0000   0.2669
  14.100   1.3297   0.05999   0.05498  -0.0489  0.0050  1.0000  -8.7664   0.0000   0.0000   0.0000   0.2667
  14.200   1.3302   0.06110   0.05611  -0.0489  0.0050  1.0000  -8.8500   0.0000   0.0000   0.0000   0.2665
  14.300   1.3303   0.06224   0.05729  -0.0489  0.0049  1.0000  -8.9305   0.0000   0.0000   0.0000   0.2663
  14.400   1.3302   0.06345   0.05853  -0.0490  0.0049  1.0000  -9.0065   0.0000   0.0000   0.0000   0.2662
  14.500   1.3294   0.06478   0.05990  -0.0490  0.0049  1.0000  -9.0722   0.0000   0.0000   0.0000   0.2660
  14.600   1.3272   0.06634   0.06150  -0.0492  0.0048  1.0000  -9.1205   0.0000   0.0000   0.0000   0.2660
  14.700   1.3250   0.06790   0.06311  -0.0494  0.0048  1.0000  -9.1666   0.0000   0.0000   0.0000   0.2660
  14.800   1.3231   0.06947   0.06473  -0.0495  0.0048  1.0000  -9.2104   0.0000   0.0000   0.0000   0.2660
  14.900   1.3208   0.07108   0.06639  -0.0496  0.0047  1.0000  -9.2472   0.0000   0.0000   0.0000   0.2659
  15.000   1.3182   0.07277   0.06814  -0.0498  0.0047  1.0000  -9.2746   0.0000   0.0000   0.0000   0.2659
  15.100   1.3151   0.07454   0.06998  -0.0499  0.0047  1.0000  -9.2913   0.0000   0.0000   0.0000   0.2659
  15.200   1.3132   0.07618   0.07167  -0.0501  0.0047  1.0000  -9.3234   0.0000   0.0000   0.0000   0.2659
  15.300   1.3120   0.07777   0.07333  -0.0503  0.0047  1.0000  -9.3647   0.0000   0.0000   0.0000   0.2659
  15.400   1.3094   0.07959   0.07522  -0.0507  0.0047  1.0000  -9.3924   0.0000   0.0000   0.0000   0.2661
  15.500   1.3066   0.08147   0.07723  -0.0512  0.0046  1.0000  -9.4188   0.0000   0.0000   0.0000   0.2663
  15.600   1.3044   0.08326   0.07909  -0.0516  0.0046  1.0000  -9.4482   0.0000   0.0000   0.0000   0.2665
  15.700   1.3023   0.08502   0.08093  -0.0520  0.0046  1.0000  -9.4785   0.0000   0.0000   0.0000   0.2667
  15.800   1.3004   0.08680   0.08277  -0.0525  0.0046  1.0000  -9.5085   0.0000   0.0000   0.0000   0.2669
  15.900   1.2982   0.08861   0.08465  -0.0530  0.0046  1.0000  -9.5359   0.0000   0.0000   0.0000   0.2671
  16.000   1.2959   0.09046   0.08658  -0.0535  0.0046  1.0000  -9.5596   0.0000   0.0000   0.0000   0.2674
  16.100   1.2930   0.09242   0.08860  -0.0541  0.0046  1.0000  -9.5770   0.0000   0.0000   0.0000   0.2678
  16.200   1.2884   0.09468   0.09095  -0.0550  0.0046  1.0000  -9.5759   0.0000   0.0000   0.0000   0.2684
  16.300   1.2845   0.09687   0.09320  -0.0559  0.0046  1.0000  -9.5796   0.0000   0.0000   0.0000   0.2690
  16.400   1.2811   0.09897   0.09537  -0.0567  0.0045  1.0000  -9.5874   0.0000   0.0000   0.0000   0.2695
  16.500   1.2778   0.10106   0.09753  -0.0575  0.0045  1.0000  -9.5943   0.0000   0.0000   0.0000   0.2701
  16.600   1.2743   0.10318   0.09973  -0.0584  0.0045  1.0000  -9.5980   0.0000   0.0000   0.0000   0.2707
  16.700   1.2705   0.10536   0.10198  -0.0593  0.0045  1.0000  -9.5969   0.0000   0.0000   0.0000   0.2713
  16.800   1.2652   0.10788   0.10457  -0.0606  0.0045  1.0000  -9.5779   0.0000   0.0000   0.0000   0.2723
  16.900   1.2600   0.11043   0.10719  -0.0619  0.0045  1.0000  -9.5572   0.0000   0.0000   0.0000   0.2733
  17.000   1.2555   0.11282   0.10965  -0.0631  0.0045  1.0000  -9.5426   0.0000   0.0000   0.0000   0.2743
  17.100   1.2512   0.11520   0.11210  -0.0643  0.0045  1.0000  -9.5273   0.0000   0.0000   0.0000   0.2752
  17.200   1.2467   0.11762   0.11459  -0.0656  0.0045  1.0000  -9.5079   0.0000   0.0000   0.0000   0.2762
  17.300   1.2413   0.12029   0.11733  -0.0671  0.0045  1.0000  -9.4757   0.0000   0.0000   0.0000   0.2775
  17.400   1.2351   0.12313   0.12024  -0.0688  0.0045  1.0000  -9.4315   0.0000   0.0000   0.0000   0.2789
  17.500   1.2300   0.12564   0.12282  -0.0703  0.0045  1.0000  -9.3963   0.0000   0.0000   0.0000   0.2802
  17.600   1.2250   0.12810   0.12534  -0.0719  0.0045  1.0000  -9.3607   0.0000   0.0000   0.0000   0.2815
  17.700   1.2198   0.13065   0.12795  -0.0735  0.0045  1.0000  -9.3195   0.0000   0.0000   0.0000   0.2829
  17.800   1.2132   0.13371   0.13108  -0.0756  0.0045  1.0000  -9.2552   0.0000   0.0000   0.0000   0.2848
  17.900   1.2074   0.13664   0.13407  -0.0775  0.0045  1.0000  -9.1977   0.0000   0.0000   0.0000   0.2865
  18.000   1.2019   0.13953   0.13702  -0.0793  0.0045  1.0000  -9.1414   0.0000   0.0000   0.0000   0.2882
  18.100   1.1959   0.14260   0.14015  -0.0813  0.0045  1.0000  -9.0752   0.0000   0.0000   0.0000   0.2900
  18.200   1.1890   0.14613   0.14374  -0.0836  0.0045  1.0000  -8.9883   0.0000   0.0000   0.0000   0.2922
  18.300   1.1830   0.14945   0.14711  -0.0857  0.0045  1.0000  -8.9109   0.0000   0.0000   0.0000   0.2942
  18.400   1.1770   0.15281   0.15053  -0.0879  0.0045  1.0000  -8.8296   0.0000   0.0000   0.0000   0.2962
  18.500   1.1696   0.15672   0.15449  -0.0903  0.0046  1.0000  -8.7192   0.0000   0.0000   0.0000   0.2987
  18.600   1.1632   0.16047   0.15829  -0.0927  0.0046  1.0000  -8.6175   0.0000   0.0000   0.0000   0.3010
  18.700   1.1569   0.16422   0.16209  -0.0949  0.0046  1.0000  -8.5129   0.0000   0.0000   0.0000   0.3033
  18.800   1.1492   0.16856   0.16648  -0.0976  0.0046  1.0000  -8.3745   0.0000   0.0000   0.0000   0.3060
  18.900   1.1424   0.17270   0.17066  -0.1000  0.0046  1.0000  -8.2451   0.0000   0.0000   0.0000   0.3085
  19.000   1.1357   0.17689   0.17489  -0.1024  0.0046  1.0000  -8.1103   0.0000   0.0000   0.0000   0.3111
  19.100   1.1276   0.18168   0.17972  -0.1050  0.0047  1.0000  -7.9357   0.0000   0.0000   0.0000   0.3140
  20.000   0.9967   0.27526   0.27338  -0.1360  0.0156  1.0000  -2.4950   0.0000   0.0000   0.0000   0.3604
  20.100   0.9981   0.27768   0.27581  -0.1368  0.0156  1.0000  -2.4806   0.0000   0.0000   0.0000   0.3609
  20.200   0.9994   0.28007   0.27820  -0.1377  0.0155  1.0000  -2.4673   0.0000   0.0000   0.0000   0.3614
  20.300   1.0009   0.28239   0.28052  -0.1386  0.0155  1.0000  -2.4563   0.0000   0.0000   0.0000   0.3619
  20.400   1.0027   0.28455   0.28268  -0.1394  0.0153  1.0000  -2.4506   0.0000   0.0000   0.0000   0.3624
  20.500   1.0057   0.28611   0.28425  -0.1403  0.0149  1.0000  -2.4645   0.0000   0.0000   0.0000   0.3627
  20.600   1.0087   0.28785   0.28599  -0.1415  0.0138  1.0000  -2.4587   0.0000   0.0000   0.0000   0.3633
  20.700   1.0099   0.29042   0.28856  -0.1426  0.0131  1.0000  -2.4315   0.0000   0.0000   0.0000   0.3641
  20.800   1.0110   0.29299   0.29113  -0.1435  0.0126  1.0000  -2.4101   0.0000   0.0000   0.0000   0.3647
  20.900   1.0119   0.29553   0.29367  -0.1444  0.0121  1.0000  -2.3927   0.0000   0.0000   0.0000   0.3653
  21.000   1.0128   0.29803   0.29617  -0.1452  0.0117  1.0000  -2.3781   0.0000   0.0000   0.0000   0.3658
  21.100   1.0136   0.30050   0.29865  -0.1461  0.0114  1.0000  -2.3658   0.0000   0.0000   0.0000   0.3664
  21.200   1.0143   0.30295   0.30110  -0.1469  0.0110  1.0000  -2.3551   0.0000   0.0000   0.0000   0.3669
  21.300   1.0150   0.30538   0.30353  -0.1476  0.0107  1.0000  -2.3459   0.0000   0.0000   0.0000   0.3674
  21.400   1.0157   0.30779   0.30594  -0.1484  0.0104  1.0000  -2.3378   0.0000   0.0000   0.0000   0.3679
  21.500   1.0163   0.31017   0.30833  -0.1491  0.0102  1.0000  -2.3307   0.0000   0.0000   0.0000   0.3684
  21.600   1.0168   0.31254   0.31071  -0.1499  0.0099  1.0000  -2.3245   0.0000   0.0000   0.0000   0.3688
  21.700   1.0172   0.31490   0.31306  -0.1506  0.0097  1.0000  -2.3191   0.0000   0.0000   0.0000   0.3693
  21.800   1.0175   0.31723   0.31540  -0.1512  0.0095  1.0000  -2.3145   0.0000   0.0000   0.0000   0.3698
  21.900   1.0176   0.31953   0.31771  -0.1519  0.0093  1.0000  -2.3106   0.0000   0.0000   0.0000   0.3702
  22.000   1.0177   0.32182   0.32000  -0.1526  0.0091  1.0000  -2.3071   0.0000   0.0000   0.0000   0.3707
  22.100   1.0176   0.32409   0.32227  -0.1532  0.0089  1.0000  -2.3041   0.0000   0.0000   0.0000   0.3712
  22.200   1.0172   0.32632   0.32452  -0.1538  0.0088  1.0000  -2.3012   0.0000   0.0000   0.0000   0.3716
  22.300   1.0166   0.32853   0.32673  -0.1543  0.0086  1.0000  -2.2984   0.0000   0.0000   0.0000   0.3721
  22.400   1.0157   0.33069   0.32890  -0.1548  0.0085  1.0000  -2.2954   0.0000   0.0000   0.0000   0.3726
  22.500   1.0144   0.33281   0.33102  -0.1553  0.0084  1.0000  -2.2915   0.0000   0.0000   0.0000   0.3731
  22.600   1.0124   0.33485   0.33307  -0.1557  0.0083  1.0000  -2.2861   0.0000   0.0000   0.0000   0.3737
  22.700   1.0095   0.33678   0.33502  -0.1560  0.0081  1.0000  -2.2774   0.0000   0.0000   0.0000   0.3743
  23.100   0.9027   0.32074   0.31919  -0.1471  0.0081  1.0000  -1.8561   0.0000   0.0000   0.0000   0.3847
  23.200   0.8997   0.32094   0.31939  -0.1472  0.0080  1.0000  -1.8492   0.0000   0.0000   0.0000   0.3852
  23.300   0.8971   0.32115   0.31961  -0.1473  0.0079  1.0000  -1.8444   0.0000   0.0000   0.0000   0.3857
  23.400   0.8947   0.32139   0.31986  -0.1474  0.0078  1.0000  -1.8415   0.0000   0.0000   0.0000   0.3862
  23.500   0.8926   0.32163   0.32011  -0.1476  0.0077  1.0000  -1.8403   0.0000   0.0000   0.0000   0.3867
  23.600   0.8906   0.32189   0.32038  -0.1477  0.0076  1.0000  -1.8407   0.0000   0.0000   0.0000   0.3871
  23.700   0.8888   0.32215   0.32065  -0.1479  0.0075  1.0000  -1.8428   0.0000   0.0000   0.0000   0.3875
  23.800   0.8871   0.32241   0.32092  -0.1480  0.0074  1.0000  -1.8462   0.0000   0.0000   0.0000   0.3879
  23.900   0.8855   0.32267   0.32119  -0.1482  0.0073  1.0000  -1.8511   0.0000   0.0000   0.0000   0.3882
  24.000   0.8841   0.32293   0.32145  -0.1483  0.0072  1.0000  -1.8571   0.0000   0.0000   0.0000   0.3885
  24.100   0.8827   0.32319   0.32171  -0.1484  0.0072  1.0000  -1.8642   0.0000   0.0000   0.0000   0.3888
  24.200   0.8814   0.32344   0.32197  -0.1486  0.0071  1.0000  -1.8719   0.0000   0.0000   0.0000   0.3890
  24.300   0.8798   0.32379   0.32233  -0.1487  0.0070  1.0000  -1.8694   0.0000   0.0000   0.0000   0.3894
  24.400   0.8780   0.32416   0.32272  -0.1489  0.0069  1.0000  -1.8629   0.0000   0.0000   0.0000   0.3898
  24.500   0.8759   0.32457   0.32313  -0.1491  0.0068  1.0000  -1.8499   0.0000   0.0000   0.0000   0.3903
  24.600   0.8731   0.32503   0.32360  -0.1492  0.0066  1.0000  -1.8210   0.0000   0.0000   0.0000   0.3909
  24.700   0.8587   0.32698   0.32553  -0.1488  0.0062  1.0000  -1.5043   0.0000   0.0000   0.0000   0.3938
  24.800   0.8577   0.32761   0.32617  -0.1491  0.0062  1.0000  -1.4892   0.0000   0.0000   0.0000   0.3943
  24.900   0.8568   0.32825   0.32680  -0.1495  0.0062  1.0000  -1.4749   0.0000   0.0000   0.0000   0.3947
  25.000   0.8559   0.32888   0.32745  -0.1498  0.0062  1.0000  -1.4613   0.0000   0.0000   0.0000   0.3952
  25.100   0.8552   0.32953   0.32809  -0.1502  0.0061  1.0000  -1.4484   0.0000   0.0000   0.0000   0.3957
  25.200   0.8545   0.33017   0.32874  -0.1506  0.0061  1.0000  -1.4364   0.0000   0.0000   0.0000   0.3961


