xflr5 v6.61

 Calculated polar for: EPPLER E852 AIRFOIL

 1 1 Reynolds number fixed          Mach number fixed         

 xtrf =   1.000 (top)        1.000 (bottom)
 Mach =   0.000     Re =     1.000 e 6     Ncrit =   9.000

  alpha     CL        CD       CDp       Cm    Top Xtr Bot Xtr   Cpmin    Chinge    XCp    
 ------- -------- --------- --------- -------- ------- ------- -------- --------- ---------
 -10.000  -0.4310   0.10075   0.09916  -0.0373  1.0000  0.0064  -2.3639   0.0000   0.0000   0.0000   0.1549
  -9.900  -0.4317   0.09924   0.09765  -0.0377  1.0000  0.0065  -2.3898   0.0000   0.0000   0.0000   0.1543
  -9.800  -0.4325   0.09772   0.09614  -0.0380  1.0000  0.0065  -2.4170   0.0000   0.0000   0.0000   0.1538
  -9.700  -0.4335   0.09619   0.09462  -0.0384  1.0000  0.0066  -2.4454   0.0000   0.0000   0.0000   0.1532
  -9.600  -0.4345   0.09464   0.09307  -0.0388  1.0000  0.0066  -2.4747   0.0000   0.0000   0.0000   0.1527
  -9.500  -0.4357   0.09307   0.09152  -0.0391  1.0000  0.0067  -2.5051   0.0000   0.0000   0.0000   0.1522
  -9.400  -0.4371   0.09151   0.08996  -0.0395  1.0000  0.0067  -2.5367   0.0000   0.0000   0.0000   0.1518
  -9.300  -0.4387   0.08994   0.08841  -0.0398  1.0000  0.0068  -2.5694   0.0000   0.0000   0.0000   0.1515
  -9.200  -0.4406   0.08838   0.08686  -0.0401  1.0000  0.0068  -2.6033   0.0000   0.0000   0.0000   0.1514
  -9.100  -0.4429   0.08684   0.08533  -0.0404  1.0000  0.0069  -2.6381   0.0000   0.0000   0.0000   0.1514
  -9.000  -0.4456   0.08532   0.08383  -0.0406  1.0000  0.0069  -2.6737   0.0000   0.0000   0.0000   0.1517
  -8.900  -0.4482   0.08375   0.08226  -0.0409  1.0000  0.0069  -2.7110   0.0000   0.0000   0.0000   0.1516
  -8.800  -0.4452   0.08124   0.07976  -0.0434  0.9994  0.0070  -2.7609   0.0000   0.0000   0.0000   0.1453
  -8.700  -0.4421   0.07863   0.07716  -0.0462  0.9988  0.0070  -2.8142   0.0000   0.0000   0.0000   0.1384
  -8.600  -0.4388   0.07585   0.07438  -0.0493  0.9979  0.0071  -2.8731   0.0000   0.0000   0.0000   0.1305
  -8.500  -0.4354   0.07290   0.07143  -0.0528  0.9971  0.0071  -2.9383   0.0000   0.0000   0.0000   0.1217
  -8.400  -0.4324   0.06976   0.06830  -0.0566  0.9961  0.0071  -3.0101   0.0000   0.0000   0.0000   0.1121
  -8.300  -0.4297   0.06613   0.06467  -0.0612  0.9944  0.0070  -3.0972   0.0000   0.0000   0.0000   0.1006
  -8.200  -0.4272   0.06073   0.05925  -0.0696  0.9917  0.0067  -3.2434   0.0000   0.0000   0.0000   0.0802
  -8.100  -0.4208   0.05501   0.05346  -0.0809  0.9886  0.0065  -3.3891   0.0000   0.0000   0.0000   0.0510
  -8.000  -0.4145   0.05120   0.04955  -0.0868  0.9874  0.0065  -3.4813   0.0000   0.0000   0.0000   0.0338
  -7.900  -0.4141   0.04882   0.04709  -0.0886  0.9829  0.0065  -3.5405   0.0000   0.0000   0.0000   0.0295
  -7.800  -0.4095   0.04609   0.04427  -0.0913  0.9797  0.0066  -3.6016   0.0000   0.0000   0.0000   0.0204
  -7.700  -0.4030   0.04335   0.04143  -0.0940  0.9773  0.0068  -3.6618   0.0000   0.0000   0.0000   0.0101
  -7.600  -0.3952   0.04067   0.03862  -0.0965  0.9755  0.0069  -3.7214   0.0000   0.0000   0.0000  -0.0008
  -7.500  -0.3865   0.03796   0.03577  -0.0987  0.9741  0.0072  -3.7920   0.0000   0.0000   0.0000  -0.0122
  -7.400  -0.3834   0.03403   0.03146  -0.0991  0.9686  0.0080  -4.1993   0.0000   0.0000   0.0000  -0.0154
  -7.300  -0.3775   0.03259   0.02989  -0.0994  0.9640  0.0081  -4.2079   0.0000   0.0000   0.0000  -0.0202
  -6.900  -0.3439   0.01932   0.01562  -0.1037  0.9543  0.0038  -5.3676   0.0000   0.0000   0.0000  -0.0588
  -6.800  -0.3327   0.01874   0.01496  -0.1039  0.9514  0.0037  -5.2653   0.0000   0.0000   0.0000  -0.0697
  -6.700  -0.3218   0.01818   0.01432  -0.1041  0.9478  0.0037  -5.1586   0.0000   0.0000   0.0000  -0.0808
  -6.600  -0.3094   0.01757   0.01363  -0.1046  0.9448  0.0036  -5.0469   0.0000   0.0000   0.0000  -0.0956
  -6.500  -0.2962   0.01691   0.01288  -0.1053  0.9420  0.0036  -4.9397   0.0000   0.0000   0.0000  -0.1131
  -6.400  -0.2826   0.01620   0.01207  -0.1060  0.9393  0.0035  -4.8436   0.0000   0.0000   0.0000  -0.1331
  -6.300  -0.2689   0.01540   0.01116  -0.1068  0.9366  0.0035  -4.7662   0.0000   0.0000   0.0000  -0.1554
  -6.200  -0.2553   0.01449   0.01012  -0.1076  0.9337  0.0035  -4.7170   0.0000   0.0000   0.0000  -0.1798
  -6.000  -0.2324   0.01241   0.00776  -0.1082  0.9259  0.0036  -4.7431   0.0000   0.0000   0.0000  -0.2241
  -5.900  -0.2231   0.01137   0.00657  -0.1080  0.9209  0.0037  -4.8009   0.0000   0.0000   0.0000  -0.2430
  -5.800  -0.2129   0.01057   0.00563  -0.1080  0.9159  0.0040  -4.8098   0.0000   0.0000   0.0000  -0.2663
  -5.700  -0.2018   0.01004   0.00500  -0.1082  0.9113  0.0042  -4.7475   0.0000   0.0000   0.0000  -0.2952
  -5.600  -0.1902   0.00969   0.00456  -0.1084  0.9067  0.0045  -4.6394   0.0000   0.0000   0.0000  -0.3291
  -5.400  -0.1681   0.00920   0.00395  -0.1085  0.8985  0.0051  -4.3729   0.0000   0.0000   0.0000  -0.4059
  -5.300  -0.1575   0.00900   0.00371  -0.1085  0.8951  0.0054  -4.2352   0.0000   0.0000   0.0000  -0.4488
  -5.200  -0.1468   0.00884   0.00352  -0.1084  0.8915  0.0059  -4.0814   0.0000   0.0000   0.0000  -0.4995
  -5.100  -0.1359   0.00870   0.00336  -0.1085  0.8878  0.0066  -3.9201   0.0000   0.0000   0.0000  -0.5595
  -5.000  -0.1249   0.00857   0.00318  -0.1085  0.8840  0.0074  -3.7684   0.0000   0.0000   0.0000  -0.6307
  -4.900  -0.1138   0.00847   0.00300  -0.1085  0.8802  0.0081  -3.6123   0.0000   0.0000   0.0000  -0.7167
  -4.800  -0.1031   0.00830   0.00284  -0.1086  0.8760  0.0095  -3.4565   0.0000   0.0000   0.0000  -0.8173
  -4.700  -0.0922   0.00800   0.00248  -0.1085  0.8715  0.0174  -3.3940   0.0000   0.0000   0.0000  -0.9421
  -4.600  -0.0810   0.00788   0.00238  -0.1087  0.8677  0.0226  -3.2289   0.0000   0.0000   0.0000  -1.1080
  -4.500  -0.0701   0.00785   0.00235  -0.1087  0.8660  0.0239  -3.0458   0.0000   0.0000   0.0000  -1.3183
  -4.400  -0.0595   0.00765   0.00217  -0.1086  0.8640  0.0355  -2.8991   0.0000   0.0000   0.0000  -1.5971
  -4.300  -0.0487   0.00754   0.00208  -0.1087  0.8617  0.0421  -2.7336   0.0000   0.0000   0.0000  -2.0068
  -4.200  -0.0379   0.00739   0.00199  -0.1087  0.8592  0.0574  -2.5800   0.0000   0.0000   0.0000  -2.6455
  -4.100  -0.0271   0.00729   0.00190  -0.1087  0.8566  0.0678  -2.4403   0.0000   0.0000   0.0000  -3.8100
  -4.000  -0.0164   0.00712   0.00182  -0.1088  0.8539  0.0883  -2.3042   0.0000   0.0000   0.0000  -6.4681
  -3.900  -0.0057   0.00696   0.00173  -0.1088  0.8512  0.1139  -2.1702   0.0000   0.0000   0.0000  -19.1516
  -3.800   0.0049   0.00675   0.00163  -0.1089  0.8483  0.1473  -2.0392   0.0000   0.0000   0.0000  22.6335
  -3.700   0.0153   0.00651   0.00152  -0.1090  0.8453  0.1930  -1.9119   0.0000   0.0000   0.0000   7.4406
  -3.600   0.0256   0.00626   0.00143  -0.1091  0.8421  0.2439  -1.7870   0.0000   0.0000   0.0000   4.5406
  -3.500   0.0360   0.00600   0.00134  -0.1092  0.8384  0.3031  -1.6641   0.0000   0.0000   0.0000   3.3066
  -3.400   0.0468   0.00580   0.00129  -0.1093  0.8345  0.3539  -1.5405   0.0000   0.0000   0.0000   2.6046
  -3.300   0.0580   0.00569   0.00126  -0.1095  0.8312  0.3862  -1.4167   0.0000   0.0000   0.0000   2.1531
  -3.200   0.0687   0.00557   0.00125  -0.1095  0.8302  0.4172  -1.2977   0.0000   0.0000   0.0000   1.8558
  -3.100   0.0797   0.00553   0.00123  -0.1095  0.8290  0.4297  -1.1793   0.0000   0.0000   0.0000   1.6332
  -3.000   0.0909   0.00551   0.00120  -0.1095  0.8276  0.4351  -1.0625   0.0000   0.0000   0.0000   1.4632
  -2.900   0.1020   0.00548   0.00116  -0.1096  0.8261  0.4458  -0.9463   0.0000   0.0000   0.0000   1.3309
  -2.800   0.1130   0.00542   0.00115  -0.1096  0.8245  0.4607  -0.8378   0.0000   0.0000   0.0000   1.2255
  -2.700   0.1241   0.00538   0.00115  -0.1096  0.8227  0.4736  -0.7318   0.0000   0.0000   0.0000   1.1384
  -2.600   0.1353   0.00537   0.00114  -0.1097  0.8210  0.4809  -0.6503   0.0000   0.0000   0.0000   1.0648
  -2.500   0.1466   0.00537   0.00112  -0.1097  0.8191  0.4842  -0.6054   0.0000   0.0000   0.0000   1.0022
  -2.400   0.1579   0.00538   0.00110  -0.1097  0.8172  0.4865  -0.5610   0.0000   0.0000   0.0000   0.9485
  -2.300   0.1692   0.00539   0.00109  -0.1098  0.8153  0.4888  -0.5173   0.0000   0.0000   0.0000   0.9020
  -2.200   0.1803   0.00537   0.00107  -0.1098  0.8133  0.4978  -0.4790   0.0000   0.0000   0.0000   0.8617
  -2.100   0.1915   0.00535   0.00106  -0.1099  0.8112  0.5053  -0.4412   0.0000   0.0000   0.0000   0.8261
  -2.000   0.2026   0.00535   0.00105  -0.1099  0.8091  0.5107  -0.4357   0.0000   0.0000   0.0000   0.7944
  -1.900   0.2138   0.00534   0.00104  -0.1099  0.8069  0.5154  -0.4400   0.0000   0.0000   0.0000   0.7661
  -1.800   0.2249   0.00534   0.00104  -0.1099  0.8044  0.5209  -0.4443   0.0000   0.0000   0.0000   0.7405
  -1.700   0.2361   0.00535   0.00104  -0.1100  0.8018  0.5268  -0.4487   0.0000   0.0000   0.0000   0.7173
  -1.600   0.2474   0.00536   0.00104  -0.1100  0.7990  0.5323  -0.4530   0.0000   0.0000   0.0000   0.6960
  -1.500   0.2589   0.00539   0.00105  -0.1102  0.7962  0.5364  -0.4575   0.0000   0.0000   0.0000   0.6765
  -1.400   0.2706   0.00542   0.00106  -0.1103  0.7934  0.5389  -0.4619   0.0000   0.0000   0.0000   0.6585
  -1.300   0.2822   0.00545   0.00107  -0.1104  0.7915  0.5405  -0.4663   0.0000   0.0000   0.0000   0.6421
  -1.200   0.2934   0.00545   0.00107  -0.1105  0.7910  0.5429  -0.4707   0.0000   0.0000   0.0000   0.6271
  -1.100   0.3046   0.00542   0.00106  -0.1105  0.7904  0.5502  -0.4751   0.0000   0.0000   0.0000   0.6133
  -1.000   0.3158   0.00539   0.00106  -0.1106  0.7897  0.5572  -0.4794   0.0000   0.0000   0.0000   0.6004
  -0.900   0.3270   0.00537   0.00106  -0.1106  0.7889  0.5633  -0.4838   0.0000   0.0000   0.0000   0.5885
  -0.800   0.3382   0.00535   0.00107  -0.1107  0.7881  0.5682  -0.4881   0.0000   0.0000   0.0000   0.5773
  -0.700   0.3494   0.00534   0.00107  -0.1107  0.7871  0.5725  -0.4925   0.0000   0.0000   0.0000   0.5668
  -0.600   0.3606   0.00533   0.00108  -0.1107  0.7859  0.5762  -0.4968   0.0000   0.0000   0.0000   0.5570
  -0.500   0.3718   0.00532   0.00108  -0.1108  0.7846  0.5796  -0.5012   0.0000   0.0000   0.0000   0.5478
  -0.400   0.3830   0.00532   0.00109  -0.1108  0.7832  0.5827  -0.5055   0.0000   0.0000   0.0000   0.5390
  -0.300   0.3942   0.00532   0.00109  -0.1108  0.7816  0.5853  -0.5099   0.0000   0.0000   0.0000   0.5308
  -0.200   0.4054   0.00532   0.00109  -0.1109  0.7799  0.5876  -0.5143   0.0000   0.0000   0.0000   0.5230
  -0.100   0.4166   0.00532   0.00109  -0.1109  0.7781  0.5895  -0.5186   0.0000   0.0000   0.0000   0.5157
   0.000   0.4278   0.00533   0.00110  -0.1109  0.7762  0.5911  -0.5230   0.0000   0.0000   0.0000   0.5087
   0.100   0.4390   0.00534   0.00110  -0.1109  0.7741  0.5924  -0.5274   0.0000   0.0000   0.0000   0.5020
   0.200   0.4501   0.00536   0.00111  -0.1109  0.7718  0.5936  -0.5317   0.0000   0.0000   0.0000   0.4957
   0.300   0.4612   0.00538   0.00111  -0.1109  0.7692  0.5945  -0.5361   0.0000   0.0000   0.0000   0.4897
   0.400   0.4722   0.00538   0.00111  -0.1109  0.7663  0.5987  -0.5409   0.0000   0.0000   0.0000   0.4840
   0.500   0.4831   0.00539   0.00111  -0.1109  0.7627  0.6048  -0.5457   0.0000   0.0000   0.0000   0.4786
   0.600   0.4941   0.00540   0.00114  -0.1109  0.7584  0.6110  -0.5505   0.0000   0.0000   0.0000   0.4734
   0.700   0.5054   0.00542   0.00116  -0.1110  0.7537  0.6167  -0.5558   0.0000   0.0000   0.0000   0.4684
   0.800   0.5169   0.00545   0.00120  -0.1111  0.7492  0.6217  -0.5613   0.0000   0.0000   0.0000   0.4637
   0.900   0.5278   0.00542   0.00121  -0.1110  0.7484  0.6265  -0.5667   0.0000   0.0000   0.0000   0.4591
   1.000   0.5388   0.00540   0.00121  -0.1110  0.7472  0.6311  -0.5722   0.0000   0.0000   0.0000   0.4547
   1.100   0.5497   0.00539   0.00122  -0.1110  0.7457  0.6355  -0.5793   0.0000   0.0000   0.0000   0.4505
   1.200   0.5607   0.00538   0.00123  -0.1109  0.7440  0.6394  -0.5943   0.0000   0.0000   0.0000   0.4464
   1.300   0.5718   0.00537   0.00124  -0.1109  0.7417  0.6426  -0.6156   0.0000   0.0000   0.0000   0.4425
   1.400   0.5827   0.00537   0.00125  -0.1109  0.7387  0.6452  -0.6371   0.0000   0.0000   0.0000   0.4387
   1.500   0.5937   0.00538   0.00126  -0.1108  0.7350  0.6471  -0.6587   0.0000   0.0000   0.0000   0.4350
   1.600   0.6046   0.00538   0.00128  -0.1108  0.7309  0.6516  -0.6803   0.0000   0.0000   0.0000   0.4315
   1.700   0.6152   0.00538   0.00129  -0.1107  0.7260  0.6599  -0.7041   0.0000   0.0000   0.0000   0.4281
   1.800   0.6255   0.00540   0.00130  -0.1105  0.7200  0.6675  -0.7313   0.0000   0.0000   0.0000   0.4248
   1.900   0.6357   0.00543   0.00133  -0.1103  0.7122  0.6739  -0.7585   0.0000   0.0000   0.0000   0.4215
   2.000   0.6465   0.00547   0.00136  -0.1103  0.7048  0.6797  -0.7866   0.0000   0.0000   0.0000   0.4185
   2.100   0.6576   0.00546   0.00139  -0.1102  0.7037  0.6851  -0.8247   0.0000   0.0000   0.0000   0.4155
   2.200   0.6687   0.00545   0.00141  -0.1102  0.7021  0.6901  -0.8638   0.0000   0.0000   0.0000   0.4127
   2.300   0.6797   0.00544   0.00144  -0.1102  0.6995  0.6944  -0.9032   0.0000   0.0000   0.0000   0.4099
   2.400   0.6907   0.00545   0.00146  -0.1102  0.6954  0.6979  -0.9429   0.0000   0.0000   0.0000   0.4072
   2.600   0.7122   0.00546   0.00151  -0.1101  0.6850  0.7123  -1.0228   0.0000   0.0000   0.0000   0.4020
   2.700   0.7227   0.00547   0.00155  -0.1099  0.6795  0.7210  -1.0715   0.0000   0.0000   0.0000   0.3995
   2.800   0.7329   0.00550   0.00158  -0.1097  0.6726  0.7287  -1.1244   0.0000   0.0000   0.0000   0.3971
   2.900   0.7424   0.00556   0.00164  -0.1094  0.6610  0.7357  -1.1762   0.0000   0.0000   0.0000   0.3946
   3.000   0.7531   0.00557   0.00167  -0.1093  0.6540  0.7421  -1.2733   0.0000   0.0000   0.0000   0.3923
   3.100   0.7632   0.00562   0.00170  -0.1091  0.6400  0.7473  -1.3932   0.0000   0.0000   0.0000   0.3900
   3.300   0.7803   0.00584   0.00180  -0.1080  0.5938  0.7661  -1.6221   0.0000   0.0000   0.0000   0.3853
   3.400   0.7868   0.00606   0.00188  -0.1070  0.5550  0.7766  -1.7283   0.0000   0.0000   0.0000   0.3829
   3.500   0.7927   0.00637   0.00200  -0.1060  0.5078  0.7864  -1.8324   0.0000   0.0000   0.0000   0.3805
   3.600   0.7989   0.00669   0.00215  -0.1051  0.4632  0.7948  -1.9404   0.0000   0.0000   0.0000   0.3783
   3.700   0.8051   0.00702   0.00231  -0.1042  0.4183  0.8071  -2.0488   0.0000   0.0000   0.0000   0.3761
   3.800   0.8112   0.00733   0.00248  -0.1033  0.3765  0.8210  -2.1590   0.0000   0.0000   0.0000   0.3739
   3.900   0.8180   0.00762   0.00264  -0.1026  0.3386  0.8337  -2.2751   0.0000   0.0000   0.0000   0.3718
   4.000   0.8249   0.00789   0.00279  -0.1018  0.3019  0.8468  -2.3937   0.0000   0.0000   0.0000   0.3698
   4.100   0.8311   0.00815   0.00295  -0.1009  0.2666  0.8647  -2.5094   0.0000   0.0000   0.0000   0.3677
   4.300   0.8414   0.00873   0.00329  -0.0987  0.1929  0.9069  -2.7320   0.0000   0.0000   0.0000   0.3634
   4.500   0.8553   0.00928   0.00360  -0.0972  0.1279  1.0000  -2.9847   0.0000   0.0000   0.0000   0.3596
   4.600   0.8635   0.00954   0.00375  -0.0967  0.1062  1.0000  -3.1227   0.0000   0.0000   0.0000   0.3579
   4.700   0.8720   0.00978   0.00391  -0.0963  0.0869  1.0000  -3.2649   0.0000   0.0000   0.0000   0.3563
   4.800   0.8805   0.01002   0.00405  -0.0959  0.0728  1.0000  -3.4093   0.0000   0.0000   0.0000   0.3547
   4.900   0.8901   0.01018   0.00418  -0.0957  0.0630  1.0000  -3.5632   0.0000   0.0000   0.0000   0.3531
   5.000   0.8990   0.01038   0.00433  -0.0954  0.0542  1.0000  -3.7144   0.0000   0.0000   0.0000   0.3516
   5.100   0.9081   0.01056   0.00446  -0.0951  0.0436  1.0000  -3.8809   0.0000   0.0000   0.0000   0.3501
   5.200   0.9176   0.01072   0.00463  -0.0948  0.0390  1.0000  -4.0681   0.0000   0.0000   0.0000   0.3487
   5.300   0.9263   0.01095   0.00479  -0.0944  0.0320  1.0000  -4.2448   0.0000   0.0000   0.0000   0.3472
   5.400   0.9357   0.01111   0.00494  -0.0941  0.0256  1.0000  -4.4284   0.0000   0.0000   0.0000   0.3458
   5.500   0.9453   0.01125   0.00507  -0.0939  0.0226  1.0000  -4.6213   0.0000   0.0000   0.0000   0.3444
   5.600   0.9537   0.01150   0.00526  -0.0935  0.0170  1.0000  -4.7956   0.0000   0.0000   0.0000   0.3430
   5.700   0.9626   0.01172   0.00549  -0.0931  0.0118  1.0000  -4.9554   0.0000   0.0000   0.0000   0.3415
   5.800   0.9709   0.01198   0.00571  -0.0926  0.0086  1.0000  -5.1070   0.0000   0.0000   0.0000   0.3401
   5.900   0.9769   0.01253   0.00635  -0.0914  0.0055  1.0000  -5.1201   0.0000   0.0000   0.0000   0.3383
   6.000   0.9867   0.01264   0.00646  -0.0913  0.0051  1.0000  -5.3150   0.0000   0.0000   0.0000   0.3370
   6.100   0.9960   0.01280   0.00664  -0.0910  0.0046  1.0000  -5.4902   0.0000   0.0000   0.0000   0.3358
   6.200   1.0051   0.01298   0.00683  -0.0907  0.0041  1.0000  -5.6708   0.0000   0.0000   0.0000   0.3345
   6.300   1.0141   0.01318   0.00704  -0.0903  0.0037  1.0000  -5.8518   0.0000   0.0000   0.0000   0.3333
   6.400   1.0228   0.01341   0.00730  -0.0899  0.0035  1.0000  -6.0166   0.0000   0.0000   0.0000   0.3320
   6.500   1.0311   0.01367   0.00759  -0.0894  0.0033  1.0000  -6.1746   0.0000   0.0000   0.0000   0.3307
   6.600   1.0392   0.01396   0.00791  -0.0888  0.0031  1.0000  -6.3272   0.0000   0.0000   0.0000   0.3294
   6.700   1.0470   0.01428   0.00827  -0.0882  0.0030  1.0000  -6.4720   0.0000   0.0000   0.0000   0.3281
   6.800   1.0545   0.01464   0.00868  -0.0876  0.0028  1.0000  -6.6055   0.0000   0.0000   0.0000   0.3267
   6.900   1.0614   0.01507   0.00915  -0.0868  0.0027  1.0000  -6.7219   0.0000   0.0000   0.0000   0.3254
   7.000   1.0675   0.01558   0.00973  -0.0859  0.0025  1.0000  -6.8140   0.0000   0.0000   0.0000   0.3239
   7.100   1.0727   0.01623   0.01046  -0.0848  0.0024  1.0000  -6.8695   0.0000   0.0000   0.0000   0.3224
   7.200   1.0765   0.01713   0.01147  -0.0834  0.0023  1.0000  -6.8672   0.0000   0.0000   0.0000   0.3208
   7.300   1.0793   0.01845   0.01293  -0.0819  0.0021  1.0000  -6.7847   0.0000   0.0000   0.0000   0.3190
   7.400   1.0842   0.01988   0.01450  -0.0807  0.0021  1.0000  -6.7151   0.0000   0.0000   0.0000   0.3175
   7.500   1.0933   0.02005   0.01469  -0.0804  0.0020  1.0000  -6.9176   0.0000   0.0000   0.0000   0.3165
   7.600   1.1019   0.02038   0.01506  -0.0800  0.0020  1.0000  -7.0873   0.0000   0.0000   0.0000   0.3155
   7.700   1.1103   0.02083   0.01556  -0.0796  0.0020  1.0000  -7.2359   0.0000   0.0000   0.0000   0.3144
   7.800   1.1184   0.02137   0.01616  -0.0791  0.0020  1.0000  -7.3670   0.0000   0.0000   0.0000   0.3134
   7.900   1.1263   0.02200   0.01686  -0.0786  0.0019  1.0000  -7.4826   0.0000   0.0000   0.0000   0.3123
   8.000   1.1340   0.02273   0.01766  -0.0780  0.0019  1.0000  -7.5832   0.0000   0.0000   0.0000   0.3112
   8.100   1.1414   0.02354   0.01856  -0.0774  0.0019  1.0000  -7.6690   0.0000   0.0000   0.0000   0.3101
   8.200   1.1485   0.02446   0.01958  -0.0768  0.0019  1.0000  -7.7395   0.0000   0.0000   0.0000   0.3090
   8.300   1.1551   0.02547   0.02070  -0.0760  0.0019  1.0000  -7.7938   0.0000   0.0000   0.0000   0.3079
   8.400   1.1611   0.02660   0.02195  -0.0752  0.0019  1.0000  -7.8303   0.0000   0.0000   0.0000   0.3067
   8.500   1.1663   0.02784   0.02333  -0.0743  0.0019  1.0000  -7.8469   0.0000   0.0000   0.0000   0.3055
   8.600   1.1704   0.02922   0.02485  -0.0732  0.0019  1.0000  -7.8400   0.0000   0.0000   0.0000   0.3043
   8.700   1.1732   0.03077   0.02656  -0.0719  0.0019  1.0000  -7.8029   0.0000   0.0000   0.0000   0.3030
   8.800   1.1738   0.03262   0.02859  -0.0704  0.0019  1.0000  -7.7136   0.0000   0.0000   0.0000   0.3015
   9.100   1.1792   0.03650   0.03275  -0.0666  0.0022  1.0000  -7.6960   0.0000   0.0000   0.0000   0.2977
   9.200   1.1829   0.03718   0.03350  -0.0656  0.0022  1.0000  -7.8004   0.0000   0.0000   0.0000   0.2966
   9.300   1.1862   0.03787   0.03426  -0.0646  0.0023  1.0000  -7.9020   0.0000   0.0000   0.0000   0.2955
   9.400   1.1892   0.03857   0.03502  -0.0636  0.0023  1.0000  -7.9997   0.0000   0.0000   0.0000   0.2944
   9.500   1.1917   0.03927   0.03579  -0.0624  0.0023  1.0000  -8.0908   0.0000   0.0000   0.0000   0.2932
   9.600   1.1932   0.03997   0.03656  -0.0611  0.0024  1.0000  -8.1680   0.0000   0.0000   0.0000   0.2919
   9.700   1.1940   0.04072   0.03738  -0.0597  0.0024  1.0000  -8.2242   0.0000   0.0000   0.0000   0.2906
  10.200   1.0839   0.06133   0.05918  -0.0425  0.0046  1.0000  -5.6050   0.0000   0.0000   0.0000   0.2796
  10.300   1.0754   0.06292   0.06083  -0.0415  0.0046  1.0000  -5.5659   0.0000   0.0000   0.0000   0.2789
  10.400   1.0666   0.06461   0.06257  -0.0407  0.0047  1.0000  -5.5233   0.0000   0.0000   0.0000   0.2783
  10.500   1.0571   0.06642   0.06445  -0.0401  0.0047  1.0000  -5.4747   0.0000   0.0000   0.0000   0.2779
  10.600   1.0470   0.06841   0.06650  -0.0397  0.0048  1.0000  -5.4168   0.0000   0.0000   0.0000   0.2778
  12.900   0.8894   0.14725   0.14591  -0.0808  0.0056  1.0000  -3.2440   0.0000   0.0000   0.0000   0.3289
  13.000   0.8890   0.14977   0.14843  -0.0821  0.0056  1.0000  -3.1969   0.0000   0.0000   0.0000   0.3302
  13.100   0.8887   0.15224   0.15089  -0.0833  0.0056  1.0000  -3.1520   0.0000   0.0000   0.0000   0.3316
  13.200   0.8887   0.15465   0.15330  -0.0845  0.0056  1.0000  -3.1091   0.0000   0.0000   0.0000   0.3329
  13.300   0.8887   0.15703   0.15567  -0.0857  0.0056  1.0000  -3.0680   0.0000   0.0000   0.0000   0.3341
  13.400   0.8890   0.15936   0.15800  -0.0868  0.0056  1.0000  -3.0288   0.0000   0.0000   0.0000   0.3353
  13.500   0.8893   0.16162   0.16026  -0.0880  0.0056  1.0000  -2.9913   0.0000   0.0000   0.0000   0.3364
  13.600   0.8899   0.16372   0.16236  -0.0891  0.0056  1.0000  -2.9557   0.0000   0.0000   0.0000   0.3375
  13.700   0.8905   0.16573   0.16437  -0.0902  0.0056  1.0000  -2.9219   0.0000   0.0000   0.0000   0.3386
  13.800   0.8913   0.16771   0.16634  -0.0913  0.0056  1.0000  -2.8894   0.0000   0.0000   0.0000   0.3396
  13.900   0.8923   0.16968   0.16831  -0.0923  0.0056  1.0000  -2.8583   0.0000   0.0000   0.0000   0.3406
  14.000   0.8933   0.17165   0.17028  -0.0934  0.0056  1.0000  -2.8284   0.0000   0.0000   0.0000   0.3415
  14.100   0.8944   0.17364   0.17227  -0.0945  0.0056  1.0000  -2.7997   0.0000   0.0000   0.0000   0.3425
  14.200   0.8956   0.17563   0.17425  -0.0955  0.0056  1.0000  -2.7722   0.0000   0.0000   0.0000   0.3434
  14.300   0.8969   0.17763   0.17625  -0.0965  0.0056  1.0000  -2.7459   0.0000   0.0000   0.0000   0.3443
  14.400   0.8983   0.17962   0.17824  -0.0975  0.0056  1.0000  -2.7207   0.0000   0.0000   0.0000   0.3451
  14.500   0.8997   0.18162   0.18024  -0.0985  0.0056  1.0000  -2.6966   0.0000   0.0000   0.0000   0.3460
  14.600   0.9013   0.18362   0.18224  -0.0995  0.0056  1.0000  -2.6738   0.0000   0.0000   0.0000   0.3468
  14.700   0.9028   0.18562   0.18423  -0.1005  0.0055  1.0000  -2.6521   0.0000   0.0000   0.0000   0.3476
  14.800   0.9045   0.18761   0.18622  -0.1015  0.0055  1.0000  -2.6317   0.0000   0.0000   0.0000   0.3483
  14.900   0.9063   0.18960   0.18821  -0.1025  0.0055  1.0000  -2.6127   0.0000   0.0000   0.0000   0.3491
  15.000   0.9081   0.19158   0.19019  -0.1035  0.0055  1.0000  -2.5952   0.0000   0.0000   0.0000   0.3498
  15.100   0.9100   0.19354   0.19215  -0.1044  0.0055  1.0000  -2.5796   0.0000   0.0000   0.0000   0.3505
  15.200   0.9120   0.19549   0.19410  -0.1054  0.0055  1.0000  -2.5663   0.0000   0.0000   0.0000   0.3512
  15.300   0.9141   0.19741   0.19602  -0.1063  0.0054  1.0000  -2.5563   0.0000   0.0000   0.0000   0.3518
  15.400   0.9165   0.19928   0.19788  -0.1072  0.0054  1.0000  -2.5518   0.0000   0.0000   0.0000   0.3524
  15.500   0.9192   0.20103   0.19964  -0.1081  0.0053  1.0000  -2.5571   0.0000   0.0000   0.0000   0.3529
  15.600   0.9224   0.20267   0.20128  -0.1089  0.0051  1.0000  -2.5719   0.0000   0.0000   0.0000   0.3532
  15.700   0.9254   0.20443   0.20303  -0.1098  0.0050  1.0000  -2.5762   0.0000   0.0000   0.0000   0.3536
  15.800   0.9278   0.20637   0.20497  -0.1107  0.0048  1.0000  -2.5637   0.0000   0.0000   0.0000   0.3542
  15.900   0.9299   0.20845   0.20705  -0.1117  0.0047  1.0000  -2.5396   0.0000   0.0000   0.0000   0.3549
  16.000   0.9319   0.21053   0.20914  -0.1127  0.0046  1.0000  -2.5159   0.0000   0.0000   0.0000   0.3556
  16.100   0.9340   0.21263   0.21123  -0.1136  0.0045  1.0000  -2.4932   0.0000   0.0000   0.0000   0.3562
  16.200   0.9360   0.21472   0.21332  -0.1146  0.0044  1.0000  -2.4719   0.0000   0.0000   0.0000   0.3569
  16.300   0.9380   0.21681   0.21541  -0.1155  0.0043  1.0000  -2.4521   0.0000   0.0000   0.0000   0.3575
  16.400   0.9400   0.21889   0.21749  -0.1165  0.0042  1.0000  -2.4337   0.0000   0.0000   0.0000   0.3581
  16.500   0.9420   0.22098   0.21958  -0.1174  0.0041  1.0000  -2.4168   0.0000   0.0000   0.0000   0.3587
  16.600   0.9440   0.22306   0.22166  -0.1183  0.0040  1.0000  -2.4012   0.0000   0.0000   0.0000   0.3593
  16.700   0.9460   0.22515   0.22375  -0.1192  0.0040  1.0000  -2.3868   0.0000   0.0000   0.0000   0.3598
  16.800   0.9480   0.22723   0.22583  -0.1201  0.0039  1.0000  -2.3736   0.0000   0.0000   0.0000   0.3604
  16.900   0.9500   0.22931   0.22791  -0.1210  0.0038  1.0000  -2.3615   0.0000   0.0000   0.0000   0.3609
  17.000   0.9520   0.23139   0.22999  -0.1219  0.0037  1.0000  -2.3504   0.0000   0.0000   0.0000   0.3615
  17.100   0.9540   0.23348   0.23208  -0.1228  0.0037  1.0000  -2.3403   0.0000   0.0000   0.0000   0.3620
  17.200   0.9560   0.23556   0.23416  -0.1237  0.0036  1.0000  -2.3311   0.0000   0.0000   0.0000   0.3625
  17.300   0.9581   0.23765   0.23625  -0.1246  0.0036  1.0000  -2.3227   0.0000   0.0000   0.0000   0.3630
  17.400   0.9601   0.23974   0.23833  -0.1254  0.0035  1.0000  -2.3152   0.0000   0.0000   0.0000   0.3635
  17.500   0.9621   0.24182   0.24042  -0.1263  0.0034  1.0000  -2.3085   0.0000   0.0000   0.0000   0.3640
  17.600   0.9641   0.24392   0.24251  -0.1272  0.0034  1.0000  -2.3025   0.0000   0.0000   0.0000   0.3645
  17.700   0.9661   0.24601   0.24461  -0.1280  0.0033  1.0000  -2.2973   0.0000   0.0000   0.0000   0.3650
  17.800   0.9681   0.24811   0.24671  -0.1289  0.0033  1.0000  -2.2928   0.0000   0.0000   0.0000   0.3654
  17.900   0.9701   0.25021   0.24881  -0.1298  0.0032  1.0000  -2.2890   0.0000   0.0000   0.0000   0.3659
  18.000   0.9721   0.25231   0.25091  -0.1306  0.0032  1.0000  -2.2859   0.0000   0.0000   0.0000   0.3663
  18.100   0.9741   0.25441   0.25302  -0.1315  0.0031  1.0000  -2.2834   0.0000   0.0000   0.0000   0.3668
  18.200   0.9761   0.25652   0.25512  -0.1323  0.0031  1.0000  -2.2817   0.0000   0.0000   0.0000   0.3672
  18.300   0.9780   0.25863   0.25723  -0.1331  0.0031  1.0000  -2.2807   0.0000   0.0000   0.0000   0.3677
  18.400   0.9800   0.26074   0.25935  -0.1340  0.0030  1.0000  -2.2804   0.0000   0.0000   0.0000   0.3681
  18.500   0.9819   0.26286   0.26147  -0.1348  0.0030  1.0000  -2.2806   0.0000   0.0000   0.0000   0.3685
  18.600   0.9838   0.26498   0.26359  -0.1356  0.0029  1.0000  -2.2816   0.0000   0.0000   0.0000   0.3689
  18.700   0.9857   0.26710   0.26571  -0.1364  0.0029  1.0000  -2.2831   0.0000   0.0000   0.0000   0.3694
  18.800   0.9875   0.26923   0.26783  -0.1372  0.0029  1.0000  -2.2853   0.0000   0.0000   0.0000   0.3698
  18.900   0.9894   0.27135   0.26996  -0.1381  0.0028  1.0000  -2.2882   0.0000   0.0000   0.0000   0.3702
  19.000   0.9912   0.27348   0.27210  -0.1389  0.0028  1.0000  -2.2916   0.0000   0.0000   0.0000   0.3706
  19.100   0.9930   0.27562   0.27423  -0.1397  0.0028  1.0000  -2.2957   0.0000   0.0000   0.0000   0.3710
  19.200   0.9948   0.27775   0.27637  -0.1405  0.0027  1.0000  -2.3005   0.0000   0.0000   0.0000   0.3714
  19.300   0.9965   0.27989   0.27851  -0.1413  0.0027  1.0000  -2.3059   0.0000   0.0000   0.0000   0.3717
  19.400   0.9982   0.28203   0.28065  -0.1420  0.0027  1.0000  -2.3119   0.0000   0.0000   0.0000   0.3721
  19.500   0.9999   0.28417   0.28280  -0.1428  0.0027  1.0000  -2.3185   0.0000   0.0000   0.0000   0.3725
  19.600   1.0016   0.28632   0.28494  -0.1436  0.0026  1.0000  -2.3257   0.0000   0.0000   0.0000   0.3729
  19.700   1.0032   0.28847   0.28709  -0.1444  0.0026  1.0000  -2.3336   0.0000   0.0000   0.0000   0.3733
  19.800   1.0047   0.29061   0.28924  -0.1451  0.0026  1.0000  -2.3420   0.0000   0.0000   0.0000   0.3736
  19.900   1.0063   0.29277   0.29140  -0.1459  0.0025  1.0000  -2.3510   0.0000   0.0000   0.0000   0.3740
  20.000   1.0077   0.29492   0.29355  -0.1466  0.0025  1.0000  -2.3606   0.0000   0.0000   0.0000   0.3744
  20.100   1.0091   0.29707   0.29571  -0.1473  0.0025  1.0000  -2.3706   0.0000   0.0000   0.0000   0.3747
  20.200   1.0105   0.29923   0.29787  -0.1481  0.0025  1.0000  -2.3811   0.0000   0.0000   0.0000   0.3751
  20.300   1.0118   0.30139   0.30003  -0.1488  0.0025  1.0000  -2.3919   0.0000   0.0000   0.0000   0.3754
  20.400   1.0131   0.30356   0.30220  -0.1495  0.0024  1.0000  -2.4030   0.0000   0.0000   0.0000   0.3758
  20.500   1.0142   0.30572   0.30437  -0.1502  0.0024  1.0000  -2.4143   0.0000   0.0000   0.0000   0.3761
  20.600   1.0153   0.30790   0.30655  -0.1509  0.0024  1.0000  -2.4255   0.0000   0.0000   0.0000   0.3765
  20.700   1.0163   0.31008   0.30873  -0.1515  0.0024  1.0000  -2.4363   0.0000   0.0000   0.0000   0.3768
  20.800   1.0172   0.31232   0.31102  -0.1522  0.0023  1.0000  -2.4409   0.0000   0.0000   0.0000   0.3772
  20.900   1.0179   0.31463   0.31334  -0.1529  0.0023  1.0000  -2.4389   0.0000   0.0000   0.0000   0.3776
  21.000   1.0184   0.31697   0.31568  -0.1536  0.0023  1.0000  -2.4343   0.0000   0.0000   0.0000   0.3780
  21.100   1.0187   0.31935   0.31807  -0.1542  0.0023  1.0000  -2.4239   0.0000   0.0000   0.0000   0.3784
  21.200   1.0187   0.32181   0.32053  -0.1549  0.0022  1.0000  -2.4057   0.0000   0.0000   0.0000   0.3789
  21.300   1.0184   0.32438   0.32310  -0.1555  0.0022  1.0000  -2.3761   0.0000   0.0000   0.0000   0.3794
  21.400   1.0173   0.32717   0.32590  -0.1561  0.0022  1.0000  -2.3217   0.0000   0.0000   0.0000   0.3800


