xflr5 v6.61

 Calculated polar for: EPPLER 654 AIRFOIL

 1 1 Reynolds number fixed          Mach number fixed         

 xtrf =   1.000 (top)        1.000 (bottom)
 Mach =   0.000     Re =     0.300 e 6     Ncrit =   9.000

  alpha     CL        CD       CDp       Cm    Top Xtr Bot Xtr   Cpmin    Chinge    XCp    
 ------- -------- --------- --------- -------- ------- ------- -------- --------- ---------
 -10.000  -0.1230   0.05800   0.05413  -0.1348  0.7710  0.0240  -3.2871   0.0000   0.0000   0.0000  -0.9228
  -9.900  -0.1362   0.05486   0.05094  -0.1372  0.7700  0.0237  -3.3978   0.0000   0.0000   0.0000  -0.8259
  -9.800  -0.1476   0.05238   0.04841  -0.1389  0.7690  0.0235  -3.4807   0.0000   0.0000   0.0000  -0.7538
  -9.700  -0.1578   0.05029   0.04627  -0.1401  0.7679  0.0234  -3.5476   0.0000   0.0000   0.0000  -0.6955
  -9.600  -0.1672   0.04846   0.04440  -0.1409  0.7667  0.0233  -3.6043   0.0000   0.0000   0.0000  -0.6462
  -9.500  -0.1757   0.04682   0.04270  -0.1413  0.7655  0.0232  -3.6534   0.0000   0.0000   0.0000  -0.6045
  -9.400  -0.1836   0.04533   0.04115  -0.1415  0.7643  0.0231  -3.6967   0.0000   0.0000   0.0000  -0.5676
  -9.300  -0.1911   0.04396   0.03972  -0.1414  0.7630  0.0230  -3.7350   0.0000   0.0000   0.0000  -0.5343
  -9.200  -0.1984   0.04275   0.03845  -0.1409  0.7617  0.0229  -3.7688   0.0000   0.0000   0.0000  -0.5029
  -9.100  -0.2059   0.04180   0.03744  -0.1401  0.7605  0.0228  -3.7986   0.0000   0.0000   0.0000  -0.4708
  -9.000  -0.2113   0.04071   0.03628  -0.1396  0.7592  0.0228  -3.8262   0.0000   0.0000   0.0000  -0.4496
  -8.900  -0.2147   0.03956   0.03504  -0.1392  0.7581  0.0227  -3.8498   0.0000   0.0000   0.0000  -0.4356
  -8.800  -0.2171   0.03842   0.03381  -0.1387  0.7569  0.0227  -3.8693   0.0000   0.0000   0.0000  -0.4255
  -8.700  -0.2183   0.03730   0.03259  -0.1382  0.7558  0.0227  -3.8847   0.0000   0.0000   0.0000  -0.4190
  -8.600  -0.2185   0.03620   0.03140  -0.1377  0.7546  0.0226  -3.8960   0.0000   0.0000   0.0000  -0.4157
  -8.500  -0.2178   0.03513   0.03022  -0.1372  0.7536  0.0226  -3.9033   0.0000   0.0000   0.0000  -0.4154
  -8.400  -0.2162   0.03409   0.02907  -0.1368  0.7525  0.0227  -3.9070   0.0000   0.0000   0.0000  -0.4177
  -8.300  -0.2138   0.03307   0.02794  -0.1364  0.7514  0.0227  -3.9073   0.0000   0.0000   0.0000  -0.4226
  -8.200  -0.2108   0.03207   0.02683  -0.1359  0.7504  0.0227  -3.9044   0.0000   0.0000   0.0000  -0.4301
  -8.100  -0.2070   0.03111   0.02575  -0.1355  0.7493  0.0227  -3.8987   0.0000   0.0000   0.0000  -0.4400
  -8.000  -0.2026   0.03016   0.02470  -0.1351  0.7483  0.0228  -3.8901   0.0000   0.0000   0.0000  -0.4525
  -7.900  -0.1977   0.02925   0.02367  -0.1347  0.7472  0.0228  -3.8790   0.0000   0.0000   0.0000  -0.4677
  -7.800  -0.1922   0.02837   0.02267  -0.1344  0.7462  0.0229  -3.8653   0.0000   0.0000   0.0000  -0.4858
  -7.700  -0.1862   0.02753   0.02172  -0.1340  0.7451  0.0229  -3.8483   0.0000   0.0000   0.0000  -0.5072
  -7.600  -0.1796   0.02674   0.02083  -0.1337  0.7441  0.0230  -3.8272   0.0000   0.0000   0.0000  -0.5326
  -7.500  -0.1726   0.02600   0.01999  -0.1334  0.7429  0.0231  -3.8022   0.0000   0.0000   0.0000  -0.5621
  -7.400  -0.1652   0.02532   0.01921  -0.1331  0.7418  0.0233  -3.7735   0.0000   0.0000   0.0000  -0.5963
  -7.300  -0.1575   0.02470   0.01849  -0.1329  0.7406  0.0235  -3.7413   0.0000   0.0000   0.0000  -0.6356
  -7.200  -0.1495   0.02414   0.01784  -0.1326  0.7393  0.0237  -3.7059   0.0000   0.0000   0.0000  -0.6805
  -7.100  -0.1413   0.02365   0.01727  -0.1324  0.7379  0.0239  -3.6670   0.0000   0.0000   0.0000  -0.7316
  -7.000  -0.1332   0.02330   0.01685  -0.1321  0.7363  0.0242  -3.6209   0.0000   0.0000   0.0000  -0.7894
  -6.900  -0.1251   0.02309   0.01660  -0.1318  0.7346  0.0245  -3.5689   0.0000   0.0000   0.0000  -0.8533
  -6.800  -0.1168   0.02292   0.01639  -0.1316  0.7333  0.0249  -3.5118   0.0000   0.0000   0.0000  -0.9287
  -6.700  -0.1073   0.02264   0.01607  -0.1314  0.7330  0.0252  -3.4531   0.0000   0.0000   0.0000  -1.0309
  -6.600  -0.0977   0.02240   0.01580  -0.1313  0.7326  0.0256  -3.3928   0.0000   0.0000   0.0000  -1.1552
  -6.500  -0.0879   0.02220   0.01556  -0.1312  0.7322  0.0259  -3.3304   0.0000   0.0000   0.0000  -1.3089
  -6.400  -0.0780   0.02203   0.01535  -0.1311  0.7318  0.0261  -3.2666   0.0000   0.0000   0.0000  -1.5034
  -6.300  -0.0686   0.02168   0.01498  -0.1309  0.7314  0.0264  -3.2162   0.0000   0.0000   0.0000  -1.7400
  -6.200  -0.0625   0.02029   0.01344  -0.1303  0.7309  0.0274  -3.2499   0.0000   0.0000   0.0000  -1.9240
  -6.100  -0.0556   0.01934   0.01231  -0.1297  0.7303  0.0287  -3.2582   0.0000   0.0000   0.0000  -2.1803
  -6.000  -0.0480   0.01869   0.01161  -0.1293  0.7296  0.0303  -3.2420   0.0000   0.0000   0.0000  -2.5564
  -5.900  -0.0395   0.01827   0.01117  -0.1290  0.7289  0.0322  -3.2016   0.0000   0.0000   0.0000  -3.1508
  -5.800  -0.0302   0.01801   0.01092  -0.1289  0.7281  0.0343  -3.1413   0.0000   0.0000   0.0000  -4.1960
  -5.700  -0.0204   0.01782   0.01074  -0.1288  0.7273  0.0364  -3.0756   0.0000   0.0000   0.0000  -6.2995
  -5.600  -0.0108   0.01763   0.01054  -0.1287  0.7265  0.0386  -3.0136   0.0000   0.0000   0.0000  -12.1848
  -5.500  -0.0010   0.01744   0.01034  -0.1286  0.7257  0.0410  -2.9547   0.0000   0.0000   0.0000  -126.8908
  -5.400   0.0088   0.01728   0.01015  -0.1285  0.7249  0.0433  -2.8943   0.0000   0.0000   0.0000  15.4439
  -5.300   0.0189   0.01718   0.01004  -0.1284  0.7242  0.0452  -2.8265   0.0000   0.0000   0.0000   7.2928
  -5.200   0.0294   0.01716   0.01000  -0.1284  0.7235  0.0464  -2.7506   0.0000   0.0000   0.0000   4.7796
  -5.100   0.0370   0.01650   0.00932  -0.1281  0.7227  0.0562  -2.7304   0.0000   0.0000   0.0000   3.8337
  -5.000   0.0468   0.01633   0.00921  -0.1281  0.7219  0.0632  -2.6609   0.0000   0.0000   0.0000   3.0797
  -4.900   0.0572   0.01626   0.00913  -0.1281  0.7212  0.0692  -2.5864   0.0000   0.0000   0.0000   2.5655
  -4.800   0.0671   0.01603   0.00888  -0.1281  0.7204  0.0815  -2.5262   0.0000   0.0000   0.0000   2.2224
  -4.700   0.0770   0.01579   0.00876  -0.1281  0.7196  0.1009  -2.4593   0.0000   0.0000   0.0000   1.9689
  -4.600   0.0874   0.01571   0.00868  -0.1282  0.7188  0.1115  -2.3834   0.0000   0.0000   0.0000   1.7629
  -4.500   0.0973   0.01548   0.00859  -0.1283  0.7180  0.1309  -2.3100   0.0000   0.0000   0.0000   1.6094
  -4.400   0.1075   0.01528   0.00851  -0.1285  0.7172  0.1563  -2.2356   0.0000   0.0000   0.0000   1.4814
  -4.300   0.1179   0.01514   0.00845  -0.1286  0.7164  0.1798  -2.1597   0.0000   0.0000   0.0000   1.3729
  -4.200   0.1282   0.01493   0.00839  -0.1288  0.7156  0.2097  -2.0847   0.0000   0.0000   0.0000   1.2835
  -4.100   0.1388   0.01475   0.00833  -0.1290  0.7148  0.2397  -2.0093   0.0000   0.0000   0.0000   1.2058
  -4.000   0.1495   0.01462   0.00828  -0.1292  0.7140  0.2670  -1.9335   0.0000   0.0000   0.0000   1.1378
  -3.900   0.1603   0.01444   0.00823  -0.1295  0.7132  0.3005  -1.8583   0.0000   0.0000   0.0000   1.0793
  -3.800   0.1712   0.01427   0.00818  -0.1298  0.7125  0.3338  -1.7832   0.0000   0.0000   0.0000   1.0275
  -3.700   0.1822   0.01414   0.00815  -0.1300  0.7117  0.3663  -1.7083   0.0000   0.0000   0.0000   0.9813
  -3.600   0.1932   0.01398   0.00812  -0.1303  0.7109  0.4045  -1.6340   0.0000   0.0000   0.0000   0.9405
  -3.500   0.2042   0.01381   0.00812  -0.1305  0.7101  0.4458  -1.5605   0.0000   0.0000   0.0000   0.9040
  -3.400   0.2151   0.01367   0.00815  -0.1306  0.7093  0.4901  -1.4878   0.0000   0.0000   0.0000   0.8712
  -3.300   0.2257   0.01359   0.00822  -0.1306  0.7085  0.5321  -1.4163   0.0000   0.0000   0.0000   0.8414
  -3.200   0.2365   0.01359   0.00831  -0.1306  0.7077  0.5678  -1.3452   0.0000   0.0000   0.0000   0.8138
  -3.100   0.2466   0.01363   0.00846  -0.1303  0.7069  0.5941  -1.2766   0.0000   0.0000   0.0000   0.7890
  -3.000   0.2578   0.01369   0.00853  -0.1303  0.7061  0.6133  -1.2092   0.0000   0.0000   0.0000   0.7653
  -2.900   0.2692   0.01375   0.00856  -0.1303  0.7054  0.6246  -1.1425   0.0000   0.0000   0.0000   0.7433
  -2.800   0.2793   0.01383   0.00870  -0.1300  0.7046  0.6368  -1.0796   0.0000   0.0000   0.0000   0.7239
  -2.700   0.2898   0.01394   0.00882  -0.1297  0.7038  0.6487  -1.0165   0.0000   0.0000   0.0000   0.7055
  -2.600   0.3009   0.01404   0.00886  -0.1296  0.7030  0.6595  -0.9527   0.0000   0.0000   0.0000   0.6881
  -2.500   0.3125   0.01415   0.00892  -0.1297  0.7022  0.6678  -0.8888   0.0000   0.0000   0.0000   0.6718
  -2.400   0.3242   0.01426   0.00898  -0.1298  0.7014  0.6729  -0.8256   0.0000   0.0000   0.0000   0.6565
  -2.300   0.3344   0.01431   0.00905  -0.1295  0.7006  0.6797  -0.8237   0.0000   0.0000   0.0000   0.6431
  -2.200   0.3443   0.01442   0.00917  -0.1291  0.6998  0.6858  -0.8293   0.0000   0.0000   0.0000   0.6303
  -2.100   0.3544   0.01455   0.00931  -0.1288  0.6989  0.6918  -0.8349   0.0000   0.0000   0.0000   0.6181
  -2.000   0.3646   0.01470   0.00944  -0.1284  0.6979  0.6977  -0.8407   0.0000   0.0000   0.0000   0.6066
  -1.900   0.3751   0.01484   0.00957  -0.1282  0.6968  0.7032  -0.8465   0.0000   0.0000   0.0000   0.5957
  -1.800   0.3856   0.01500   0.00971  -0.1280  0.6955  0.7081  -0.8523   0.0000   0.0000   0.0000   0.5855
  -1.700   0.3959   0.01521   0.00989  -0.1278  0.6940  0.7126  -0.8577   0.0000   0.0000   0.0000   0.5761
  -1.600   0.4051   0.01557   0.01022  -0.1275  0.6919  0.7165  -0.8621   0.0000   0.0000   0.0000   0.5678
  -1.500   0.4096   0.01641   0.01108  -0.1267  0.6885  0.7196  -0.8621   0.0000   0.0000   0.0000   0.5620
  -1.400   0.4206   0.01651   0.01115  -0.1266  0.6882  0.7222  -0.8680   0.0000   0.0000   0.0000   0.5535
  -1.300   0.4310   0.01650   0.01114  -0.1265  0.6878  0.7264  -0.8736   0.0000   0.0000   0.0000   0.5457
  -1.200   0.4405   0.01651   0.01116  -0.1262  0.6874  0.7308  -0.8787   0.0000   0.0000   0.0000   0.5383
  -1.100   0.4499   0.01656   0.01123  -0.1258  0.6870  0.7342  -0.8838   0.0000   0.0000   0.0000   0.5311
  -1.000   0.4592   0.01664   0.01131  -0.1254  0.6865  0.7374  -0.8887   0.0000   0.0000   0.0000   0.5242
  -0.900   0.4685   0.01673   0.01141  -0.1249  0.6860  0.7406  -0.8936   0.0000   0.0000   0.0000   0.5177
  -0.800   0.4776   0.01683   0.01151  -0.1245  0.6855  0.7440  -0.8993   0.0000   0.0000   0.0000   0.5114
  -0.700   0.4869   0.01693   0.01162  -0.1241  0.6849  0.7474  -0.9051   0.0000   0.0000   0.0000   0.5053
  -0.600   0.4964   0.01703   0.01172  -0.1237  0.6843  0.7508  -0.9109   0.0000   0.0000   0.0000   0.4995
  -0.500   0.5060   0.01713   0.01182  -0.1234  0.6836  0.7541  -0.9168   0.0000   0.0000   0.0000   0.4940
  -0.400   0.5157   0.01724   0.01192  -0.1232  0.6829  0.7574  -0.9228   0.0000   0.0000   0.0000   0.4887
  -0.300   0.5256   0.01734   0.01202  -0.1230  0.6822  0.7606  -0.9288   0.0000   0.0000   0.0000   0.4836
  -0.200   0.5357   0.01744   0.01209  -0.1229  0.6813  0.7634  -0.9349   0.0000   0.0000   0.0000   0.4788
  -0.100   0.5460   0.01753   0.01217  -0.1228  0.6804  0.7661  -0.9412   0.0000   0.0000   0.0000   0.4740
   0.000   0.5563   0.01761   0.01225  -0.1226  0.6793  0.7684  -0.9476   0.0000   0.0000   0.0000   0.4694
   0.100   0.5667   0.01770   0.01233  -0.1226  0.6782  0.7704  -0.9541   0.0000   0.0000   0.0000   0.4650
   0.200   0.5773   0.01778   0.01240  -0.1225  0.6771  0.7718  -0.9607   0.0000   0.0000   0.0000   0.4607
   0.300   0.5879   0.01771   0.01231  -0.1225  0.6759  0.7752  -0.9672   0.0000   0.0000   0.0000   0.4568
   0.400   0.5972   0.01766   0.01227  -0.1222  0.6747  0.7787  -0.9739   0.0000   0.0000   0.0000   0.4529
   0.500   0.6060   0.01769   0.01231  -0.1218  0.6736  0.7814  -0.9803   0.0000   0.0000   0.0000   0.4490
   0.600   0.6147   0.01775   0.01238  -0.1214  0.6725  0.7838  -0.9866   0.0000   0.0000   0.0000   0.4453
   0.700   0.6235   0.01783   0.01246  -0.1210  0.6715  0.7861  -0.9930   0.0000   0.0000   0.0000   0.4417
   0.800   0.6323   0.01791   0.01255  -0.1205  0.6704  0.7884  -0.9993   0.0000   0.0000   0.0000   0.4381
   0.900   0.6412   0.01798   0.01263  -0.1201  0.6693  0.7907  -1.0058   0.0000   0.0000   0.0000   0.4347
   1.000   0.6505   0.01805   0.01269  -0.1198  0.6683  0.7930  -1.0125   0.0000   0.0000   0.0000   0.4313
   1.100   0.6603   0.01809   0.01274  -0.1196  0.6672  0.7952  -1.0195   0.0000   0.0000   0.0000   0.4281
   1.200   0.6705   0.01811   0.01275  -0.1195  0.6660  0.7974  -1.0269   0.0000   0.0000   0.0000   0.4249
   1.300   0.6812   0.01812   0.01275  -0.1194  0.6649  0.7997  -1.0346   0.0000   0.0000   0.0000   0.4219
   1.400   0.6921   0.01810   0.01273  -0.1193  0.6637  0.8019  -1.0428   0.0000   0.0000   0.0000   0.4189
   1.500   0.7035   0.01808   0.01269  -0.1194  0.6626  0.8041  -1.0520   0.0000   0.0000   0.0000   0.4160
   1.600   0.7151   0.01805   0.01265  -0.1195  0.6615  0.8062  -1.0614   0.0000   0.0000   0.0000   0.4132
   1.700   0.7270   0.01802   0.01261  -0.1196  0.6605  0.8081  -1.0709   0.0000   0.0000   0.0000   0.4105
   1.800   0.7390   0.01800   0.01258  -0.1198  0.6595  0.8098  -1.0805   0.0000   0.0000   0.0000   0.4080
   1.900   0.7509   0.01800   0.01257  -0.1201  0.6585  0.8114  -1.0900   0.0000   0.0000   0.0000   0.4056
   2.000   0.7628   0.01801   0.01257  -0.1203  0.6576  0.8129  -1.0994   0.0000   0.0000   0.0000   0.4032
   2.100   0.7748   0.01802   0.01257  -0.1205  0.6567  0.8144  -1.1089   0.0000   0.0000   0.0000   0.4009
   2.200   0.7870   0.01802   0.01255  -0.1208  0.6558  0.8159  -1.1189   0.0000   0.0000   0.0000   0.3986
   2.300   0.7996   0.01800   0.01253  -0.1211  0.6548  0.8171  -1.1300   0.0000   0.0000   0.0000   0.3965
   2.400   0.8123   0.01798   0.01250  -0.1214  0.6538  0.8182  -1.1413   0.0000   0.0000   0.0000   0.3943
   2.500   0.8252   0.01797   0.01246  -0.1217  0.6527  0.8191  -1.1528   0.0000   0.0000   0.0000   0.3923
   2.600   0.8383   0.01793   0.01241  -0.1222  0.6515  0.8201  -1.1643   0.0000   0.0000   0.0000   0.3904
   2.700   0.8509   0.01786   0.01232  -0.1226  0.6501  0.8222  -1.1755   0.0000   0.0000   0.0000   0.3886
   2.800   0.8623   0.01791   0.01236  -0.1228  0.6484  0.8240  -1.1857   0.0000   0.0000   0.0000   0.3868
   2.900   0.8706   0.01825   0.01272  -0.1226  0.6459  0.8258  -1.1934   0.0000   0.0000   0.0000   0.3850
   3.000   0.8736   0.01897   0.01347  -0.1216  0.6428  0.8276  -1.1970   0.0000   0.0000   0.0000   0.3832
   3.100   0.8838   0.01890   0.01341  -0.1215  0.6423  0.8291  -1.2076   0.0000   0.0000   0.0000   0.3814
   3.200   0.8937   0.01883   0.01336  -0.1213  0.6417  0.8308  -1.2183   0.0000   0.0000   0.0000   0.3795
   3.300   0.9034   0.01876   0.01331  -0.1211  0.6410  0.8327  -1.2289   0.0000   0.0000   0.0000   0.3776
   3.400   0.9130   0.01870   0.01326  -0.1208  0.6401  0.8346  -1.2395   0.0000   0.0000   0.0000   0.3758
   3.500   0.9226   0.01864   0.01322  -0.1206  0.6391  0.8364  -1.2500   0.0000   0.0000   0.0000   0.3740
   3.600   0.9322   0.01860   0.01320  -0.1203  0.6380  0.8383  -1.2606   0.0000   0.0000   0.0000   0.3723
   3.700   0.9418   0.01857   0.01318  -0.1202  0.6368  0.8400  -1.2711   0.0000   0.0000   0.0000   0.3706
   3.800   0.9515   0.01857   0.01320  -0.1200  0.6355  0.8416  -1.2816   0.0000   0.0000   0.0000   0.3690
   3.900   0.9608   0.01859   0.01324  -0.1198  0.6342  0.8431  -1.2925   0.0000   0.0000   0.0000   0.3674
   4.000   0.9703   0.01861   0.01328  -0.1197  0.6328  0.8445  -1.3043   0.0000   0.0000   0.0000   0.3659
   4.100   0.9800   0.01862   0.01330  -0.1195  0.6313  0.8460  -1.3163   0.0000   0.0000   0.0000   0.3644
   4.200   0.9902   0.01860   0.01329  -0.1195  0.6297  0.8474  -1.3288   0.0000   0.0000   0.0000   0.3629
   4.300   1.0008   0.01855   0.01326  -0.1195  0.6280  0.8488  -1.3417   0.0000   0.0000   0.0000   0.3615
   4.400   1.0119   0.01849   0.01321  -0.1196  0.6264  0.8502  -1.3549   0.0000   0.0000   0.0000   0.3601
   4.500   1.0234   0.01842   0.01314  -0.1197  0.6248  0.8516  -1.3685   0.0000   0.0000   0.0000   0.3588
   4.600   1.0350   0.01834   0.01307  -0.1198  0.6232  0.8529  -1.3824   0.0000   0.0000   0.0000   0.3575
   4.700   1.0469   0.01827   0.01301  -0.1200  0.6217  0.8542  -1.3976   0.0000   0.0000   0.0000   0.3562
   4.800   1.0588   0.01821   0.01297  -0.1203  0.6203  0.8554  -1.4135   0.0000   0.0000   0.0000   0.3550
   4.900   1.0711   0.01813   0.01289  -0.1205  0.6189  0.8566  -1.4297   0.0000   0.0000   0.0000   0.3538
   5.000   1.0839   0.01802   0.01278  -0.1209  0.6174  0.8577  -1.4465   0.0000   0.0000   0.0000   0.3526
   5.100   1.0973   0.01789   0.01265  -0.1213  0.6160  0.8588  -1.4639   0.0000   0.0000   0.0000   0.3515
   5.200   1.1110   0.01773   0.01249  -0.1218  0.6146  0.8598  -1.4816   0.0000   0.0000   0.0000   0.3504
   5.300   1.1250   0.01756   0.01232  -0.1223  0.6131  0.8607  -1.5016   0.0000   0.0000   0.0000   0.3494
   5.400   1.1388   0.01741   0.01216  -0.1227  0.6116  0.8617  -1.5218   0.0000   0.0000   0.0000   0.3483
   5.500   1.1523   0.01728   0.01203  -0.1232  0.6102  0.8627  -1.5418   0.0000   0.0000   0.0000   0.3473
   5.700   1.1781   0.01703   0.01178  -0.1239  0.6073  0.8664  -1.5808   0.0000   0.0000   0.0000   0.3452
   5.800   1.1903   0.01691   0.01166  -0.1241  0.6055  0.8686  -1.5999   0.0000   0.0000   0.0000   0.3442
   5.900   1.2029   0.01683   0.01158  -0.1244  0.6034  0.8706  -1.6192   0.0000   0.0000   0.0000   0.3432
   6.000   1.2150   0.01691   0.01164  -0.1246  0.6004  0.8723  -1.6380   0.0000   0.0000   0.0000   0.3422
   6.100   1.2243   0.01710   0.01185  -0.1245  0.5975  0.8740  -1.6545   0.0000   0.0000   0.0000   0.3412
   6.200   1.2327   0.01701   0.01180  -0.1240  0.5965  0.8759  -1.6725   0.0000   0.0000   0.0000   0.3399
   6.300   1.2408   0.01694   0.01179  -0.1235  0.5952  0.8779  -1.6902   0.0000   0.0000   0.0000   0.3387
   6.400   1.2487   0.01689   0.01178  -0.1230  0.5938  0.8798  -1.7078   0.0000   0.0000   0.0000   0.3375
   6.500   1.2566   0.01685   0.01177  -0.1225  0.5921  0.8819  -1.7255   0.0000   0.0000   0.0000   0.3364
   6.600   1.2648   0.01680   0.01176  -0.1221  0.5900  0.8839  -1.7434   0.0000   0.0000   0.0000   0.3352
   6.700   1.2733   0.01675   0.01173  -0.1216  0.5878  0.8860  -1.7617   0.0000   0.0000   0.0000   0.3341
   6.800   1.2822   0.01667   0.01168  -0.1213  0.5853  0.8880  -1.7807   0.0000   0.0000   0.0000   0.3330
   6.900   1.2917   0.01659   0.01162  -0.1210  0.5827  0.8900  -1.8021   0.0000   0.0000   0.0000   0.3320
   7.000   1.3016   0.01650   0.01155  -0.1209  0.5800  0.8920  -1.8255   0.0000   0.0000   0.0000   0.3309
   7.100   1.3119   0.01641   0.01148  -0.1208  0.5775  0.8939  -1.8493   0.0000   0.0000   0.0000   0.3300
   7.200   1.3223   0.01633   0.01141  -0.1207  0.5750  0.8958  -1.8734   0.0000   0.0000   0.0000   0.3290
   7.300   1.3329   0.01624   0.01134  -0.1206  0.5726  0.8976  -1.8978   0.0000   0.0000   0.0000   0.3281
   7.400   1.3437   0.01613   0.01124  -0.1206  0.5700  0.8993  -1.9226   0.0000   0.0000   0.0000   0.3272
   7.500   1.3556   0.01600   0.01114  -0.1208  0.5672  0.9009  -1.9490   0.0000   0.0000   0.0000   0.3264
   7.600   1.3681   0.01585   0.01098  -0.1210  0.5642  0.9023  -1.9760   0.0000   0.0000   0.0000   0.3256
   7.800   1.3931   0.01560   0.01067  -0.1215  0.5564  0.9063  -2.0383   0.0000   0.0000   0.0000   0.3240
   7.900   1.4036   0.01560   0.01067  -0.1214  0.5522  0.9089  -2.0675   0.0000   0.0000   0.0000   0.3232
   8.000   1.4059   0.01563   0.01077  -0.1199  0.5501  0.9127  -2.0853   0.0000   0.0000   0.0000   0.3218
   8.100   1.4073   0.01568   0.01087  -0.1183  0.5475  0.9168  -2.1018   0.0000   0.0000   0.0000   0.3203
   8.200   1.4096   0.01574   0.01098  -0.1168  0.5444  0.9209  -2.1197   0.0000   0.0000   0.0000   0.3190
   8.300   1.4129   0.01582   0.01110  -0.1155  0.5408  0.9252  -2.1390   0.0000   0.0000   0.0000   0.3177
   8.400   1.4176   0.01587   0.01118  -0.1145  0.5365  0.9294  -2.1604   0.0000   0.0000   0.0000   0.3166
   8.500   1.4237   0.01590   0.01121  -0.1137  0.5318  0.9335  -2.1839   0.0000   0.0000   0.0000   0.3155
   8.600   1.4307   0.01589   0.01120  -0.1131  0.5267  0.9373  -2.2089   0.0000   0.0000   0.0000   0.3145
   8.700   1.4370   0.01584   0.01113  -0.1123  0.5214  0.9435  -2.2360   0.0000   0.0000   0.0000   0.3134
   8.800   1.4431   0.01581   0.01107  -0.1114  0.5157  0.9511  -2.2650   0.0000   0.0000   0.0000   0.3123
   8.900   1.4503   0.01583   0.01104  -0.1108  0.5091  0.9604  -2.2957   0.0000   0.0000   0.0000   0.3113
   9.100   1.4606   0.01625   0.01155  -0.1096  0.5002  1.0000  -2.3492   0.0000   0.0000   0.0000   0.3097
   9.200   1.4664   0.01651   0.01183  -0.1092  0.4947  1.0000  -2.3774   0.0000   0.0000   0.0000   0.3089
   9.300   1.4722   0.01676   0.01209  -0.1088  0.4882  1.0000  -2.4056   0.0000   0.0000   0.0000   0.3081
   9.400   1.4778   0.01701   0.01231  -0.1083  0.4809  1.0000  -2.4338   0.0000   0.0000   0.0000   0.3073
   9.500   1.4830   0.01728   0.01250  -0.1077  0.4730  1.0000  -2.4614   0.0000   0.0000   0.0000   0.3065
   9.600   1.4864   0.01763   0.01278  -0.1069  0.4641  1.0000  -2.4860   0.0000   0.0000   0.0000   0.3056
   9.700   1.4899   0.01803   0.01320  -0.1062  0.4580  1.0000  -2.5163   0.0000   0.0000   0.0000   0.3048
   9.800   1.4931   0.01846   0.01364  -0.1056  0.4514  1.0000  -2.5461   0.0000   0.0000   0.0000   0.3040
   9.900   1.4961   0.01890   0.01406  -0.1048  0.4435  1.0000  -2.5756   0.0000   0.0000   0.0000   0.3031
  10.000   1.4977   0.01940   0.01450  -0.1039  0.4352  1.0000  -2.6024   0.0000   0.0000   0.0000   0.3022
  10.100   1.4979   0.01998   0.01500  -0.1028  0.4268  1.0000  -2.6262   0.0000   0.0000   0.0000   0.3013
  10.200   1.4977   0.02059   0.01555  -0.1017  0.4178  1.0000  -2.6488   0.0000   0.0000   0.0000   0.3004
  10.300   1.5011   0.02107   0.01605  -0.1011  0.4126  1.0000  -2.6794   0.0000   0.0000   0.0000   0.2996
  10.400   1.5034   0.02162   0.01662  -0.1004  0.4069  1.0000  -2.7074   0.0000   0.0000   0.0000   0.2988
  10.500   1.5050   0.02221   0.01720  -0.0997  0.4002  1.0000  -2.7343   0.0000   0.0000   0.0000   0.2981
  10.600   1.5061   0.02283   0.01778  -0.0988  0.3929  1.0000  -2.7600   0.0000   0.0000   0.0000   0.2972
  10.700   1.5058   0.02352   0.01841  -0.0978  0.3853  1.0000  -2.7829   0.0000   0.0000   0.0000   0.2964
  10.800   1.5038   0.02433   0.01915  -0.0967  0.3770  1.0000  -2.8016   0.0000   0.0000   0.0000   0.2955
  10.900   1.5038   0.02506   0.01987  -0.0958  0.3702  1.0000  -2.8246   0.0000   0.0000   0.0000   0.2947
  11.000   1.5057   0.02568   0.02052  -0.0952  0.3651  1.0000  -2.8523   0.0000   0.0000   0.0000   0.2940
  11.100   1.5070   0.02635   0.02119  -0.0945  0.3587  1.0000  -2.8785   0.0000   0.0000   0.0000   0.2933
  11.200   1.5074   0.02705   0.02186  -0.0936  0.3516  1.0000  -2.9028   0.0000   0.0000   0.0000   0.2925
  11.300   1.5064   0.02784   0.02260  -0.0927  0.3442  1.0000  -2.9240   0.0000   0.0000   0.0000   0.2917
  11.400   1.5033   0.02879   0.02348  -0.0916  0.3367  1.0000  -2.9404   0.0000   0.0000   0.0000   0.2909
  11.500   1.4996   0.02982   0.02447  -0.0905  0.3286  1.0000  -2.9548   0.0000   0.0000   0.0000   0.2901
  11.600   1.5020   0.03047   0.02515  -0.0900  0.3242  1.0000  -2.9843   0.0000   0.0000   0.0000   0.2894
  11.700   1.5043   0.03113   0.02583  -0.0895  0.3191  1.0000  -3.0212   0.0000   0.0000   0.0000   0.2888
  11.800   1.5057   0.03184   0.02655  -0.0889  0.3134  1.0000  -3.0560   0.0000   0.0000   0.0000   0.2881
  11.900   1.5064   0.03260   0.02728  -0.0882  0.3073  1.0000  -3.0888   0.0000   0.0000   0.0000   0.2874
  12.000   1.5060   0.03346   0.02809  -0.0875  0.3011  1.0000  -3.1182   0.0000   0.0000   0.0000   0.2867
  12.100   1.5041   0.03443   0.02902  -0.0867  0.2946  1.0000  -3.1433   0.0000   0.0000   0.0000   0.2860
  12.200   1.5012   0.03552   0.03007  -0.0858  0.2875  1.0000  -3.1650   0.0000   0.0000   0.0000   0.2854
  12.300   1.5026   0.03631   0.03088  -0.0853  0.2830  1.0000  -3.1996   0.0000   0.0000   0.0000   0.2848
  12.400   1.5049   0.03703   0.03163  -0.0849  0.2789  1.0000  -3.2375   0.0000   0.0000   0.0000   0.2842
  12.500   1.5066   0.03780   0.03253  -0.0844  0.2737  1.0000  -3.2737   0.0000   0.0000   0.0000   0.2836
  12.600   1.5073   0.03865   0.03337  -0.0839  0.2678  1.0000  -3.3067   0.0000   0.0000   0.0000   0.2830
  12.700   1.5068   0.03958   0.03425  -0.0833  0.2617  1.0000  -3.3366   0.0000   0.0000   0.0000   0.2824
  12.800   1.5051   0.04062   0.03524  -0.0826  0.2553  1.0000  -3.3622   0.0000   0.0000   0.0000   0.2818
  12.900   1.5030   0.04171   0.03628  -0.0820  0.2481  1.0000  -3.3867   0.0000   0.0000   0.0000   0.2812
  13.000   1.5046   0.04249   0.03707  -0.0815  0.2426  1.0000  -3.4227   0.0000   0.0000   0.0000   0.2806
  13.100   1.5078   0.04316   0.03778  -0.0812  0.2388  1.0000  -3.4640   0.0000   0.0000   0.0000   0.2801
  13.200   1.5095   0.04396   0.03859  -0.0808  0.2341  1.0000  -3.5010   0.0000   0.0000   0.0000   0.2796
  13.300   1.5085   0.04503   0.03967  -0.0804  0.2294  1.0000  -3.5289   0.0000   0.0000   0.0000   0.2791
  13.400   1.5071   0.04616   0.04078  -0.0799  0.2244  1.0000  -3.5555   0.0000   0.0000   0.0000   0.2786
  13.500   1.5059   0.04727   0.04186  -0.0794  0.2192  1.0000  -3.5831   0.0000   0.0000   0.0000   0.2781
  13.600   1.5045   0.04842   0.04296  -0.0789  0.2136  1.0000  -3.6096   0.0000   0.0000   0.0000   0.2776
  13.700   1.5037   0.04949   0.04400  -0.0784  0.2071  1.0000  -3.6382   0.0000   0.0000   0.0000   0.2771
  13.800   1.5073   0.05018   0.04471  -0.0782  0.2036  1.0000  -3.6836   0.0000   0.0000   0.0000   0.2766
  13.900   1.5112   0.05084   0.04542  -0.0780  0.2005  1.0000  -3.7377   0.0000   0.0000   0.0000   0.2761
  14.000   1.5141   0.05161   0.04620  -0.0778  0.1966  1.0000  -3.7882   0.0000   0.0000   0.0000   0.2756
  14.100   1.5159   0.05247   0.04707  -0.0775  0.1923  1.0000  -3.8345   0.0000   0.0000   0.0000   0.2751
  14.200   1.5165   0.05347   0.04806  -0.0772  0.1878  1.0000  -3.8796   0.0000   0.0000   0.0000   0.2747
  14.300   1.5159   0.05461   0.04916  -0.0768  0.1832  1.0000  -3.9284   0.0000   0.0000   0.0000   0.2742
  14.400   1.5142   0.05588   0.05039  -0.0765  0.1781  1.0000  -3.9717   0.0000   0.0000   0.0000   0.2738
  14.500   1.5117   0.05724   0.05173  -0.0761  0.1724  1.0000  -4.0105   0.0000   0.0000   0.0000   0.2734
  14.600   1.5115   0.05841   0.05290  -0.0758  0.1683  1.0000  -4.0605   0.0000   0.0000   0.0000   0.2730
  14.700   1.5142   0.05927   0.05382  -0.0757  0.1659  1.0000  -4.1273   0.0000   0.0000   0.0000   0.2727
  14.800   1.5164   0.06017   0.05475  -0.0756  0.1627  1.0000  -4.1916   0.0000   0.0000   0.0000   0.2723
  14.900   1.5178   0.06115   0.05574  -0.0754  0.1588  1.0000  -4.2520   0.0000   0.0000   0.0000   0.2719
  15.000   1.5183   0.06222   0.05680  -0.0752  0.1546  1.0000  -4.3076   0.0000   0.0000   0.0000   0.2715
  15.100   1.5176   0.06341   0.05797  -0.0750  0.1504  1.0000  -4.3577   0.0000   0.0000   0.0000   0.2711
  15.200   1.5163   0.06471   0.05922  -0.0748  0.1458  1.0000  -4.4040   0.0000   0.0000   0.0000   0.2708
  15.300   1.5147   0.06603   0.06050  -0.0746  0.1405  1.0000  -4.4487   0.0000   0.0000   0.0000   0.2705
  15.400   1.5146   0.06717   0.06163  -0.0744  0.1355  1.0000  -4.5004   0.0000   0.0000   0.0000   0.2701
  15.500   1.5188   0.06787   0.06239  -0.0744  0.1336  1.0000  -4.5781   0.0000   0.0000   0.0000   0.2697
  15.600   1.5221   0.06868   0.06324  -0.0743  0.1310  1.0000  -4.6502   0.0000   0.0000   0.0000   0.2694
  15.700   1.5242   0.06961   0.06419  -0.0742  0.1281  1.0000  -4.7166   0.0000   0.0000   0.0000   0.2690
  15.800   1.5252   0.07067   0.06526  -0.0742  0.1249  1.0000  -4.7770   0.0000   0.0000   0.0000   0.2687
  15.900   1.5247   0.07192   0.06650  -0.0741  0.1218  1.0000  -4.8287   0.0000   0.0000   0.0000   0.2684
  16.000   1.5213   0.07355   0.06814  -0.0740  0.1189  1.0000  -4.8635   0.0000   0.0000   0.0000   0.2683
  16.100   1.5179   0.07512   0.06970  -0.0740  0.1159  1.0000  -4.8989   0.0000   0.0000   0.0000   0.2681
  16.200   1.5151   0.07662   0.07118  -0.0739  0.1122  1.0000  -4.9370   0.0000   0.0000   0.0000   0.2679
  16.300   1.5131   0.07802   0.07257  -0.0738  0.1079  1.0000  -4.9781   0.0000   0.0000   0.0000   0.2676
  16.400   1.5143   0.07906   0.07362  -0.0737  0.1050  1.0000  -5.0391   0.0000   0.0000   0.0000   0.2673
  16.500   1.5179   0.07986   0.07447  -0.0738  0.1035  1.0000  -5.1158   0.0000   0.0000   0.0000   0.2670
  16.600   1.5209   0.08072   0.07539  -0.0738  0.1016  1.0000  -5.1891   0.0000   0.0000   0.0000   0.2667
  16.700   1.5230   0.08170   0.07640  -0.0738  0.0993  1.0000  -5.2572   0.0000   0.0000   0.0000   0.2664
  16.800   1.5241   0.08280   0.07751  -0.0739  0.0968  1.0000  -5.3201   0.0000   0.0000   0.0000   0.2661
  16.900   1.5244   0.08402   0.07874  -0.0740  0.0942  1.0000  -5.3773   0.0000   0.0000   0.0000   0.2659
  17.000   1.5234   0.08541   0.08012  -0.0740  0.0917  1.0000  -5.4270   0.0000   0.0000   0.0000   0.2658
  17.100   1.5212   0.08697   0.08167  -0.0742  0.0891  1.0000  -5.4691   0.0000   0.0000   0.0000   0.2657
  17.200   1.5165   0.08892   0.08362  -0.0744  0.0866  1.0000  -5.4949   0.0000   0.0000   0.0000   0.2657
  17.300   1.5117   0.09088   0.08558  -0.0746  0.0838  1.0000  -5.5184   0.0000   0.0000   0.0000   0.2658
  17.400   1.5083   0.09257   0.08726  -0.0746  0.0800  1.0000  -5.5488   0.0000   0.0000   0.0000   0.2657
  17.500   1.5093   0.09371   0.08843  -0.0747  0.0782  1.0000  -5.6097   0.0000   0.0000   0.0000   0.2654
  17.600   1.5119   0.09469   0.08947  -0.0749  0.0773  1.0000  -5.6822   0.0000   0.0000   0.0000   0.2652
  17.700   1.5143   0.09570   0.09053  -0.0751  0.0760  1.0000  -5.7536   0.0000   0.0000   0.0000   0.2650
  17.800   1.5163   0.09676   0.09164  -0.0753  0.0745  1.0000  -5.8223   0.0000   0.0000   0.0000   0.2648
  17.900   1.5177   0.09789   0.09281  -0.0755  0.0727  1.0000  -5.8874   0.0000   0.0000   0.0000   0.2647
  18.000   1.5183   0.09914   0.09408  -0.0757  0.0708  1.0000  -5.9472   0.0000   0.0000   0.0000   0.2645
  18.100   1.5180   0.10051   0.09545  -0.0760  0.0689  1.0000  -6.0014   0.0000   0.0000   0.0000   0.2645
  18.200   1.5167   0.10202   0.09696  -0.0763  0.0670  1.0000  -6.0489   0.0000   0.0000   0.0000   0.2645
  18.300   1.5142   0.10371   0.09865  -0.0767  0.0651  1.0000  -6.0877   0.0000   0.0000   0.0000   0.2645
  18.400   1.5091   0.10583   0.10078  -0.0772  0.0635  1.0000  -6.1073   0.0000   0.0000   0.0000   0.2648
  18.600   1.5000   0.10977   0.10480  -0.0781  0.0587  1.0000  -6.1482   0.0000   0.0000   0.0000   0.2652
  18.700   1.4972   0.11131   0.10635  -0.0783  0.0556  1.0000  -6.1760   0.0000   0.0000   0.0000   0.2651
  18.800   1.4991   0.11241   0.10750  -0.0786  0.0551  1.0000  -6.2459   0.0000   0.0000   0.0000   0.2651
  18.900   1.5010   0.11352   0.10866  -0.0790  0.0544  1.0000  -6.3158   0.0000   0.0000   0.0000   0.2650
  19.000   1.5026   0.11465   0.10984  -0.0794  0.0536  1.0000  -6.3836   0.0000   0.0000   0.0000   0.2649
  19.100   1.5039   0.11583   0.11106  -0.0798  0.0526  1.0000  -6.4489   0.0000   0.0000   0.0000   0.2649
  19.200   1.5047   0.11706   0.11234  -0.0803  0.0515  1.0000  -6.5125   0.0000   0.0000   0.0000   0.2649
  19.300   1.5051   0.11836   0.11368  -0.0807  0.0503  1.0000  -6.5727   0.0000   0.0000   0.0000   0.2649
  19.400   1.5049   0.11974   0.11509  -0.0812  0.0491  1.0000  -6.6285   0.0000   0.0000   0.0000   0.2650
  19.500   1.5029   0.12143   0.11682  -0.0818  0.0481  1.0000  -6.6693   0.0000   0.0000   0.0000   0.2652
  19.600   1.5000   0.12326   0.11867  -0.0826  0.0471  1.0000  -6.7033   0.0000   0.0000   0.0000   0.2655
  19.700   1.4980   0.12493   0.12036  -0.0832  0.0460  1.0000  -6.7432   0.0000   0.0000   0.0000   0.2658
  19.800   1.4961   0.12656   0.12200  -0.0839  0.0450  1.0000  -6.7840   0.0000   0.0000   0.0000   0.2660
  19.900   1.4939   0.12821   0.12367  -0.0845  0.0439  1.0000  -6.8221   0.0000   0.0000   0.0000   0.2663
  20.000   1.4916   0.12990   0.12536  -0.0852  0.0427  1.0000  -6.8572   0.0000   0.0000   0.0000   0.2665
  20.100   1.4890   0.13161   0.12708  -0.0859  0.0413  1.0000  -6.8887   0.0000   0.0000   0.0000   0.2668
  20.200   1.4863   0.13327   0.12876  -0.0865  0.0397  1.0000  -6.9162   0.0000   0.0000   0.0000   0.2671
  20.300   1.4836   0.13475   0.13027  -0.0870  0.0378  1.0000  -6.9388   0.0000   0.0000   0.0000   0.2672
  20.400   1.4820   0.13594   0.13151  -0.0874  0.0363  1.0000  -6.9683   0.0000   0.0000   0.0000   0.2673
  20.500   1.4828   0.13714   0.13275  -0.0880  0.0361  1.0000  -7.0296   0.0000   0.0000   0.0000   0.2674
  20.600   1.4822   0.13855   0.13422  -0.0888  0.0358  1.0000  -7.0790   0.0000   0.0000   0.0000   0.2677
  20.700   1.4808   0.14012   0.13584  -0.0897  0.0355  1.0000  -7.1200   0.0000   0.0000   0.0000   0.2680
  20.800   1.4802   0.14154   0.13731  -0.0905  0.0351  1.0000  -7.1680   0.0000   0.0000   0.0000   0.2683
  20.900   1.4800   0.14288   0.13870  -0.0913  0.0347  1.0000  -7.2194   0.0000   0.0000   0.0000   0.2686
  21.000   1.4800   0.14420   0.14007  -0.0920  0.0342  1.0000  -7.2712   0.0000   0.0000   0.0000   0.2688
  21.100   1.4798   0.14553   0.14145  -0.0927  0.0336  1.0000  -7.3220   0.0000   0.0000   0.0000   0.2690
  21.200   1.4795   0.14689   0.14285  -0.0935  0.0330  1.0000  -7.3710   0.0000   0.0000   0.0000   0.2693
  21.300   1.4792   0.14829   0.14429  -0.0943  0.0323  1.0000  -7.4191   0.0000   0.0000   0.0000   0.2695
  21.400   1.4786   0.14974   0.14578  -0.0951  0.0317  1.0000  -7.4650   0.0000   0.0000   0.0000   0.2698
  21.500   1.4778   0.15125   0.14733  -0.0959  0.0310  1.0000  -7.5083   0.0000   0.0000   0.0000   0.2701
  21.600   1.4767   0.15283   0.14895  -0.0968  0.0304  1.0000  -7.5483   0.0000   0.0000   0.0000   0.2705
  21.700   1.4737   0.15480   0.15097  -0.0980  0.0299  1.0000  -7.5707   0.0000   0.0000   0.0000   0.2711
  21.800   1.4711   0.15671   0.15292  -0.0991  0.0294  1.0000  -7.5965   0.0000   0.0000   0.0000   0.2717
  21.900   1.4694   0.15846   0.15470  -0.1001  0.0289  1.0000  -7.6303   0.0000   0.0000   0.0000   0.2722
  22.000   1.4679   0.16016   0.15644  -0.1011  0.0283  1.0000  -7.6667   0.0000   0.0000   0.0000   0.2727
  22.100   1.4664   0.16186   0.15816  -0.1021  0.0278  1.0000  -7.7030   0.0000   0.0000   0.0000   0.2731
  22.200   1.4649   0.16358   0.15991  -0.1031  0.0273  1.0000  -7.7380   0.0000   0.0000   0.0000   0.2736
  22.300   1.4633   0.16536   0.16170  -0.1041  0.0268  1.0000  -7.7719   0.0000   0.0000   0.0000   0.2741
  22.400   1.4614   0.16720   0.16357  -0.1052  0.0262  1.0000  -7.8016   0.0000   0.0000   0.0000   0.2746
  22.500   1.4592   0.16912   0.16552  -0.1062  0.0257  1.0000  -7.8271   0.0000   0.0000   0.0000   0.2752
  22.600   1.4566   0.17112   0.16756  -0.1074  0.0252  1.0000  -7.8470   0.0000   0.0000   0.0000   0.2758
  22.700   1.4525   0.17350   0.16998  -0.1087  0.0247  1.0000  -7.8488   0.0000   0.0000   0.0000   0.2767
  22.800   1.4489   0.17575   0.17227  -0.1100  0.0241  1.0000  -7.8543   0.0000   0.0000   0.0000   0.2774
  22.900   1.4457   0.17788   0.17444  -0.1111  0.0235  1.0000  -7.8617   0.0000   0.0000   0.0000   0.2781
  23.000   1.4423   0.18003   0.17665  -0.1123  0.0229  1.0000  -7.8628   0.0000   0.0000   0.0000   0.2788
  23.100   1.4376   0.18248   0.17918  -0.1135  0.0223  1.0000  -7.8457   0.0000   0.0000   0.0000   0.2796
  23.200   1.4311   0.18539   0.18218  -0.1150  0.0217  1.0000  -7.8050   0.0000   0.0000   0.0000   0.2808
  23.300   1.4227   0.18881   0.18572  -0.1167  0.0213  1.0000  -7.7408   0.0000   0.0000   0.0000   0.2822
  23.400   1.4143   0.19238   0.18938  -0.1186  0.0210  1.0000  -7.6782   0.0000   0.0000   0.0000   0.2838
  23.500   1.4131   0.19446   0.19150  -0.1199  0.0210  1.0000  -7.7105   0.0000   0.0000   0.0000   0.2845
  23.600   1.4092   0.19724   0.19434  -0.1215  0.0209  1.0000  -7.7087   0.0000   0.0000   0.0000   0.2856
  23.700   1.4048   0.20021   0.19737  -0.1232  0.0208  1.0000  -7.6982   0.0000   0.0000   0.0000   0.2868
  23.800   1.4020   0.20274   0.19995  -0.1246  0.0207  1.0000  -7.7080   0.0000   0.0000   0.0000   0.2877
  23.900   1.3996   0.20520   0.20245  -0.1260  0.0206  1.0000  -7.7212   0.0000   0.0000   0.0000   0.2886
  24.000   1.3969   0.20773   0.20503  -0.1275  0.0205  1.0000  -7.7301   0.0000   0.0000   0.0000   0.2895
  24.100   1.3937   0.21044   0.20779  -0.1290  0.0204  1.0000  -7.7302   0.0000   0.0000   0.0000   0.2906
  24.200   1.3897   0.21343   0.21084  -0.1306  0.0203  1.0000  -7.7181   0.0000   0.0000   0.0000   0.2918
  24.300   1.3818   0.21757   0.21505  -0.1328  0.0202  1.0000  -7.6539   0.0000   0.0000   0.0000   0.2937
  24.400   1.3725   0.22222   0.21978  -0.1353  0.0202  1.0000  -7.5675   0.0000   0.0000   0.0000   0.2959
  24.500   1.3658   0.22617   0.22379  -0.1373  0.0201  1.0000  -7.5121   0.0000   0.0000   0.0000   0.2977
  24.600   1.3583   0.23041   0.22810  -0.1394  0.0200  1.0000  -7.4439   0.0000   0.0000   0.0000   0.2997
  24.700   1.3481   0.23567   0.23344  -0.1420  0.0199  1.0000  -7.3319   0.0000   0.0000   0.0000   0.3022
  24.800   1.3181   0.24780   0.24570  -0.1475  0.0201  1.0000  -6.9197   0.0000   0.0000   0.0000   0.3090
  25.000   1.1662   0.31956   0.31755  -0.1696  0.0196  1.0000  -4.1682   0.0000   0.0000   0.0000   0.3466
  25.100   1.1606   0.32529   0.32328  -0.1710  0.0192  1.0000  -4.0485   0.0000   0.0000   0.0000   0.3485
  25.200   1.1538   0.33157   0.32956  -0.1724  0.0189  1.0000  -3.9054   0.0000   0.0000   0.0000   0.3506
  25.300   1.1472   0.33764   0.33563  -0.1736  0.0186  1.0000  -3.7700   0.0000   0.0000   0.0000   0.3526
  25.400   1.1406   0.34338   0.34138  -0.1747  0.0184  1.0000  -3.6460   0.0000   0.0000   0.0000   0.3545
  25.500   1.1338   0.34881   0.34682  -0.1756  0.0183  1.0000  -3.5315   0.0000   0.0000   0.0000   0.3562
  25.600   1.1263   0.35396   0.35198  -0.1763  0.0182  1.0000  -3.4229   0.0000   0.0000   0.0000   0.3579
  25.700   1.1163   0.35891   0.35694  -0.1766  0.0181  1.0000  -3.3096   0.0000   0.0000   0.0000   0.3598


