xflr5 v6.61

 Calculated polar for: EPPLER E852 AIRFOIL

 1 1 Reynolds number fixed          Mach number fixed         

 xtrf =   1.000 (top)        1.000 (bottom)
 Mach =   0.000     Re =     0.300 e 6     Ncrit =   9.000

  alpha     CL        CD       CDp       Cm    Top Xtr Bot Xtr   Cpmin    Chinge    XCp    
 ------- -------- --------- --------- -------- ------- ------- -------- --------- ---------
 -10.000  -0.4059   0.10711   0.10419  -0.0418  1.0000  0.0237  -2.0750   0.0000   0.0000   0.0000   0.1384
  -9.900  -0.4057   0.10568   0.10277  -0.0421  1.0000  0.0238  -2.0933   0.0000   0.0000   0.0000   0.1375
  -9.800  -0.4056   0.10424   0.10134  -0.0425  1.0000  0.0238  -2.1122   0.0000   0.0000   0.0000   0.1367
  -9.700  -0.4057   0.10280   0.09991  -0.0429  1.0000  0.0238  -2.1316   0.0000   0.0000   0.0000   0.1359
  -9.600  -0.4059   0.10135   0.09847  -0.0433  1.0000  0.0238  -2.1517   0.0000   0.0000   0.0000   0.1352
  -9.500  -0.4061   0.09988   0.09702  -0.0436  1.0000  0.0238  -2.1724   0.0000   0.0000   0.0000   0.1344
  -9.400  -0.4065   0.09840   0.09556  -0.0440  1.0000  0.0238  -2.1938   0.0000   0.0000   0.0000   0.1338
  -9.300  -0.4071   0.09692   0.09409  -0.0443  1.0000  0.0238  -2.2159   0.0000   0.0000   0.0000   0.1332
  -9.200  -0.4078   0.09543   0.09263  -0.0447  1.0000  0.0238  -2.2387   0.0000   0.0000   0.0000   0.1326
  -9.100  -0.4088   0.09395   0.09115  -0.0450  1.0000  0.0239  -2.2624   0.0000   0.0000   0.0000   0.1322
  -9.000  -0.4099   0.09245   0.08968  -0.0453  1.0000  0.0239  -2.2869   0.0000   0.0000   0.0000   0.1318
  -8.900  -0.4113   0.09096   0.08821  -0.0457  1.0000  0.0239  -2.3123   0.0000   0.0000   0.0000   0.1316
  -8.800  -0.4130   0.08947   0.08673  -0.0460  1.0000  0.0239  -2.3387   0.0000   0.0000   0.0000   0.1314
  -8.700  -0.4150   0.08798   0.08527  -0.0462  1.0000  0.0239  -2.3663   0.0000   0.0000   0.0000   0.1315
  -8.600  -0.4175   0.08651   0.08381  -0.0465  1.0000  0.0239  -2.3951   0.0000   0.0000   0.0000   0.1317
  -8.500  -0.4205   0.08504   0.08237  -0.0466  1.0000  0.0239  -2.4254   0.0000   0.0000   0.0000   0.1322
  -8.400  -0.4241   0.08359   0.08095  -0.0468  1.0000  0.0239  -2.4574   0.0000   0.0000   0.0000   0.1330
  -8.300  -0.4286   0.08218   0.07956  -0.0468  1.0000  0.0239  -2.4913   0.0000   0.0000   0.0000   0.1342
  -8.200  -0.4343   0.08085   0.07826  -0.0467  1.0000  0.0239  -2.5269   0.0000   0.0000   0.0000   0.1361
  -8.100  -0.4415   0.07972   0.07716  -0.0463  1.0000  0.0239  -2.5618   0.0000   0.0000   0.0000   0.1390
  -8.000  -0.4506   0.07894   0.07641  -0.0453  1.0000  0.0239  -2.5921   0.0000   0.0000   0.0000   0.1435
  -7.900  -0.4615   0.07850   0.07600  -0.0438  1.0000  0.0239  -2.6182   0.0000   0.0000   0.0000   0.1494
  -7.800  -0.4617   0.07616   0.07364  -0.0472  0.9982  0.0239  -2.6663   0.0000   0.0000   0.0000   0.1422
  -7.700  -0.4558   0.07276   0.07019  -0.0535  0.9953  0.0239  -2.7226   0.0000   0.0000   0.0000   0.1271
  -7.600  -0.4482   0.06947   0.06681  -0.0591  0.9920  0.0239  -2.7697   0.0000   0.0000   0.0000   0.1126
  -7.500  -0.4411   0.06660   0.06386  -0.0634  0.9895  0.0239  -2.8081   0.0000   0.0000   0.0000   0.1008
  -7.400  -0.4336   0.06390   0.06108  -0.0672  0.9877  0.0239  -2.8416   0.0000   0.0000   0.0000   0.0894
  -7.300  -0.4286   0.06163   0.05872  -0.0697  0.9846  0.0239  -2.8685   0.0000   0.0000   0.0000   0.0818
  -7.200  -0.4229   0.05939   0.05640  -0.0720  0.9813  0.0240  -2.8927   0.0000   0.0000   0.0000   0.0741
  -7.100  -0.4157   0.05711   0.05402  -0.0745  0.9787  0.0240  -2.9149   0.0000   0.0000   0.0000   0.0654
  -7.000  -0.4234   0.04845   0.04511  -0.0806  0.9751  0.0251  -3.2324   0.0000   0.0000   0.0000   0.0541
  -6.900  -0.4169   0.04496   0.04148  -0.0834  0.9737  0.0258  -3.2783   0.0000   0.0000   0.0000   0.0444
  -6.800  -0.4096   0.04274   0.03916  -0.0849  0.9716  0.0263  -3.2753   0.0000   0.0000   0.0000   0.0372
  -6.700  -0.4053   0.04118   0.03752  -0.0851  0.9673  0.0267  -3.2648   0.0000   0.0000   0.0000   0.0347
  -6.600  -0.3970   0.03949   0.03572  -0.0860  0.9645  0.0271  -3.2481   0.0000   0.0000   0.0000   0.0279
  -6.500  -0.3872   0.03778   0.03389  -0.0871  0.9624  0.0274  -3.2355   0.0000   0.0000   0.0000   0.0194
  -6.400  -0.3763   0.03606   0.03205  -0.0883  0.9606  0.0276  -3.2279   0.0000   0.0000   0.0000   0.0098
  -6.300  -0.3647   0.03461   0.03049  -0.0894  0.9592  0.0282  -3.1887   0.0000   0.0000   0.0000  -0.0008
  -6.200  -0.3526   0.03360   0.02945  -0.0906  0.9581  0.0294  -3.1017   0.0000   0.0000   0.0000  -0.0125
  -6.100  -0.3398   0.03247   0.02824  -0.0917  0.9570  0.0307  -3.0384   0.0000   0.0000   0.0000  -0.0257
  -6.000  -0.3236   0.02941   0.02476  -0.0919  0.9561  0.0211  -3.3495   0.0000   0.0000   0.0000  -0.0401
  -5.900  -0.3108   0.02706   0.02218  -0.0931  0.9552  0.0199  -3.4161   0.0000   0.0000   0.0000  -0.0557
  -5.800  -0.2972   0.02493   0.01979  -0.0941  0.9545  0.0187  -3.4847   0.0000   0.0000   0.0000  -0.0729
  -5.700  -0.2830   0.02306   0.01767  -0.0949  0.9539  0.0177  -3.5434   0.0000   0.0000   0.0000  -0.0919
  -5.600  -0.2791   0.02204   0.01652  -0.0935  0.9488  0.0172  -3.5716   0.0000   0.0000   0.0000  -0.0914
  -5.500  -0.2685   0.02077   0.01507  -0.0933  0.9463  0.0168  -3.5950   0.0000   0.0000   0.0000  -0.1042
  -5.400  -0.2565   0.01960   0.01374  -0.0934  0.9444  0.0165  -3.6003   0.0000   0.0000   0.0000  -0.1212
  -5.300  -0.2438   0.01857   0.01257  -0.0937  0.9429  0.0164  -3.5856   0.0000   0.0000   0.0000  -0.1414
  -5.200  -0.2308   0.01767   0.01156  -0.0940  0.9415  0.0165  -3.5537   0.0000   0.0000   0.0000  -0.1646
  -5.100  -0.2176   0.01686   0.01066  -0.0944  0.9403  0.0169  -3.5104   0.0000   0.0000   0.0000  -0.1913
  -5.000  -0.2042   0.01614   0.00986  -0.0948  0.9393  0.0175  -3.4594   0.0000   0.0000   0.0000  -0.2222
  -4.900  -0.1905   0.01549   0.00913  -0.0953  0.9382  0.0185  -3.4033   0.0000   0.0000   0.0000  -0.2585
  -4.800  -0.1765   0.01489   0.00846  -0.0959  0.9373  0.0200  -3.3430   0.0000   0.0000   0.0000  -0.3016
  -4.700  -0.1621   0.01457   0.00803  -0.0966  0.9365  0.0223  -3.2240   0.0000   0.0000   0.0000  -0.3549
  -4.600  -0.1476   0.01425   0.00768  -0.0974  0.9357  0.0251  -3.0965   0.0000   0.0000   0.0000  -0.4193
  -4.500  -0.1338   0.01310   0.00644  -0.0981  0.9348  0.0323  -3.1033   0.0000   0.0000   0.0000  -0.4935
  -4.400  -0.1188   0.01275   0.00606  -0.0990  0.9341  0.0398  -3.0052   0.0000   0.0000   0.0000  -0.5940
  -4.300  -0.1042   0.01223   0.00555  -0.0999  0.9333  0.0539  -2.9133   0.0000   0.0000   0.0000  -0.7205
  -4.200  -0.0896   0.01179   0.00512  -0.1008  0.9325  0.0754  -2.8050   0.0000   0.0000   0.0000  -0.8886
  -4.100  -0.0754   0.01119   0.00477  -0.1018  0.9316  0.1296  -2.6777   0.0000   0.0000   0.0000  -1.1154
  -4.000  -0.0621   0.01041   0.00446  -0.1031  0.9308  0.2435  -2.5391   0.0000   0.0000   0.0000  -1.4295
  -3.900  -0.0489   0.00976   0.00436  -0.1042  0.9299  0.3819  -2.3948   0.0000   0.0000   0.0000  -1.9022
  -3.800  -0.0416   0.00965   0.00440  -0.1035  0.9268  0.4292  -2.2832   0.0000   0.0000   0.0000  -2.2658
  -3.700  -0.0325   0.00958   0.00442  -0.1031  0.9239  0.4556  -2.1625   0.0000   0.0000   0.0000  -2.9509
  -3.600  -0.0216   0.00956   0.00440  -0.1030  0.9216  0.4757  -2.0316   0.0000   0.0000   0.0000  -4.5695
  -3.500  -0.0095   0.00956   0.00434  -0.1032  0.9196  0.4867  -1.8960   0.0000   0.0000   0.0000  -10.7480
  -3.400   0.0027   0.00950   0.00430  -0.1035  0.9178  0.5004  -1.7622   0.0000   0.0000   0.0000  38.7146
  -3.300   0.0150   0.00946   0.00430  -0.1037  0.9160  0.5158  -1.6290   0.0000   0.0000   0.0000   7.2047
  -3.200   0.0279   0.00946   0.00429  -0.1040  0.9144  0.5287  -1.4957   0.0000   0.0000   0.0000   4.0144
  -3.100   0.0411   0.00947   0.00425  -0.1044  0.9129  0.5367  -1.3633   0.0000   0.0000   0.0000   2.8109
  -3.000   0.0545   0.00949   0.00421  -0.1048  0.9115  0.5422  -1.2331   0.0000   0.0000   0.0000   2.1893
  -2.900   0.0674   0.00939   0.00413  -0.1052  0.9101  0.5536  -1.1085   0.0000   0.0000   0.0000   1.8224
  -2.800   0.0804   0.00934   0.00407  -0.1056  0.9087  0.5621  -0.9818   0.0000   0.0000   0.0000   1.5723
  -2.700   0.0936   0.00931   0.00403  -0.1060  0.9074  0.5685  -0.8633   0.0000   0.0000   0.0000   1.3902
  -2.600   0.1069   0.00929   0.00399  -0.1064  0.9061  0.5744  -0.7473   0.0000   0.0000   0.0000   1.2516
  -2.500   0.1206   0.00929   0.00396  -0.1070  0.9047  0.5806  -0.6557   0.0000   0.0000   0.0000   1.1419
  -2.400   0.1344   0.00931   0.00394  -0.1075  0.9033  0.5869  -0.6054   0.0000   0.0000   0.0000   1.0541
  -2.300   0.1483   0.00937   0.00396  -0.1080  0.9016  0.5925  -0.5557   0.0000   0.0000   0.0000   0.9824
  -2.200   0.1585   0.00937   0.00395  -0.1078  0.8994  0.5993  -0.5150   0.0000   0.0000   0.0000   0.9338
  -2.100   0.1672   0.00932   0.00394  -0.1073  0.8969  0.6084  -0.4809   0.0000   0.0000   0.0000   0.8950
  -2.000   0.1768   0.00932   0.00396  -0.1070  0.8943  0.6153  -0.4455   0.0000   0.0000   0.0000   0.8579
  -1.900   0.1871   0.00932   0.00398  -0.1068  0.8919  0.6209  -0.4181   0.0000   0.0000   0.0000   0.8231
  -1.800   0.1981   0.00932   0.00397  -0.1068  0.8897  0.6256  -0.4221   0.0000   0.0000   0.0000   0.7911
  -1.700   0.2094   0.00932   0.00396  -0.1068  0.8877  0.6298  -0.4263   0.0000   0.0000   0.0000   0.7620
  -1.600   0.2210   0.00932   0.00395  -0.1069  0.8858  0.6337  -0.4307   0.0000   0.0000   0.0000   0.7355
  -1.500   0.2329   0.00932   0.00391  -0.1071  0.8840  0.6374  -0.4351   0.0000   0.0000   0.0000   0.7114
  -1.400   0.2448   0.00932   0.00389  -0.1073  0.8823  0.6407  -0.4396   0.0000   0.0000   0.0000   0.6895
  -1.300   0.2569   0.00933   0.00387  -0.1075  0.8806  0.6436  -0.4442   0.0000   0.0000   0.0000   0.6696
  -1.200   0.2691   0.00933   0.00385  -0.1078  0.8789  0.6460  -0.4488   0.0000   0.0000   0.0000   0.6513
  -1.100   0.2813   0.00934   0.00384  -0.1080  0.8773  0.6479  -0.4534   0.0000   0.0000   0.0000   0.6347
  -1.000   0.2935   0.00927   0.00376  -0.1083  0.8757  0.6536  -0.4580   0.0000   0.0000   0.0000   0.6196
  -0.900   0.3057   0.00923   0.00373  -0.1086  0.8741  0.6587  -0.4626   0.0000   0.0000   0.0000   0.6056
  -0.800   0.3180   0.00921   0.00373  -0.1088  0.8725  0.6632  -0.4672   0.0000   0.0000   0.0000   0.5926
  -0.700   0.3303   0.00922   0.00374  -0.1091  0.8707  0.6673  -0.4718   0.0000   0.0000   0.0000   0.5806
  -0.600   0.3425   0.00926   0.00379  -0.1094  0.8688  0.6714  -0.4763   0.0000   0.0000   0.0000   0.5695
  -0.500   0.3530   0.00929   0.00383  -0.1093  0.8671  0.6755  -0.4802   0.0000   0.0000   0.0000   0.5597
  -0.400   0.3628   0.00930   0.00386  -0.1091  0.8656  0.6796  -0.4841   0.0000   0.0000   0.0000   0.5507
  -0.300   0.3728   0.00932   0.00389  -0.1089  0.8639  0.6836  -0.4882   0.0000   0.0000   0.0000   0.5420
  -0.200   0.3830   0.00935   0.00392  -0.1088  0.8621  0.6877  -0.4923   0.0000   0.0000   0.0000   0.5338
  -0.100   0.3934   0.00937   0.00395  -0.1087  0.8602  0.6918  -0.4965   0.0000   0.0000   0.0000   0.5259
   0.000   0.4040   0.00940   0.00398  -0.1086  0.8581  0.6955  -0.5009   0.0000   0.0000   0.0000   0.5184
   0.100   0.4149   0.00942   0.00400  -0.1086  0.8559  0.6987  -0.5054   0.0000   0.0000   0.0000   0.5112
   0.200   0.4258   0.00940   0.00399  -0.1086  0.8537  0.7044  -0.5104   0.0000   0.0000   0.0000   0.5044
   0.300   0.4367   0.00936   0.00400  -0.1085  0.8516  0.7110  -0.5156   0.0000   0.0000   0.0000   0.4979
   0.400   0.4477   0.00934   0.00401  -0.1085  0.8495  0.7167  -0.5208   0.0000   0.0000   0.0000   0.4916
   0.500   0.4588   0.00933   0.00403  -0.1085  0.8476  0.7221  -0.5261   0.0000   0.0000   0.0000   0.4856
   0.600   0.4701   0.00933   0.00405  -0.1085  0.8458  0.7274  -0.5314   0.0000   0.0000   0.0000   0.4800
   0.700   0.4815   0.00932   0.00407  -0.1086  0.8439  0.7329  -0.5369   0.0000   0.0000   0.0000   0.4745
   0.800   0.4931   0.00932   0.00409  -0.1087  0.8420  0.7384  -0.5431   0.0000   0.0000   0.0000   0.4693
   0.900   0.5048   0.00933   0.00410  -0.1088  0.8401  0.7434  -0.5496   0.0000   0.0000   0.0000   0.4643
   1.000   0.5167   0.00936   0.00413  -0.1089  0.8380  0.7480  -0.5567   0.0000   0.0000   0.0000   0.4596
   1.100   0.5285   0.00938   0.00416  -0.1091  0.8358  0.7542  -0.5647   0.0000   0.0000   0.0000   0.4551
   1.200   0.5398   0.00942   0.00425  -0.1091  0.8332  0.7616  -0.5742   0.0000   0.0000   0.0000   0.4508
   1.300   0.5501   0.00948   0.00436  -0.1090  0.8309  0.7688  -0.5888   0.0000   0.0000   0.0000   0.4467
   1.400   0.5595   0.00947   0.00440  -0.1086  0.8292  0.7761  -0.6084   0.0000   0.0000   0.0000   0.4426
   1.500   0.5690   0.00946   0.00443  -0.1083  0.8272  0.7836  -0.6283   0.0000   0.0000   0.0000   0.4387
   1.600   0.5789   0.00945   0.00446  -0.1080  0.8247  0.7910  -0.6486   0.0000   0.0000   0.0000   0.4349
   1.800   0.5985   0.00940   0.00453  -0.1073  0.8191  0.8072  -0.6896   0.0000   0.0000   0.0000   0.4275
   1.900   0.6081   0.00936   0.00454  -0.1069  0.8160  0.8170  -0.7153   0.0000   0.0000   0.0000   0.4239
   2.000   0.6182   0.00931   0.00454  -0.1066  0.8127  0.8275  -0.7424   0.0000   0.0000   0.0000   0.4204
   2.100   0.6288   0.00926   0.00452  -0.1063  0.8094  0.8379  -0.7704   0.0000   0.0000   0.0000   0.4170
   2.200   0.6389   0.00918   0.00449  -0.1059  0.8060  0.8494  -0.8012   0.0000   0.0000   0.0000   0.4136
   2.300   0.6484   0.00911   0.00446  -0.1053  0.8025  0.8629  -0.8376   0.0000   0.0000   0.0000   0.4102
   2.400   0.6588   0.00906   0.00443  -0.1049  0.7984  0.8771  -0.8760   0.0000   0.0000   0.0000   0.4070
   2.500   0.6689   0.00908   0.00447  -0.1045  0.7930  0.8924  -0.9141   0.0000   0.0000   0.0000   0.4039
   2.600   0.6767   0.00901   0.00447  -0.1036  0.7893  0.9125  -0.9483   0.0000   0.0000   0.0000   0.4006
   2.700   0.6863   0.00887   0.00439  -0.1030  0.7851  0.9372  -0.9864   0.0000   0.0000   0.0000   0.3976
   2.900   0.7153   0.00862   0.00419  -0.1042  0.7724  1.0000  -1.0929   0.0000   0.0000   0.0000   0.3930
   3.000   0.7267   0.00858   0.00414  -0.1041  0.7669  1.0000  -1.1493   0.0000   0.0000   0.0000   0.3906
   3.100   0.7385   0.00856   0.00416  -0.1042  0.7620  1.0000  -1.2193   0.0000   0.0000   0.0000   0.3883
   3.200   0.7506   0.00857   0.00415  -0.1044  0.7573  1.0000  -1.3476   0.0000   0.0000   0.0000   0.3861
   3.300   0.7632   0.00862   0.00419  -0.1046  0.7509  1.0000  -1.4809   0.0000   0.0000   0.0000   0.3841
   3.400   0.7733   0.00862   0.00422  -0.1043  0.7463  1.0000  -1.6031   0.0000   0.0000   0.0000   0.3819
   3.500   0.7828   0.00860   0.00423  -0.1040  0.7412  1.0000  -1.7248   0.0000   0.0000   0.0000   0.3797
   3.600   0.7927   0.00858   0.00425  -0.1037  0.7350  1.0000  -1.8510   0.0000   0.0000   0.0000   0.3775
   3.700   0.8028   0.00856   0.00424  -0.1034  0.7275  1.0000  -1.9817   0.0000   0.0000   0.0000   0.3754
   3.800   0.8135   0.00854   0.00420  -0.1031  0.7181  1.0000  -2.1191   0.0000   0.0000   0.0000   0.3733
   3.900   0.8246   0.00856   0.00416  -0.1029  0.7072  1.0000  -2.2617   0.0000   0.0000   0.0000   0.3713
   4.000   0.8342   0.00857   0.00421  -0.1025  0.6994  1.0000  -2.3955   0.0000   0.0000   0.0000   0.3693
   4.100   0.8436   0.00857   0.00426  -0.1021  0.6902  1.0000  -2.5310   0.0000   0.0000   0.0000   0.3674
   4.200   0.8531   0.00858   0.00426  -0.1017  0.6765  1.0000  -2.6697   0.0000   0.0000   0.0000   0.3654
   4.300   0.8624   0.00864   0.00422  -0.1011  0.6584  1.0000  -2.8100   0.0000   0.0000   0.0000   0.3634
   4.400   0.8706   0.00868   0.00426  -0.1004  0.6348  1.0000  -2.9442   0.0000   0.0000   0.0000   0.3614
   4.500   0.8773   0.00883   0.00424  -0.0993  0.5980  1.0000  -3.0708   0.0000   0.0000   0.0000   0.3592
   4.600   0.8813   0.00913   0.00427  -0.0977  0.5422  1.0000  -3.1797   0.0000   0.0000   0.0000   0.3568
   4.700   0.8824   0.00964   0.00442  -0.0958  0.4771  1.0000  -3.2687   0.0000   0.0000   0.0000   0.3543
   4.800   0.8834   0.01022   0.00467  -0.0939  0.4159  1.0000  -3.3561   0.0000   0.0000   0.0000   0.3520
   4.900   0.8853   0.01082   0.00496  -0.0923  0.3545  1.0000  -3.4493   0.0000   0.0000   0.0000   0.3499
   5.000   0.8874   0.01145   0.00528  -0.0908  0.2947  1.0000  -3.5439   0.0000   0.0000   0.0000   0.3479
   5.100   0.8899   0.01209   0.00561  -0.0895  0.2387  1.0000  -3.6403   0.0000   0.0000   0.0000   0.3460
   5.200   0.8936   0.01268   0.00594  -0.0884  0.1877  1.0000  -3.7449   0.0000   0.0000   0.0000   0.3442
   5.300   0.8976   0.01327   0.00633  -0.0873  0.1426  1.0000  -3.8503   0.0000   0.0000   0.0000   0.3425
   5.400   0.9022   0.01383   0.00667  -0.0863  0.1071  1.0000  -3.9583   0.0000   0.0000   0.0000   0.3408
   5.500   0.9078   0.01433   0.00701  -0.0854  0.0815  1.0000  -4.0699   0.0000   0.0000   0.0000   0.3392
   5.600   0.9137   0.01481   0.00739  -0.0845  0.0632  1.0000  -4.1753   0.0000   0.0000   0.0000   0.3375
   5.700   0.9202   0.01523   0.00772  -0.0838  0.0519  1.0000  -4.2892   0.0000   0.0000   0.0000   0.3359
   5.800   0.9264   0.01570   0.00818  -0.0829  0.0421  1.0000  -4.3822   0.0000   0.0000   0.0000   0.3343
   5.900   0.9347   0.01596   0.00845  -0.0825  0.0359  1.0000  -4.5047   0.0000   0.0000   0.0000   0.3329
   6.000   0.9377   0.01677   0.00924  -0.0809  0.0279  1.0000  -4.5254   0.0000   0.0000   0.0000   0.3309
   6.100   0.9426   0.01740   0.00994  -0.0797  0.0247  1.0000  -4.5766   0.0000   0.0000   0.0000   0.3291
   6.200   0.9500   0.01779   0.01038  -0.0790  0.0221  1.0000  -4.6598   0.0000   0.0000   0.0000   0.3275
   6.300   0.9578   0.01813   0.01073  -0.0784  0.0192  1.0000  -4.7687   0.0000   0.0000   0.0000   0.3261
   6.400   0.9657   0.01842   0.01099  -0.0779  0.0165  1.0000  -4.9114   0.0000   0.0000   0.0000   0.3249
   6.500   0.9696   0.01925   0.01190  -0.0766  0.0146  1.0000  -4.9337   0.0000   0.0000   0.0000   0.3231
   6.600   0.9722   0.02059   0.01335  -0.0750  0.0134  1.0000  -4.8899   0.0000   0.0000   0.0000   0.3212
   6.700   0.9784   0.02252   0.01540  -0.0741  0.0126  1.0000  -4.8246   0.0000   0.0000   0.0000   0.3196
   6.800   0.9878   0.02291   0.01585  -0.0737  0.0123  1.0000  -4.9332   0.0000   0.0000   0.0000   0.3184
   6.900   0.9973   0.02354   0.01654  -0.0733  0.0120  1.0000  -5.0225   0.0000   0.0000   0.0000   0.3172
   7.000   1.0072   0.02434   0.01743  -0.0730  0.0118  1.0000  -5.0984   0.0000   0.0000   0.0000   0.3161
   7.100   1.0174   0.02529   0.01847  -0.0727  0.0116  1.0000  -5.1640   0.0000   0.0000   0.0000   0.3150
   7.200   1.0277   0.02638   0.01966  -0.0725  0.0114  1.0000  -5.2199   0.0000   0.0000   0.0000   0.3139
   7.300   1.0378   0.02758   0.02098  -0.0722  0.0114  1.0000  -5.2660   0.0000   0.0000   0.0000   0.3128
   7.400   1.0474   0.02888   0.02242  -0.0718  0.0113  1.0000  -5.3017   0.0000   0.0000   0.0000   0.3117
   7.500   1.0563   0.03030   0.02398  -0.0713  0.0114  1.0000  -5.3252   0.0000   0.0000   0.0000   0.3106
   7.600   1.0641   0.03183   0.02567  -0.0706  0.0115  1.0000  -5.3355   0.0000   0.0000   0.0000   0.3094
   7.700   1.0709   0.03350   0.02750  -0.0698  0.0116  1.0000  -5.3311   0.0000   0.0000   0.0000   0.3081
   7.800   1.0762   0.03533   0.02951  -0.0689  0.0117  1.0000  -5.3088   0.0000   0.0000   0.0000   0.3068
   7.900   1.0796   0.03747   0.03184  -0.0677  0.0120  1.0000  -5.2583   0.0000   0.0000   0.0000   0.3055
   8.300   1.0976   0.04382   0.03866  -0.0640  0.0132  1.0000  -5.2626   0.0000   0.0000   0.0000   0.3007
   8.400   1.0998   0.04528   0.04025  -0.0629  0.0132  1.0000  -5.2678   0.0000   0.0000   0.0000   0.2994
   8.500   1.1011   0.04680   0.04190  -0.0616  0.0131  1.0000  -5.2665   0.0000   0.0000   0.0000   0.2982
   8.600   1.1018   0.04832   0.04355  -0.0604  0.0131  1.0000  -5.2630   0.0000   0.0000   0.0000   0.2969
   8.700   1.1022   0.04979   0.04515  -0.0591  0.0131  1.0000  -5.2612   0.0000   0.0000   0.0000   0.2957
   8.800   1.1026   0.05117   0.04663  -0.0579  0.0132  1.0000  -5.2649   0.0000   0.0000   0.0000   0.2944
   8.900   1.1033   0.05237   0.04793  -0.0567  0.0132  1.0000  -5.2791   0.0000   0.0000   0.0000   0.2932
   9.000   1.0946   0.05295   0.04875  -0.0542  0.0117  1.0000  -5.2749   0.0000   0.0000   0.0000   0.2913
   9.100   1.1016   0.05753   0.05377  -0.0515  0.0181  1.0000  -4.7048   0.0000   0.0000   0.0000   0.2885
   9.200   1.0967   0.05950   0.05586  -0.0499  0.0186  1.0000  -4.6381   0.0000   0.0000   0.0000   0.2872
   9.300   1.0916   0.06123   0.05770  -0.0484  0.0188  1.0000  -4.5919   0.0000   0.0000   0.0000   0.2859
   9.400   1.0855   0.06271   0.05927  -0.0467  0.0190  1.0000  -4.5571   0.0000   0.0000   0.0000   0.2845
   9.500   1.0788   0.06411   0.06074  -0.0450  0.0191  1.0000  -4.5272   0.0000   0.0000   0.0000   0.2832
   9.600   1.0718   0.06548   0.06219  -0.0434  0.0192  1.0000  -4.4996   0.0000   0.0000   0.0000   0.2819
   9.700   1.0645   0.06687   0.06365  -0.0420  0.0193  1.0000  -4.4729   0.0000   0.0000   0.0000   0.2807
   9.800   1.0570   0.06828   0.06513  -0.0407  0.0194  1.0000  -4.4463   0.0000   0.0000   0.0000   0.2796
   9.900   1.0493   0.06975   0.06667  -0.0396  0.0194  1.0000  -4.4190   0.0000   0.0000   0.0000   0.2788
  10.000   1.0415   0.07130   0.06828  -0.0387  0.0195  1.0000  -4.3908   0.0000   0.0000   0.0000   0.2781
  10.100   1.0336   0.07291   0.06995  -0.0379  0.0195  1.0000  -4.3616   0.0000   0.0000   0.0000   0.2776
  10.200   1.0253   0.07456   0.07167  -0.0374  0.0196  1.0000  -4.3313   0.0000   0.0000   0.0000   0.2772
  10.300   1.0168   0.07631   0.07348  -0.0371  0.0196  1.0000  -4.2994   0.0000   0.0000   0.0000   0.2771
  10.400   1.0083   0.07816   0.07539  -0.0369  0.0197  1.0000  -4.2657   0.0000   0.0000   0.0000   0.2771
  10.500   0.9996   0.08013   0.07741  -0.0370  0.0198  1.0000  -4.2298   0.0000   0.0000   0.0000   0.2774
  10.600   0.9908   0.08223   0.07956  -0.0374  0.0199  1.0000  -4.1909   0.0000   0.0000   0.0000   0.2780
  10.700   0.9818   0.08447   0.08186  -0.0380  0.0200  1.0000  -4.1475   0.0000   0.0000   0.0000   0.2788
  10.800   0.9724   0.08689   0.08432  -0.0388  0.0202  1.0000  -4.0984   0.0000   0.0000   0.0000   0.2800
  10.900   0.9628   0.08948   0.08697  -0.0399  0.0205  1.0000  -4.0428   0.0000   0.0000   0.0000   0.2814
  11.000   0.9526   0.09229   0.08982  -0.0413  0.0210  1.0000  -3.9792   0.0000   0.0000   0.0000   0.2832
  11.100   0.9421   0.09540   0.09296  -0.0430  0.0217  1.0000  -3.9073   0.0000   0.0000   0.0000   0.2854
  12.400   0.8706   0.14104   0.13864  -0.0693  0.0258  1.0000  -2.9871   0.0000   0.0000   0.0000   0.3184
  12.500   0.8702   0.14363   0.14122  -0.0707  0.0258  1.0000  -2.9475   0.0000   0.0000   0.0000   0.3200
  12.600   0.8700   0.14614   0.14372  -0.0721  0.0257  1.0000  -2.9103   0.0000   0.0000   0.0000   0.3215
  12.700   0.8699   0.14858   0.14616  -0.0734  0.0257  1.0000  -2.8750   0.0000   0.0000   0.0000   0.3229
  12.800   0.8701   0.15095   0.14852  -0.0747  0.0257  1.0000  -2.8415   0.0000   0.0000   0.0000   0.3243
  12.900   0.8704   0.15326   0.15083  -0.0759  0.0257  1.0000  -2.8097   0.0000   0.0000   0.0000   0.3256
  13.000   0.8708   0.15551   0.15307  -0.0772  0.0256  1.0000  -2.7797   0.0000   0.0000   0.0000   0.3269
  13.100   0.8715   0.15769   0.15525  -0.0784  0.0256  1.0000  -2.7515   0.0000   0.0000   0.0000   0.3281
  13.200   0.8724   0.15979   0.15734  -0.0796  0.0255  1.0000  -2.7255   0.0000   0.0000   0.0000   0.3293
  13.300   0.8737   0.16176   0.15931  -0.0808  0.0254  1.0000  -2.7031   0.0000   0.0000   0.0000   0.3305
  13.400   0.8770   0.16317   0.16071  -0.0821  0.0249  1.0000  -2.6968   0.0000   0.0000   0.0000   0.3315
  13.500   0.8824   0.16438   0.16192  -0.0838  0.0232  1.0000  -2.6871   0.0000   0.0000   0.0000   0.3328
  13.600   0.8836   0.16637   0.16391  -0.0851  0.0225  1.0000  -2.6541   0.0000   0.0000   0.0000   0.3340
  13.700   0.8846   0.16832   0.16585  -0.0863  0.0219  1.0000  -2.6246   0.0000   0.0000   0.0000   0.3352
  13.800   0.8855   0.17024   0.16777  -0.0875  0.0214  1.0000  -2.5979   0.0000   0.0000   0.0000   0.3364
  13.900   0.8866   0.17212   0.16964  -0.0886  0.0208  1.0000  -2.5751   0.0000   0.0000   0.0000   0.3374
  14.000   0.8877   0.17398   0.17150  -0.0897  0.0203  1.0000  -2.5551   0.0000   0.0000   0.0000   0.3384
  14.100   0.8888   0.17582   0.17333  -0.0908  0.0198  1.0000  -2.5380   0.0000   0.0000   0.0000   0.3393
  14.200   0.8901   0.17764   0.17514  -0.0918  0.0194  1.0000  -2.5233   0.0000   0.0000   0.0000   0.3402
  14.300   0.8914   0.17945   0.17695  -0.0928  0.0189  1.0000  -2.5104   0.0000   0.0000   0.0000   0.3411
  14.400   0.8928   0.18125   0.17875  -0.0937  0.0186  1.0000  -2.4991   0.0000   0.0000   0.0000   0.3419
  14.500   0.8942   0.18306   0.18055  -0.0947  0.0182  1.0000  -2.4884   0.0000   0.0000   0.0000   0.3427
  14.600   0.8957   0.18486   0.18236  -0.0956  0.0179  1.0000  -2.4780   0.0000   0.0000   0.0000   0.3434
  14.700   0.8972   0.18667   0.18416  -0.0966  0.0176  1.0000  -2.4684   0.0000   0.0000   0.0000   0.3441
  14.800   0.8988   0.18847   0.18596  -0.0975  0.0174  1.0000  -2.4602   0.0000   0.0000   0.0000   0.3448
  14.900   0.9004   0.19025   0.18774  -0.0983  0.0171  1.0000  -2.4537   0.0000   0.0000   0.0000   0.3455
  15.000   0.9021   0.19203   0.18952  -0.0992  0.0168  1.0000  -2.4488   0.0000   0.0000   0.0000   0.3461
  15.100   0.9039   0.19380   0.19128  -0.1001  0.0166  1.0000  -2.4457   0.0000   0.0000   0.0000   0.3467
  15.200   0.9057   0.19556   0.19304  -0.1009  0.0164  1.0000  -2.4444   0.0000   0.0000   0.0000   0.3473
  15.300   0.9076   0.19731   0.19479  -0.1017  0.0161  1.0000  -2.4450   0.0000   0.0000   0.0000   0.3478
  15.400   0.9096   0.19905   0.19653  -0.1025  0.0159  1.0000  -2.4476   0.0000   0.0000   0.0000   0.3483
  15.500   0.9116   0.20078   0.19826  -0.1033  0.0157  1.0000  -2.4526   0.0000   0.0000   0.0000   0.3487
  15.600   0.9137   0.20250   0.19998  -0.1040  0.0155  1.0000  -2.4601   0.0000   0.0000   0.0000   0.3492
  15.700   0.9159   0.20420   0.20168  -0.1047  0.0152  1.0000  -2.4701   0.0000   0.0000   0.0000   0.3495
  15.800   0.9182   0.20590   0.20338  -0.1054  0.0150  1.0000  -2.4830   0.0000   0.0000   0.0000   0.3498
  15.900   0.9205   0.20758   0.20507  -0.1060  0.0148  1.0000  -2.4992   0.0000   0.0000   0.0000   0.3501
  16.000   0.9230   0.20926   0.20674  -0.1066  0.0146  1.0000  -2.5189   0.0000   0.0000   0.0000   0.3502
  16.100   0.9256   0.21093   0.20842  -0.1071  0.0144  1.0000  -2.5429   0.0000   0.0000   0.0000   0.3503
  16.200   0.9281   0.21262   0.21011  -0.1076  0.0143  1.0000  -2.5664   0.0000   0.0000   0.0000   0.3504
  16.300   0.9304   0.21436   0.21186  -0.1082  0.0141  1.0000  -2.5878   0.0000   0.0000   0.0000   0.3506
  16.400   0.9327   0.21615   0.21365  -0.1087  0.0139  1.0000  -2.6098   0.0000   0.0000   0.0000   0.3507
  16.500   0.9343   0.21819   0.21568  -0.1094  0.0137  1.0000  -2.6106   0.0000   0.0000   0.0000   0.3511
  16.600   0.9357   0.22037   0.21787  -0.1102  0.0135  1.0000  -2.6046   0.0000   0.0000   0.0000   0.3516
  16.700   0.9365   0.22282   0.22031  -0.1110  0.0133  1.0000  -2.5857   0.0000   0.0000   0.0000   0.3523
  16.800   0.9364   0.22587   0.22337  -0.1119  0.0131  1.0000  -2.5353   0.0000   0.0000   0.0000   0.3531
  16.900   0.9310   0.23241   0.22985  -0.1135  0.0126  1.0000  -2.3015   0.0000   0.0000   0.0000   0.3556
  17.000   0.9330   0.23454   0.23198  -0.1144  0.0126  1.0000  -2.2865   0.0000   0.0000   0.0000   0.3561
  17.100   0.9350   0.23667   0.23411  -0.1152  0.0126  1.0000  -2.2718   0.0000   0.0000   0.0000   0.3566
  17.200   0.9370   0.23880   0.23624  -0.1161  0.0126  1.0000  -2.2575   0.0000   0.0000   0.0000   0.3571
  17.300   0.9390   0.24094   0.23838  -0.1169  0.0126  1.0000  -2.2433   0.0000   0.0000   0.0000   0.3576
  17.400   0.9410   0.24308   0.24051  -0.1178  0.0126  1.0000  -2.2295   0.0000   0.0000   0.0000   0.3581
  17.500   0.9430   0.24522   0.24265  -0.1186  0.0126  1.0000  -2.2159   0.0000   0.0000   0.0000   0.3586
  17.600   0.9449   0.24736   0.24480  -0.1194  0.0126  1.0000  -2.2025   0.0000   0.0000   0.0000   0.3591
  17.700   0.9469   0.24950   0.24694  -0.1203  0.0126  1.0000  -2.1894   0.0000   0.0000   0.0000   0.3596
  17.800   0.9488   0.25164   0.24908  -0.1211  0.0125  1.0000  -2.1764   0.0000   0.0000   0.0000   0.3601
  17.900   0.9507   0.25379   0.25123  -0.1220  0.0125  1.0000  -2.1637   0.0000   0.0000   0.0000   0.3606
  18.000   0.9526   0.25593   0.25337  -0.1228  0.0125  1.0000  -2.1513   0.0000   0.0000   0.0000   0.3611
  18.100   0.9545   0.25808   0.25552  -0.1236  0.0125  1.0000  -2.1390   0.0000   0.0000   0.0000   0.3616
  18.200   0.9564   0.26023   0.25767  -0.1244  0.0125  1.0000  -2.1269   0.0000   0.0000   0.0000   0.3620
  18.300   0.9582   0.26238   0.25982  -0.1253  0.0125  1.0000  -2.1150   0.0000   0.0000   0.0000   0.3625
  18.400   0.9601   0.26452   0.26197  -0.1261  0.0125  1.0000  -2.1033   0.0000   0.0000   0.0000   0.3630
  18.500   0.9619   0.26667   0.26412  -0.1269  0.0125  1.0000  -2.0917   0.0000   0.0000   0.0000   0.3634
  18.600   0.9636   0.26882   0.26626  -0.1277  0.0125  1.0000  -2.0803   0.0000   0.0000   0.0000   0.3639
  18.700   0.9654   0.27096   0.26841  -0.1285  0.0125  1.0000  -2.0691   0.0000   0.0000   0.0000   0.3644
  18.800   0.9671   0.27311   0.27056  -0.1293  0.0124  1.0000  -2.0581   0.0000   0.0000   0.0000   0.3648
  18.900   0.9688   0.27525   0.27270  -0.1302  0.0124  1.0000  -2.0472   0.0000   0.0000   0.0000   0.3653
  19.000   0.9705   0.27738   0.27484  -0.1310  0.0124  1.0000  -2.0364   0.0000   0.0000   0.0000   0.3657
  19.100   0.9721   0.27952   0.27697  -0.1318  0.0124  1.0000  -2.0258   0.0000   0.0000   0.0000   0.3662
  19.200   0.9737   0.28165   0.27910  -0.1326  0.0124  1.0000  -2.0153   0.0000   0.0000   0.0000   0.3666
  19.300   0.9753   0.28377   0.28123  -0.1334  0.0124  1.0000  -2.0051   0.0000   0.0000   0.0000   0.3671
  19.400   0.9768   0.28588   0.28335  -0.1342  0.0123  1.0000  -1.9948   0.0000   0.0000   0.0000   0.3676
  19.500   0.9783   0.28799   0.28545  -0.1350  0.0123  1.0000  -1.9848   0.0000   0.0000   0.0000   0.3680
  19.600   0.9797   0.29008   0.28755  -0.1358  0.0123  1.0000  -1.9749   0.0000   0.0000   0.0000   0.3685
  19.700   0.9812   0.29217   0.28964  -0.1366  0.0122  1.0000  -1.9652   0.0000   0.0000   0.0000   0.3689
  19.800   0.9826   0.29423   0.29170  -0.1374  0.0122  1.0000  -1.9553   0.0000   0.0000   0.0000   0.3694
  19.900   0.9839   0.29627   0.29375  -0.1382  0.0122  1.0000  -1.9455   0.0000   0.0000   0.0000   0.3699
  20.000   0.9852   0.29830   0.29578  -0.1390  0.0121  1.0000  -1.9359   0.0000   0.0000   0.0000   0.3704
  20.100   0.9865   0.30030   0.29778  -0.1398  0.0121  1.0000  -1.9255   0.0000   0.0000   0.0000   0.3709
  20.200   0.9877   0.30227   0.29976  -0.1406  0.0120  1.0000  -1.9143   0.0000   0.0000   0.0000   0.3714
  20.300   0.9887   0.30425   0.30174  -0.1416  0.0119  1.0000  -1.8983   0.0000   0.0000   0.0000   0.3720
  20.400   0.9897   0.30622   0.30371  -0.1425  0.0118  1.0000  -1.8818   0.0000   0.0000   0.0000   0.3726
  20.500   0.9908   0.30820   0.30569  -0.1434  0.0117  1.0000  -1.8649   0.0000   0.0000   0.0000   0.3732
  20.600   0.9919   0.31020   0.30770  -0.1442  0.0115  1.0000  -1.8474   0.0000   0.0000   0.0000   0.3738
  20.700   0.9929   0.31224   0.30975  -0.1451  0.0114  1.0000  -1.8298   0.0000   0.0000   0.0000   0.3744
  20.800   0.9939   0.31433   0.31184  -0.1459  0.0112  1.0000  -1.8122   0.0000   0.0000   0.0000   0.3749
  20.900   0.9948   0.31645   0.31397  -0.1467  0.0110  1.0000  -1.7952   0.0000   0.0000   0.0000   0.3754
  21.000   0.9955   0.31861   0.31612  -0.1474  0.0109  1.0000  -1.7788   0.0000   0.0000   0.0000   0.3758
  21.100   0.9961   0.32077   0.31830  -0.1480  0.0107  1.0000  -1.7633   0.0000   0.0000   0.0000   0.3763
  21.200   0.9964   0.32294   0.32047  -0.1487  0.0105  1.0000  -1.7483   0.0000   0.0000   0.0000   0.3767
  21.300   0.9965   0.32511   0.32264  -0.1493  0.0104  1.0000  -1.7339   0.0000   0.0000   0.0000   0.3772
  21.400   0.9963   0.32725   0.32480  -0.1498  0.0102  1.0000  -1.7197   0.0000   0.0000   0.0000   0.3776
  21.500   0.9958   0.32937   0.32692  -0.1503  0.0101  1.0000  -1.7056   0.0000   0.0000   0.0000   0.3781
  21.600   0.9949   0.33146   0.32909  -0.1508  0.0100  1.0000  -1.6911   0.0000   0.0000   0.0000   0.3786
  21.700   0.9936   0.33347   0.33112  -0.1512  0.0099  1.0000  -1.6762   0.0000   0.0000   0.0000   0.3791
  21.800   0.9916   0.33539   0.33305  -0.1515  0.0097  1.0000  -1.6602   0.0000   0.0000   0.0000   0.3796
  21.900   0.9885   0.33715   0.33482  -0.1517  0.0096  1.0000  -1.6421   0.0000   0.0000   0.0000   0.3801


