xflr5 v6.61

 Calculated polar for: EPPLER E854 AIRFOIL

 1 1 Reynolds number fixed          Mach number fixed         

 xtrf =   1.000 (top)        1.000 (bottom)
 Mach =   0.000     Re =     0.719 e 6     Ncrit =   9.000

  alpha     CL        CD       CDp       Cm    Top Xtr Bot Xtr   Cpmin    Chinge    XCp    
 ------- -------- --------- --------- -------- ------- ------- -------- --------- ---------
 -10.000  -0.4480   0.07969   0.07793  -0.0486  1.0000  0.0085  -3.9502   0.0000   0.0000   0.0000   0.1280
  -9.900  -0.4619   0.07469   0.07296  -0.0507  1.0000  0.0083  -4.2147   0.0000   0.0000   0.0000   0.1270
  -9.800  -0.4843   0.06653   0.06482  -0.0552  1.0000  0.0080  -4.6458   0.0000   0.0000   0.0000   0.1231
  -9.700  -0.4967   0.06319   0.06146  -0.0570  1.0000  0.0080  -4.7789   0.0000   0.0000   0.0000   0.1227
  -9.600  -0.5047   0.05807   0.05626  -0.0631  0.9988  0.0079  -4.9581   0.0000   0.0000   0.0000   0.1125
  -9.500  -0.5103   0.05342   0.05151  -0.0698  0.9970  0.0078  -5.1058   0.0000   0.0000   0.0000   0.1011
  -9.400  -0.5154   0.04956   0.04755  -0.0755  0.9946  0.0078  -5.2254   0.0000   0.0000   0.0000   0.0916
  -9.300  -0.5198   0.04618   0.04406  -0.0811  0.9910  0.0077  -5.3344   0.0000   0.0000   0.0000   0.0825
  -9.200  -0.5195   0.04199   0.03968  -0.0883  0.9877  0.0075  -5.4817   0.0000   0.0000   0.0000   0.0687
  -9.100  -0.5205   0.03894   0.03646  -0.0909  0.9841  0.0074  -5.6028   0.0000   0.0000   0.0000   0.0641
  -9.000  -0.5202   0.03627   0.03362  -0.0928  0.9801  0.0073  -5.7092   0.0000   0.0000   0.0000   0.0607
  -8.900  -0.5164   0.03364   0.03080  -0.0948  0.9773  0.0072  -5.8017   0.0000   0.0000   0.0000   0.0555
  -8.800  -0.5100   0.03127   0.02822  -0.0966  0.9754  0.0072  -5.8685   0.0000   0.0000   0.0000   0.0496
  -8.700  -0.5016   0.02918   0.02595  -0.0982  0.9740  0.0071  -5.9062   0.0000   0.0000   0.0000   0.0432
  -8.600  -0.4918   0.02735   0.02395  -0.0997  0.9730  0.0071  -5.9170   0.0000   0.0000   0.0000   0.0362
  -8.500  -0.4893   0.02620   0.02268  -0.0989  0.9689  0.0071  -5.9164   0.0000   0.0000   0.0000   0.0369
  -8.400  -0.4839   0.02501   0.02137  -0.0987  0.9649  0.0071  -5.9024   0.0000   0.0000   0.0000   0.0352
  -8.300  -0.4752   0.02378   0.02002  -0.0991  0.9622  0.0071  -5.8716   0.0000   0.0000   0.0000   0.0306
  -8.200  -0.4651   0.02263   0.01874  -0.0997  0.9601  0.0072  -5.8271   0.0000   0.0000   0.0000   0.0248
  -8.100  -0.4542   0.02155   0.01747  -0.1003  0.9583  0.0072  -5.7704   0.0000   0.0000   0.0000   0.0182
  -8.000  -0.4426   0.02055   0.01636  -0.1010  0.9568  0.0072  -5.7050   0.0000   0.0000   0.0000   0.0108
  -7.900  -0.4304   0.01961   0.01532  -0.1017  0.9554  0.0073  -5.6310   0.0000   0.0000   0.0000   0.0026
  -7.800  -0.4179   0.01874   0.01434  -0.1025  0.9542  0.0073  -5.5498   0.0000   0.0000   0.0000  -0.0064
  -7.700  -0.4106   0.01808   0.01361  -0.1020  0.9504  0.0074  -5.4841   0.0000   0.0000   0.0000  -0.0094
  -7.600  -0.4045   0.01748   0.01294  -0.1012  0.9452  0.0074  -5.4197   0.0000   0.0000   0.0000  -0.0112
  -7.500  -0.3947   0.01685   0.01223  -0.1011  0.9416  0.0075  -5.3355   0.0000   0.0000   0.0000  -0.0173
  -7.400  -0.3833   0.01631   0.01163  -0.1014  0.9388  0.0076  -5.2277   0.0000   0.0000   0.0000  -0.0257
  -7.300  -0.3702   0.01582   0.01108  -0.1020  0.9365  0.0078  -5.1040   0.0000   0.0000   0.0000  -0.0368
  -7.200  -0.3563   0.01534   0.01056  -0.1028  0.9346  0.0080  -4.9742   0.0000   0.0000   0.0000  -0.0500
  -7.100  -0.3416   0.01487   0.01003  -0.1038  0.9329  0.0082  -4.8432   0.0000   0.0000   0.0000  -0.0654
  -7.000  -0.3263   0.01438   0.00948  -0.1049  0.9313  0.0083  -4.7137   0.0000   0.0000   0.0000  -0.0832
  -6.900  -0.3103   0.01388   0.00892  -0.1061  0.9298  0.0085  -4.5872   0.0000   0.0000   0.0000  -0.1040
  -6.800  -0.2985   0.01344   0.00843  -0.1064  0.9259  0.0086  -4.4843   0.0000   0.0000   0.0000  -0.1188
  -6.700  -0.2855   0.01299   0.00791  -0.1070  0.9218  0.0087  -4.3799   0.0000   0.0000   0.0000  -0.1373
  -6.600  -0.2702   0.01253   0.00739  -0.1081  0.9184  0.0089  -4.2643   0.0000   0.0000   0.0000  -0.1630
  -6.500  -0.2531   0.01212   0.00691  -0.1095  0.9152  0.0091  -4.1356   0.0000   0.0000   0.0000  -0.1963
  -6.400  -0.2350   0.01176   0.00650  -0.1112  0.9120  0.0093  -3.9957   0.0000   0.0000   0.0000  -0.2373
  -6.300  -0.2167   0.01149   0.00618  -0.1129  0.9085  0.0094  -3.8471   0.0000   0.0000   0.0000  -0.2857
  -6.200  -0.1995   0.01065   0.00515  -0.1145  0.9041  0.0106  -3.8006   0.0000   0.0000   0.0000  -0.3397
  -6.100  -0.1839   0.01005   0.00446  -0.1157  0.8989  0.0147  -3.7510   0.0000   0.0000   0.0000  -0.3959
  -6.000  -0.1712   0.00987   0.00428  -0.1161  0.8923  0.0177  -3.6457   0.0000   0.0000   0.0000  -0.4457
  -5.900  -0.1573   0.00982   0.00421  -0.1168  0.8855  0.0192  -3.5202   0.0000   0.0000   0.0000  -0.5113
  -5.800  -0.1437   0.00947   0.00381  -0.1175  0.8782  0.0281  -3.4451   0.0000   0.0000   0.0000  -0.5872
  -5.700  -0.1297   0.00933   0.00366  -0.1182  0.8709  0.0328  -3.3206   0.0000   0.0000   0.0000  -0.6826
  -5.600  -0.1176   0.00925   0.00356  -0.1185  0.8642  0.0354  -3.2016   0.0000   0.0000   0.0000  -0.7800
  -5.500  -0.1065   0.00919   0.00347  -0.1185  0.8576  0.0378  -3.0869   0.0000   0.0000   0.0000  -0.8878
  -5.400  -0.0955   0.00901   0.00330  -0.1186  0.8503  0.0487  -2.9825   0.0000   0.0000   0.0000  -1.0185
  -5.300  -0.0842   0.00889   0.00320  -0.1187  0.8428  0.0558  -2.8699   0.0000   0.0000   0.0000  -1.1897
  -5.200  -0.0729   0.00882   0.00309  -0.1188  0.8348  0.0644  -2.7589   0.0000   0.0000   0.0000  -1.4135
  -5.100  -0.0624   0.00865   0.00298  -0.1189  0.8283  0.0783  -2.6536   0.0000   0.0000   0.0000  -1.6919
  -5.000  -0.0518   0.00856   0.00289  -0.1188  0.8231  0.0871  -2.5474   0.0000   0.0000   0.0000  -2.0860
  -4.900  -0.0415   0.00839   0.00276  -0.1188  0.8171  0.1045  -2.4438   0.0000   0.0000   0.0000  -2.6652
  -4.800  -0.0309   0.00829   0.00266  -0.1188  0.8105  0.1154  -2.3404   0.0000   0.0000   0.0000  -3.6588
  -4.700  -0.0207   0.00814   0.00256  -0.1187  0.8035  0.1370  -2.2405   0.0000   0.0000   0.0000  -5.5900
  -4.600  -0.0106   0.00802   0.00245  -0.1186  0.7956  0.1581  -2.1421   0.0000   0.0000   0.0000  -11.1317
  -4.500  -0.0005   0.00782   0.00235  -0.1186  0.7888  0.1879  -2.0454   0.0000   0.0000   0.0000  -226.4965
  -4.400   0.0095   0.00757   0.00223  -0.1186  0.7847  0.2260  -1.9505   0.0000   0.0000   0.0000  12.9646
  -4.300   0.0195   0.00733   0.00213  -0.1186  0.7796  0.2677  -1.8566   0.0000   0.0000   0.0000   6.4295
  -4.200   0.0296   0.00712   0.00205  -0.1186  0.7739  0.3089  -1.7635   0.0000   0.0000   0.0000   4.3235
  -4.100   0.0398   0.00700   0.00198  -0.1186  0.7678  0.3404  -1.6709   0.0000   0.0000   0.0000   3.2702
  -4.000   0.0501   0.00693   0.00195  -0.1184  0.7614  0.3647  -1.5787   0.0000   0.0000   0.0000   2.6480
  -3.900   0.0604   0.00691   0.00192  -0.1183  0.7544  0.3810  -1.4879   0.0000   0.0000   0.0000   2.2360
  -3.700   0.0819   0.00685   0.00190  -0.1182  0.7444  0.4130  -1.3063   0.0000   0.0000   0.0000   1.7108
  -3.600   0.0931   0.00685   0.00189  -0.1182  0.7414  0.4196  -1.2163   0.0000   0.0000   0.0000   1.5349
  -3.500   0.1041   0.00682   0.00187  -0.1182  0.7379  0.4307  -1.1288   0.0000   0.0000   0.0000   1.3984
  -3.400   0.1150   0.00679   0.00186  -0.1182  0.7339  0.4415  -1.0432   0.0000   0.0000   0.0000   1.2888
  -3.300   0.1260   0.00679   0.00185  -0.1181  0.7295  0.4485  -0.9592   0.0000   0.0000   0.0000   1.1979
  -3.200   0.1368   0.00680   0.00185  -0.1181  0.7250  0.4550  -0.8769   0.0000   0.0000   0.0000   1.1218
  -3.100   0.1476   0.00682   0.00184  -0.1180  0.7201  0.4611  -0.7966   0.0000   0.0000   0.0000   1.0572
  -3.000   0.1582   0.00686   0.00184  -0.1179  0.7148  0.4655  -0.7469   0.0000   0.0000   0.0000   1.0017
  -2.900   0.1689   0.00691   0.00183  -0.1177  0.7087  0.4682  -0.7071   0.0000   0.0000   0.0000   0.9531
  -2.700   0.1914   0.00697   0.00182  -0.1178  0.7000  0.4711  -0.6270   0.0000   0.0000   0.0000   0.8703
  -2.600   0.2027   0.00698   0.00181  -0.1178  0.6981  0.4721  -0.5900   0.0000   0.0000   0.0000   0.8354
  -2.500   0.2139   0.00697   0.00179  -0.1178  0.6958  0.4761  -0.5966   0.0000   0.0000   0.0000   0.8046
  -2.400   0.2250   0.00694   0.00176  -0.1178  0.6931  0.4832  -0.6032   0.0000   0.0000   0.0000   0.7771
  -2.300   0.2361   0.00692   0.00175  -0.1178  0.6901  0.4894  -0.6097   0.0000   0.0000   0.0000   0.7521
  -2.200   0.2472   0.00691   0.00173  -0.1178  0.6868  0.4940  -0.6163   0.0000   0.0000   0.0000   0.7294
  -2.100   0.2582   0.00692   0.00173  -0.1178  0.6833  0.4974  -0.6228   0.0000   0.0000   0.0000   0.7086
  -2.000   0.2691   0.00693   0.00173  -0.1178  0.6797  0.5010  -0.6293   0.0000   0.0000   0.0000   0.6896
  -1.900   0.2799   0.00695   0.00173  -0.1177  0.6758  0.5054  -0.6357   0.0000   0.0000   0.0000   0.6722
  -1.800   0.2906   0.00699   0.00175  -0.1176  0.6716  0.5101  -0.6421   0.0000   0.0000   0.0000   0.6561
  -1.700   0.3013   0.00703   0.00176  -0.1175  0.6669  0.5141  -0.6485   0.0000   0.0000   0.0000   0.6412
  -1.600   0.3121   0.00709   0.00178  -0.1174  0.6617  0.5174  -0.6549   0.0000   0.0000   0.0000   0.6272
  -1.500   0.3232   0.00715   0.00180  -0.1174  0.6564  0.5199  -0.6614   0.0000   0.0000   0.0000   0.6140
  -1.400   0.3346   0.00718   0.00182  -0.1174  0.6536  0.5218  -0.6680   0.0000   0.0000   0.0000   0.6016
  -1.300   0.3459   0.00719   0.00183  -0.1175  0.6525  0.5232  -0.6747   0.0000   0.0000   0.0000   0.5900
  -1.200   0.3573   0.00720   0.00183  -0.1175  0.6511  0.5242  -0.6814   0.0000   0.0000   0.0000   0.5792
  -1.100   0.3686   0.00721   0.00184  -0.1176  0.6496  0.5249  -0.6881   0.0000   0.0000   0.0000   0.5690
  -1.000   0.3799   0.00723   0.00184  -0.1176  0.6477  0.5255  -0.6949   0.0000   0.0000   0.0000   0.5595
  -0.900   0.3911   0.00722   0.00182  -0.1176  0.6454  0.5273  -0.7024   0.0000   0.0000   0.0000   0.5505
  -0.800   0.4023   0.00720   0.00179  -0.1176  0.6429  0.5317  -0.7099   0.0000   0.0000   0.0000   0.5421
  -0.700   0.4134   0.00718   0.00177  -0.1177  0.6402  0.5360  -0.7173   0.0000   0.0000   0.0000   0.5341
  -0.600   0.4244   0.00717   0.00176  -0.1177  0.6373  0.5399  -0.7247   0.0000   0.0000   0.0000   0.5266
  -0.500   0.4353   0.00717   0.00176  -0.1176  0.6342  0.5434  -0.7321   0.0000   0.0000   0.0000   0.5194
  -0.400   0.4462   0.00718   0.00176  -0.1176  0.6311  0.5464  -0.7395   0.0000   0.0000   0.0000   0.5126
  -0.300   0.4571   0.00720   0.00176  -0.1176  0.6278  0.5491  -0.7468   0.0000   0.0000   0.0000   0.5062
  -0.200   0.4679   0.00722   0.00177  -0.1175  0.6244  0.5516  -0.7540   0.0000   0.0000   0.0000   0.5000
  -0.100   0.4786   0.00725   0.00178  -0.1174  0.6208  0.5540  -0.7613   0.0000   0.0000   0.0000   0.4941
   0.000   0.4894   0.00729   0.00180  -0.1174  0.6167  0.5563  -0.7685   0.0000   0.0000   0.0000   0.4885
   0.100   0.5005   0.00733   0.00182  -0.1174  0.6125  0.5585  -0.7758   0.0000   0.0000   0.0000   0.4831
   0.200   0.5118   0.00737   0.00185  -0.1175  0.6083  0.5607  -0.7833   0.0000   0.0000   0.0000   0.4779
   0.300   0.5232   0.00740   0.00187  -0.1175  0.6057  0.5628  -0.7908   0.0000   0.0000   0.0000   0.4730
   0.400   0.5345   0.00740   0.00188  -0.1176  0.6050  0.5649  -0.7984   0.0000   0.0000   0.0000   0.4682
   0.500   0.5457   0.00740   0.00190  -0.1176  0.6042  0.5669  -0.8060   0.0000   0.0000   0.0000   0.4636
   0.600   0.5570   0.00741   0.00191  -0.1177  0.6033  0.5690  -0.8135   0.0000   0.0000   0.0000   0.4592
   0.700   0.5683   0.00741   0.00193  -0.1177  0.6022  0.5710  -0.8211   0.0000   0.0000   0.0000   0.4550
   0.800   0.5795   0.00742   0.00194  -0.1177  0.6011  0.5728  -0.8287   0.0000   0.0000   0.0000   0.4510
   0.900   0.5908   0.00744   0.00196  -0.1178  0.5997  0.5745  -0.8363   0.0000   0.0000   0.0000   0.4470
   1.000   0.6021   0.00745   0.00198  -0.1178  0.5983  0.5760  -0.8439   0.0000   0.0000   0.0000   0.4433
   1.100   0.6133   0.00747   0.00199  -0.1178  0.5968  0.5772  -0.8515   0.0000   0.0000   0.0000   0.4397
   1.200   0.6245   0.00749   0.00201  -0.1179  0.5951  0.5782  -0.8591   0.0000   0.0000   0.0000   0.4362
   1.300   0.6357   0.00751   0.00203  -0.1179  0.5933  0.5791  -0.8666   0.0000   0.0000   0.0000   0.4328
   1.400   0.6469   0.00754   0.00206  -0.1179  0.5914  0.5798  -0.8742   0.0000   0.0000   0.0000   0.4295
   1.500   0.6580   0.00754   0.00207  -0.1179  0.5895  0.5842  -0.8817   0.0000   0.0000   0.0000   0.4264
   1.600   0.6690   0.00754   0.00208  -0.1180  0.5875  0.5893  -0.8891   0.0000   0.0000   0.0000   0.4233
   1.700   0.6800   0.00754   0.00210  -0.1180  0.5854  0.5944  -0.8966   0.0000   0.0000   0.0000   0.4204
   1.800   0.6909   0.00756   0.00213  -0.1179  0.5831  0.5992  -0.9040   0.0000   0.0000   0.0000   0.4175
   1.900   0.7017   0.00758   0.00216  -0.1179  0.5806  0.6034  -0.9114   0.0000   0.0000   0.0000   0.4148
   2.000   0.7123   0.00761   0.00219  -0.1178  0.5779  0.6073  -0.9187   0.0000   0.0000   0.0000   0.4120
   2.100   0.7230   0.00764   0.00222  -0.1177  0.5747  0.6109  -0.9260   0.0000   0.0000   0.0000   0.4094
   2.200   0.7336   0.00768   0.00226  -0.1177  0.5711  0.6143  -0.9342   0.0000   0.0000   0.0000   0.4069
   2.300   0.7445   0.00773   0.00231  -0.1176  0.5673  0.6176  -0.9424   0.0000   0.0000   0.0000   0.4044
   2.400   0.7556   0.00779   0.00238  -0.1177  0.5635  0.6208  -0.9508   0.0000   0.0000   0.0000   0.4020
   2.500   0.7669   0.00786   0.00244  -0.1178  0.5600  0.6237  -0.9593   0.0000   0.0000   0.0000   0.3997
   2.600   0.7783   0.00792   0.00251  -0.1179  0.5571  0.6265  -0.9678   0.0000   0.0000   0.0000   0.3975
   2.700   0.7894   0.00792   0.00253  -0.1179  0.5566  0.6289  -0.9764   0.0000   0.0000   0.0000   0.3953
   2.800   0.8004   0.00793   0.00255  -0.1178  0.5559  0.6310  -0.9850   0.0000   0.0000   0.0000   0.3931
   2.900   0.8114   0.00793   0.00257  -0.1178  0.5549  0.6327  -0.9938   0.0000   0.0000   0.0000   0.3910
   3.100   0.8333   0.00792   0.00261  -0.1178  0.5523  0.6426  -1.0166   0.0000   0.0000   0.0000   0.3870
   3.200   0.8442   0.00790   0.00265  -0.1177  0.5506  0.6506  -1.0349   0.0000   0.0000   0.0000   0.3850
   3.300   0.8550   0.00790   0.00268  -0.1177  0.5487  0.6575  -1.0575   0.0000   0.0000   0.0000   0.3831
   3.400   0.8659   0.00789   0.00271  -0.1176  0.5464  0.6636  -1.0802   0.0000   0.0000   0.0000   0.3812
   3.500   0.8766   0.00790   0.00275  -0.1176  0.5435  0.6695  -1.1029   0.0000   0.0000   0.0000   0.3794
   3.600   0.8872   0.00792   0.00280  -0.1175  0.5402  0.6748  -1.1256   0.0000   0.0000   0.0000   0.3775
   3.700   0.8976   0.00795   0.00283  -0.1173  0.5365  0.6796  -1.1483   0.0000   0.0000   0.0000   0.3757
   3.800   0.9079   0.00799   0.00286  -0.1172  0.5324  0.6835  -1.1741   0.0000   0.0000   0.0000   0.3740
   3.900   0.9179   0.00804   0.00290  -0.1170  0.5275  0.6865  -1.2015   0.0000   0.0000   0.0000   0.3722
   4.000   0.9276   0.00810   0.00294  -0.1167  0.5216  0.6947  -1.2286   0.0000   0.0000   0.0000   0.3705
   4.100   0.9375   0.00816   0.00301  -0.1165  0.5152  0.7042  -1.2561   0.0000   0.0000   0.0000   0.3689
   4.200   0.9480   0.00823   0.00309  -0.1164  0.5095  0.7122  -1.2844   0.0000   0.0000   0.0000   0.3673
   4.300   0.9588   0.00823   0.00314  -0.1163  0.5080  0.7199  -1.3135   0.0000   0.0000   0.0000   0.3657
   4.400   0.9696   0.00823   0.00318  -0.1163  0.5072  0.7270  -1.3501   0.0000   0.0000   0.0000   0.3642
   4.500   0.9805   0.00823   0.00323  -0.1163  0.5061  0.7335  -1.3875   0.0000   0.0000   0.0000   0.3628
   4.600   0.9914   0.00824   0.00327  -0.1162  0.5044  0.7387  -1.4252   0.0000   0.0000   0.0000   0.3613
   4.700   1.0020   0.00822   0.00331  -0.1161  0.5021  0.7509  -1.4627   0.0000   0.0000   0.0000   0.3599
   4.800   1.0124   0.00822   0.00336  -0.1160  0.4992  0.7619  -1.5001   0.0000   0.0000   0.0000   0.3584
   4.900   1.0228   0.00823   0.00341  -0.1158  0.4960  0.7722  -1.5378   0.0000   0.0000   0.0000   0.3570
   5.000   1.0332   0.00825   0.00347  -0.1157  0.4930  0.7817  -1.5814   0.0000   0.0000   0.0000   0.3556
   5.200   1.0529   0.00829   0.00358  -0.1152  0.4853  0.8065  -1.6817   0.0000   0.0000   0.0000   0.3528
   5.300   1.0619   0.00834   0.00364  -0.1148  0.4796  0.8207  -1.7306   0.0000   0.0000   0.0000   0.3514
   5.500   1.0782   0.00846   0.00378  -0.1135  0.4638  0.8539  -1.8259   0.0000   0.0000   0.0000   0.3484
   5.600   1.0871   0.00847   0.00384  -0.1130  0.4596  0.8744  -1.8877   0.0000   0.0000   0.0000   0.3470
   5.700   1.0946   0.00841   0.00393  -0.1122  0.4578  0.9063  -1.9747   0.0000   0.0000   0.0000   0.3454
   5.800   1.1063   0.00834   0.00395  -0.1122  0.4543  1.0000  -2.0854   0.0000   0.0000   0.0000   0.3442
   5.900   1.1167   0.00840   0.00401  -0.1121  0.4478  1.0000  -2.1909   0.0000   0.0000   0.0000   0.3431
   6.000   1.1260   0.00850   0.00407  -0.1118  0.4374  1.0000  -2.2933   0.0000   0.0000   0.0000   0.3418
   6.100   1.1337   0.00867   0.00415  -0.1112  0.4237  1.0000  -2.3895   0.0000   0.0000   0.0000   0.3405
   6.200   1.1425   0.00881   0.00424  -0.1108  0.4119  1.0000  -2.4916   0.0000   0.0000   0.0000   0.3393
   6.300   1.1527   0.00888   0.00432  -0.1107  0.4054  1.0000  -2.6028   0.0000   0.0000   0.0000   0.3382
   6.400   1.1617   0.00902   0.00441  -0.1103  0.3929  1.0000  -2.7095   0.0000   0.0000   0.0000   0.3370
   6.500   1.1682   0.00927   0.00455  -0.1095  0.3736  1.0000  -2.8049   0.0000   0.0000   0.0000   0.3357
   6.600   1.1765   0.00944   0.00467  -0.1091  0.3586  1.0000  -2.9106   0.0000   0.0000   0.0000   0.3345
   6.700   1.1824   0.00976   0.00485  -0.1082  0.3342  1.0000  -3.0046   0.0000   0.0000   0.0000   0.3332
   6.800   1.1886   0.01007   0.00504  -0.1074  0.3103  1.0000  -3.1008   0.0000   0.0000   0.0000   0.3319
   6.900   1.1928   0.01050   0.00530  -0.1063  0.2816  1.0000  -3.1875   0.0000   0.0000   0.0000   0.3305
   7.000   1.1990   0.01082   0.00551  -0.1055  0.2601  1.0000  -3.2854   0.0000   0.0000   0.0000   0.3293
   7.100   1.2036   0.01124   0.00578  -0.1044  0.2350  1.0000  -3.3753   0.0000   0.0000   0.0000   0.3279
   7.200   1.2086   0.01161   0.00603  -0.1034  0.2137  1.0000  -3.4691   0.0000   0.0000   0.0000   0.3267
   7.300   1.2137   0.01199   0.00630  -0.1025  0.1922  1.0000  -3.5632   0.0000   0.0000   0.0000   0.3254
   7.400   1.2183   0.01238   0.00656  -0.1014  0.1733  1.0000  -3.6554   0.0000   0.0000   0.0000   0.3241
   7.500   1.2240   0.01270   0.00681  -0.1006  0.1563  1.0000  -3.7551   0.0000   0.0000   0.0000   0.3229
   7.600   1.2291   0.01304   0.00705  -0.0996  0.1422  1.0000  -3.8526   0.0000   0.0000   0.0000   0.3216
   7.700   1.2342   0.01336   0.00730  -0.0987  0.1269  1.0000  -3.9507   0.0000   0.0000   0.0000   0.3204
   7.800   1.2398   0.01363   0.00751  -0.0977  0.1173  1.0000  -4.0526   0.0000   0.0000   0.0000   0.3192
   7.900   1.2436   0.01398   0.00776  -0.0965  0.1054  1.0000  -4.1444   0.0000   0.0000   0.0000   0.3178
   8.000   1.2492   0.01422   0.00798  -0.0956  0.0957  1.0000  -4.2486   0.0000   0.0000   0.0000   0.3166
   8.100   1.2547   0.01448   0.00820  -0.0947  0.0889  1.0000  -4.3526   0.0000   0.0000   0.0000   0.3154
   8.200   1.2588   0.01480   0.00845  -0.0936  0.0809  1.0000  -4.4489   0.0000   0.0000   0.0000   0.3141
   8.300   1.2640   0.01507   0.00868  -0.0926  0.0715  1.0000  -4.5522   0.0000   0.0000   0.0000   0.3130
   8.400   1.2705   0.01528   0.00889  -0.0918  0.0680  1.0000  -4.6655   0.0000   0.0000   0.0000   0.3119
   8.500   1.2757   0.01554   0.00912  -0.0909  0.0632  1.0000  -4.7717   0.0000   0.0000   0.0000   0.3107
   8.600   1.2798   0.01585   0.00938  -0.0898  0.0579  1.0000  -4.8710   0.0000   0.0000   0.0000   0.3095
   8.700   1.2846   0.01614   0.00964  -0.0888  0.0513  1.0000  -4.9743   0.0000   0.0000   0.0000   0.3083
   8.800   1.2910   0.01635   0.00985  -0.0881  0.0479  1.0000  -5.0899   0.0000   0.0000   0.0000   0.3072
   8.900   1.2970   0.01657   0.01014  -0.0873  0.0454  1.0000  -5.2056   0.0000   0.0000   0.0000   0.3062
   9.000   1.3020   0.01686   0.01040  -0.0864  0.0420  1.0000  -5.3135   0.0000   0.0000   0.0000   0.3051
   9.100   1.3056   0.01720   0.01071  -0.0852  0.0382  1.0000  -5.4125   0.0000   0.0000   0.0000   0.3039
   9.200   1.3091   0.01755   0.01103  -0.0841  0.0332  1.0000  -5.5088   0.0000   0.0000   0.0000   0.3027
   9.300   1.3142   0.01783   0.01132  -0.0831  0.0300  1.0000  -5.6156   0.0000   0.0000   0.0000   0.3016
   9.400   1.3206   0.01803   0.01154  -0.0825  0.0290  1.0000  -5.7384   0.0000   0.0000   0.0000   0.3007
   9.500   1.3261   0.01829   0.01180  -0.0817  0.0274  1.0000  -5.8543   0.0000   0.0000   0.0000   0.2997
   9.600   1.3307   0.01860   0.01210  -0.0808  0.0254  1.0000  -5.9633   0.0000   0.0000   0.0000   0.2986
   9.700   1.3340   0.01897   0.01245  -0.0797  0.0233  1.0000  -6.0630   0.0000   0.0000   0.0000   0.2975
   9.800   1.3366   0.01938   0.01284  -0.0785  0.0208  1.0000  -6.1554   0.0000   0.0000   0.0000   0.2964
   9.900   1.3384   0.01985   0.01333  -0.0772  0.0177  1.0000  -6.2313   0.0000   0.0000   0.0000   0.2951
  10.000   1.3409   0.02031   0.01383  -0.0760  0.0160  1.0000  -6.3119   0.0000   0.0000   0.0000   0.2940
  10.100   1.3475   0.02051   0.01405  -0.0755  0.0158  1.0000  -6.4430   0.0000   0.0000   0.0000   0.2932
  10.200   1.3535   0.02075   0.01431  -0.0749  0.0155  1.0000  -6.5692   0.0000   0.0000   0.0000   0.2923
  10.300   1.3591   0.02101   0.01459  -0.0742  0.0151  1.0000  -6.6913   0.0000   0.0000   0.0000   0.2915
  10.400   1.3643   0.02131   0.01491  -0.0735  0.0145  1.0000  -6.8083   0.0000   0.0000   0.0000   0.2906
  10.500   1.3689   0.02165   0.01526  -0.0727  0.0135  1.0000  -6.9257   0.0000   0.0000   0.0000   0.2897
  10.600   1.3726   0.02205   0.01567  -0.0719  0.0124  1.0000  -7.0386   0.0000   0.0000   0.0000   0.2888
  10.700   1.3747   0.02255   0.01616  -0.0708  0.0112  1.0000  -7.1350   0.0000   0.0000   0.0000   0.2878
  10.800   1.3752   0.02315   0.01675  -0.0696  0.0097  1.0000  -7.2105   0.0000   0.0000   0.0000   0.2867
  10.900   1.3720   0.02405   0.01771  -0.0679  0.0078  1.0000  -7.2173   0.0000   0.0000   0.0000   0.2854
  11.000   1.3634   0.02536   0.01916  -0.0657  0.0067  1.0000  -7.1605   0.0000   0.0000   0.0000   0.2839
  11.100   1.3565   0.02661   0.02054  -0.0639  0.0062  1.0000  -7.1335   0.0000   0.0000   0.0000   0.2827
  11.200   1.3629   0.02690   0.02082  -0.0635  0.0060  1.0000  -7.2787   0.0000   0.0000   0.0000   0.2820
  11.300   1.3679   0.02729   0.02122  -0.0631  0.0059  1.0000  -7.4098   0.0000   0.0000   0.0000   0.2813
  11.400   1.3721   0.02774   0.02168  -0.0626  0.0057  1.0000  -7.5337   0.0000   0.0000   0.0000   0.2806
  11.500   1.3762   0.02820   0.02216  -0.0621  0.0056  1.0000  -7.6577   0.0000   0.0000   0.0000   0.2800
  11.600   1.3805   0.02867   0.02264  -0.0616  0.0054  1.0000  -7.7852   0.0000   0.0000   0.0000   0.2793
  11.700   1.3846   0.02915   0.02312  -0.0611  0.0053  1.0000  -7.9143   0.0000   0.0000   0.0000   0.2787
  11.800   1.3885   0.02965   0.02363  -0.0606  0.0051  1.0000  -8.0443   0.0000   0.0000   0.0000   0.2780
  11.900   1.3914   0.03025   0.02423  -0.0601  0.0050  1.0000  -8.1651   0.0000   0.0000   0.0000   0.2774
  12.000   1.3928   0.03097   0.02497  -0.0595  0.0049  1.0000  -8.2687   0.0000   0.0000   0.0000   0.2767
  12.100   1.3927   0.03184   0.02587  -0.0588  0.0048  1.0000  -8.3514   0.0000   0.0000   0.0000   0.2761
  12.200   1.3901   0.03294   0.02702  -0.0580  0.0047  1.0000  -8.3971   0.0000   0.0000   0.0000   0.2753
  12.300   1.3923   0.03364   0.02775  -0.0574  0.0046  1.0000  -8.4972   0.0000   0.0000   0.0000   0.2747
  12.400   1.3933   0.03443   0.02859  -0.0569  0.0046  1.0000  -8.5858   0.0000   0.0000   0.0000   0.2741
  12.500   1.3941   0.03527   0.02947  -0.0564  0.0045  1.0000  -8.6712   0.0000   0.0000   0.0000   0.2735
  12.600   1.3951   0.03610   0.03034  -0.0559  0.0045  1.0000  -8.7577   0.0000   0.0000   0.0000   0.2729
  12.700   1.3962   0.03694   0.03124  -0.0554  0.0044  1.0000  -8.8439   0.0000   0.0000   0.0000   0.2724
  12.800   1.3973   0.03781   0.03215  -0.0549  0.0044  1.0000  -8.9287   0.0000   0.0000   0.0000   0.2718
  12.900   1.3977   0.03877   0.03316  -0.0545  0.0043  1.0000  -9.0072   0.0000   0.0000   0.0000   0.2713
  13.000   1.3972   0.03983   0.03427  -0.0541  0.0042  1.0000  -9.0774   0.0000   0.0000   0.0000   0.2708
  13.100   1.3971   0.04086   0.03536  -0.0537  0.0042  1.0000  -9.1511   0.0000   0.0000   0.0000   0.2704
  13.200   1.3974   0.04189   0.03643  -0.0533  0.0041  1.0000  -9.2270   0.0000   0.0000   0.0000   0.2699
  13.300   1.3977   0.04291   0.03750  -0.0529  0.0040  1.0000  -9.3033   0.0000   0.0000   0.0000   0.2694
  13.400   1.3979   0.04396   0.03860  -0.0526  0.0040  1.0000  -9.3789   0.0000   0.0000   0.0000   0.2690
  13.500   1.3973   0.04511   0.03981  -0.0523  0.0039  1.0000  -9.4470   0.0000   0.0000   0.0000   0.2686
  13.600   1.3960   0.04636   0.04111  -0.0521  0.0039  1.0000  -9.5090   0.0000   0.0000   0.0000   0.2683
  13.700   1.3954   0.04755   0.04234  -0.0518  0.0038  1.0000  -9.5770   0.0000   0.0000   0.0000   0.2679
  13.800   1.3952   0.04870   0.04354  -0.0516  0.0038  1.0000  -9.6487   0.0000   0.0000   0.0000   0.2675
  13.900   1.3951   0.04985   0.04474  -0.0514  0.0037  1.0000  -9.7215   0.0000   0.0000   0.0000   0.2672
  14.000   1.3949   0.05100   0.04594  -0.0512  0.0036  1.0000  -9.7942   0.0000   0.0000   0.0000   0.2668
  14.100   1.3946   0.05219   0.04718  -0.0510  0.0036  1.0000  -9.8656   0.0000   0.0000   0.0000   0.2665
  14.200   1.3928   0.05358   0.04862  -0.0509  0.0036  1.0000  -9.9227   0.0000   0.0000   0.0000   0.2663
  14.300   1.3913   0.05496   0.05005  -0.0509  0.0035  1.0000  -9.9817   0.0000   0.0000   0.0000   0.2661
  14.400   1.3905   0.05625   0.05140  -0.0508  0.0035  1.0000  -10.0478   0.0000   0.0000   0.0000   0.2659
  14.500   1.3900   0.05751   0.05276  -0.0508  0.0034  1.0000  -10.1197   0.0000   0.0000   0.0000   0.2657
  14.600   1.3895   0.05877   0.05407  -0.0507  0.0034  1.0000  -10.1899   0.0000   0.0000   0.0000   0.2654
  14.700   1.3890   0.06004   0.05539  -0.0507  0.0033  1.0000  -10.2594   0.0000   0.0000   0.0000   0.2652
  14.800   1.3882   0.06133   0.05674  -0.0507  0.0033  1.0000  -10.3259   0.0000   0.0000   0.0000   0.2650
  14.900   1.3860   0.06280   0.05825  -0.0507  0.0033  1.0000  -10.3776   0.0000   0.0000   0.0000   0.2649
  15.000   1.3832   0.06441   0.05992  -0.0509  0.0032  1.0000  -10.4208   0.0000   0.0000   0.0000   0.2649
  15.100   1.3814   0.06589   0.06146  -0.0511  0.0032  1.0000  -10.4745   0.0000   0.0000   0.0000   0.2649
  15.200   1.3800   0.06733   0.06295  -0.0512  0.0032  1.0000  -10.5323   0.0000   0.0000   0.0000   0.2648
  15.300   1.3788   0.06878   0.06445  -0.0513  0.0031  1.0000  -10.5904   0.0000   0.0000   0.0000   0.2647
  15.400   1.3775   0.07025   0.06597  -0.0514  0.0031  1.0000  -10.6471   0.0000   0.0000   0.0000   0.2646
  15.500   1.3761   0.07177   0.06755  -0.0516  0.0031  1.0000  -10.7009   0.0000   0.0000   0.0000   0.2646
  15.600   1.3744   0.07335   0.06919  -0.0518  0.0031  1.0000  -10.7497   0.0000   0.0000   0.0000   0.2645
  15.700   1.3710   0.07527   0.07117  -0.0522  0.0030  1.0000  -10.7767   0.0000   0.0000   0.0000   0.2647
  15.800   1.3674   0.07722   0.07318  -0.0527  0.0030  1.0000  -10.8012   0.0000   0.0000   0.0000   0.2650
  15.900   1.3649   0.07901   0.07503  -0.0531  0.0030  1.0000  -10.8369   0.0000   0.0000   0.0000   0.2651
  16.000   1.3628   0.08076   0.07684  -0.0535  0.0030  1.0000  -10.8753   0.0000   0.0000   0.0000   0.2652
  16.100   1.3606   0.08251   0.07865  -0.0538  0.0030  1.0000  -10.9130   0.0000   0.0000   0.0000   0.2653
  16.200   1.3584   0.08428   0.08048  -0.0542  0.0030  1.0000  -10.9484   0.0000   0.0000   0.0000   0.2655
  16.300   1.3559   0.08610   0.08237  -0.0547  0.0030  1.0000  -10.9802   0.0000   0.0000   0.0000   0.2657
  16.400   1.3530   0.08803   0.08435  -0.0552  0.0029  1.0000  -11.0054   0.0000   0.0000   0.0000   0.2659
  16.500   1.3479   0.09040   0.08679  -0.0561  0.0029  1.0000  -11.0046   0.0000   0.0000   0.0000   0.2665
  16.600   1.3440   0.09257   0.08903  -0.0569  0.0029  1.0000  -11.0145   0.0000   0.0000   0.0000   0.2670
  16.700   1.3407   0.09460   0.09113  -0.0575  0.0029  1.0000  -11.0310   0.0000   0.0000   0.0000   0.2674
  16.800   1.3375   0.09661   0.09320  -0.0582  0.0029  1.0000  -11.0475   0.0000   0.0000   0.0000   0.2678
  16.900   1.3342   0.09865   0.09530  -0.0589  0.0029  1.0000  -11.0611   0.0000   0.0000   0.0000   0.2682
  17.000   1.3308   0.10074   0.09746  -0.0597  0.0029  1.0000  -11.0711   0.0000   0.0000   0.0000   0.2687
  17.100   1.3265   0.10302   0.09981  -0.0607  0.0029  1.0000  -11.0686   0.0000   0.0000   0.0000   0.2693
  17.200   1.3202   0.10573   0.10259  -0.0620  0.0029  1.0000  -11.0396   0.0000   0.0000   0.0000   0.2703
  17.300   1.3155   0.10813   0.10505  -0.0631  0.0029  1.0000  -11.0268   0.0000   0.0000   0.0000   0.2711
  17.400   1.3112   0.11042   0.10741  -0.0641  0.0029  1.0000  -11.0171   0.0000   0.0000   0.0000   0.2718
  17.500   1.3069   0.11274   0.10979  -0.0652  0.0029  1.0000  -11.0053   0.0000   0.0000   0.0000   0.2726
  17.600   1.3023   0.11513   0.11226  -0.0663  0.0029  1.0000  -10.9872   0.0000   0.0000   0.0000   0.2735
  17.700   1.2961   0.11791   0.11511  -0.0678  0.0029  1.0000  -10.9447   0.0000   0.0000   0.0000   0.2746
  17.800   1.2894   0.12085   0.11812  -0.0694  0.0029  1.0000  -10.8913   0.0000   0.0000   0.0000   0.2760
  17.900   1.2838   0.12349   0.12083  -0.0709  0.0029  1.0000  -10.8518   0.0000   0.0000   0.0000   0.2771
  18.000   1.2786   0.12610   0.12351  -0.0723  0.0029  1.0000  -10.8120   0.0000   0.0000   0.0000   0.2783
  18.100   1.2731   0.12865   0.12613  -0.0739  0.0029  1.0000  -10.7654   0.0000   0.0000   0.0000   0.2795
  18.200   1.2653   0.13173   0.12928  -0.0759  0.0029  1.0000  -10.6823   0.0000   0.0000   0.0000   0.2813
  18.300   1.2586   0.13459   0.13220  -0.0778  0.0029  1.0000  -10.6104   0.0000   0.0000   0.0000   0.2830
  18.400   1.2525   0.13737   0.13506  -0.0796  0.0029  1.0000  -10.5425   0.0000   0.0000   0.0000   0.2845
  18.500   1.2461   0.14036   0.13811  -0.0815  0.0029  1.0000  -10.4654   0.0000   0.0000   0.0000   0.2862
  18.600   1.2373   0.14410   0.14193  -0.0840  0.0029  1.0000  -10.3453   0.0000   0.0000   0.0000   0.2885
  18.700   1.2301   0.14749   0.14538  -0.0861  0.0029  1.0000  -10.2445   0.0000   0.0000   0.0000   0.2905
  18.800   1.2228   0.15096   0.14892  -0.0883  0.0029  1.0000  -10.1377   0.0000   0.0000   0.0000   0.2926
  18.900   1.2133   0.15532   0.15334  -0.0911  0.0030  1.0000  -9.9817   0.0000   0.0000   0.0000   0.2953
  19.000   1.2051   0.15933   0.15742  -0.0936  0.0030  1.0000  -9.8427   0.0000   0.0000   0.0000   0.2978
  19.100   1.1962   0.16364   0.16180  -0.0962  0.0030  1.0000  -9.6832   0.0000   0.0000   0.0000   0.3004
  19.200   1.1855   0.16878   0.16701  -0.0993  0.0030  1.0000  -9.4745   0.0000   0.0000   0.0000   0.3037
  19.300   1.1760   0.17364   0.17193  -0.1022  0.0031  1.0000  -9.2776   0.0000   0.0000   0.0000   0.3068
  19.400   1.1630   0.17989   0.17825  -0.1057  0.0031  1.0000  -8.9900   0.0000   0.0000   0.0000   0.3108
  19.500   1.1506   0.18615   0.18457  -0.1091  0.0032  1.0000  -8.6943   0.0000   0.0000   0.0000   0.3148
  19.600   1.1325   0.19485   0.19334  -0.1136  0.0033  1.0000  -8.2206   0.0000   0.0000   0.0000   0.3204
  19.700   1.0562   0.23019   0.22873  -0.1275  0.0038  1.0000  -5.6080   0.0000   0.0000   0.0000   0.3429
  19.800   1.0473   0.23770   0.23623  -0.1300  0.0039  1.0000  -5.1586   0.0000   0.0000   0.0000   0.3465
  19.900   1.0426   0.24329   0.24180  -0.1319  0.0040  1.0000  -4.8775   0.0000   0.0000   0.0000   0.3488
  20.000   1.0392   0.24828   0.24678  -0.1335  0.0040  1.0000  -4.6493   0.0000   0.0000   0.0000   0.3508
  20.100   1.0371   0.25266   0.25116  -0.1349  0.0041  1.0000  -4.4728   0.0000   0.0000   0.0000   0.3524
  20.200   1.0356   0.25666   0.25515  -0.1362  0.0041  1.0000  -4.3295   0.0000   0.0000   0.0000   0.3538
  20.300   1.0347   0.26037   0.25886  -0.1375  0.0042  1.0000  -4.2103   0.0000   0.0000   0.0000   0.3550
  20.400   1.0342   0.26386   0.26234  -0.1386  0.0042  1.0000  -4.1097   0.0000   0.0000   0.0000   0.3561
  20.500   1.0339   0.26715   0.26564  -0.1397  0.0043  1.0000  -4.0251   0.0000   0.0000   0.0000   0.3570
  20.600   1.0340   0.27027   0.26876  -0.1407  0.0043  1.0000  -3.9549   0.0000   0.0000   0.0000   0.3579
  20.700   1.0342   0.27322   0.27170  -0.1417  0.0044  1.0000  -3.8990   0.0000   0.0000   0.0000   0.3587
  20.800   1.0347   0.27598   0.27446  -0.1426  0.0044  1.0000  -3.8586   0.0000   0.0000   0.0000   0.3593
  20.900   1.0354   0.27851   0.27699  -0.1435  0.0045  1.0000  -3.8359   0.0000   0.0000   0.0000   0.3599
  21.000   1.0364   0.28078   0.27927  -0.1443  0.0045  1.0000  -3.8342   0.0000   0.0000   0.0000   0.3604
  21.100   1.0378   0.28274   0.28122  -0.1450  0.0045  1.0000  -3.8575   0.0000   0.0000   0.0000   0.3607
  21.200   1.0395   0.28430   0.28279  -0.1457  0.0046  1.0000  -3.9110   0.0000   0.0000   0.0000   0.3608
  21.300   1.0426   0.28452   0.28302  -0.1460  0.0047  1.0000  -4.0691   0.0000   0.0000   0.0000   0.3604
  21.600   1.0194   0.31084   0.30931  -0.1512  0.0059  1.0000  -2.5847   0.0000   0.0000   0.0000   0.3694
  21.700   1.0208   0.31285   0.31132  -0.1519  0.0058  1.0000  -2.5972   0.0000   0.0000   0.0000   0.3697
  21.800   1.0221   0.31492   0.31340  -0.1526  0.0057  1.0000  -2.6058   0.0000   0.0000   0.0000   0.3700
  21.900   1.0231   0.31705   0.31553  -0.1533  0.0056  1.0000  -2.6111   0.0000   0.0000   0.0000   0.3704
  22.000   1.0239   0.31922   0.31770  -0.1539  0.0055  1.0000  -2.6140   0.0000   0.0000   0.0000   0.3707
  22.100   1.0245   0.32141   0.31990  -0.1546  0.0054  1.0000  -2.6149   0.0000   0.0000   0.0000   0.3711
  22.200   1.0249   0.32362   0.32211  -0.1552  0.0053  1.0000  -2.6147   0.0000   0.0000   0.0000   0.3715
  22.300   1.0251   0.32582   0.32432  -0.1558  0.0053  1.0000  -2.6140   0.0000   0.0000   0.0000   0.3719
  22.400   1.0249   0.32801   0.32652  -0.1564  0.0052  1.0000  -2.6131   0.0000   0.0000   0.0000   0.3723
  22.500   1.0244   0.33018   0.32870  -0.1570  0.0051  1.0000  -2.6121   0.0000   0.0000   0.0000   0.3728
  22.600   1.0236   0.33231   0.33083  -0.1575  0.0051  1.0000  -2.6109   0.0000   0.0000   0.0000   0.3733
  22.700   1.0221   0.33438   0.33291  -0.1580  0.0050  1.0000  -2.6090   0.0000   0.0000   0.0000   0.3738
  22.800   1.0198   0.33637   0.33491  -0.1584  0.0050  1.0000  -2.6051   0.0000   0.0000   0.0000   0.3744
  22.900   1.0160   0.33820   0.33675  -0.1586  0.0050  1.0000  -2.5953   0.0000   0.0000   0.0000   0.3751


