xflr5 v6.61

 Calculated polar for: EPPLER 580 AIRFOIL

 1 1 Reynolds number fixed          Mach number fixed         

 xtrf =   1.000 (top)        1.000 (bottom)
 Mach =   0.000     Re =     0.500 e 6     Ncrit =   9.000

  alpha     CL        CD       CDp       Cm    Top Xtr Bot Xtr   Cpmin    Chinge    XCp    
 ------- -------- --------- --------- -------- ------- ------- -------- --------- ---------
 -10.000  -0.1979   0.09270   0.09035  -0.0840  0.9820  0.0277  -1.7590   0.0000   0.0000   0.0000  -0.2112
  -9.900  -0.1949   0.09033   0.08798  -0.0861  0.9807  0.0277  -1.7882   0.0000   0.0000   0.0000  -0.2286
  -9.800  -0.1920   0.08769   0.08534  -0.0885  0.9795  0.0277  -1.8255   0.0000   0.0000   0.0000  -0.2481
  -9.700  -0.2256   0.07539   0.07301  -0.0983  0.9771  0.0284  -2.2648   0.0000   0.0000   0.0000  -0.2183
  -9.600  -0.2406   0.06949   0.06705  -0.1042  0.9754  0.0288  -2.4404   0.0000   0.0000   0.0000  -0.2136
  -9.500  -0.2485   0.06527   0.06277  -0.1090  0.9739  0.0291  -2.5409   0.0000   0.0000   0.0000  -0.2183
  -9.400  -0.2533   0.06173   0.05918  -0.1134  0.9728  0.0294  -2.6112   0.0000   0.0000   0.0000  -0.2262
  -9.300  -0.2554   0.05871   0.05610  -0.1174  0.9718  0.0297  -2.6571   0.0000   0.0000   0.0000  -0.2375
  -9.200  -0.2660   0.05769   0.05507  -0.1161  0.9640  0.0297  -2.6818   0.0000   0.0000   0.0000  -0.2129
  -9.100  -0.2692   0.05552   0.05285  -0.1184  0.9604  0.0299  -2.7082   0.0000   0.0000   0.0000  -0.2155
  -9.000  -0.2699   0.05344   0.05072  -0.1209  0.9577  0.0301  -2.7227   0.0000   0.0000   0.0000  -0.2233
  -8.900  -0.2688   0.05149   0.04873  -0.1235  0.9555  0.0304  -2.7267   0.0000   0.0000   0.0000  -0.2345
  -8.800  -0.2651   0.04957   0.04676  -0.1265  0.9538  0.0307  -2.7189   0.0000   0.0000   0.0000  -0.2519
  -8.700  -0.2579   0.04769   0.04481  -0.1298  0.9526  0.0311  -2.6971   0.0000   0.0000   0.0000  -0.2784
  -8.600  -0.2699   0.04721   0.04432  -0.1271  0.9426  0.0311  -2.7135   0.0000   0.0000   0.0000  -0.2443
  -8.500  -0.2662   0.04590   0.04296  -0.1283  0.9393  0.0315  -2.6911   0.0000   0.0000   0.0000  -0.2555
  -8.400  -0.2604   0.04462   0.04163  -0.1297  0.9370  0.0319  -2.6613   0.0000   0.0000   0.0000  -0.2716
  -8.300  -0.2527   0.04347   0.04045  -0.1311  0.9353  0.0323  -2.6201   0.0000   0.0000   0.0000  -0.2924
  -8.200  -0.2438   0.04240   0.03935  -0.1323  0.9339  0.0328  -2.5728   0.0000   0.0000   0.0000  -0.3170
  -8.100  -0.2344   0.04134   0.03825  -0.1337  0.9326  0.0333  -2.5253   0.0000   0.0000   0.0000  -0.3453
  -8.000  -0.2243   0.04026   0.03714  -0.1353  0.9314  0.0339  -2.4776   0.0000   0.0000   0.0000  -0.3786
  -7.900  -0.2131   0.03917   0.03600  -0.1370  0.9304  0.0345  -2.4291   0.0000   0.0000   0.0000  -0.4193
  -7.800  -0.2012   0.03808   0.03485  -0.1389  0.9294  0.0353  -2.3809   0.0000   0.0000   0.0000  -0.4677
  -7.700  -0.1999   0.03741   0.03414  -0.1380  0.9242  0.0358  -2.3586   0.0000   0.0000   0.0000  -0.4675
  -7.600  -0.1977   0.03672   0.03341  -0.1373  0.9186  0.0364  -2.3344   0.0000   0.0000   0.0000  -0.4716
  -7.500  -0.1898   0.03584   0.03247  -0.1379  0.9151  0.0372  -2.2985   0.0000   0.0000   0.0000  -0.5044
  -7.400  -0.1790   0.03489   0.03146  -0.1391  0.9125  0.0383  -2.2578   0.0000   0.0000   0.0000  -0.5557
  -7.300  -0.1668   0.03397   0.03045  -0.1405  0.9103  0.0396  -2.2152   0.0000   0.0000   0.0000  -0.6223
  -7.200  -0.1533   0.03312   0.02953  -0.1419  0.9082  0.0411  -2.1703   0.0000   0.0000   0.0000  -0.7079
  -7.100  -0.1384   0.03250   0.02883  -0.1433  0.9061  0.0429  -2.1200   0.0000   0.0000   0.0000  -0.8209
  -7.000  -0.1220   0.03218   0.02840  -0.1447  0.9041  0.0447  -2.0660   0.0000   0.0000   0.0000  -0.9752
  -6.900  -0.1044   0.03223   0.02840  -0.1459  0.9021  0.0462  -1.9986   0.0000   0.0000   0.0000  -1.1931
  -6.800  -0.0852   0.03333   0.02947  -0.1467  0.8998  0.0475  -1.9047   0.0000   0.0000   0.0000  -1.5256
  -6.700  -0.0792   0.03361   0.02972  -0.1457  0.8943  0.0479  -1.8623   0.0000   0.0000   0.0000  -1.6461
  -6.600  -0.0702   0.03329   0.02932  -0.1457  0.8896  0.0481  -1.8270   0.0000   0.0000   0.0000  -1.8905
  -6.500  -0.0599   0.03265   0.02859  -0.1462  0.8853  0.0482  -1.7963   0.0000   0.0000   0.0000  -2.2619
  -6.400  -0.0667   0.02533   0.02083  -0.1484  0.8793  0.0520  -1.9526   0.0000   0.0000   0.0000  -2.0392
  -6.300  -0.0550   0.02416   0.01961  -0.1494  0.8758  0.0536  -1.9085   0.0000   0.0000   0.0000  -2.5450
  -6.200  -0.0420   0.02340   0.01881  -0.1503  0.8723  0.0551  -1.8560   0.0000   0.0000   0.0000  -3.4250
  -6.100  -0.0285   0.02278   0.01815  -0.1513  0.8686  0.0565  -1.8012   0.0000   0.0000   0.0000  -5.1985
  -6.000  -0.0198   0.02232   0.01768  -0.1511  0.8648  0.0578  -1.7579   0.0000   0.0000   0.0000  -7.5662
  -5.900  -0.0115   0.02189   0.01724  -0.1508  0.8606  0.0592  -1.7169   0.0000   0.0000   0.0000  -13.2056
  -5.800  -0.0018   0.02145   0.01678  -0.1507  0.8563  0.0608  -1.6747   0.0000   0.0000   0.0000  -83.6246
  -5.700   0.0088   0.02103   0.01631  -0.1509  0.8519  0.0626  -1.6323   0.0000   0.0000   0.0000  17.9108
  -5.600   0.0202   0.02064   0.01587  -0.1511  0.8476  0.0647  -1.5896   0.0000   0.0000   0.0000   7.9082
  -5.500   0.0324   0.02032   0.01549  -0.1514  0.8434  0.0669  -1.5463   0.0000   0.0000   0.0000   5.0404
  -5.400   0.0451   0.02012   0.01523  -0.1517  0.8391  0.0691  -1.5014   0.0000   0.0000   0.0000   3.6948
  -5.300   0.0585   0.02019   0.01525  -0.1520  0.8345  0.0712  -1.4512   0.0000   0.0000   0.0000   2.9078
  -5.200   0.0661   0.01830   0.01320  -0.1527  0.8303  0.0803  -1.4344   0.0000   0.0000   0.0000   2.6111
  -5.100   0.0747   0.01774   0.01266  -0.1525  0.8271  0.0829  -1.3958   0.0000   0.0000   0.0000   2.3362
  -4.900   0.0975   0.01415   0.00838  -0.1480  0.8206  0.0318  -1.7183   0.0000   0.0000   0.0000   1.8003
  -4.800   0.1089   0.01414   0.00833  -0.1479  0.8165  0.0301  -1.6714   0.0000   0.0000   0.0000   1.6371
  -4.700   0.1207   0.01422   0.00838  -0.1479  0.8122  0.0291  -1.6130   0.0000   0.0000   0.0000   1.5008
  -4.600   0.1329   0.01434   0.00848  -0.1480  0.8078  0.0283  -1.5504   0.0000   0.0000   0.0000   1.3865
  -4.500   0.1411   0.01324   0.00730  -0.1474  0.8033  0.0263  -1.5845   0.0000   0.0000   0.0000   1.3157
  -4.400   0.1515   0.01273   0.00671  -0.1474  0.7982  0.0256  -1.5694   0.0000   0.0000   0.0000   1.2415
  -4.200   0.1735   0.01200   0.00584  -0.1477  0.7896  0.0245  -1.5171   0.0000   0.0000   0.0000   1.1164
  -4.100   0.1839   0.01170   0.00550  -0.1477  0.7864  0.0240  -1.4864   0.0000   0.0000   0.0000   1.0668
  -4.000   0.1949   0.01144   0.00518  -0.1478  0.7827  0.0236  -1.4523   0.0000   0.0000   0.0000   1.0210
  -3.900   0.2062   0.01121   0.00489  -0.1479  0.7788  0.0233  -1.4151   0.0000   0.0000   0.0000   0.9791
  -3.800   0.2177   0.01101   0.00462  -0.1481  0.7747  0.0229  -1.3754   0.0000   0.0000   0.0000   0.9408
  -3.700   0.2295   0.01085   0.00438  -0.1483  0.7706  0.0227  -1.3333   0.0000   0.0000   0.0000   0.9060
  -3.600   0.2413   0.01071   0.00417  -0.1485  0.7665  0.0224  -1.2889   0.0000   0.0000   0.0000   0.8744
  -3.500   0.2530   0.01061   0.00400  -0.1487  0.7622  0.0222  -1.2417   0.0000   0.0000   0.0000   0.8457
  -3.400   0.2645   0.01059   0.00382  -0.1488  0.7576  0.0217  -1.1674   0.0000   0.0000   0.0000   0.8200
  -3.300   0.2768   0.01052   0.00367  -0.1491  0.7524  0.0216  -1.1224   0.0000   0.0000   0.0000   0.7954
  -3.200   0.2888   0.01046   0.00356  -0.1493  0.7488  0.0214  -1.0766   0.0000   0.0000   0.0000   0.7732
  -3.100   0.2999   0.01038   0.00345  -0.1493  0.7467  0.0214  -1.0314   0.0000   0.0000   0.0000   0.7536
  -3.000   0.3111   0.01032   0.00335  -0.1494  0.7443  0.0214  -0.9852   0.0000   0.0000   0.0000   0.7353
  -2.900   0.3224   0.01026   0.00326  -0.1494  0.7415  0.0215  -0.9383   0.0000   0.0000   0.0000   0.7183
  -2.800   0.3336   0.01022   0.00317  -0.1494  0.7382  0.0217  -0.8910   0.0000   0.0000   0.0000   0.7023
  -2.700   0.3449   0.01018   0.00308  -0.1495  0.7346  0.0220  -0.8439   0.0000   0.0000   0.0000   0.6874
  -2.600   0.3562   0.01015   0.00301  -0.1495  0.7307  0.0225  -0.7972   0.0000   0.0000   0.0000   0.6734
  -2.500   0.3675   0.01013   0.00294  -0.1496  0.7267  0.0235  -0.7515   0.0000   0.0000   0.0000   0.6603
  -2.400   0.3788   0.01010   0.00288  -0.1496  0.7225  0.0250  -0.7480   0.0000   0.0000   0.0000   0.6479
  -2.300   0.3900   0.01007   0.00284  -0.1497  0.7180  0.0275  -0.7556   0.0000   0.0000   0.0000   0.6364
  -2.200   0.4106   0.00817   0.00249  -0.1542  0.7131  0.4807  -0.7674   0.0000   0.0000   0.0000   0.6278
  -2.100   0.4223   0.00825   0.00257  -0.1543  0.7078  0.4982  -0.7752   0.0000   0.0000   0.0000   0.6174
  -2.000   0.4339   0.00831   0.00261  -0.1544  0.7044  0.5031  -0.7831   0.0000   0.0000   0.0000   0.6076
  -1.900   0.4450   0.00831   0.00264  -0.1544  0.7028  0.5122  -0.7906   0.0000   0.0000   0.0000   0.5985
  -1.800   0.4561   0.00832   0.00270  -0.1544  0.7009  0.5193  -0.7982   0.0000   0.0000   0.0000   0.5898
  -1.700   0.4671   0.00835   0.00276  -0.1544  0.6988  0.5248  -0.8058   0.0000   0.0000   0.0000   0.5815
  -1.600   0.4781   0.00839   0.00281  -0.1543  0.6963  0.5293  -0.8134   0.0000   0.0000   0.0000   0.5735
  -1.500   0.4892   0.00842   0.00285  -0.1543  0.6936  0.5332  -0.8216   0.0000   0.0000   0.0000   0.5660
  -1.400   0.5003   0.00846   0.00289  -0.1543  0.6907  0.5365  -0.8302   0.0000   0.0000   0.0000   0.5587
  -1.300   0.5114   0.00851   0.00292  -0.1543  0.6876  0.5394  -0.8388   0.0000   0.0000   0.0000   0.5518
  -1.200   0.5225   0.00855   0.00295  -0.1542  0.6844  0.5420  -0.8474   0.0000   0.0000   0.0000   0.5452
  -1.100   0.5335   0.00860   0.00297  -0.1542  0.6809  0.5442  -0.8559   0.0000   0.0000   0.0000   0.5388
  -1.000   0.5443   0.00866   0.00300  -0.1541  0.6772  0.5462  -0.8645   0.0000   0.0000   0.0000   0.5328
  -0.900   0.5551   0.00872   0.00302  -0.1541  0.6731  0.5479  -0.8729   0.0000   0.0000   0.0000   0.5270
  -0.800   0.5659   0.00880   0.00306  -0.1540  0.6684  0.5494  -0.8814   0.0000   0.0000   0.0000   0.5214
  -0.700   0.5773   0.00889   0.00311  -0.1541  0.6632  0.5508  -0.8901   0.0000   0.0000   0.0000   0.5160
  -0.600   0.5889   0.00904   0.00323  -0.1541  0.6587  0.5531  -0.8990   0.0000   0.0000   0.0000   0.5107
  -0.500   0.5991   0.00919   0.00341  -0.1538  0.6575  0.5553  -0.9073   0.0000   0.0000   0.0000   0.5055
  -0.400   0.6100   0.00911   0.00337  -0.1538  0.6561  0.5671  -0.9159   0.0000   0.0000   0.0000   0.5008
  -0.300   0.6198   0.00921   0.00356  -0.1534  0.6545  0.5764  -0.9240   0.0000   0.0000   0.0000   0.4960
  -0.200   0.6291   0.00939   0.00381  -0.1528  0.6526  0.5835  -0.9319   0.0000   0.0000   0.0000   0.4912
  -0.100   0.6386   0.00957   0.00405  -0.1522  0.6506  0.5895  -0.9398   0.0000   0.0000   0.0000   0.4865
   0.000   0.6490   0.00966   0.00416  -0.1520  0.6484  0.5927  -0.9483   0.0000   0.0000   0.0000   0.4822
   0.100   0.6601   0.00968   0.00420  -0.1520  0.6460  0.5935  -0.9581   0.0000   0.0000   0.0000   0.4782
   0.200   0.6713   0.00969   0.00420  -0.1521  0.6435  0.5943  -0.9679   0.0000   0.0000   0.0000   0.4743
   0.300   0.6824   0.00970   0.00419  -0.1521  0.6407  0.5950  -0.9778   0.0000   0.0000   0.0000   0.4705
   0.400   0.6935   0.00972   0.00419  -0.1522  0.6378  0.5958  -0.9876   0.0000   0.0000   0.0000   0.4669
   0.500   0.7045   0.00974   0.00418  -0.1522  0.6347  0.5965  -0.9974   0.0000   0.0000   0.0000   0.4634
   0.600   0.7153   0.00977   0.00418  -0.1522  0.6314  0.5972  -1.0071   0.0000   0.0000   0.0000   0.4599
   0.700   0.7260   0.00981   0.00418  -0.1521  0.6277  0.5979  -1.0167   0.0000   0.0000   0.0000   0.4566
   0.800   0.7367   0.00986   0.00419  -0.1521  0.6236  0.5985  -1.0264   0.0000   0.0000   0.0000   0.4534
   0.900   0.7478   0.00992   0.00421  -0.1522  0.6189  0.5992  -1.0362   0.0000   0.0000   0.0000   0.4503
   1.000   0.7597   0.00999   0.00425  -0.1524  0.6141  0.5998  -1.0464   0.0000   0.0000   0.0000   0.4473
   1.100   0.7714   0.01003   0.00427  -0.1526  0.6112  0.6004  -1.0566   0.0000   0.0000   0.0000   0.4444
   1.200   0.7824   0.01003   0.00428  -0.1527  0.6103  0.6010  -1.0665   0.0000   0.0000   0.0000   0.4415
   1.300   0.7935   0.01003   0.00429  -0.1527  0.6091  0.6016  -1.0765   0.0000   0.0000   0.0000   0.4387
   1.400   0.8045   0.01003   0.00430  -0.1527  0.6078  0.6022  -1.0864   0.0000   0.0000   0.0000   0.4360
   1.500   0.8156   0.01004   0.00431  -0.1528  0.6063  0.6028  -1.0963   0.0000   0.0000   0.0000   0.4334
   1.600   0.8266   0.01006   0.00433  -0.1528  0.6046  0.6034  -1.1072   0.0000   0.0000   0.0000   0.4308
   1.700   0.8376   0.01008   0.00436  -0.1528  0.6027  0.6040  -1.1185   0.0000   0.0000   0.0000   0.4283
   1.800   0.8486   0.01010   0.00438  -0.1528  0.6007  0.6047  -1.1297   0.0000   0.0000   0.0000   0.4258
   1.900   0.8595   0.01013   0.00441  -0.1528  0.5984  0.6053  -1.1409   0.0000   0.0000   0.0000   0.4234
   2.000   0.8703   0.01016   0.00444  -0.1528  0.5959  0.6058  -1.1521   0.0000   0.0000   0.0000   0.4210
   2.100   0.8811   0.01019   0.00446  -0.1528  0.5931  0.6063  -1.1633   0.0000   0.0000   0.0000   0.4187
   2.200   0.8918   0.01023   0.00448  -0.1528  0.5901  0.6067  -1.1744   0.0000   0.0000   0.0000   0.4165
   2.300   0.9023   0.01027   0.00450  -0.1527  0.5870  0.6071  -1.1855   0.0000   0.0000   0.0000   0.4143
   2.400   0.9128   0.01031   0.00452  -0.1526  0.5837  0.6074  -1.1965   0.0000   0.0000   0.0000   0.4121
   2.500   0.9231   0.01037   0.00455  -0.1525  0.5801  0.6077  -1.2074   0.0000   0.0000   0.0000   0.4100
   2.600   0.9334   0.01043   0.00459  -0.1524  0.5763  0.6080  -1.2183   0.0000   0.0000   0.0000   0.4080
   2.700   0.9442   0.01051   0.00463  -0.1524  0.5723  0.6083  -1.2295   0.0000   0.0000   0.0000   0.4060
   2.800   0.9555   0.01060   0.00470  -0.1525  0.5680  0.6086  -1.2421   0.0000   0.0000   0.0000   0.4041
   2.900   0.9675   0.01070   0.00478  -0.1528  0.5636  0.6088  -1.2556   0.0000   0.0000   0.0000   0.4023
   3.000   0.9786   0.01066   0.00476  -0.1529  0.5628  0.6100  -1.2686   0.0000   0.0000   0.0000   0.4005
   3.100   0.9899   0.01060   0.00469  -0.1531  0.5618  0.6123  -1.2818   0.0000   0.0000   0.0000   0.3988
   3.200   1.0010   0.01055   0.00466  -0.1532  0.5605  0.6144  -1.2948   0.0000   0.0000   0.0000   0.3970
   3.300   1.0118   0.01052   0.00465  -0.1532  0.5589  0.6163  -1.3077   0.0000   0.0000   0.0000   0.3953
   3.400   1.0226   0.01051   0.00464  -0.1533  0.5570  0.6182  -1.3207   0.0000   0.0000   0.0000   0.3936
   3.500   1.0334   0.01050   0.00465  -0.1533  0.5547  0.6199  -1.3336   0.0000   0.0000   0.0000   0.3919
   3.600   1.0441   0.01050   0.00473  -0.1532  0.5524  0.6216  -1.3465   0.0000   0.0000   0.0000   0.3903
   3.700   1.0547   0.01051   0.00475  -0.1532  0.5497  0.6232  -1.3594   0.0000   0.0000   0.0000   0.3886
   3.800   1.0652   0.01053   0.00477  -0.1532  0.5469  0.6248  -1.3738   0.0000   0.0000   0.0000   0.3870
   3.900   1.0757   0.01056   0.00480  -0.1531  0.5441  0.6262  -1.3884   0.0000   0.0000   0.0000   0.3855
   4.000   1.0861   0.01060   0.00484  -0.1530  0.5413  0.6276  -1.4030   0.0000   0.0000   0.0000   0.3839
   4.100   1.0963   0.01064   0.00488  -0.1529  0.5383  0.6289  -1.4174   0.0000   0.0000   0.0000   0.3823
   4.200   1.1063   0.01070   0.00492  -0.1527  0.5350  0.6301  -1.4317   0.0000   0.0000   0.0000   0.3808
   4.300   1.1154   0.01077   0.00496  -0.1524  0.5301  0.6313  -1.4456   0.0000   0.0000   0.0000   0.3792
   4.400   1.1243   0.01088   0.00502  -0.1520  0.5228  0.6325  -1.4610   0.0000   0.0000   0.0000   0.3777
   4.500   1.1343   0.01099   0.00509  -0.1519  0.5151  0.6337  -1.4776   0.0000   0.0000   0.0000   0.3763
   4.600   1.1437   0.01096   0.00509  -0.1516  0.5124  0.6348  -1.4938   0.0000   0.0000   0.0000   0.3747
   4.700   1.1531   0.01096   0.00510  -0.1513  0.5078  0.6359  -1.5102   0.0000   0.0000   0.0000   0.3733
   4.800   1.1622   0.01099   0.00512  -0.1509  0.5011  0.6370  -1.5262   0.0000   0.0000   0.0000   0.3718
   4.900   1.1705   0.01105   0.00514  -0.1504  0.4926  0.6381  -1.5417   0.0000   0.0000   0.0000   0.3703
   5.000   1.1775   0.01117   0.00519  -0.1496  0.4830  0.6392  -1.5565   0.0000   0.0000   0.0000   0.3688
   5.100   1.1836   0.01133   0.00527  -0.1487  0.4712  0.6402  -1.5721   0.0000   0.0000   0.0000   0.3672
   5.200   1.1927   0.01139   0.00532  -0.1484  0.4645  0.6413  -1.5908   0.0000   0.0000   0.0000   0.3658
   5.300   1.2019   0.01145   0.00536  -0.1481  0.4570  0.6424  -1.6097   0.0000   0.0000   0.0000   0.3645
   5.400   1.2100   0.01156   0.00542  -0.1476  0.4471  0.6434  -1.6275   0.0000   0.0000   0.0000   0.3631
   5.500   1.2168   0.01171   0.00550  -0.1468  0.4368  0.6444  -1.6439   0.0000   0.0000   0.0000   0.3617
   5.600   1.2227   0.01187   0.00560  -0.1459  0.4271  0.6454  -1.6607   0.0000   0.0000   0.0000   0.3602
   5.700   1.2303   0.01198   0.00569  -0.1453  0.4203  0.6465  -1.6809   0.0000   0.0000   0.0000   0.3588
   5.800   1.2401   0.01204   0.00575  -0.1452  0.4174  0.6475  -1.7037   0.0000   0.0000   0.0000   0.3576
   5.900   1.2494   0.01211   0.00582  -0.1449  0.4133  0.6485  -1.7260   0.0000   0.0000   0.0000   0.3564
   6.000   1.2581   0.01219   0.00590  -0.1445  0.4078  0.6495  -1.7477   0.0000   0.0000   0.0000   0.3552
   6.100   1.2659   0.01230   0.00598  -0.1440  0.4011  0.6505  -1.7685   0.0000   0.0000   0.0000   0.3539
   6.200   1.2727   0.01244   0.00608  -0.1432  0.3934  0.6515  -1.7881   0.0000   0.0000   0.0000   0.3526
   6.300   1.2784   0.01262   0.00620  -0.1423  0.3852  0.6525  -1.8065   0.0000   0.0000   0.0000   0.3512
   6.400   1.2844   0.01280   0.00634  -0.1414  0.3765  0.6536  -1.8253   0.0000   0.0000   0.0000   0.3499
   6.500   1.2931   0.01290   0.00644  -0.1410  0.3719  0.6547  -1.8472   0.0000   0.0000   0.0000   0.3487
   6.600   1.3018   0.01300   0.00654  -0.1407  0.3674  0.6557  -1.8735   0.0000   0.0000   0.0000   0.3475
   6.700   1.3098   0.01313   0.00665  -0.1402  0.3611  0.6567  -1.8991   0.0000   0.0000   0.0000   0.3464
   6.800   1.3167   0.01330   0.00678  -0.1395  0.3529  0.6577  -1.9234   0.0000   0.0000   0.0000   0.3452
   6.900   1.3222   0.01353   0.00695  -0.1386  0.3436  0.6585  -1.9492   0.0000   0.0000   0.0000   0.3439
   7.000   1.3271   0.01378   0.00714  -0.1376  0.3331  0.6593  -1.9750   0.0000   0.0000   0.0000   0.3426
   7.100   1.3346   0.01394   0.00728  -0.1371  0.3265  0.6599  -2.0052   0.0000   0.0000   0.0000   0.3415
   7.200   1.3424   0.01409   0.00741  -0.1366  0.3201  0.6606  -2.0359   0.0000   0.0000   0.0000   0.3403
   7.300   1.3493   0.01427   0.00756  -0.1359  0.3123  0.6611  -2.0654   0.0000   0.0000   0.0000   0.3392
   7.400   1.3552   0.01450   0.00774  -0.1351  0.3038  0.6616  -2.0932   0.0000   0.0000   0.0000   0.3380
   7.500   1.3808   0.01393   0.00772  -0.1376  0.3452  0.6622  -2.1578   0.0000   0.0000   0.0000   0.3378
   7.600   1.3873   0.01412   0.00789  -0.1369  0.3397  0.6627  -2.1875   0.0000   0.0000   0.0000   0.3367
   7.700   1.3931   0.01433   0.00808  -0.1360  0.3319  0.6634  -2.2160   0.0000   0.0000   0.0000   0.3355
   7.800   1.4012   0.01445   0.00820  -0.1357  0.3271  0.6661  -2.2843   0.0000   0.0000   0.0000   0.3346
   7.900   1.4091   0.01458   0.00833  -0.1352  0.3216  0.6689  -2.3628   0.0000   0.0000   0.0000   0.3336
   8.000   1.4157   0.01476   0.00849  -0.1346  0.3140  0.6717  -2.4369   0.0000   0.0000   0.0000   0.3325
   8.100   1.4208   0.01499   0.00868  -0.1337  0.3051  0.6745  -2.5058   0.0000   0.0000   0.0000   0.3314
   8.200   1.4245   0.01530   0.00894  -0.1325  0.2954  0.6772  -2.5691   0.0000   0.0000   0.0000   0.3302
   8.300   1.4292   0.01557   0.00918  -0.1316  0.2857  0.6799  -2.6372   0.0000   0.0000   0.0000   0.3290
   8.400   1.4361   0.01575   0.00936  -0.1310  0.2793  0.6824  -2.7149   0.0000   0.0000   0.0000   0.3280
   8.500   1.4413   0.01601   0.00959  -0.1302  0.2700  0.6848  -2.7866   0.0000   0.0000   0.0000   0.3270
   8.600   1.4444   0.01638   0.00989  -0.1290  0.2588  0.6870  -2.8495   0.0000   0.0000   0.0000   0.3258
   8.700   1.4462   0.01680   0.01024  -0.1276  0.2463  0.6892  -2.9071   0.0000   0.0000   0.0000   0.3246
   8.800   1.4511   0.01707   0.01050  -0.1267  0.2381  0.6915  -2.9788   0.0000   0.0000   0.0000   0.3235
   8.900   1.4540   0.01745   0.01082  -0.1256  0.2269  0.6937  -3.0422   0.0000   0.0000   0.0000   0.3224
   9.000   1.4547   0.01795   0.01123  -0.1241  0.2141  0.6958  -3.0961   0.0000   0.0000   0.0000   0.3212
   9.100   1.4578   0.01835   0.01159  -0.1230  0.2028  0.6980  -3.1608   0.0000   0.0000   0.0000   0.3201
   9.200   1.4610   0.01874   0.01194  -0.1220  0.1929  0.7002  -3.2269   0.0000   0.0000   0.0000   0.3190
   9.300   1.4617   0.01926   0.01238  -0.1206  0.1820  0.7024  -3.2811   0.0000   0.0000   0.0000   0.3179
   9.400   1.4626   0.01979   0.01284  -0.1193  0.1703  0.7044  -3.3372   0.0000   0.0000   0.0000   0.3168
   9.500   1.4664   0.02017   0.01320  -0.1184  0.1628  0.7065  -3.4064   0.0000   0.0000   0.0000   0.3158
   9.600   1.4685   0.02065   0.01364  -0.1172  0.1535  0.7084  -3.4680   0.0000   0.0000   0.0000   0.3147
   9.700   1.4686   0.02127   0.01417  -0.1159  0.1433  0.7102  -3.5205   0.0000   0.0000   0.0000   0.3136
   9.800   1.4708   0.02176   0.01462  -0.1148  0.1342  0.7119  -3.5826   0.0000   0.0000   0.0000   0.3126
   9.900   1.4731   0.02225   0.01508  -0.1138  0.1269  0.7134  -3.6459   0.0000   0.0000   0.0000   0.3116
  10.000   1.4734   0.02287   0.01565  -0.1126  0.1180  0.7148  -3.6996   0.0000   0.0000   0.0000   0.3106
  10.100   1.4730   0.02357   0.01627  -0.1113  0.1082  0.7160  -3.7493   0.0000   0.0000   0.0000   0.3096
  10.300   1.4761   0.02466   0.01731  -0.1093  0.0936  0.7236  -3.8675   0.0000   0.0000   0.0000   0.3077
  10.400   1.4744   0.02544   0.01805  -0.1080  0.0854  0.7285  -3.9098   0.0000   0.0000   0.0000   0.3067
  10.500   1.4748   0.02612   0.01869  -0.1070  0.0770  0.7334  -3.9614   0.0000   0.0000   0.0000   0.3058
  10.600   1.4743   0.02688   0.01942  -0.1059  0.0679  0.7378  -4.0066   0.0000   0.0000   0.0000   0.3049
  10.700   1.4689   0.02802   0.02047  -0.1043  0.0561  0.7416  -4.0280   0.0000   0.0000   0.0000   0.3039
  10.800   1.4624   0.02928   0.02166  -0.1028  0.0433  0.7453  -4.0431   0.0000   0.0000   0.0000   0.3030
  10.900   1.4548   0.03070   0.02297  -0.1012  0.0287  0.7489  -4.0520   0.0000   0.0000   0.0000   0.3021
  11.000   1.4455   0.03229   0.02449  -0.0996  0.0171  0.7523  -4.0540   0.0000   0.0000   0.0000   0.3012
  11.100   1.4401   0.03362   0.02579  -0.0984  0.0099  0.7559  -4.0692   0.0000   0.0000   0.0000   0.3004
  11.200   1.4411   0.03444   0.02663  -0.0977  0.0088  0.7599  -4.1074   0.0000   0.0000   0.0000   0.2997
  11.300   1.4425   0.03525   0.02745  -0.0970  0.0080  0.7638  -4.1473   0.0000   0.0000   0.0000   0.2990
  11.400   1.4444   0.03602   0.02825  -0.0964  0.0075  0.7674  -4.1916   0.0000   0.0000   0.0000   0.2983
  11.600   1.4478   0.03758   0.02994  -0.0953  0.0069  0.7833  -4.2843   0.0000   0.0000   0.0000   0.2970
  11.700   1.4503   0.03830   0.03074  -0.0949  0.0067  0.7920  -4.3358   0.0000   0.0000   0.0000   0.2964
  11.800   1.4529   0.03901   0.03152  -0.0944  0.0065  0.8010  -4.3895   0.0000   0.0000   0.0000   0.2957
  11.900   1.4556   0.03971   0.03230  -0.0939  0.0064  0.8104  -4.4445   0.0000   0.0000   0.0000   0.2951
  12.100   1.4603   0.04113   0.03389  -0.0929  0.0062  0.8393  -4.5531   0.0000   0.0000   0.0000   0.2938
  12.300   1.4573   0.04273   0.03581  -0.0909  0.0060  0.9237  -4.6080   0.0000   0.0000   0.0000   0.2921
  12.400   1.4566   0.04355   0.03670  -0.0902  0.0060  1.0000  -4.6467   0.0000   0.0000   0.0000   0.2915
  12.500   1.4584   0.04443   0.03762  -0.0899  0.0060  1.0000  -4.6972   0.0000   0.0000   0.0000   0.2910
  12.600   1.4600   0.04530   0.03854  -0.0896  0.0060  1.0000  -4.7479   0.0000   0.0000   0.0000   0.2905
  12.700   1.4614   0.04619   0.03948  -0.0892  0.0060  1.0000  -4.7982   0.0000   0.0000   0.0000   0.2900
  12.800   1.4626   0.04712   0.04047  -0.0889  0.0060  1.0000  -4.8479   0.0000   0.0000   0.0000   0.2895
  12.900   1.4625   0.04825   0.04164  -0.0886  0.0060  1.0000  -4.8906   0.0000   0.0000   0.0000   0.2891
  13.000   1.4621   0.04941   0.04286  -0.0884  0.0060  1.0000  -4.9323   0.0000   0.0000   0.0000   0.2887
  13.100   1.4625   0.05051   0.04401  -0.0881  0.0060  1.0000  -4.9774   0.0000   0.0000   0.0000   0.2883
  13.200   1.4631   0.05160   0.04516  -0.0879  0.0060  1.0000  -5.0237   0.0000   0.0000   0.0000   0.2880
  13.300   1.4637   0.05271   0.04632  -0.0877  0.0060  1.0000  -5.0696   0.0000   0.0000   0.0000   0.2876
  13.400   1.4641   0.05386   0.04752  -0.0875  0.0060  1.0000  -5.1144   0.0000   0.0000   0.0000   0.2872
  13.500   1.4642   0.05506   0.04878  -0.0873  0.0060  1.0000  -5.1572   0.0000   0.0000   0.0000   0.2868
  13.600   1.4627   0.05651   0.05029  -0.0872  0.0061  1.0000  -5.1915   0.0000   0.0000   0.0000   0.2866
  13.700   1.4614   0.05795   0.05179  -0.0871  0.0061  1.0000  -5.2261   0.0000   0.0000   0.0000   0.2864
  13.800   1.4607   0.05932   0.05321  -0.0870  0.0061  1.0000  -5.2636   0.0000   0.0000   0.0000   0.2861
  13.900   1.4602   0.06066   0.05461  -0.0869  0.0061  1.0000  -5.3015   0.0000   0.0000   0.0000   0.2859
  14.000   1.4597   0.06203   0.05603  -0.0869  0.0062  1.0000  -5.3388   0.0000   0.0000   0.0000   0.2856
  14.100   1.4590   0.06343   0.05750  -0.0868  0.0062  1.0000  -5.3742   0.0000   0.0000   0.0000   0.2854
  14.200   1.4578   0.06492   0.05904  -0.0868  0.0062  1.0000  -5.4066   0.0000   0.0000   0.0000   0.2852
  14.300   1.4546   0.06673   0.06091  -0.0869  0.0062  1.0000  -5.4279   0.0000   0.0000   0.0000   0.2852
  14.400   1.4520   0.06846   0.06270  -0.0870  0.0063  1.0000  -5.4518   0.0000   0.0000   0.0000   0.2851
  14.500   1.4503   0.07008   0.06438  -0.0871  0.0063  1.0000  -5.4790   0.0000   0.0000   0.0000   0.2850
  14.600   1.4487   0.07166   0.06602  -0.0872  0.0064  1.0000  -5.5067   0.0000   0.0000   0.0000   0.2849
  14.700   1.4470   0.07325   0.06767  -0.0872  0.0064  1.0000  -5.5333   0.0000   0.0000   0.0000   0.2848
  14.800   1.4451   0.07487   0.06935  -0.0873  0.0064  1.0000  -5.5581   0.0000   0.0000   0.0000   0.2848
  14.900   1.4430   0.07655   0.07109  -0.0875  0.0065  1.0000  -5.5810   0.0000   0.0000   0.0000   0.2847
  15.000   1.4390   0.07858   0.07318  -0.0878  0.0065  1.0000  -5.5936   0.0000   0.0000   0.0000   0.2849
  15.100   1.4357   0.08048   0.07514  -0.0881  0.0066  1.0000  -5.6091   0.0000   0.0000   0.0000   0.2850
  15.200   1.4332   0.08222   0.07694  -0.0884  0.0066  1.0000  -5.6283   0.0000   0.0000   0.0000   0.2851
  15.300   1.4310   0.08390   0.07868  -0.0886  0.0067  1.0000  -5.6485   0.0000   0.0000   0.0000   0.2851
  15.400   1.4290   0.08555   0.08039  -0.0888  0.0067  1.0000  -5.6686   0.0000   0.0000   0.0000   0.2851
  15.500   1.4271   0.08719   0.08209  -0.0890  0.0068  1.0000  -5.6883   0.0000   0.0000   0.0000   0.2851
  15.600   1.4250   0.08885   0.08380  -0.0893  0.0068  1.0000  -5.7068   0.0000   0.0000   0.0000   0.2851
  15.700   1.4228   0.09052   0.08554  -0.0895  0.0069  1.0000  -5.7236   0.0000   0.0000   0.0000   0.2852
  15.800   1.4189   0.09250   0.08759  -0.0900  0.0070  1.0000  -5.7313   0.0000   0.0000   0.0000   0.2855
  15.900   1.4157   0.09436   0.08951  -0.0905  0.0070  1.0000  -5.7411   0.0000   0.0000   0.0000   0.2857
  16.000   1.4133   0.09603   0.09123  -0.0908  0.0071  1.0000  -5.7550   0.0000   0.0000   0.0000   0.2858
  16.100   1.4116   0.09759   0.09286  -0.0911  0.0072  1.0000  -5.7709   0.0000   0.0000   0.0000   0.2859
  16.200   1.4101   0.09910   0.09443  -0.0914  0.0072  1.0000  -5.7872   0.0000   0.0000   0.0000   0.2859
  16.300   1.4087   0.10056   0.09595  -0.0917  0.0073  1.0000  -5.8031   0.0000   0.0000   0.0000   0.2859
  16.400   1.4074   0.10199   0.09744  -0.0919  0.0074  1.0000  -5.8184   0.0000   0.0000   0.0000   0.2859
  16.500   1.4062   0.10332   0.09883  -0.0922  0.0075  1.0000  -5.8327   0.0000   0.0000   0.0000   0.2859
  16.600   1.4049   0.10456   0.10014  -0.0924  0.0076  1.0000  -5.8453   0.0000   0.0000   0.0000   0.2859
  16.700   1.4036   0.10578   0.10142  -0.0927  0.0077  1.0000  -5.8565   0.0000   0.0000   0.0000   0.2859
  16.800   1.4023   0.10702   0.10272  -0.0929  0.0078  1.0000  -5.8661   0.0000   0.0000   0.0000   0.2859
  16.900   1.4010   0.10829   0.10407  -0.0932  0.0080  1.0000  -5.8738   0.0000   0.0000   0.0000   0.2860
  17.000   1.3989   0.10974   0.10559  -0.0936  0.0081  1.0000  -5.8768   0.0000   0.0000   0.0000   0.2861
  17.100   1.3962   0.11135   0.10728  -0.0941  0.0082  1.0000  -5.8754   0.0000   0.0000   0.0000   0.2864
  17.200   1.3937   0.11297   0.10896  -0.0946  0.0083  1.0000  -5.8728   0.0000   0.0000   0.0000   0.2866
  17.300   1.3913   0.11458   0.11065  -0.0951  0.0084  1.0000  -5.8685   0.0000   0.0000   0.0000   0.2869
  17.400   1.3887   0.11623   0.11238  -0.0956  0.0086  1.0000  -5.8611   0.0000   0.0000   0.0000   0.2871
  17.500   1.3859   0.11798   0.11421  -0.0961  0.0087  1.0000  -5.8495   0.0000   0.0000   0.0000   0.2874
  17.600   1.3827   0.11985   0.11617  -0.0967  0.0088  1.0000  -5.8326   0.0000   0.0000   0.0000   0.2877
  17.700   1.3788   0.12188   0.11829  -0.0973  0.0090  1.0000  -5.8091   0.0000   0.0000   0.0000   0.2882
  17.800   1.3741   0.12410   0.12060  -0.0981  0.0091  1.0000  -5.7774   0.0000   0.0000   0.0000   0.2888
  17.900   1.3684   0.12658   0.12318  -0.0990  0.0093  1.0000  -5.7346   0.0000   0.0000   0.0000   0.2895
  18.000   1.3610   0.12944   0.12614  -0.1002  0.0094  1.0000  -5.6760   0.0000   0.0000   0.0000   0.2906
  18.100   1.3512   0.13292   0.12974  -0.1017  0.0096  1.0000  -5.5962   0.0000   0.0000   0.0000   0.2920
  18.200   1.3730   0.13030   0.12702  -0.0997  0.0110  1.0000  -5.7515   0.0000   0.0000   0.0000   0.2891
  18.300   1.3764   0.13139   0.12813  -0.1003  0.0113  1.0000  -5.8134   0.0000   0.0000   0.0000   0.2891
  18.400   1.3773   0.13301   0.12980  -0.1012  0.0117  1.0000  -5.8486   0.0000   0.0000   0.0000   0.2894
  18.500   1.3740   0.13552   0.13239  -0.1026  0.0120  1.0000  -5.8429   0.0000   0.0000   0.0000   0.2903
  18.900   1.2992   0.16127   0.15907  -0.1146  0.0165  1.0000  -5.0114   0.0000   0.0000   0.0000   0.3035
  19.000   1.2891   0.16597   0.16385  -0.1171  0.0167  1.0000  -4.9346   0.0000   0.0000   0.0000   0.3060
  19.100   1.2807   0.17036   0.16830  -0.1196  0.0166  1.0000  -4.8859   0.0000   0.0000   0.0000   0.3084
  19.200   1.2717   0.17502   0.17302  -0.1221  0.0166  1.0000  -4.8235   0.0000   0.0000   0.0000   0.3109
  19.300   1.2624   0.17988   0.17794  -0.1247  0.0167  1.0000  -4.7520   0.0000   0.0000   0.0000   0.3135
  19.400   1.2540   0.18465   0.18277  -0.1273  0.0166  1.0000  -4.6931   0.0000   0.0000   0.0000   0.3162
  19.500   1.2458   0.18945   0.18762  -0.1299  0.0164  1.0000  -4.6372   0.0000   0.0000   0.0000   0.3188
  19.600   1.2368   0.19464   0.19287  -0.1325  0.0163  1.0000  -4.5630   0.0000   0.0000   0.0000   0.3216
  19.700   1.2282   0.19984   0.19810  -0.1351  0.0162  1.0000  -4.4941   0.0000   0.0000   0.0000   0.3244
  19.800   1.2201   0.20503   0.20334  -0.1377  0.0159  1.0000  -4.4303   0.0000   0.0000   0.0000   0.3272
  19.900   1.2106   0.21086   0.20921  -0.1404  0.0158  1.0000  -4.3394   0.0000   0.0000   0.0000   0.3304
  20.000   1.2016   0.21664   0.21502  -0.1431  0.0155  1.0000  -4.2563   0.0000   0.0000   0.0000   0.3334
  20.100   1.1909   0.22329   0.22170  -0.1460  0.0153  1.0000  -4.1418   0.0000   0.0000   0.0000   0.3370
  20.200   1.1780   0.23102   0.22948  -0.1491  0.0151  1.0000  -3.9902   0.0000   0.0000   0.0000   0.3411
  21.200   0.9519   0.29157   0.29022  -0.1575  0.0212  1.0000  -1.7417   0.0000   0.0000   0.0000   0.3843
  21.300   0.9462   0.29235   0.29100  -0.1575  0.0212  1.0000  -1.7070   0.0000   0.0000   0.0000   0.3853
  21.400   0.9411   0.29315   0.29181  -0.1576  0.0212  1.0000  -1.6753   0.0000   0.0000   0.0000   0.3864
  21.500   0.9365   0.29397   0.29264  -0.1577  0.0212  1.0000  -1.6460   0.0000   0.0000   0.0000   0.3873
  21.600   0.9324   0.29480   0.29348  -0.1579  0.0212  1.0000  -1.6187   0.0000   0.0000   0.0000   0.3882
  21.700   0.9286   0.29565   0.29434  -0.1581  0.0211  1.0000  -1.5933   0.0000   0.0000   0.0000   0.3891
  21.800   0.9252   0.29650   0.29520  -0.1583  0.0211  1.0000  -1.5696   0.0000   0.0000   0.0000   0.3899
  21.900   0.9220   0.29736   0.29606  -0.1586  0.0211  1.0000  -1.5473   0.0000   0.0000   0.0000   0.3907


