xflr5 v6.61

 Calculated polar for: EPPLER E852 AIRFOIL

 1 1 Reynolds number fixed          Mach number fixed         

 xtrf =   1.000 (top)        1.000 (bottom)
 Mach =   0.000     Re =     0.400 e 6     Ncrit =   9.000

  alpha     CL        CD       CDp       Cm    Top Xtr Bot Xtr   Cpmin    Chinge    XCp    
 ------- -------- --------- --------- -------- ------- ------- -------- --------- ---------
 -10.000  -0.4189   0.10352   0.10099  -0.0389  1.0000  0.0157  -2.1128   0.0000   0.0000   0.0000   0.1485
  -9.900  -0.4191   0.10213   0.09961  -0.0392  1.0000  0.0158  -2.1258   0.0000   0.0000   0.0000   0.1479
  -9.800  -0.4194   0.10075   0.09824  -0.0396  1.0000  0.0160  -2.1396   0.0000   0.0000   0.0000   0.1473
  -9.700  -0.4198   0.09936   0.09687  -0.0399  1.0000  0.0161  -2.1544   0.0000   0.0000   0.0000   0.1468
  -9.600  -0.4204   0.09797   0.09549  -0.0402  1.0000  0.0163  -2.1699   0.0000   0.0000   0.0000   0.1463
  -9.500  -0.4210   0.09656   0.09410  -0.0405  1.0000  0.0165  -2.1862   0.0000   0.0000   0.0000   0.1459
  -9.400  -0.4218   0.09515   0.09270  -0.0408  1.0000  0.0166  -2.2035   0.0000   0.0000   0.0000   0.1455
  -9.300  -0.4228   0.09373   0.09129  -0.0411  1.0000  0.0168  -2.2217   0.0000   0.0000   0.0000   0.1451
  -9.200  -0.4239   0.09231   0.08989  -0.0414  1.0000  0.0169  -2.2409   0.0000   0.0000   0.0000   0.1448
  -9.100  -0.4253   0.09089   0.08848  -0.0416  1.0000  0.0170  -2.2612   0.0000   0.0000   0.0000   0.1446
  -9.000  -0.4269   0.08947   0.08708  -0.0419  1.0000  0.0172  -2.2824   0.0000   0.0000   0.0000   0.1446
  -8.900  -0.4288   0.08805   0.08568  -0.0421  1.0000  0.0173  -2.3047   0.0000   0.0000   0.0000   0.1446
  -8.800  -0.4310   0.08665   0.08430  -0.0423  1.0000  0.0174  -2.3281   0.0000   0.0000   0.0000   0.1448
  -8.700  -0.4336   0.08527   0.08294  -0.0424  1.0000  0.0175  -2.3524   0.0000   0.0000   0.0000   0.1453
  -8.600  -0.4367   0.08392   0.08161  -0.0425  1.0000  0.0176  -2.3774   0.0000   0.0000   0.0000   0.1460
  -8.500  -0.4403   0.08261   0.08033  -0.0424  1.0000  0.0176  -2.4034   0.0000   0.0000   0.0000   0.1471
  -8.400  -0.4446   0.08135   0.07909  -0.0422  1.0000  0.0177  -2.4303   0.0000   0.0000   0.0000   0.1486
  -8.300  -0.4499   0.08019   0.07796  -0.0418  1.0000  0.0177  -2.4579   0.0000   0.0000   0.0000   0.1508
  -8.200  -0.4564   0.07917   0.07696  -0.0411  1.0000  0.0177  -2.4861   0.0000   0.0000   0.0000   0.1538
  -8.100  -0.4645   0.07835   0.07618  -0.0400  1.0000  0.0176  -2.5143   0.0000   0.0000   0.0000   0.1579
  -8.000  -0.4653   0.07639   0.07423  -0.0418  0.9991  0.0177  -2.5510   0.0000   0.0000   0.0000   0.1544
  -7.900  -0.4608   0.07340   0.07125  -0.0460  0.9972  0.0178  -2.6003   0.0000   0.0000   0.0000   0.1443
  -7.800  -0.4569   0.06999   0.06785  -0.0511  0.9946  0.0179  -2.6646   0.0000   0.0000   0.0000   0.1324
  -7.700  -0.4496   0.06426   0.06209  -0.0615  0.9905  0.0176  -2.7857   0.0000   0.0000   0.0000   0.1076
  -7.600  -0.4403   0.05960   0.05733  -0.0699  0.9879  0.0177  -2.8712   0.0000   0.0000   0.0000   0.0857
  -7.500  -0.4352   0.05657   0.05421  -0.0739  0.9845  0.0179  -2.9218   0.0000   0.0000   0.0000   0.0745
  -7.400  -0.4294   0.05384   0.05139  -0.0773  0.9808  0.0182  -2.9619   0.0000   0.0000   0.0000   0.0645
  -7.300  -0.4217   0.05120   0.04865  -0.0805  0.9781  0.0186  -2.9944   0.0000   0.0000   0.0000   0.0534
  -7.200  -0.4124   0.04872   0.04605  -0.0834  0.9760  0.0191  -3.0193   0.0000   0.0000   0.0000   0.0420
  -7.100  -0.4019   0.04651   0.04373  -0.0860  0.9745  0.0199  -3.0321   0.0000   0.0000   0.0000   0.0302
  -7.000  -0.3896   0.04475   0.04184  -0.0881  0.9735  0.0209  -3.0280   0.0000   0.0000   0.0000   0.0180
  -6.400  -0.3398   0.02674   0.02233  -0.0950  0.9571  0.0119  -4.0168   0.0000   0.0000   0.0000  -0.0361
  -6.300  -0.3250   0.02635   0.02186  -0.0957  0.9563  0.0114  -3.9350   0.0000   0.0000   0.0000  -0.0511
  -6.200  -0.3106   0.02584   0.02127  -0.0965  0.9556  0.0111  -3.8477   0.0000   0.0000   0.0000  -0.0676
  -6.100  -0.2962   0.02516   0.02051  -0.0974  0.9549  0.0110  -3.7703   0.0000   0.0000   0.0000  -0.0857
  -6.000  -0.2824   0.02403   0.01924  -0.0984  0.9542  0.0109  -3.7321   0.0000   0.0000   0.0000  -0.1054
  -5.900  -0.2749   0.02221   0.01721  -0.0982  0.9511  0.0110  -3.7880   0.0000   0.0000   0.0000  -0.1143
  -5.800  -0.2682   0.02036   0.01514  -0.0978  0.9472  0.0114  -3.8533   0.0000   0.0000   0.0000  -0.1218
  -5.700  -0.2579   0.01868   0.01328  -0.0980  0.9450  0.0118  -3.8815   0.0000   0.0000   0.0000  -0.1373
  -5.600  -0.2459   0.01753   0.01200  -0.0983  0.9433  0.0122  -3.8574   0.0000   0.0000   0.0000  -0.1573
  -5.500  -0.2331   0.01664   0.01101  -0.0987  0.9419  0.0122  -3.8127   0.0000   0.0000   0.0000  -0.1812
  -5.400  -0.2198   0.01581   0.01009  -0.0992  0.9406  0.0122  -3.7623   0.0000   0.0000   0.0000  -0.2091
  -5.300  -0.2065   0.01498   0.00917  -0.0997  0.9393  0.0123  -3.7120   0.0000   0.0000   0.0000  -0.2409
  -5.200  -0.1933   0.01417   0.00827  -0.1002  0.9380  0.0126  -3.6628   0.0000   0.0000   0.0000  -0.2766
  -5.100  -0.1802   0.01342   0.00744  -0.1006  0.9367  0.0132  -3.6120   0.0000   0.0000   0.0000  -0.3175
  -5.000  -0.1667   0.01278   0.00673  -0.1012  0.9355  0.0142  -3.5492   0.0000   0.0000   0.0000  -0.3665
  -4.900  -0.1526   0.01230   0.00621  -0.1019  0.9344  0.0158  -3.4603   0.0000   0.0000   0.0000  -0.4278
  -4.800  -0.1381   0.01191   0.00571  -0.1027  0.9333  0.0183  -3.3580   0.0000   0.0000   0.0000  -0.5038
  -4.700  -0.1234   0.01173   0.00552  -0.1035  0.9323  0.0221  -3.2124   0.0000   0.0000   0.0000  -0.6002
  -4.600  -0.1087   0.01143   0.00518  -0.1043  0.9312  0.0256  -3.0808   0.0000   0.0000   0.0000  -0.7218
  -4.500  -0.0943   0.01073   0.00442  -0.1051  0.9299  0.0377  -3.0182   0.0000   0.0000   0.0000  -0.8784
  -4.400  -0.0846   0.01066   0.00434  -0.1049  0.9270  0.0421  -2.8959   0.0000   0.0000   0.0000  -1.0055
  -4.300  -0.0750   0.01022   0.00396  -0.1048  0.9238  0.0627  -2.8119   0.0000   0.0000   0.0000  -1.1635
  -4.200  -0.0641   0.00988   0.00372  -0.1049  0.9211  0.0923  -2.6938   0.0000   0.0000   0.0000  -1.4059
  -4.100  -0.0529   0.00947   0.00351  -0.1053  0.9186  0.1405  -2.5637   0.0000   0.0000   0.0000  -1.7641
  -4.000  -0.0416   0.00896   0.00329  -0.1058  0.9163  0.2163  -2.4315   0.0000   0.0000   0.0000  -2.3177
  -3.900  -0.0305   0.00839   0.00312  -0.1064  0.9140  0.3227  -2.2990   0.0000   0.0000   0.0000  -3.2676
  -3.800  -0.0185   0.00809   0.00308  -0.1068  0.9120  0.3963  -2.1594   0.0000   0.0000   0.0000  -5.5845
  -3.700  -0.0057   0.00797   0.00304  -0.1073  0.9101  0.4340  -2.0162   0.0000   0.0000   0.0000  -18.8219
  -3.600   0.0073   0.00788   0.00301  -0.1077  0.9083  0.4577  -1.8748   0.0000   0.0000   0.0000  15.1985
  -3.500   0.0205   0.00783   0.00297  -0.1081  0.9065  0.4740  -1.7341   0.0000   0.0000   0.0000   5.5688
  -3.400   0.0340   0.00783   0.00291  -0.1086  0.9046  0.4837  -1.5949   0.0000   0.0000   0.0000   3.4714
  -3.300   0.0475   0.00782   0.00287  -0.1091  0.9026  0.4926  -1.4587   0.0000   0.0000   0.0000   2.5669
  -3.200   0.0596   0.00778   0.00286  -0.1094  0.9004  0.5078  -1.3329   0.0000   0.0000   0.0000   2.1003
  -3.100   0.0693   0.00777   0.00288  -0.1091  0.8982  0.5182  -1.2214   0.0000   0.0000   0.0000   1.8349
  -3.000   0.0797   0.00777   0.00288  -0.1089  0.8959  0.5259  -1.1091   0.0000   0.0000   0.0000   1.6265
  -2.900   0.0905   0.00779   0.00284  -0.1088  0.8935  0.5323  -0.9931   0.0000   0.0000   0.0000   1.4613
  -2.800   0.1015   0.00781   0.00282  -0.1088  0.8912  0.5373  -0.8837   0.0000   0.0000   0.0000   1.3287
  -2.700   0.1128   0.00785   0.00281  -0.1088  0.8889  0.5405  -0.7761   0.0000   0.0000   0.0000   1.2206
  -2.600   0.1241   0.00781   0.00276  -0.1089  0.8865  0.5464  -0.6757   0.0000   0.0000   0.0000   1.1325
  -2.500   0.1354   0.00776   0.00271  -0.1089  0.8842  0.5531  -0.6264   0.0000   0.0000   0.0000   1.0589
  -2.400   0.1469   0.00773   0.00269  -0.1090  0.8819  0.5598  -0.5814   0.0000   0.0000   0.0000   0.9959
  -2.300   0.1587   0.00771   0.00268  -0.1091  0.8796  0.5667  -0.5364   0.0000   0.0000   0.0000   0.9413
  -2.200   0.1705   0.00771   0.00268  -0.1092  0.8773  0.5741  -0.4949   0.0000   0.0000   0.0000   0.8938
  -2.100   0.1825   0.00774   0.00269  -0.1094  0.8750  0.5813  -0.4551   0.0000   0.0000   0.0000   0.8521
  -2.000   0.1947   0.00778   0.00270  -0.1096  0.8727  0.5871  -0.4265   0.0000   0.0000   0.0000   0.8153
  -1.900   0.2070   0.00783   0.00272  -0.1098  0.8702  0.5913  -0.4312   0.0000   0.0000   0.0000   0.7827
  -1.800   0.2190   0.00790   0.00275  -0.1101  0.8678  0.5939  -0.4357   0.0000   0.0000   0.0000   0.7544
  -1.700   0.2295   0.00787   0.00273  -0.1100  0.8664  0.5986  -0.4396   0.0000   0.0000   0.0000   0.7308
  -1.600   0.2399   0.00782   0.00268  -0.1099  0.8649  0.6053  -0.4434   0.0000   0.0000   0.0000   0.7094
  -1.500   0.2504   0.00780   0.00267  -0.1098  0.8632  0.6106  -0.4473   0.0000   0.0000   0.0000   0.6896
  -1.400   0.2611   0.00779   0.00267  -0.1097  0.8614  0.6152  -0.4513   0.0000   0.0000   0.0000   0.6713
  -1.300   0.2718   0.00778   0.00268  -0.1096  0.8595  0.6193  -0.4552   0.0000   0.0000   0.0000   0.6543
  -1.200   0.2827   0.00778   0.00269  -0.1096  0.8577  0.6233  -0.4593   0.0000   0.0000   0.0000   0.6385
  -1.100   0.2937   0.00778   0.00269  -0.1096  0.8558  0.6270  -0.4634   0.0000   0.0000   0.0000   0.6239
  -1.000   0.3048   0.00778   0.00269  -0.1096  0.8539  0.6305  -0.4675   0.0000   0.0000   0.0000   0.6102
  -0.900   0.3159   0.00779   0.00269  -0.1097  0.8521  0.6337  -0.4717   0.0000   0.0000   0.0000   0.5975
  -0.800   0.3272   0.00780   0.00269  -0.1097  0.8503  0.6367  -0.4759   0.0000   0.0000   0.0000   0.5856
  -0.700   0.3385   0.00781   0.00269  -0.1098  0.8485  0.6395  -0.4801   0.0000   0.0000   0.0000   0.5745
  -0.600   0.3498   0.00782   0.00269  -0.1098  0.8467  0.6421  -0.4843   0.0000   0.0000   0.0000   0.5640
  -0.500   0.3612   0.00783   0.00269  -0.1099  0.8450  0.6444  -0.4886   0.0000   0.0000   0.0000   0.5542
  -0.400   0.3728   0.00785   0.00269  -0.1100  0.8432  0.6465  -0.4930   0.0000   0.0000   0.0000   0.5450
  -0.300   0.3844   0.00787   0.00269  -0.1102  0.8414  0.6489  -0.4973   0.0000   0.0000   0.0000   0.5363
  -0.200   0.3959   0.00784   0.00268  -0.1103  0.8395  0.6552  -0.5021   0.0000   0.0000   0.0000   0.5282
  -0.100   0.4075   0.00784   0.00270  -0.1104  0.8373  0.6608  -0.5070   0.0000   0.0000   0.0000   0.5206
   0.000   0.4191   0.00787   0.00274  -0.1106  0.8348  0.6661  -0.5119   0.0000   0.0000   0.0000   0.5133
   0.100   0.4307   0.00793   0.00282  -0.1107  0.8319  0.6712  -0.5167   0.0000   0.0000   0.0000   0.5065
   0.200   0.4412   0.00793   0.00285  -0.1106  0.8305  0.6761  -0.5211   0.0000   0.0000   0.0000   0.5001
   0.300   0.4517   0.00792   0.00288  -0.1105  0.8291  0.6810  -0.5255   0.0000   0.0000   0.0000   0.4939
   0.400   0.4622   0.00793   0.00290  -0.1104  0.8277  0.6858  -0.5305   0.0000   0.0000   0.0000   0.4880
   0.500   0.4729   0.00793   0.00292  -0.1103  0.8261  0.6902  -0.5356   0.0000   0.0000   0.0000   0.4824
   0.600   0.4836   0.00795   0.00295  -0.1102  0.8243  0.6940  -0.5408   0.0000   0.0000   0.0000   0.4770
   0.700   0.4944   0.00796   0.00298  -0.1102  0.8224  0.6973  -0.5460   0.0000   0.0000   0.0000   0.4719
   0.900   0.5161   0.00794   0.00300  -0.1101  0.8181  0.7080  -0.5570   0.0000   0.0000   0.0000   0.4622
   1.000   0.5268   0.00792   0.00302  -0.1100  0.8159  0.7147  -0.5635   0.0000   0.0000   0.0000   0.4576
   1.100   0.5375   0.00790   0.00305  -0.1099  0.8137  0.7210  -0.5709   0.0000   0.0000   0.0000   0.4532
   1.200   0.5483   0.00789   0.00307  -0.1098  0.8113  0.7272  -0.5812   0.0000   0.0000   0.0000   0.4489
   1.300   0.5592   0.00788   0.00308  -0.1098  0.8088  0.7333  -0.6001   0.0000   0.0000   0.0000   0.4448
   1.400   0.5702   0.00787   0.00308  -0.1097  0.8061  0.7391  -0.6215   0.0000   0.0000   0.0000   0.4408
   1.500   0.5815   0.00788   0.00309  -0.1097  0.8032  0.7445  -0.6433   0.0000   0.0000   0.0000   0.4370
   1.600   0.5930   0.00790   0.00310  -0.1097  0.7999  0.7491  -0.6655   0.0000   0.0000   0.0000   0.4333
   1.700   0.6043   0.00792   0.00317  -0.1097  0.7959  0.7573  -0.6875   0.0000   0.0000   0.0000   0.4298
   1.800   0.6153   0.00799   0.00328  -0.1097  0.7914  0.7657  -0.7137   0.0000   0.0000   0.0000   0.4264
   1.900   0.6250   0.00793   0.00328  -0.1093  0.7895  0.7739  -0.7402   0.0000   0.0000   0.0000   0.4230
   2.000   0.6348   0.00789   0.00329  -0.1090  0.7870  0.7821  -0.7671   0.0000   0.0000   0.0000   0.4197
   2.100   0.6448   0.00785   0.00328  -0.1087  0.7837  0.7900  -0.7962   0.0000   0.0000   0.0000   0.4165
   2.200   0.6550   0.00781   0.00327  -0.1084  0.7797  0.7971  -0.8336   0.0000   0.0000   0.0000   0.4134
   2.300   0.6645   0.00774   0.00326  -0.1079  0.7753  0.8084  -0.8703   0.0000   0.0000   0.0000   0.4102
   2.400   0.6740   0.00768   0.00324  -0.1074  0.7703  0.8198  -0.9072   0.0000   0.0000   0.0000   0.4071
   2.500   0.6839   0.00762   0.00320  -0.1070  0.7646  0.8314  -0.9454   0.0000   0.0000   0.0000   0.4040
   2.600   0.6943   0.00761   0.00318  -0.1067  0.7585  0.8423  -0.9848   0.0000   0.0000   0.0000   0.4012
   2.700   0.7040   0.00761   0.00321  -0.1062  0.7519  0.8563  -1.0230   0.0000   0.0000   0.0000   0.3983
   2.800   0.7130   0.00759   0.00325  -0.1057  0.7479  0.8715  -1.0654   0.0000   0.0000   0.0000   0.3956
   2.900   0.7214   0.00754   0.00327  -0.1049  0.7455  0.8875  -1.1138   0.0000   0.0000   0.0000   0.3928
   3.000   0.7291   0.00748   0.00329  -0.1041  0.7423  0.9081  -1.1613   0.0000   0.0000   0.0000   0.3900
   3.100   0.7381   0.00740   0.00332  -0.1034  0.7380  0.9324  -1.2326   0.0000   0.0000   0.0000   0.3873
   3.200   0.7522   0.00733   0.00329  -0.1040  0.7319  0.9662  -1.3733   0.0000   0.0000   0.0000   0.3853
   3.300   0.7660   0.00730   0.00327  -0.1045  0.7255  1.0000  -1.5147   0.0000   0.0000   0.0000   0.3835
   3.400   0.7769   0.00732   0.00328  -0.1045  0.7192  1.0000  -1.6435   0.0000   0.0000   0.0000   0.3814
   3.500   0.7877   0.00736   0.00327  -0.1043  0.7108  1.0000  -1.7740   0.0000   0.0000   0.0000   0.3793
   3.600   0.7981   0.00740   0.00330  -0.1041  0.7025  1.0000  -1.9052   0.0000   0.0000   0.0000   0.3772
   3.700   0.8080   0.00739   0.00334  -0.1039  0.6951  1.0000  -2.0357   0.0000   0.0000   0.0000   0.3752
   3.800   0.8182   0.00741   0.00337  -0.1036  0.6861  1.0000  -2.1703   0.0000   0.0000   0.0000   0.3732
   3.900   0.8281   0.00744   0.00338  -0.1033  0.6743  1.0000  -2.3064   0.0000   0.0000   0.0000   0.3713
   4.000   0.8372   0.00753   0.00338  -0.1028  0.6587  1.0000  -2.4398   0.0000   0.0000   0.0000   0.3692
   4.100   0.8466   0.00757   0.00342  -0.1024  0.6410  1.0000  -2.5770   0.0000   0.0000   0.0000   0.3673
   4.200   0.8535   0.00772   0.00342  -0.1014  0.6105  1.0000  -2.7006   0.0000   0.0000   0.0000   0.3650
   4.300   0.8594   0.00794   0.00346  -0.1003  0.5685  1.0000  -2.8193   0.0000   0.0000   0.0000   0.3628
   4.400   0.8630   0.00832   0.00357  -0.0988  0.5151  1.0000  -2.9231   0.0000   0.0000   0.0000   0.3605
   4.500   0.8660   0.00879   0.00376  -0.0973  0.4579  1.0000  -3.0230   0.0000   0.0000   0.0000   0.3582
   4.600   0.8691   0.00931   0.00400  -0.0958  0.3999  1.0000  -3.1231   0.0000   0.0000   0.0000   0.3561
   4.700   0.8724   0.00985   0.00427  -0.0945  0.3437  1.0000  -3.2254   0.0000   0.0000   0.0000   0.3541
   4.800   0.8760   0.01040   0.00455  -0.0933  0.2904  1.0000  -3.3305   0.0000   0.0000   0.0000   0.3522
   4.900   0.8802   0.01094   0.00483  -0.0922  0.2406  1.0000  -3.4400   0.0000   0.0000   0.0000   0.3504
   5.000   0.8851   0.01146   0.00510  -0.0913  0.1944  1.0000  -3.5544   0.0000   0.0000   0.0000   0.3486
   5.100   0.8904   0.01195   0.00538  -0.0904  0.1532  1.0000  -3.6724   0.0000   0.0000   0.0000   0.3469
   5.200   0.8961   0.01241   0.00565  -0.0896  0.1184  1.0000  -3.7935   0.0000   0.0000   0.0000   0.3453
   5.300   0.9022   0.01285   0.00596  -0.0888  0.0901  1.0000  -3.9164   0.0000   0.0000   0.0000   0.3437
   5.400   0.9085   0.01328   0.00625  -0.0880  0.0684  1.0000  -4.0400   0.0000   0.0000   0.0000   0.3421
   5.500   0.9164   0.01357   0.00648  -0.0876  0.0566  1.0000  -4.1776   0.0000   0.0000   0.0000   0.3406
   5.600   0.9231   0.01399   0.00682  -0.0868  0.0432  1.0000  -4.2923   0.0000   0.0000   0.0000   0.3390
   5.700   0.9318   0.01420   0.00705  -0.0864  0.0380  1.0000  -4.4326   0.0000   0.0000   0.0000   0.3376
   5.800   0.9375   0.01473   0.00751  -0.0854  0.0288  1.0000  -4.5341   0.0000   0.0000   0.0000   0.3359
   5.900   0.9446   0.01513   0.00797  -0.0846  0.0243  1.0000  -4.6395   0.0000   0.0000   0.0000   0.3342
   6.000   0.9527   0.01542   0.00827  -0.0840  0.0200  1.0000  -4.7585   0.0000   0.0000   0.0000   0.3328
   6.100   0.9586   0.01593   0.00875  -0.0831  0.0153  1.0000  -4.8436   0.0000   0.0000   0.0000   0.3312
   6.200   0.9578   0.01720   0.01017  -0.0808  0.0125  1.0000  -4.7620   0.0000   0.0000   0.0000   0.3287
   6.300   0.9671   0.01736   0.01036  -0.0805  0.0120  1.0000  -4.9066   0.0000   0.0000   0.0000   0.3275
   6.400   0.9749   0.01771   0.01078  -0.0798  0.0112  1.0000  -5.0032   0.0000   0.0000   0.0000   0.3261
   6.500   0.9819   0.01817   0.01129  -0.0791  0.0105  1.0000  -5.0845   0.0000   0.0000   0.0000   0.3246
   6.600   0.9888   0.01870   0.01187  -0.0782  0.0100  1.0000  -5.1605   0.0000   0.0000   0.0000   0.3231
   6.700   0.9957   0.01927   0.01249  -0.0774  0.0096  1.0000  -5.2358   0.0000   0.0000   0.0000   0.3216
   6.800   1.0029   0.01989   0.01317  -0.0767  0.0092  1.0000  -5.3109   0.0000   0.0000   0.0000   0.3202
   6.900   1.0105   0.02057   0.01391  -0.0760  0.0090  1.0000  -5.3853   0.0000   0.0000   0.0000   0.3189
   7.000   1.0186   0.02131   0.01472  -0.0754  0.0088  1.0000  -5.4575   0.0000   0.0000   0.0000   0.3176
   7.100   1.0272   0.02214   0.01562  -0.0749  0.0087  1.0000  -5.5253   0.0000   0.0000   0.0000   0.3164
   7.200   1.0365   0.02307   0.01664  -0.0745  0.0086  1.0000  -5.5857   0.0000   0.0000   0.0000   0.3152
   7.300   1.0462   0.02404   0.01770  -0.0741  0.0085  1.0000  -5.6478   0.0000   0.0000   0.0000   0.3141
   7.400   1.0555   0.02486   0.01860  -0.0738  0.0084  1.0000  -5.7358   0.0000   0.0000   0.0000   0.3130
   7.500   1.0641   0.02546   0.01925  -0.0734  0.0080  1.0000  -5.8582   0.0000   0.0000   0.0000   0.3120
   7.600   1.0720   0.02585   0.01967  -0.0730  0.0077  1.0000  -6.0154   0.0000   0.0000   0.0000   0.3110
   7.700   1.0793   0.02617   0.02001  -0.0726  0.0072  1.0000  -6.1921   0.0000   0.0000   0.0000   0.3100
   7.800   1.0865   0.02671   0.02057  -0.0721  0.0068  1.0000  -6.3514   0.0000   0.0000   0.0000   0.3091
   7.900   1.0938   0.02779   0.02173  -0.0716  0.0065  1.0000  -6.4445   0.0000   0.0000   0.0000   0.3081
   8.000   1.1010   0.02925   0.02332  -0.0711  0.0063  1.0000  -6.4762   0.0000   0.0000   0.0000   0.3071
   8.100   1.1082   0.03051   0.02471  -0.0705  0.0062  1.0000  -6.5100   0.0000   0.0000   0.0000   0.3060
   8.200   1.1148   0.03175   0.02608  -0.0697  0.0062  1.0000  -6.5409   0.0000   0.0000   0.0000   0.3048
   8.300   1.1207   0.03298   0.02744  -0.0689  0.0062  1.0000  -6.5692   0.0000   0.0000   0.0000   0.3037
   8.400   1.1262   0.03419   0.02878  -0.0681  0.0063  1.0000  -6.5957   0.0000   0.0000   0.0000   0.3025
   8.500   1.1311   0.03537   0.03009  -0.0671  0.0063  1.0000  -6.6198   0.0000   0.0000   0.0000   0.3013
   8.600   1.1356   0.03655   0.03140  -0.0661  0.0064  1.0000  -6.6391   0.0000   0.0000   0.0000   0.3001
   8.700   1.1397   0.03776   0.03275  -0.0651  0.0065  1.0000  -6.6451   0.0000   0.0000   0.0000   0.2989
   8.800   1.1429   0.03923   0.03440  -0.0638  0.0067  1.0000  -6.5963   0.0000   0.0000   0.0000   0.2975
   9.000   1.1169   0.05061   0.04677  -0.0563  0.0098  1.0000  -5.3322   0.0000   0.0000   0.0000   0.2921
   9.100   1.1100   0.05284   0.04915  -0.0543  0.0103  1.0000  -5.2300   0.0000   0.0000   0.0000   0.2906
   9.200   1.1019   0.05500   0.05145  -0.0524  0.0107  1.0000  -5.1391   0.0000   0.0000   0.0000   0.2891
   9.300   1.0916   0.05702   0.05358  -0.0503  0.0111  1.0000  -5.0525   0.0000   0.0000   0.0000   0.2876
  12.700   0.8934   0.13819   0.13615  -0.0716  0.0132  1.0000  -3.5712   0.0000   0.0000   0.0000   0.3183
  12.800   0.8913   0.14124   0.13919  -0.0732  0.0131  1.0000  -3.4983   0.0000   0.0000   0.0000   0.3202
  12.900   0.8890   0.14432   0.14226  -0.0748  0.0131  1.0000  -3.4200   0.0000   0.0000   0.0000   0.3221
  13.000   0.8863   0.14751   0.14544  -0.0764  0.0130  1.0000  -3.3322   0.0000   0.0000   0.0000   0.3241
  13.100   0.8830   0.15093   0.14885  -0.0781  0.0129  1.0000  -3.2258   0.0000   0.0000   0.0000   0.3263
  13.200   0.8779   0.15501   0.15292  -0.0800  0.0127  1.0000  -3.0735   0.0000   0.0000   0.0000   0.3290
  13.600   0.8760   0.16517   0.16301  -0.0851  0.0126  1.0000  -2.8354   0.0000   0.0000   0.0000   0.3346
  13.700   0.8769   0.16720   0.16504  -0.0862  0.0126  1.0000  -2.8046   0.0000   0.0000   0.0000   0.3357
  13.800   0.8779   0.16922   0.16706  -0.0872  0.0126  1.0000  -2.7749   0.0000   0.0000   0.0000   0.3366
  13.900   0.8790   0.17124   0.16908  -0.0882  0.0126  1.0000  -2.7460   0.0000   0.0000   0.0000   0.3376
  14.000   0.8802   0.17327   0.17110  -0.0893  0.0126  1.0000  -2.7181   0.0000   0.0000   0.0000   0.3385
  14.100   0.8815   0.17529   0.17312  -0.0903  0.0126  1.0000  -2.6910   0.0000   0.0000   0.0000   0.3394
  14.200   0.8828   0.17732   0.17514  -0.0913  0.0126  1.0000  -2.6648   0.0000   0.0000   0.0000   0.3403
  14.300   0.8842   0.17934   0.17717  -0.0923  0.0126  1.0000  -2.6394   0.0000   0.0000   0.0000   0.3411
  14.400   0.8857   0.18137   0.17919  -0.0933  0.0126  1.0000  -2.6147   0.0000   0.0000   0.0000   0.3420
  14.500   0.8872   0.18341   0.18122  -0.0942  0.0126  1.0000  -2.5908   0.0000   0.0000   0.0000   0.3428
  14.600   0.8888   0.18544   0.18325  -0.0952  0.0125  1.0000  -2.5676   0.0000   0.0000   0.0000   0.3436
  14.700   0.8904   0.18747   0.18528  -0.0962  0.0125  1.0000  -2.5450   0.0000   0.0000   0.0000   0.3443
  14.800   0.8921   0.18950   0.18731  -0.0971  0.0125  1.0000  -2.5232   0.0000   0.0000   0.0000   0.3451
  14.900   0.8938   0.19153   0.18933  -0.0981  0.0125  1.0000  -2.5020   0.0000   0.0000   0.0000   0.3458
  15.000   0.8956   0.19356   0.19136  -0.0990  0.0125  1.0000  -2.4814   0.0000   0.0000   0.0000   0.3466
  15.100   0.8974   0.19559   0.19339  -0.1000  0.0125  1.0000  -2.4615   0.0000   0.0000   0.0000   0.3473
  15.200   0.8992   0.19762   0.19542  -0.1009  0.0125  1.0000  -2.4421   0.0000   0.0000   0.0000   0.3480
  15.300   0.9011   0.19965   0.19745  -0.1018  0.0125  1.0000  -2.4233   0.0000   0.0000   0.0000   0.3487
  15.400   0.9030   0.20168   0.19948  -0.1028  0.0125  1.0000  -2.4051   0.0000   0.0000   0.0000   0.3493
  15.500   0.9049   0.20371   0.20150  -0.1037  0.0125  1.0000  -2.3875   0.0000   0.0000   0.0000   0.3500
  15.600   0.9069   0.20574   0.20353  -0.1046  0.0125  1.0000  -2.3703   0.0000   0.0000   0.0000   0.3507
  15.700   0.9088   0.20776   0.20555  -0.1055  0.0125  1.0000  -2.3538   0.0000   0.0000   0.0000   0.3513
  15.800   0.9108   0.20978   0.20757  -0.1064  0.0124  1.0000  -2.3378   0.0000   0.0000   0.0000   0.3519
  15.900   0.9129   0.21180   0.20959  -0.1074  0.0124  1.0000  -2.3223   0.0000   0.0000   0.0000   0.3525
  16.000   0.9149   0.21381   0.21160  -0.1083  0.0124  1.0000  -2.3074   0.0000   0.0000   0.0000   0.3531
  16.100   0.9170   0.21582   0.21361  -0.1092  0.0124  1.0000  -2.2931   0.0000   0.0000   0.0000   0.3537
  16.200   0.9191   0.21783   0.21561  -0.1101  0.0124  1.0000  -2.2794   0.0000   0.0000   0.0000   0.3543
  16.300   0.9212   0.21982   0.21760  -0.1110  0.0124  1.0000  -2.2664   0.0000   0.0000   0.0000   0.3549
  16.400   0.9233   0.22180   0.21959  -0.1119  0.0123  1.0000  -2.2540   0.0000   0.0000   0.0000   0.3555
  16.500   0.9255   0.22377   0.22155  -0.1128  0.0123  1.0000  -2.2425   0.0000   0.0000   0.0000   0.3560
  16.600   0.9277   0.22572   0.22350  -0.1137  0.0123  1.0000  -2.2318   0.0000   0.0000   0.0000   0.3566
  16.700   0.9300   0.22763   0.22541  -0.1146  0.0122  1.0000  -2.2223   0.0000   0.0000   0.0000   0.3571
  16.800   0.9323   0.22951   0.22729  -0.1155  0.0121  1.0000  -2.2141   0.0000   0.0000   0.0000   0.3576
  16.900   0.9347   0.23133   0.22911  -0.1164  0.0121  1.0000  -2.2076   0.0000   0.0000   0.0000   0.3581
  17.000   0.9373   0.23308   0.23086  -0.1173  0.0119  1.0000  -2.2029   0.0000   0.0000   0.0000   0.3587
  17.100   0.9399   0.23476   0.23254  -0.1182  0.0117  1.0000  -2.1989   0.0000   0.0000   0.0000   0.3592
  17.200   0.9424   0.23650   0.23428  -0.1193  0.0115  1.0000  -2.1878   0.0000   0.0000   0.0000   0.3598
  17.300   0.9445   0.23838   0.23616  -0.1204  0.0113  1.0000  -2.1673   0.0000   0.0000   0.0000   0.3605
  17.400   0.9467   0.24033   0.23811  -0.1214  0.0111  1.0000  -2.1467   0.0000   0.0000   0.0000   0.3612
  17.500   0.9490   0.24234   0.24011  -0.1224  0.0108  1.0000  -2.1269   0.0000   0.0000   0.0000   0.3619
  17.600   0.9512   0.24438   0.24216  -0.1234  0.0106  1.0000  -2.1086   0.0000   0.0000   0.0000   0.3624
  17.700   0.9533   0.24646   0.24423  -0.1243  0.0104  1.0000  -2.0920   0.0000   0.0000   0.0000   0.3630
  17.800   0.9554   0.24855   0.24632  -0.1252  0.0102  1.0000  -2.0771   0.0000   0.0000   0.0000   0.3635
  17.900   0.9575   0.25064   0.24842  -0.1261  0.0100  1.0000  -2.0637   0.0000   0.0000   0.0000   0.3640
  18.000   0.9595   0.25275   0.25053  -0.1269  0.0098  1.0000  -2.0517   0.0000   0.0000   0.0000   0.3645
  18.100   0.9615   0.25486   0.25264  -0.1278  0.0096  1.0000  -2.0409   0.0000   0.0000   0.0000   0.3649
  18.200   0.9635   0.25697   0.25475  -0.1286  0.0094  1.0000  -2.0311   0.0000   0.0000   0.0000   0.3654
  18.300   0.9655   0.25909   0.25687  -0.1294  0.0093  1.0000  -2.0223   0.0000   0.0000   0.0000   0.3658
  18.400   0.9674   0.26120   0.25899  -0.1303  0.0091  1.0000  -2.0143   0.0000   0.0000   0.0000   0.3663
  18.500   0.9693   0.26333   0.26111  -0.1311  0.0090  1.0000  -2.0070   0.0000   0.0000   0.0000   0.3667
  18.600   0.9712   0.26545   0.26324  -0.1319  0.0088  1.0000  -2.0005   0.0000   0.0000   0.0000   0.3671
  18.700   0.9730   0.26758   0.26537  -0.1327  0.0087  1.0000  -1.9946   0.0000   0.0000   0.0000   0.3675
  18.800   0.9748   0.26971   0.26750  -0.1335  0.0086  1.0000  -1.9893   0.0000   0.0000   0.0000   0.3679
  18.900   0.9766   0.27184   0.26963  -0.1343  0.0084  1.0000  -1.9846   0.0000   0.0000   0.0000   0.3684
  19.000   0.9784   0.27398   0.27177  -0.1350  0.0083  1.0000  -1.9804   0.0000   0.0000   0.0000   0.3688
  19.100   0.9801   0.27612   0.27391  -0.1358  0.0082  1.0000  -1.9768   0.0000   0.0000   0.0000   0.3691
  19.200   0.9818   0.27826   0.27606  -0.1366  0.0081  1.0000  -1.9737   0.0000   0.0000   0.0000   0.3695
  19.300   0.9835   0.28040   0.27820  -0.1373  0.0080  1.0000  -1.9711   0.0000   0.0000   0.0000   0.3699
  19.400   0.9851   0.28255   0.28035  -0.1381  0.0079  1.0000  -1.9691   0.0000   0.0000   0.0000   0.3703
  19.500   0.9867   0.28470   0.28250  -0.1388  0.0078  1.0000  -1.9675   0.0000   0.0000   0.0000   0.3707
  19.600   0.9883   0.28685   0.28466  -0.1396  0.0077  1.0000  -1.9664   0.0000   0.0000   0.0000   0.3711
  19.700   0.9898   0.28900   0.28681  -0.1403  0.0076  1.0000  -1.9658   0.0000   0.0000   0.0000   0.3714
  19.800   0.9913   0.29115   0.28897  -0.1410  0.0075  1.0000  -1.9658   0.0000   0.0000   0.0000   0.3718
  19.900   0.9927   0.29331   0.29112  -0.1418  0.0074  1.0000  -1.9662   0.0000   0.0000   0.0000   0.3722
  20.000   0.9941   0.29546   0.29328  -0.1425  0.0073  1.0000  -1.9672   0.0000   0.0000   0.0000   0.3725
  20.100   0.9954   0.29761   0.29544  -0.1432  0.0072  1.0000  -1.9687   0.0000   0.0000   0.0000   0.3729
  20.200   0.9967   0.29977   0.29759  -0.1439  0.0071  1.0000  -1.9707   0.0000   0.0000   0.0000   0.3732
  20.300   0.9979   0.30192   0.29975  -0.1445  0.0071  1.0000  -1.9733   0.0000   0.0000   0.0000   0.3736
  20.400   0.9990   0.30407   0.30190  -0.1452  0.0070  1.0000  -1.9764   0.0000   0.0000   0.0000   0.3739
  20.500   1.0001   0.30621   0.30406  -0.1459  0.0069  1.0000  -1.9800   0.0000   0.0000   0.0000   0.3742
  20.600   1.0010   0.30836   0.30620  -0.1465  0.0068  1.0000  -1.9844   0.0000   0.0000   0.0000   0.3746
  20.700   1.0019   0.31049   0.30835  -0.1471  0.0068  1.0000  -1.9892   0.0000   0.0000   0.0000   0.3749
  20.800   1.0027   0.31263   0.31049  -0.1477  0.0067  1.0000  -1.9947   0.0000   0.0000   0.0000   0.3752
  20.900   1.0034   0.31476   0.31262  -0.1483  0.0066  1.0000  -2.0006   0.0000   0.0000   0.0000   0.3756
  21.000   1.0040   0.31688   0.31475  -0.1489  0.0066  1.0000  -2.0071   0.0000   0.0000   0.0000   0.3759
  21.100   1.0044   0.31899   0.31686  -0.1494  0.0065  1.0000  -2.0140   0.0000   0.0000   0.0000   0.3762
  21.200   1.0047   0.32110   0.31905  -0.1500  0.0065  1.0000  -2.0209   0.0000   0.0000   0.0000   0.3765
  21.300   1.0048   0.32319   0.32115  -0.1504  0.0064  1.0000  -2.0284   0.0000   0.0000   0.0000   0.3768
  21.400   1.0048   0.32527   0.32324  -0.1509  0.0064  1.0000  -2.0362   0.0000   0.0000   0.0000   0.3771
  21.500   1.0044   0.32733   0.32531  -0.1513  0.0063  1.0000  -2.0439   0.0000   0.0000   0.0000   0.3774
  21.600   1.0038   0.32937   0.32735  -0.1517  0.0062  1.0000  -2.0511   0.0000   0.0000   0.0000   0.3777
  21.700   1.0027   0.33138   0.32937  -0.1520  0.0062  1.0000  -2.0572   0.0000   0.0000   0.0000   0.3780
  21.800   1.0011   0.33334   0.33135  -0.1522  0.0061  1.0000  -2.0614   0.0000   0.0000   0.0000   0.3784
  21.900   0.9987   0.33523   0.33325  -0.1523  0.0061  1.0000  -2.0620   0.0000   0.0000   0.0000   0.3787
  22.000   0.9949   0.33695   0.33499  -0.1522  0.0060  1.0000  -2.0560   0.0000   0.0000   0.0000   0.3792
  22.100   0.9086   0.32000   0.31818  -0.1435  0.0063  1.0000  -1.6907   0.0000   0.0000   0.0000   0.3855
  22.200   0.9039   0.31982   0.31802  -0.1433  0.0063  1.0000  -1.6797   0.0000   0.0000   0.0000   0.3861
  22.300   0.8998   0.31975   0.31796  -0.1432  0.0062  1.0000  -1.6717   0.0000   0.0000   0.0000   0.3866
  22.400   0.8961   0.31974   0.31797  -0.1431  0.0062  1.0000  -1.6659   0.0000   0.0000   0.0000   0.3870
  22.500   0.8928   0.31978   0.31802  -0.1430  0.0061  1.0000  -1.6617   0.0000   0.0000   0.0000   0.3874
  22.600   0.8897   0.31986   0.31812  -0.1429  0.0061  1.0000  -1.6649   0.0000   0.0000   0.0000   0.3878
  22.700   0.8869   0.31999   0.31825  -0.1428  0.0060  1.0000  -1.6700   0.0000   0.0000   0.0000   0.3881
  22.800   0.8842   0.32016   0.31843  -0.1427  0.0060  1.0000  -1.6754   0.0000   0.0000   0.0000   0.3884
  22.900   0.8812   0.32043   0.31871  -0.1427  0.0059  1.0000  -1.6700   0.0000   0.0000   0.0000   0.3888
  23.000   0.8779   0.32080   0.31910  -0.1426  0.0059  1.0000  -1.6510   0.0000   0.0000   0.0000   0.3892
  23.100   0.8720   0.32156   0.31987  -0.1422  0.0057  1.0000  -1.5728   0.0000   0.0000   0.0000   0.3899


