xflr5 v6.61

 Calculated polar for: EPPLER 393 AIRFOIL

 1 1 Reynolds number fixed          Mach number fixed         

 xtrf =   1.000 (top)        1.000 (bottom)
 Mach =   0.000     Re =     0.500 e 6     Ncrit =   9.000

  alpha     CL        CD       CDp       Cm    Top Xtr Bot Xtr   Cpmin    Chinge    XCp    
 ------- -------- --------- --------- -------- ------- ------- -------- --------- ---------
 -10.000  -0.2948   0.10865   0.10633  -0.0427  1.0000  0.0155  -1.6371   0.0000   0.0000   0.0000   0.0917
  -9.900  -0.2943   0.10741   0.10510  -0.0429  1.0000  0.0155  -1.6470   0.0000   0.0000   0.0000   0.0912
  -9.800  -0.2940   0.10617   0.10387  -0.0430  1.0000  0.0155  -1.6571   0.0000   0.0000   0.0000   0.0909
  -9.700  -0.2938   0.10493   0.10265  -0.0430  1.0000  0.0155  -1.6675   0.0000   0.0000   0.0000   0.0906
  -9.600  -0.2937   0.10371   0.10144  -0.0431  1.0000  0.0155  -1.6782   0.0000   0.0000   0.0000   0.0906
  -9.500  -0.2938   0.10250   0.10024  -0.0431  1.0000  0.0155  -1.6893   0.0000   0.0000   0.0000   0.0907
  -9.400  -0.2941   0.10130   0.09905  -0.0431  1.0000  0.0155  -1.7007   0.0000   0.0000   0.0000   0.0910
  -9.300  -0.2946   0.10012   0.09789  -0.0431  1.0000  0.0155  -1.7124   0.0000   0.0000   0.0000   0.0916
  -9.200  -0.2953   0.09896   0.09674  -0.0430  1.0000  0.0155  -1.7245   0.0000   0.0000   0.0000   0.0924
  -9.100  -0.2963   0.09782   0.09562  -0.0429  1.0000  0.0155  -1.7370   0.0000   0.0000   0.0000   0.0936
  -9.000  -0.2976   0.09672   0.09453  -0.0427  1.0000  0.0155  -1.7498   0.0000   0.0000   0.0000   0.0951
  -8.900  -0.2992   0.09565   0.09348  -0.0424  1.0000  0.0155  -1.7630   0.0000   0.0000   0.0000   0.0970
  -8.800  -0.2984   0.09426   0.09211  -0.0429  0.9997  0.0155  -1.7765   0.0000   0.0000   0.0000   0.0950
  -8.700  -0.2926   0.09227   0.09011  -0.0450  0.9989  0.0155  -1.7902   0.0000   0.0000   0.0000   0.0849
  -8.600  -0.2866   0.09023   0.08807  -0.0471  0.9978  0.0155  -1.8046   0.0000   0.0000   0.0000   0.0741
  -8.500  -0.2805   0.08816   0.08600  -0.0494  0.9967  0.0155  -1.8201   0.0000   0.0000   0.0000   0.0622
  -8.400  -0.2748   0.08610   0.08395  -0.0516  0.9954  0.0155  -1.8364   0.0000   0.0000   0.0000   0.0506
  -8.300  -0.2689   0.08402   0.08186  -0.0538  0.9938  0.0155  -1.8540   0.0000   0.0000   0.0000   0.0380
  -8.200  -0.2630   0.08190   0.07974  -0.0562  0.9922  0.0155  -1.8729   0.0000   0.0000   0.0000   0.0243
  -8.100  -0.2568   0.07972   0.07757  -0.0587  0.9905  0.0155  -1.8933   0.0000   0.0000   0.0000   0.0092
  -8.000  -0.2504   0.07748   0.07533  -0.0614  0.9890  0.0155  -1.9157   0.0000   0.0000   0.0000  -0.0078
  -7.900  -0.2434   0.07513   0.07298  -0.0644  0.9876  0.0155  -1.9404   0.0000   0.0000   0.0000  -0.0272
  -7.800  -0.2387   0.07296   0.07082  -0.0667  0.9844  0.0155  -1.9666   0.0000   0.0000   0.0000  -0.0422
  -7.700  -0.2336   0.07066   0.06852  -0.0694  0.9808  0.0155  -1.9960   0.0000   0.0000   0.0000  -0.0599
  -7.600  -0.2273   0.06813   0.06598  -0.0726  0.9775  0.0155  -2.0302   0.0000   0.0000   0.0000  -0.0825
  -7.500  -0.2200   0.06529   0.06315  -0.0766  0.9747  0.0155  -2.0717   0.0000   0.0000   0.0000  -0.1112
  -7.400  -0.2113   0.06191   0.05976  -0.0817  0.9723  0.0155  -2.1271   0.0000   0.0000   0.0000  -0.1501
  -7.300  -0.2079   0.05854   0.05639  -0.0859  0.9637  0.0155  -2.1998   0.0000   0.0000   0.0000  -0.1771
  -7.200  -0.1971   0.05309   0.05085  -0.0960  0.9574  0.0155  -2.3221   0.0000   0.0000   0.0000  -0.2514
  -7.100  -0.1877   0.04948   0.04713  -0.1020  0.9532  0.0155  -2.3876   0.0000   0.0000   0.0000  -0.3084
  -7.000  -0.1841   0.04706   0.04463  -0.1047  0.9446  0.0155  -2.4305   0.0000   0.0000   0.0000  -0.3333
  -6.900  -0.1780   0.04441   0.04187  -0.1078  0.9372  0.0154  -2.4732   0.0000   0.0000   0.0000  -0.3710
  -6.800  -0.1852   0.03572   0.03283  -0.1152  0.9271  0.0143  -2.8819   0.0000   0.0000   0.0000  -0.3869
  -6.700  -0.1834   0.03246   0.02935  -0.1169  0.9173  0.0138  -3.0067   0.0000   0.0000   0.0000  -0.4022
  -6.600  -0.1774   0.02960   0.02624  -0.1184  0.9092  0.0133  -3.0990   0.0000   0.0000   0.0000  -0.4329
  -6.500  -0.1694   0.02710   0.02348  -0.1197  0.9023  0.0129  -3.1702   0.0000   0.0000   0.0000  -0.4724
  -6.400  -0.1615   0.02502   0.02118  -0.1204  0.8954  0.0125  -3.2224   0.0000   0.0000   0.0000  -0.5118
  -6.300  -0.1540   0.02328   0.01922  -0.1206  0.8879  0.0122  -3.2599   0.0000   0.0000   0.0000  -0.5502
  -6.200  -0.1454   0.02167   0.01739  -0.1208  0.8804  0.0119  -3.2874   0.0000   0.0000   0.0000  -0.5993
  -6.100  -0.1359   0.02020   0.01569  -0.1210  0.8732  0.0116  -3.3052   0.0000   0.0000   0.0000  -0.6597
  -5.900  -0.1165   0.01775   0.01284  -0.1211  0.8603  0.0112  -3.3131   0.0000   0.0000   0.0000  -0.8108
  -5.800  -0.1069   0.01672   0.01165  -0.1210  0.8540  0.0110  -3.3048   0.0000   0.0000   0.0000  -0.9052
  -5.700  -0.0969   0.01579   0.01057  -0.1209  0.8474  0.0109  -3.2891   0.0000   0.0000   0.0000  -1.0225
  -5.600  -0.0867   0.01497   0.00958  -0.1208  0.8410  0.0108  -3.2663   0.0000   0.0000   0.0000  -1.1706
  -5.500  -0.0763   0.01424   0.00870  -0.1206  0.8345  0.0107  -3.2370   0.0000   0.0000   0.0000  -1.3602
  -5.300  -0.0555   0.01298   0.00720  -0.1204  0.8239  0.0109  -3.1738   0.0000   0.0000   0.0000  -1.9598
  -5.200  -0.0450   0.01240   0.00643  -0.1203  0.8195  0.0111  -3.1474   0.0000   0.0000   0.0000  -2.4698
  -5.100  -0.0344   0.01197   0.00593  -0.1202  0.8146  0.0113  -3.0922   0.0000   0.0000   0.0000  -3.3075
  -5.000  -0.0236   0.01160   0.00547  -0.1201  0.8096  0.0117  -3.0338   0.0000   0.0000   0.0000  -4.9221
  -4.900  -0.0128   0.01130   0.00508  -0.1200  0.8045  0.0123  -2.9702   0.0000   0.0000   0.0000  -9.3157
  -4.800  -0.0019   0.01108   0.00478  -0.1200  0.7993  0.0130  -2.8955   0.0000   0.0000   0.0000  -65.5210
  -4.700   0.0091   0.01097   0.00462  -0.1199  0.7937  0.0139  -2.8006   0.0000   0.0000   0.0000  13.6504
  -4.500   0.0314   0.01105   0.00470  -0.1200  0.7849  0.0151  -2.5533   0.0000   0.0000   0.0000   4.1278
  -4.400   0.0426   0.01119   0.00488  -0.1200  0.7818  0.0154  -2.4164   0.0000   0.0000   0.0000   3.1085
  -4.300   0.0535   0.01082   0.00445  -0.1200  0.7784  0.0166  -2.3377   0.0000   0.0000   0.0000   2.5270
  -4.200   0.0645   0.01042   0.00395  -0.1201  0.7747  0.0184  -2.2700   0.0000   0.0000   0.0000   2.1364
  -4.100   0.0757   0.01021   0.00368  -0.1201  0.7708  0.0200  -2.1838   0.0000   0.0000   0.0000   1.8570
  -4.000   0.0869   0.01005   0.00347  -0.1201  0.7669  0.0215  -2.0922   0.0000   0.0000   0.0000   1.6494
  -3.900   0.0981   0.00991   0.00330  -0.1201  0.7628  0.0231  -1.9988   0.0000   0.0000   0.0000   1.4895
  -3.800   0.1093   0.00979   0.00314  -0.1201  0.7585  0.0253  -1.9075   0.0000   0.0000   0.0000   1.3625
  -3.700   0.1205   0.00948   0.00285  -0.1202  0.7539  0.0446  -1.8671   0.0000   0.0000   0.0000   1.2586
  -3.600   0.1317   0.00941   0.00276  -0.1202  0.7486  0.0550  -1.8080   0.0000   0.0000   0.0000   1.1733
  -3.500   0.1430   0.00930   0.00269  -0.1204  0.7437  0.0688  -1.7450   0.0000   0.0000   0.0000   1.1006
  -3.400   0.1543   0.00920   0.00262  -0.1204  0.7418  0.0776  -1.6804   0.0000   0.0000   0.0000   1.0387
  -3.300   0.1655   0.00905   0.00256  -0.1206  0.7395  0.0969  -1.6163   0.0000   0.0000   0.0000   0.9857
  -3.200   0.1767   0.00889   0.00249  -0.1207  0.7369  0.1202  -1.5523   0.0000   0.0000   0.0000   0.9395
  -3.100   0.1880   0.00870   0.00243  -0.1209  0.7340  0.1531  -1.4891   0.0000   0.0000   0.0000   0.8991
  -3.000   0.1991   0.00844   0.00237  -0.1212  0.7310  0.2009  -1.4268   0.0000   0.0000   0.0000   0.8637
  -2.900   0.2103   0.00817   0.00231  -0.1214  0.7280  0.2583  -1.3653   0.0000   0.0000   0.0000   0.8322
  -2.800   0.2215   0.00796   0.00227  -0.1216  0.7249  0.3128  -1.3044   0.0000   0.0000   0.0000   0.8036
  -2.700   0.2326   0.00781   0.00225  -0.1218  0.7219  0.3589  -1.2440   0.0000   0.0000   0.0000   0.7774
  -2.600   0.2438   0.00773   0.00223  -0.1218  0.7187  0.3881  -1.1842   0.0000   0.0000   0.0000   0.7533
  -2.500   0.2549   0.00767   0.00222  -0.1219  0.7155  0.4143  -1.1253   0.0000   0.0000   0.0000   0.7312
  -2.400   0.2661   0.00766   0.00221  -0.1219  0.7120  0.4323  -1.0672   0.0000   0.0000   0.0000   0.7109
  -2.300   0.2772   0.00762   0.00221  -0.1219  0.7082  0.4536  -1.0102   0.0000   0.0000   0.0000   0.6923
  -2.200   0.2886   0.00764   0.00222  -0.1220  0.7041  0.4687  -0.9540   0.0000   0.0000   0.0000   0.6749
  -2.100   0.3001   0.00767   0.00222  -0.1220  0.6997  0.4797  -0.8995   0.0000   0.0000   0.0000   0.6587
  -2.000   0.3114   0.00762   0.00218  -0.1221  0.6979  0.4994  -0.8549   0.0000   0.0000   0.0000   0.6439
  -1.900   0.3227   0.00759   0.00219  -0.1221  0.6967  0.5138  -0.7997   0.0000   0.0000   0.0000   0.6300
  -1.800   0.3341   0.00758   0.00219  -0.1221  0.6953  0.5240  -0.7451   0.0000   0.0000   0.0000   0.6170
  -1.700   0.3455   0.00759   0.00218  -0.1222  0.6937  0.5302  -0.6913   0.0000   0.0000   0.0000   0.6048
  -1.600   0.3568   0.00756   0.00218  -0.1222  0.6920  0.5424  -0.6512   0.0000   0.0000   0.0000   0.5935
  -1.500   0.3680   0.00752   0.00219  -0.1222  0.6901  0.5557  -0.6578   0.0000   0.0000   0.0000   0.5829
  -1.400   0.3792   0.00751   0.00220  -0.1222  0.6880  0.5659  -0.6644   0.0000   0.0000   0.0000   0.5729
  -1.300   0.3906   0.00751   0.00220  -0.1222  0.6859  0.5732  -0.6710   0.0000   0.0000   0.0000   0.5635
  -1.200   0.4019   0.00752   0.00219  -0.1223  0.6836  0.5793  -0.6777   0.0000   0.0000   0.0000   0.5545
  -1.100   0.4132   0.00754   0.00219  -0.1223  0.6813  0.5843  -0.6844   0.0000   0.0000   0.0000   0.5461
  -1.000   0.4245   0.00754   0.00219  -0.1223  0.6788  0.5914  -0.6912   0.0000   0.0000   0.0000   0.5381
  -0.900   0.4357   0.00753   0.00219  -0.1223  0.6764  0.6018  -0.6986   0.0000   0.0000   0.0000   0.5306
  -0.800   0.4468   0.00752   0.00220  -0.1223  0.6738  0.6099  -0.7061   0.0000   0.0000   0.0000   0.5234
  -0.700   0.4579   0.00753   0.00221  -0.1222  0.6711  0.6176  -0.7135   0.0000   0.0000   0.0000   0.5166
  -0.600   0.4689   0.00755   0.00222  -0.1222  0.6682  0.6252  -0.7209   0.0000   0.0000   0.0000   0.5101
  -0.500   0.4800   0.00759   0.00223  -0.1222  0.6648  0.6318  -0.7282   0.0000   0.0000   0.0000   0.5040
  -0.400   0.4912   0.00764   0.00225  -0.1222  0.6610  0.6374  -0.7357   0.0000   0.0000   0.0000   0.4980
  -0.300   0.5026   0.00771   0.00228  -0.1223  0.6567  0.6422  -0.7431   0.0000   0.0000   0.0000   0.4924
  -0.200   0.5140   0.00774   0.00233  -0.1223  0.6524  0.6528  -0.7505   0.0000   0.0000   0.0000   0.4871
  -0.100   0.5251   0.00772   0.00235  -0.1223  0.6510  0.6616  -0.7579   0.0000   0.0000   0.0000   0.4819
   0.000   0.5362   0.00770   0.00236  -0.1223  0.6501  0.6696  -0.7654   0.0000   0.0000   0.0000   0.4770
   0.100   0.5474   0.00769   0.00238  -0.1223  0.6490  0.6772  -0.7729   0.0000   0.0000   0.0000   0.4722
   0.200   0.5586   0.00769   0.00239  -0.1223  0.6478  0.6842  -0.7805   0.0000   0.0000   0.0000   0.4676
   0.300   0.5700   0.00770   0.00239  -0.1224  0.6465  0.6906  -0.7880   0.0000   0.0000   0.0000   0.4632
   0.500   0.5922   0.00767   0.00242  -0.1223  0.6434  0.7091  -0.8029   0.0000   0.0000   0.0000   0.4549
   0.600   0.6032   0.00766   0.00245  -0.1223  0.6417  0.7188  -0.8103   0.0000   0.0000   0.0000   0.4510
   0.700   0.6142   0.00766   0.00247  -0.1223  0.6399  0.7282  -0.8178   0.0000   0.0000   0.0000   0.4472
   0.800   0.6253   0.00766   0.00249  -0.1222  0.6380  0.7368  -0.8253   0.0000   0.0000   0.0000   0.4435
   0.900   0.6365   0.00768   0.00250  -0.1223  0.6361  0.7438  -0.8328   0.0000   0.0000   0.0000   0.4400
   1.000   0.6473   0.00767   0.00253  -0.1222  0.6340  0.7552  -0.8402   0.0000   0.0000   0.0000   0.4366
   1.100   0.6579   0.00765   0.00255  -0.1220  0.6319  0.7669  -0.8474   0.0000   0.0000   0.0000   0.4333
   1.200   0.6686   0.00766   0.00258  -0.1219  0.6298  0.7781  -0.8548   0.0000   0.0000   0.0000   0.4300
   1.300   0.6795   0.00767   0.00260  -0.1219  0.6275  0.7884  -0.8632   0.0000   0.0000   0.0000   0.4269
   1.400   0.6901   0.00769   0.00262  -0.1218  0.6250  0.7990  -0.8714   0.0000   0.0000   0.0000   0.4239
   1.500   0.7001   0.00768   0.00264  -0.1215  0.6224  0.8122  -0.8793   0.0000   0.0000   0.0000   0.4209
   1.600   0.7103   0.00770   0.00270  -0.1212  0.6194  0.8252  -0.8873   0.0000   0.0000   0.0000   0.4180
   1.700   0.7207   0.00774   0.00273  -0.1211  0.6160  0.8367  -0.8954   0.0000   0.0000   0.0000   0.4152
   1.800   0.7303   0.00776   0.00277  -0.1207  0.6121  0.8504  -0.9030   0.0000   0.0000   0.0000   0.4124
   1.900   0.7399   0.00781   0.00284  -0.1204  0.6080  0.8656  -0.9105   0.0000   0.0000   0.0000   0.4097
   2.100   0.7581   0.00784   0.00293  -0.1194  0.6033  0.8985  -0.9278   0.0000   0.0000   0.0000   0.4043
   2.200   0.7667   0.00780   0.00293  -0.1187  0.6025  0.9183  -0.9371   0.0000   0.0000   0.0000   0.4016
   2.300   0.7751   0.00774   0.00291  -0.1181  0.6015  0.9449  -0.9464   0.0000   0.0000   0.0000   0.3989
   2.400   0.7892   0.00768   0.00287  -0.1187  0.6001  1.0000  -0.9591   0.0000   0.0000   0.0000   0.3969
   2.500   0.8007   0.00769   0.00288  -0.1188  0.5984  1.0000  -0.9704   0.0000   0.0000   0.0000   0.3948
   2.600   0.8123   0.00770   0.00289  -0.1189  0.5964  1.0000  -0.9828   0.0000   0.0000   0.0000   0.3928
   2.700   0.8237   0.00772   0.00291  -0.1191  0.5942  1.0000  -0.9969   0.0000   0.0000   0.0000   0.3908
   2.800   0.8352   0.00774   0.00293  -0.1192  0.5920  1.0000  -1.0114   0.0000   0.0000   0.0000   0.3888
   2.900   0.8466   0.00777   0.00295  -0.1193  0.5897  1.0000  -1.0258   0.0000   0.0000   0.0000   0.3869
   3.000   0.8580   0.00780   0.00297  -0.1194  0.5874  1.0000  -1.0403   0.0000   0.0000   0.0000   0.3851
   3.100   0.8693   0.00783   0.00300  -0.1195  0.5849  1.0000  -1.0548   0.0000   0.0000   0.0000   0.3833
   3.200   0.8806   0.00787   0.00302  -0.1195  0.5820  1.0000  -1.0715   0.0000   0.0000   0.0000   0.3815
   3.300   0.8917   0.00790   0.00304  -0.1196  0.5787  1.0000  -1.0892   0.0000   0.0000   0.0000   0.3797
   3.400   0.9027   0.00795   0.00306  -0.1196  0.5751  1.0000  -1.1085   0.0000   0.0000   0.0000   0.3780
   3.500   0.9135   0.00801   0.00308  -0.1196  0.5712  1.0000  -1.1279   0.0000   0.0000   0.0000   0.3763
   3.600   0.9244   0.00808   0.00313  -0.1196  0.5670  1.0000  -1.1473   0.0000   0.0000   0.0000   0.3747
   3.700   0.9354   0.00817   0.00319  -0.1196  0.5625  1.0000  -1.1668   0.0000   0.0000   0.0000   0.3731
   3.800   0.9467   0.00828   0.00328  -0.1197  0.5578  1.0000  -1.1887   0.0000   0.0000   0.0000   0.3716
   3.900   0.9580   0.00834   0.00334  -0.1198  0.5553  1.0000  -1.2123   0.0000   0.0000   0.0000   0.3701
   4.000   0.9691   0.00835   0.00337  -0.1198  0.5541  1.0000  -1.2359   0.0000   0.0000   0.0000   0.3686
   4.100   0.9802   0.00835   0.00339  -0.1199  0.5525  1.0000  -1.2597   0.0000   0.0000   0.0000   0.3671
   4.200   0.9912   0.00836   0.00342  -0.1199  0.5502  1.0000  -1.2835   0.0000   0.0000   0.0000   0.3656
   4.300   1.0023   0.00838   0.00345  -0.1199  0.5475  1.0000  -1.3095   0.0000   0.0000   0.0000   0.3642
   4.400   1.0133   0.00840   0.00348  -0.1199  0.5446  1.0000  -1.3389   0.0000   0.0000   0.0000   0.3628
   4.500   1.0243   0.00843   0.00352  -0.1199  0.5415  1.0000  -1.3685   0.0000   0.0000   0.0000   0.3614
   4.600   1.0353   0.00847   0.00356  -0.1199  0.5383  1.0000  -1.3981   0.0000   0.0000   0.0000   0.3601
   4.700   1.0462   0.00851   0.00360  -0.1199  0.5352  1.0000  -1.4320   0.0000   0.0000   0.0000   0.3588
   4.800   1.0570   0.00857   0.00382  -0.1199  0.5313  1.0000  -1.4684   0.0000   0.0000   0.0000   0.3574
   4.900   1.0675   0.00863   0.00386  -0.1198  0.5267  1.0000  -1.5046   0.0000   0.0000   0.0000   0.3561
   5.000   1.0777   0.00871   0.00392  -0.1197  0.5213  1.0000  -1.5408   0.0000   0.0000   0.0000   0.3548
   5.100   1.0878   0.00881   0.00398  -0.1195  0.5146  1.0000  -1.5771   0.0000   0.0000   0.0000   0.3535
   5.200   1.0983   0.00893   0.00408  -0.1194  0.5076  1.0000  -1.6144   0.0000   0.0000   0.0000   0.3523
   5.300   1.1092   0.00894   0.00412  -0.1195  0.5058  1.0000  -1.6531   0.0000   0.0000   0.0000   0.3511
   5.400   1.1202   0.00896   0.00418  -0.1195  0.5031  1.0000  -1.6920   0.0000   0.0000   0.0000   0.3500
   5.500   1.1310   0.00899   0.00423  -0.1195  0.4997  1.0000  -1.7312   0.0000   0.0000   0.0000   0.3488
   5.600   1.1418   0.00904   0.00430  -0.1194  0.4959  1.0000  -1.7895   0.0000   0.0000   0.0000   0.3477
   5.700   1.1525   0.00909   0.00436  -0.1194  0.4916  1.0000  -1.8929   0.0000   0.0000   0.0000   0.3466
   5.800   1.1628   0.00916   0.00442  -0.1193  0.4858  1.0000  -1.9967   0.0000   0.0000   0.0000   0.3454
   5.900   1.1726   0.00925   0.00447  -0.1191  0.4784  1.0000  -2.0999   0.0000   0.0000   0.0000   0.3443
   6.000   1.1818   0.00937   0.00455  -0.1188  0.4691  1.0000  -2.2013   0.0000   0.0000   0.0000   0.3431
   6.100   1.1912   0.00950   0.00464  -0.1185  0.4594  1.0000  -2.3055   0.0000   0.0000   0.0000   0.3420
   6.200   1.2018   0.00955   0.00471  -0.1185  0.4537  1.0000  -2.4174   0.0000   0.0000   0.0000   0.3409
   6.300   1.2118   0.00963   0.00478  -0.1183  0.4439  1.0000  -2.5279   0.0000   0.0000   0.0000   0.3398
   6.400   1.2208   0.00978   0.00487  -0.1180  0.4314  1.0000  -2.6350   0.0000   0.0000   0.0000   0.3387
   6.500   1.2291   0.00997   0.00498  -0.1176  0.4186  1.0000  -2.7393   0.0000   0.0000   0.0000   0.3376
   6.600   1.2386   0.01009   0.00509  -0.1173  0.4093  1.0000  -2.8519   0.0000   0.0000   0.0000   0.3365
   6.700   1.2477   0.01025   0.00520  -0.1171  0.3939  1.0000  -2.9636   0.0000   0.0000   0.0000   0.3355
   6.800   1.2534   0.01062   0.00539  -0.1162  0.3671  1.0000  -3.0581   0.0000   0.0000   0.0000   0.3343
   6.900   1.2599   0.01096   0.00558  -0.1155  0.3388  1.0000  -3.1582   0.0000   0.0000   0.0000   0.3331
   7.000   1.2645   0.01144   0.00586  -0.1146  0.3055  1.0000  -3.2484   0.0000   0.0000   0.0000   0.3319
   7.100   1.2685   0.01199   0.00619  -0.1136  0.2713  1.0000  -3.3353   0.0000   0.0000   0.0000   0.3307
   7.200   1.2722   0.01257   0.00654  -0.1126  0.2384  1.0000  -3.4209   0.0000   0.0000   0.0000   0.3295
   7.300   1.2770   0.01305   0.00686  -0.1117  0.2121  1.0000  -3.5142   0.0000   0.0000   0.0000   0.3284
   7.400   1.2822   0.01351   0.00718  -0.1109  0.1884  1.0000  -3.6104   0.0000   0.0000   0.0000   0.3273
   7.500   1.2869   0.01399   0.00750  -0.1100  0.1673  1.0000  -3.7038   0.0000   0.0000   0.0000   0.3261
   7.600   1.2943   0.01426   0.00773  -0.1095  0.1552  1.0000  -3.8148   0.0000   0.0000   0.0000   0.3251
   7.700   1.3005   0.01462   0.00800  -0.1089  0.1425  1.0000  -3.9194   0.0000   0.0000   0.0000   0.3241
   7.800   1.3066   0.01498   0.00827  -0.1082  0.1289  1.0000  -4.0240   0.0000   0.0000   0.0000   0.3231
   7.900   1.3139   0.01523   0.00849  -0.1077  0.1204  1.0000  -4.1374   0.0000   0.0000   0.0000   0.3221
   8.000   1.3197   0.01559   0.00878  -0.1070  0.1102  1.0000  -4.2422   0.0000   0.0000   0.0000   0.3210
   8.100   1.3257   0.01593   0.00905  -0.1063  0.0994  1.0000  -4.3485   0.0000   0.0000   0.0000   0.3200
   8.200   1.3330   0.01617   0.00927  -0.1057  0.0933  1.0000  -4.4638   0.0000   0.0000   0.0000   0.3190
   8.300   1.3390   0.01648   0.00954  -0.1051  0.0854  1.0000  -4.5720   0.0000   0.0000   0.0000   0.3180
   8.400   1.3404   0.01709   0.01009  -0.1037  0.0653  1.0000  -4.6188   0.0000   0.0000   0.0000   0.3168
   8.500   1.3426   0.01758   0.01046  -0.1024  0.0535  1.0000  -4.6942   0.0000   0.0000   0.0000   0.3156
   8.600   1.3469   0.01792   0.01077  -0.1014  0.0456  1.0000  -4.7808   0.0000   0.0000   0.0000   0.3145
   8.700   1.3482   0.01843   0.01118  -0.1000  0.0359  1.0000  -4.8477   0.0000   0.0000   0.0000   0.3132
   8.800   1.3500   0.01891   0.01159  -0.0986  0.0259  1.0000  -4.9122   0.0000   0.0000   0.0000   0.3120
   8.900   1.3493   0.01954   0.01212  -0.0969  0.0159  1.0000  -4.9590   0.0000   0.0000   0.0000   0.3106
   9.000   1.3504   0.02007   0.01262  -0.0955  0.0111  1.0000  -5.0082   0.0000   0.0000   0.0000   0.3094
   9.100   1.3532   0.02052   0.01308  -0.0943  0.0074  1.0000  -5.0313   0.0000   0.0000   0.0000   0.3081
   9.200   1.3578   0.02087   0.01347  -0.0934  0.0069  1.0000  -5.0953   0.0000   0.0000   0.0000   0.3071
   9.300   1.3622   0.02122   0.01387  -0.0924  0.0066  1.0000  -5.1609   0.0000   0.0000   0.0000   0.3060
   9.400   1.3663   0.02160   0.01431  -0.0915  0.0064  1.0000  -5.2269   0.0000   0.0000   0.0000   0.3050
   9.500   1.3703   0.02200   0.01476  -0.0906  0.0062  1.0000  -5.2932   0.0000   0.0000   0.0000   0.3040
   9.600   1.3740   0.02242   0.01523  -0.0896  0.0061  1.0000  -5.3589   0.0000   0.0000   0.0000   0.3029
   9.700   1.3772   0.02287   0.01573  -0.0886  0.0060  1.0000  -5.4227   0.0000   0.0000   0.0000   0.3019
   9.800   1.3802   0.02333   0.01626  -0.0876  0.0059  1.0000  -5.4858   0.0000   0.0000   0.0000   0.3009
   9.900   1.3831   0.02383   0.01681  -0.0867  0.0058  1.0000  -5.5487   0.0000   0.0000   0.0000   0.2999
  10.000   1.3857   0.02435   0.01739  -0.0857  0.0057  1.0000  -5.6099   0.0000   0.0000   0.0000   0.2989
  10.100   1.3878   0.02492   0.01801  -0.0847  0.0057  1.0000  -5.6687   0.0000   0.0000   0.0000   0.2980
  10.200   1.3897   0.02552   0.01867  -0.0838  0.0056  1.0000  -5.7261   0.0000   0.0000   0.0000   0.2970
  10.300   1.3915   0.02614   0.01936  -0.0828  0.0056  1.0000  -5.7828   0.0000   0.0000   0.0000   0.2961
  10.400   1.3927   0.02681   0.02009  -0.0819  0.0056  1.0000  -5.8363   0.0000   0.0000   0.0000   0.2952
  10.500   1.3936   0.02752   0.02086  -0.0809  0.0056  1.0000  -5.8881   0.0000   0.0000   0.0000   0.2943
  10.600   1.3946   0.02825   0.02165  -0.0800  0.0055  1.0000  -5.9394   0.0000   0.0000   0.0000   0.2935
  10.700   1.3950   0.02901   0.02248  -0.0791  0.0055  1.0000  -5.9879   0.0000   0.0000   0.0000   0.2926
  10.800   1.3949   0.02983   0.02336  -0.0782  0.0055  1.0000  -6.0328   0.0000   0.0000   0.0000   0.2918
  10.900   1.3949   0.03067   0.02426  -0.0773  0.0055  1.0000  -6.0779   0.0000   0.0000   0.0000   0.2910
  11.000   1.3951   0.03153   0.02518  -0.0765  0.0055  1.0000  -6.1234   0.0000   0.0000   0.0000   0.2903
  11.100   1.3949   0.03246   0.02617  -0.0758  0.0055  1.0000  -6.1662   0.0000   0.0000   0.0000   0.2896
  11.200   1.3944   0.03343   0.02720  -0.0750  0.0055  1.0000  -6.2070   0.0000   0.0000   0.0000   0.2889
  11.300   1.3941   0.03441   0.02825  -0.0743  0.0055  1.0000  -6.2484   0.0000   0.0000   0.0000   0.2882
  11.400   1.3940   0.03540   0.02930  -0.0736  0.0055  1.0000  -6.2898   0.0000   0.0000   0.0000   0.2875
  11.500   1.3935   0.03644   0.03040  -0.0730  0.0055  1.0000  -6.3292   0.0000   0.0000   0.0000   0.2869
  11.600   1.3926   0.03754   0.03156  -0.0723  0.0055  1.0000  -6.3655   0.0000   0.0000   0.0000   0.2863
  11.700   1.3919   0.03863   0.03272  -0.0717  0.0055  1.0000  -6.4022   0.0000   0.0000   0.0000   0.2857
  11.800   1.3914   0.03972   0.03387  -0.0712  0.0055  1.0000  -6.4394   0.0000   0.0000   0.0000   0.2851
  11.900   1.3910   0.04081   0.03503  -0.0706  0.0055  1.0000  -6.4766   0.0000   0.0000   0.0000   0.2846
  12.000   1.3905   0.04193   0.03621  -0.0700  0.0055  1.0000  -6.5123   0.0000   0.0000   0.0000   0.2840
  12.100   1.3894   0.04311   0.03746  -0.0695  0.0055  1.0000  -6.5444   0.0000   0.0000   0.0000   0.2835
  12.200   1.3885   0.04430   0.03871  -0.0690  0.0055  1.0000  -6.5761   0.0000   0.0000   0.0000   0.2830
  12.300   1.3878   0.04546   0.03994  -0.0685  0.0055  1.0000  -6.6085   0.0000   0.0000   0.0000   0.2825
  12.400   1.3872   0.04662   0.04116  -0.0680  0.0055  1.0000  -6.6409   0.0000   0.0000   0.0000   0.2819
  12.500   1.3866   0.04777   0.04238  -0.0675  0.0056  1.0000  -6.6724   0.0000   0.0000   0.0000   0.2814
  12.600   1.3858   0.04890   0.04358  -0.0670  0.0056  1.0000  -6.7020   0.0000   0.0000   0.0000   0.2809
  12.700   1.3849   0.05008   0.04482  -0.0665  0.0056  1.0000  -6.7307   0.0000   0.0000   0.0000   0.2804
  12.800   1.3837   0.05134   0.04616  -0.0661  0.0056  1.0000  -6.7564   0.0000   0.0000   0.0000   0.2799
  12.900   1.3825   0.05266   0.04755  -0.0657  0.0056  1.0000  -6.7811   0.0000   0.0000   0.0000   0.2795
  13.000   1.3815   0.05398   0.04895  -0.0653  0.0056  1.0000  -6.8060   0.0000   0.0000   0.0000   0.2791
  13.100   1.3807   0.05533   0.05036  -0.0650  0.0057  1.0000  -6.8308   0.0000   0.0000   0.0000   0.2787
  13.200   1.3800   0.05669   0.05181  -0.0647  0.0057  1.0000  -6.8548   0.0000   0.0000   0.0000   0.2783
  13.300   1.3792   0.05810   0.05329  -0.0644  0.0057  1.0000  -6.8775   0.0000   0.0000   0.0000   0.2779
  13.400   1.3783   0.05954   0.05481  -0.0641  0.0057  1.0000  -6.8985   0.0000   0.0000   0.0000   0.2776
  13.500   1.3772   0.06103   0.05638  -0.0638  0.0058  1.0000  -6.9175   0.0000   0.0000   0.0000   0.2772
  13.600   1.3759   0.06258   0.05801  -0.0637  0.0058  1.0000  -6.9340   0.0000   0.0000   0.0000   0.2770
  13.700   1.3738   0.06423   0.05974  -0.0636  0.0058  1.0000  -6.9458   0.0000   0.0000   0.0000   0.2768
  13.800   1.3710   0.06598   0.06158  -0.0635  0.0058  1.0000  -6.9532   0.0000   0.0000   0.0000   0.2767
  13.900   1.3682   0.06776   0.06344  -0.0636  0.0059  1.0000  -6.9596   0.0000   0.0000   0.0000   0.2766
  14.000   1.3654   0.06954   0.06531  -0.0636  0.0059  1.0000  -6.9650   0.0000   0.0000   0.0000   0.2765
  14.100   1.3625   0.07136   0.06721  -0.0637  0.0059  1.0000  -6.9688   0.0000   0.0000   0.0000   0.2765
  14.200   1.3595   0.07321   0.06914  -0.0638  0.0059  1.0000  -6.9707   0.0000   0.0000   0.0000   0.2765
  14.300   1.3561   0.07511   0.07112  -0.0640  0.0060  1.0000  -6.9700   0.0000   0.0000   0.0000   0.2766
  14.400   1.3521   0.07710   0.07320  -0.0643  0.0060  1.0000  -6.9651   0.0000   0.0000   0.0000   0.2768
  14.500   1.3471   0.07925   0.07543  -0.0648  0.0060  1.0000  -6.9546   0.0000   0.0000   0.0000   0.2771
  14.600   1.3423   0.08137   0.07764  -0.0653  0.0060  1.0000  -6.9441   0.0000   0.0000   0.0000   0.2775
  14.700   1.3377   0.08348   0.07983  -0.0658  0.0060  1.0000  -6.9331   0.0000   0.0000   0.0000   0.2778
  14.800   1.3331   0.08561   0.08204  -0.0664  0.0061  1.0000  -6.9204   0.0000   0.0000   0.0000   0.2782
  14.900   1.3282   0.08779   0.08430  -0.0671  0.0061  1.0000  -6.9055   0.0000   0.0000   0.0000   0.2787
  15.000   1.3223   0.09015   0.08674  -0.0679  0.0061  1.0000  -6.8846   0.0000   0.0000   0.0000   0.2794
  15.100   1.3161   0.09256   0.08923  -0.0689  0.0061  1.0000  -6.8614   0.0000   0.0000   0.0000   0.2802
  15.200   1.3105   0.09494   0.09168  -0.0699  0.0061  1.0000  -6.8389   0.0000   0.0000   0.0000   0.2809
  15.300   1.3050   0.09729   0.09411  -0.0709  0.0062  1.0000  -6.8152   0.0000   0.0000   0.0000   0.2817
  15.400   1.2992   0.09955   0.09645  -0.0719  0.0062  1.0000  -6.7893   0.0000   0.0000   0.0000   0.2826
  15.500   1.2924   0.10205   0.09903  -0.0733  0.0062  1.0000  -6.7569   0.0000   0.0000   0.0000   0.2838
  15.600   1.2859   0.10456   0.10161  -0.0747  0.0062  1.0000  -6.7241   0.0000   0.0000   0.0000   0.2849
  15.700   1.2798   0.10706   0.10418  -0.0761  0.0062  1.0000  -6.6913   0.0000   0.0000   0.0000   0.2861
  15.800   1.2737   0.10963   0.10683  -0.0775  0.0062  1.0000  -6.6565   0.0000   0.0000   0.0000   0.2873
  15.900   1.2669   0.11251   0.10978  -0.0792  0.0063  1.0000  -6.6156   0.0000   0.0000   0.0000   0.2888
  16.000   1.2600   0.11549   0.11283  -0.0811  0.0063  1.0000  -6.5721   0.0000   0.0000   0.0000   0.2905
  16.100   1.2535   0.11843   0.11583  -0.0828  0.0063  1.0000  -6.5287   0.0000   0.0000   0.0000   0.2920
  16.200   1.2472   0.12147   0.11895  -0.0847  0.0063  1.0000  -6.4828   0.0000   0.0000   0.0000   0.2937
  16.300   1.2398   0.12489   0.12243  -0.0868  0.0063  1.0000  -6.4285   0.0000   0.0000   0.0000   0.2957
  16.400   1.2329   0.12827   0.12588  -0.0890  0.0063  1.0000  -6.3736   0.0000   0.0000   0.0000   0.2976
  16.500   1.2263   0.13169   0.12936  -0.0911  0.0063  1.0000  -6.3169   0.0000   0.0000   0.0000   0.2996
  16.600   1.2189   0.13547   0.13321  -0.0935  0.0064  1.0000  -6.2515   0.0000   0.0000   0.0000   0.3019
  16.700   1.2116   0.13932   0.13712  -0.0960  0.0064  1.0000  -6.1828   0.0000   0.0000   0.0000   0.3043
  16.800   1.2047   0.14320   0.14105  -0.0984  0.0064  1.0000  -6.1115   0.0000   0.0000   0.0000   0.3066
  16.900   1.1968   0.14756   0.14547  -0.1011  0.0064  1.0000  -6.0274   0.0000   0.0000   0.0000   0.3094
  17.000   1.1894   0.15187   0.14984  -0.1038  0.0064  1.0000  -5.9410   0.0000   0.0000   0.0000   0.3120
  17.100   1.1815   0.15654   0.15457  -0.1066  0.0064  1.0000  -5.8423   0.0000   0.0000   0.0000   0.3149
  17.200   1.1734   0.16145   0.15953  -0.1095  0.0064  1.0000  -5.7334   0.0000   0.0000   0.0000   0.3180
  17.300   1.1649   0.16666   0.16479  -0.1125  0.0064  1.0000  -5.6098   0.0000   0.0000   0.0000   0.3212
  17.400   1.1559   0.17229   0.17047  -0.1156  0.0065  1.0000  -5.4672   0.0000   0.0000   0.0000   0.3247
  17.500   1.1459   0.17858   0.17680  -0.1189  0.0065  1.0000  -5.2927   0.0000   0.0000   0.0000   0.3285
  17.600   1.1354   0.18531   0.18357  -0.1222  0.0065  1.0000  -5.0884   0.0000   0.0000   0.0000   0.3324
  17.700   1.1231   0.19320   0.19149  -0.1258  0.0066  1.0000  -4.8196   0.0000   0.0000   0.0000   0.3370
  17.800   1.1091   0.20223   0.20053  -0.1295  0.0067  1.0000  -4.4731   0.0000   0.0000   0.0000   0.3419
  17.900   1.0955   0.21154   0.20983  -0.1328  0.0068  1.0000  -4.0848   0.0000   0.0000   0.0000   0.3467
  18.000   1.0836   0.22016   0.21843  -0.1357  0.0070  1.0000  -3.7179   0.0000   0.0000   0.0000   0.3509
  18.300   1.0867   0.22676   0.22507  -0.1380  0.0078  1.0000  -3.6844   0.0000   0.0000   0.0000   0.3521
  18.400   1.0889   0.22872   0.22703  -0.1387  0.0080  1.0000  -3.7077   0.0000   0.0000   0.0000   0.3523
  18.500   1.0910   0.23082   0.22914  -0.1394  0.0081  1.0000  -3.7205   0.0000   0.0000   0.0000   0.3525
  18.600   1.0924   0.23359   0.23192  -0.1402  0.0084  1.0000  -3.6891   0.0000   0.0000   0.0000   0.3530
  18.800   1.0498   0.26466   0.26290  -0.1467  0.0174  1.0000  -2.2445   0.0000   0.0000   0.0000   0.3655
  18.900   1.0499   0.26747   0.26571  -0.1475  0.0174  1.0000  -2.2293   0.0000   0.0000   0.0000   0.3661
  19.000   1.0499   0.27025   0.26850  -0.1483  0.0173  1.0000  -2.2211   0.0000   0.0000   0.0000   0.3668
  19.100   1.0499   0.27299   0.27124  -0.1491  0.0173  1.0000  -2.2136   0.0000   0.0000   0.0000   0.3674
  19.200   1.0498   0.27570   0.27396  -0.1499  0.0173  1.0000  -2.2070   0.0000   0.0000   0.0000   0.3680
  19.300   1.0498   0.27836   0.27662  -0.1507  0.0172  1.0000  -2.2015   0.0000   0.0000   0.0000   0.3686
  19.400   1.0497   0.28096   0.27922  -0.1515  0.0172  1.0000  -2.1974   0.0000   0.0000   0.0000   0.3692
  19.500   1.0497   0.28345   0.28172  -0.1522  0.0171  1.0000  -2.1960   0.0000   0.0000   0.0000   0.3698
  19.600   1.0502   0.28572   0.28399  -0.1529  0.0169  1.0000  -2.2018   0.0000   0.0000   0.0000   0.3703
  19.700   1.0559   0.28649   0.28477  -0.1539  0.0155  1.0000  -2.2554   0.0000   0.0000   0.0000   0.3702
  19.800   1.0552   0.28926   0.28754  -0.1548  0.0150  1.0000  -2.2373   0.0000   0.0000   0.0000   0.3711
  19.900   1.0541   0.29203   0.29031  -0.1556  0.0147  1.0000  -2.2196   0.0000   0.0000   0.0000   0.3719
  20.000   1.0527   0.29474   0.29303  -0.1563  0.0143  1.0000  -2.2033   0.0000   0.0000   0.0000   0.3726
  20.100   1.0511   0.29738   0.29567  -0.1570  0.0141  1.0000  -2.1880   0.0000   0.0000   0.0000   0.3734
  20.200   1.0490   0.29994   0.29824  -0.1576  0.0138  1.0000  -2.1731   0.0000   0.0000   0.0000   0.3741
  20.300   1.0466   0.30240   0.30071  -0.1581  0.0135  1.0000  -2.1581   0.0000   0.0000   0.0000   0.3748
  20.400   1.0435   0.30474   0.30305  -0.1585  0.0133  1.0000  -2.1424   0.0000   0.0000   0.0000   0.3756
  20.500   1.0395   0.30690   0.30522  -0.1588  0.0131  1.0000  -2.1247   0.0000   0.0000   0.0000   0.3764
  20.600   0.9813   0.29879   0.29720  -0.1530  0.0137  1.0000  -1.9284   0.0000   0.0000   0.0000   0.3802
  20.700   0.9722   0.29865   0.29707  -0.1526  0.0135  1.0000  -1.8948   0.0000   0.0000   0.0000   0.3813
  20.800   0.9652   0.29881   0.29725  -0.1524  0.0133  1.0000  -1.8687   0.0000   0.0000   0.0000   0.3822
  20.900   0.9593   0.29911   0.29756  -0.1523  0.0131  1.0000  -1.8471   0.0000   0.0000   0.0000   0.3830
  21.000   0.9541   0.29949   0.29795  -0.1522  0.0129  1.0000  -1.8288   0.0000   0.0000   0.0000   0.3838
  21.100   0.9496   0.29994   0.29841  -0.1523  0.0127  1.0000  -1.8131   0.0000   0.0000   0.0000   0.3845
  21.200   0.9455   0.30043   0.29891  -0.1523  0.0125  1.0000  -1.7995   0.0000   0.0000   0.0000   0.3852
  21.300   0.9419   0.30094   0.29943  -0.1524  0.0123  1.0000  -1.7879   0.0000   0.0000   0.0000   0.3859
  21.400   0.9385   0.30148   0.29998  -0.1525  0.0121  1.0000  -1.7788   0.0000   0.0000   0.0000   0.3865
  21.500   0.9355   0.30202   0.30053  -0.1527  0.0118  1.0000  -1.7728   0.0000   0.0000   0.0000   0.3870
  21.600   0.9328   0.30256   0.30108  -0.1528  0.0115  1.0000  -1.7702   0.0000   0.0000   0.0000   0.3876
  21.700   0.9305   0.30309   0.30161  -0.1530  0.0112  1.0000  -1.7720   0.0000   0.0000   0.0000   0.3881
  21.800   0.9284   0.30359   0.30212  -0.1532  0.0109  1.0000  -1.7794   0.0000   0.0000   0.0000   0.3885
  21.900   0.9267   0.30404   0.30258  -0.1534  0.0105  1.0000  -1.7937   0.0000   0.0000   0.0000   0.3889
  22.000   0.9253   0.30443   0.30298  -0.1536  0.0102  1.0000  -1.8160   0.0000   0.0000   0.0000   0.3892
  22.100   0.9242   0.30475   0.30330  -0.1537  0.0098  1.0000  -1.8473   0.0000   0.0000   0.0000   0.3894
  22.200   0.9235   0.30498   0.30354  -0.1539  0.0095  1.0000  -1.8879   0.0000   0.0000   0.0000   0.3895
  22.300   0.9231   0.30511   0.30369  -0.1540  0.0092  1.0000  -1.9380   0.0000   0.0000   0.0000   0.3894
  22.400   0.9229   0.30515   0.30373  -0.1541  0.0089  1.0000  -1.9971   0.0000   0.0000   0.0000   0.3893
  22.500   0.9230   0.30510   0.30369  -0.1541  0.0086  1.0000  -2.0635   0.0000   0.0000   0.0000   0.3891
  22.600   0.9221   0.30524   0.30384  -0.1541  0.0084  1.0000  -2.1081   0.0000   0.0000   0.0000   0.3891
  22.700   0.9201   0.30560   0.30420  -0.1543  0.0082  1.0000  -2.1246   0.0000   0.0000   0.0000   0.3894
  22.800   0.9166   0.30613   0.30475  -0.1543  0.0079  1.0000  -2.1082   0.0000   0.0000   0.0000   0.3900
  22.900   0.8996   0.30869   0.30727  -0.1540  0.0074  1.0000  -1.7713   0.0000   0.0000   0.0000   0.3933
  23.000   0.8981   0.30950   0.30809  -0.1543  0.0074  1.0000  -1.7503   0.0000   0.0000   0.0000   0.3938
  23.100   0.8967   0.31032   0.30892  -0.1546  0.0074  1.0000  -1.7267   0.0000   0.0000   0.0000   0.3943
  23.200   0.8953   0.31116   0.30976  -0.1549  0.0074  1.0000  -1.7004   0.0000   0.0000   0.0000   0.3948


