xflr5 v6.61

 Calculated polar for: EPPLER E852 AIRFOIL

 1 1 Reynolds number fixed          Mach number fixed         

 xtrf =   1.000 (top)        1.000 (bottom)
 Mach =   0.000     Re =     0.450 e 6     Ncrit =   9.000

  alpha     CL        CD       CDp       Cm    Top Xtr Bot Xtr   Cpmin    Chinge    XCp    
 ------- -------- --------- --------- -------- ------- ------- -------- --------- ---------
 -10.000  -0.4265   0.10095   0.09859  -0.0402  1.0000  0.0131  -2.3773   0.0000   0.0000   0.0000   0.1472
  -9.900  -0.4266   0.09963   0.09728  -0.0404  1.0000  0.0132  -2.3815   0.0000   0.0000   0.0000   0.1467
  -9.800  -0.4268   0.09831   0.09597  -0.0407  1.0000  0.0133  -2.3865   0.0000   0.0000   0.0000   0.1464
  -9.700  -0.4272   0.09699   0.09466  -0.0409  1.0000  0.0134  -2.3929   0.0000   0.0000   0.0000   0.1460
  -9.600  -0.4276   0.09564   0.09332  -0.0411  1.0000  0.0135  -2.4008   0.0000   0.0000   0.0000   0.1456
  -9.500  -0.4282   0.09428   0.09197  -0.0414  1.0000  0.0136  -2.4103   0.0000   0.0000   0.0000   0.1453
  -9.400  -0.4290   0.09290   0.09061  -0.0416  1.0000  0.0137  -2.4215   0.0000   0.0000   0.0000   0.1450
  -9.300  -0.4300   0.09152   0.08925  -0.0419  1.0000  0.0138  -2.4344   0.0000   0.0000   0.0000   0.1448
  -9.200  -0.4311   0.09014   0.08787  -0.0421  1.0000  0.0139  -2.4489   0.0000   0.0000   0.0000   0.1447
  -9.100  -0.4326   0.08874   0.08649  -0.0424  1.0000  0.0140  -2.4652   0.0000   0.0000   0.0000   0.1446
  -9.000  -0.4343   0.08735   0.08512  -0.0426  1.0000  0.0141  -2.4832   0.0000   0.0000   0.0000   0.1447
  -8.900  -0.4364   0.08596   0.08374  -0.0427  1.0000  0.0141  -2.5032   0.0000   0.0000   0.0000   0.1449
  -8.800  -0.4389   0.08457   0.08238  -0.0429  1.0000  0.0142  -2.5251   0.0000   0.0000   0.0000   0.1453
  -8.700  -0.4419   0.08321   0.08103  -0.0429  1.0000  0.0143  -2.5491   0.0000   0.0000   0.0000   0.1459
  -8.600  -0.4454   0.08186   0.07971  -0.0429  1.0000  0.0143  -2.5753   0.0000   0.0000   0.0000   0.1468
  -8.500  -0.4497   0.08055   0.07842  -0.0428  1.0000  0.0143  -2.6038   0.0000   0.0000   0.0000   0.1482
  -8.400  -0.4549   0.07931   0.07721  -0.0425  1.0000  0.0143  -2.6348   0.0000   0.0000   0.0000   0.1501
  -8.300  -0.4614   0.07819   0.07612  -0.0419  1.0000  0.0143  -2.6687   0.0000   0.0000   0.0000   0.1529
  -8.200  -0.4697   0.07726   0.07522  -0.0409  1.0000  0.0143  -2.7057   0.0000   0.0000   0.0000   0.1568
  -8.100  -0.4655   0.07447   0.07243  -0.0446  0.9986  0.0144  -2.7466   0.0000   0.0000   0.0000   0.1481
  -8.000  -0.4611   0.07127   0.06924  -0.0492  0.9968  0.0144  -2.8028   0.0000   0.0000   0.0000   0.1374
  -7.900  -0.4579   0.06691   0.06488  -0.0558  0.9937  0.0143  -2.9081   0.0000   0.0000   0.0000   0.1222
  -7.800  -0.4493   0.06044   0.05832  -0.0679  0.9895  0.0142  -3.0643   0.0000   0.0000   0.0000   0.0929
  -7.700  -0.4414   0.05679   0.05457  -0.0739  0.9876  0.0143  -3.1226   0.0000   0.0000   0.0000   0.0767
  -7.600  -0.4372   0.05416   0.05188  -0.0770  0.9839  0.0144  -3.1573   0.0000   0.0000   0.0000   0.0680
  -7.500  -0.4313   0.05167   0.04929  -0.0800  0.9804  0.0146  -3.1803   0.0000   0.0000   0.0000   0.0587
  -7.400  -0.4236   0.04925   0.04678  -0.0829  0.9779  0.0148  -3.1937   0.0000   0.0000   0.0000   0.0485
  -7.300  -0.4147   0.04694   0.04437  -0.0856  0.9760  0.0151  -3.1996   0.0000   0.0000   0.0000   0.0377
  -7.200  -0.4050   0.04472   0.04204  -0.0882  0.9745  0.0155  -3.1999   0.0000   0.0000   0.0000   0.0264
  -7.100  -0.3944   0.04260   0.03980  -0.0906  0.9734  0.0159  -3.1962   0.0000   0.0000   0.0000   0.0145
  -7.000  -0.3892   0.04102   0.03812  -0.0911  0.9694  0.0162  -3.1946   0.0000   0.0000   0.0000   0.0101
  -6.900  -0.3821   0.03939   0.03639  -0.0919  0.9657  0.0166  -3.1895   0.0000   0.0000   0.0000   0.0037
  -6.800  -0.3727   0.03769   0.03458  -0.0931  0.9631  0.0171  -3.1804   0.0000   0.0000   0.0000  -0.0056
  -6.700  -0.3621   0.03602   0.03278  -0.0943  0.9611  0.0177  -3.1697   0.0000   0.0000   0.0000  -0.0164
  -6.600  -0.3507   0.03438   0.03100  -0.0956  0.9595  0.0183  -3.1600   0.0000   0.0000   0.0000  -0.0285
  -6.300  -0.3162   0.02099   0.01601  -0.0977  0.9553  0.0081  -4.6317   0.0000   0.0000   0.0000  -0.0660
  -6.200  -0.3027   0.01981   0.01469  -0.0985  0.9546  0.0081  -4.6090   0.0000   0.0000   0.0000  -0.0825
  -6.100  -0.2888   0.01880   0.01352  -0.0993  0.9540  0.0081  -4.5723   0.0000   0.0000   0.0000  -0.1010
  -6.000  -0.2817   0.01816   0.01278  -0.0985  0.9500  0.0082  -4.5339   0.0000   0.0000   0.0000  -0.1069
  -5.900  -0.2727   0.01711   0.01168  -0.0984  0.9470  0.0083  -4.4846   0.0000   0.0000   0.0000  -0.1182
  -5.800  -0.2603   0.01739   0.01210  -0.0991  0.9450  0.0089  -4.1654   0.0000   0.0000   0.0000  -0.1381
  -5.700  -0.2460   0.01808   0.01289  -0.0999  0.9434  0.0098  -3.8537   0.0000   0.0000   0.0000  -0.1635
  -5.600  -0.2308   0.01897   0.01382  -0.1006  0.9419  0.0108  -3.5769   0.0000   0.0000   0.0000  -0.1937
  -5.500  -0.2190   0.01716   0.01181  -0.1010  0.9403  0.0111  -3.6216   0.0000   0.0000   0.0000  -0.2193
  -5.400  -0.2065   0.01603   0.01056  -0.1014  0.9387  0.0112  -3.5999   0.0000   0.0000   0.0000  -0.2496
  -5.300  -0.1935   0.01508   0.00950  -0.1019  0.9373  0.0112  -3.5628   0.0000   0.0000   0.0000  -0.2851
  -5.200  -0.1805   0.01405   0.00836  -0.1024  0.9360  0.0114  -3.5389   0.0000   0.0000   0.0000  -0.3261
  -5.100  -0.1675   0.01300   0.00720  -0.1029  0.9347  0.0118  -3.5271   0.0000   0.0000   0.0000  -0.3736
  -5.000  -0.1542   0.01203   0.00611  -0.1035  0.9334  0.0128  -3.5205   0.0000   0.0000   0.0000  -0.4312
  -4.900  -0.1400   0.01137   0.00536  -0.1042  0.9321  0.0150  -3.4769   0.0000   0.0000   0.0000  -0.5049
  -4.800  -0.1254   0.01101   0.00491  -0.1050  0.9308  0.0181  -3.3669   0.0000   0.0000   0.0000  -0.5991
  -4.700  -0.1116   0.01088   0.00479  -0.1057  0.9291  0.0222  -3.2128   0.0000   0.0000   0.0000  -0.7091
  -4.600  -0.1020   0.01093   0.00485  -0.1054  0.9258  0.0239  -3.0574   0.0000   0.0000   0.0000  -0.7962
  -4.500  -0.0923   0.01015   0.00400  -0.1052  0.9224  0.0361  -3.0400   0.0000   0.0000   0.0000  -0.9030
  -4.400  -0.0808   0.01002   0.00384  -0.1053  0.9197  0.0418  -2.9032   0.0000   0.0000   0.0000  -1.0693
  -4.300  -0.0692   0.00964   0.00354  -0.1056  0.9170  0.0630  -2.7928   0.0000   0.0000   0.0000  -1.2934
  -4.200  -0.0570   0.00932   0.00332  -0.1060  0.9147  0.0926  -2.6597   0.0000   0.0000   0.0000  -1.6309
  -4.100  -0.0447   0.00896   0.00312  -0.1066  0.9124  0.1374  -2.5205   0.0000   0.0000   0.0000  -2.1610
  -4.000  -0.0325   0.00851   0.00292  -0.1072  0.9102  0.2047  -2.3811   0.0000   0.0000   0.0000  -3.0822
  -3.900  -0.0207   0.00796   0.00273  -0.1079  0.9080  0.3030  -2.2444   0.0000   0.0000   0.0000  -5.0210
  -3.800  -0.0084   0.00763   0.00266  -0.1085  0.9058  0.3825  -2.1039   0.0000   0.0000   0.0000  -12.7817
  -3.700   0.0044   0.00748   0.00265  -0.1090  0.9036  0.4268  -1.9617   0.0000   0.0000   0.0000  25.4939
  -3.500   0.0276   0.00738   0.00261  -0.1093  0.8989  0.4643  -1.6980   0.0000   0.0000   0.0000   4.2493
  -3.400   0.0379   0.00736   0.00259  -0.1091  0.8965  0.4760  -1.5764   0.0000   0.0000   0.0000   3.1505
  -3.300   0.0487   0.00737   0.00256  -0.1090  0.8940  0.4837  -1.4548   0.0000   0.0000   0.0000   2.5050
  -3.200   0.0598   0.00738   0.00254  -0.1090  0.8915  0.4906  -1.3342   0.0000   0.0000   0.0000   2.0875
  -3.100   0.0706   0.00732   0.00252  -0.1090  0.8891  0.5052  -1.2175   0.0000   0.0000   0.0000   1.8050
  -3.000   0.0816   0.00730   0.00252  -0.1090  0.8867  0.5155  -1.1013   0.0000   0.0000   0.0000   1.5939
  -2.900   0.0931   0.00729   0.00247  -0.1090  0.8844  0.5231  -0.9821   0.0000   0.0000   0.0000   1.4290
  -2.800   0.1048   0.00729   0.00245  -0.1091  0.8821  0.5298  -0.8698   0.0000   0.0000   0.0000   1.2982
  -2.700   0.1167   0.00731   0.00243  -0.1093  0.8798  0.5352  -0.7596   0.0000   0.0000   0.0000   1.1923
  -2.600   0.1287   0.00733   0.00240  -0.1095  0.8775  0.5387  -0.6633   0.0000   0.0000   0.0000   1.1054
  -2.500   0.1409   0.00736   0.00238  -0.1097  0.8751  0.5407  -0.6152   0.0000   0.0000   0.0000   1.0328
  -2.400   0.1531   0.00734   0.00233  -0.1099  0.8725  0.5460  -0.5692   0.0000   0.0000   0.0000   0.9719
  -2.300   0.1652   0.00732   0.00232  -0.1102  0.8695  0.5543  -0.5238   0.0000   0.0000   0.0000   0.9202
  -2.200   0.1763   0.00731   0.00233  -0.1102  0.8672  0.5623  -0.4853   0.0000   0.0000   0.0000   0.8780
  -2.100   0.1866   0.00730   0.00235  -0.1100  0.8655  0.5700  -0.4486   0.0000   0.0000   0.0000   0.8423
  -2.000   0.1970   0.00731   0.00237  -0.1099  0.8637  0.5772  -0.4285   0.0000   0.0000   0.0000   0.8099
  -1.900   0.2077   0.00732   0.00239  -0.1098  0.8618  0.5830  -0.4325   0.0000   0.0000   0.0000   0.7804
  -1.800   0.2186   0.00735   0.00240  -0.1097  0.8600  0.5875  -0.4367   0.0000   0.0000   0.0000   0.7536
  -1.700   0.2296   0.00737   0.00240  -0.1097  0.8580  0.5907  -0.4408   0.0000   0.0000   0.0000   0.7293
  -1.600   0.2407   0.00740   0.00239  -0.1097  0.8561  0.5930  -0.4450   0.0000   0.0000   0.0000   0.7071
  -1.500   0.2519   0.00742   0.00239  -0.1097  0.8542  0.5945  -0.4493   0.0000   0.0000   0.0000   0.6868
  -1.400   0.2630   0.00737   0.00235  -0.1098  0.8523  0.6004  -0.4534   0.0000   0.0000   0.0000   0.6684
  -1.300   0.2741   0.00734   0.00232  -0.1098  0.8504  0.6065  -0.4576   0.0000   0.0000   0.0000   0.6514
  -1.200   0.2852   0.00731   0.00231  -0.1098  0.8485  0.6116  -0.4619   0.0000   0.0000   0.0000   0.6358
  -1.100   0.2965   0.00730   0.00231  -0.1099  0.8467  0.6161  -0.4661   0.0000   0.0000   0.0000   0.6212
  -1.000   0.3078   0.00730   0.00231  -0.1099  0.8448  0.6202  -0.4704   0.0000   0.0000   0.0000   0.6076
  -0.900   0.3192   0.00730   0.00231  -0.1100  0.8430  0.6238  -0.4748   0.0000   0.0000   0.0000   0.5950
  -0.800   0.3306   0.00731   0.00232  -0.1101  0.8411  0.6273  -0.4791   0.0000   0.0000   0.0000   0.5832
  -0.700   0.3422   0.00733   0.00232  -0.1102  0.8391  0.6307  -0.4835   0.0000   0.0000   0.0000   0.5722
  -0.600   0.3539   0.00735   0.00234  -0.1104  0.8369  0.6339  -0.4878   0.0000   0.0000   0.0000   0.5619
  -0.500   0.3657   0.00740   0.00237  -0.1105  0.8346  0.6369  -0.4922   0.0000   0.0000   0.0000   0.5522
  -0.400   0.3775   0.00745   0.00242  -0.1108  0.8321  0.6398  -0.4965   0.0000   0.0000   0.0000   0.5433
  -0.300   0.3885   0.00748   0.00244  -0.1108  0.8308  0.6424  -0.5005   0.0000   0.0000   0.0000   0.5349
  -0.200   0.3994   0.00748   0.00245  -0.1108  0.8297  0.6447  -0.5045   0.0000   0.0000   0.0000   0.5270
  -0.100   0.4102   0.00749   0.00246  -0.1107  0.8284  0.6466  -0.5091   0.0000   0.0000   0.0000   0.5195
   0.000   0.4210   0.00749   0.00247  -0.1107  0.8269  0.6496  -0.5137   0.0000   0.0000   0.0000   0.5124
   0.100   0.4317   0.00746   0.00247  -0.1106  0.8252  0.6564  -0.5182   0.0000   0.0000   0.0000   0.5057
   0.200   0.4424   0.00744   0.00248  -0.1106  0.8234  0.6627  -0.5228   0.0000   0.0000   0.0000   0.4992
   0.300   0.4531   0.00742   0.00250  -0.1105  0.8215  0.6683  -0.5273   0.0000   0.0000   0.0000   0.4931
   0.400   0.4639   0.00742   0.00252  -0.1104  0.8196  0.6736  -0.5322   0.0000   0.0000   0.0000   0.4872
   0.500   0.4748   0.00741   0.00255  -0.1104  0.8177  0.6787  -0.5375   0.0000   0.0000   0.0000   0.4816
   0.600   0.4857   0.00741   0.00257  -0.1103  0.8156  0.6836  -0.5427   0.0000   0.0000   0.0000   0.4762
   0.700   0.4967   0.00742   0.00259  -0.1103  0.8136  0.6881  -0.5481   0.0000   0.0000   0.0000   0.4711
   0.800   0.5078   0.00742   0.00260  -0.1103  0.8114  0.6923  -0.5534   0.0000   0.0000   0.0000   0.4661
   0.900   0.5189   0.00743   0.00261  -0.1103  0.8093  0.6958  -0.5592   0.0000   0.0000   0.0000   0.4614
   1.000   0.5301   0.00745   0.00263  -0.1103  0.8070  0.6988  -0.5658   0.0000   0.0000   0.0000   0.4568
   1.100   0.5413   0.00744   0.00263  -0.1103  0.8046  0.7048  -0.5734   0.0000   0.0000   0.0000   0.4525
   1.200   0.5523   0.00743   0.00265  -0.1103  0.8017  0.7124  -0.5847   0.0000   0.0000   0.0000   0.4483
   1.300   0.5635   0.00744   0.00268  -0.1103  0.7984  0.7192  -0.6051   0.0000   0.0000   0.0000   0.4442
   1.400   0.5749   0.00749   0.00276  -0.1104  0.7942  0.7256  -0.6268   0.0000   0.0000   0.0000   0.4404
   1.500   0.5859   0.00753   0.00282  -0.1103  0.7910  0.7319  -0.6482   0.0000   0.0000   0.0000   0.4367
   1.600   0.5961   0.00750   0.00283  -0.1101  0.7893  0.7381  -0.6692   0.0000   0.0000   0.0000   0.4330
   1.700   0.6065   0.00747   0.00285  -0.1099  0.7870  0.7438  -0.6903   0.0000   0.0000   0.0000   0.4295
   1.800   0.6170   0.00746   0.00286  -0.1097  0.7842  0.7486  -0.7168   0.0000   0.0000   0.0000   0.4260
   1.900   0.6272   0.00742   0.00286  -0.1095  0.7811  0.7566  -0.7440   0.0000   0.0000   0.0000   0.4227
   2.000   0.6373   0.00737   0.00287  -0.1092  0.7774  0.7655  -0.7713   0.0000   0.0000   0.0000   0.4194
   2.100   0.6475   0.00733   0.00286  -0.1089  0.7732  0.7740  -0.8023   0.0000   0.0000   0.0000   0.4161
   2.200   0.6577   0.00729   0.00285  -0.1086  0.7688  0.7824  -0.8399   0.0000   0.0000   0.0000   0.4130
   2.300   0.6683   0.00727   0.00283  -0.1084  0.7636  0.7906  -0.8784   0.0000   0.0000   0.0000   0.4100
   2.500   0.6897   0.00733   0.00288  -0.1081  0.7493  0.8099  -0.9570   0.0000   0.0000   0.0000   0.4043
   2.600   0.6987   0.00726   0.00289  -0.1075  0.7467  0.8219  -0.9939   0.0000   0.0000   0.0000   0.4014
   2.700   0.7082   0.00722   0.00291  -0.1071  0.7437  0.8338  -1.0318   0.0000   0.0000   0.0000   0.3987
   2.900   0.7265   0.00714   0.00297  -0.1061  0.7369  0.8608  -1.1282   0.0000   0.0000   0.0000   0.3933
   3.000   0.7355   0.00710   0.00302  -0.1055  0.7320  0.8763  -1.1788   0.0000   0.0000   0.0000   0.3907
   3.100   0.7437   0.00705   0.00302  -0.1047  0.7263  0.8937  -1.2675   0.0000   0.0000   0.0000   0.3879
   3.200   0.7522   0.00701   0.00301  -0.1039  0.7206  0.9148  -1.3776   0.0000   0.0000   0.0000   0.3853
   3.300   0.7621   0.00698   0.00300  -0.1035  0.7148  0.9420  -1.4986   0.0000   0.0000   0.0000   0.3828
   3.400   0.7783   0.00700   0.00300  -0.1046  0.7051  0.9853  -1.6577   0.0000   0.0000   0.0000   0.3813
   3.500   0.7890   0.00697   0.00302  -0.1045  0.6996  1.0000  -1.7878   0.0000   0.0000   0.0000   0.3793
   3.600   0.7992   0.00698   0.00305  -0.1043  0.6913  1.0000  -1.9181   0.0000   0.0000   0.0000   0.3772
   3.700   0.8095   0.00700   0.00307  -0.1041  0.6818  1.0000  -2.0516   0.0000   0.0000   0.0000   0.3752
   3.800   0.8194   0.00705   0.00308  -0.1038  0.6698  1.0000  -2.1852   0.0000   0.0000   0.0000   0.3732
   3.900   0.8287   0.00713   0.00310  -0.1033  0.6560  1.0000  -2.3179   0.0000   0.0000   0.0000   0.3712
   4.000   0.8380   0.00718   0.00313  -0.1029  0.6361  1.0000  -2.4533   0.0000   0.0000   0.0000   0.3692
   4.100   0.8451   0.00735   0.00315  -0.1020  0.6070  1.0000  -2.5763   0.0000   0.0000   0.0000   0.3670
   4.200   0.8507   0.00759   0.00320  -0.1008  0.5650  1.0000  -2.6911   0.0000   0.0000   0.0000   0.3648
   4.300   0.8550   0.00795   0.00332  -0.0995  0.5134  1.0000  -2.7982   0.0000   0.0000   0.0000   0.3625
   4.400   0.8585   0.00840   0.00350  -0.0981  0.4579  1.0000  -2.9006   0.0000   0.0000   0.0000   0.3603
   4.500   0.8621   0.00890   0.00373  -0.0968  0.4018  1.0000  -3.0038   0.0000   0.0000   0.0000   0.3582
   4.600   0.8660   0.00941   0.00398  -0.0955  0.3476  1.0000  -3.1098   0.0000   0.0000   0.0000   0.3562
   4.700   0.8703   0.00993   0.00424  -0.0944  0.2960  1.0000  -3.2190   0.0000   0.0000   0.0000   0.3543
   4.800   0.8750   0.01043   0.00450  -0.0934  0.2482  1.0000  -3.3320   0.0000   0.0000   0.0000   0.3525
   4.900   0.8801   0.01092   0.00476  -0.0925  0.2034  1.0000  -3.4481   0.0000   0.0000   0.0000   0.3507
   5.000   0.8855   0.01141   0.00502  -0.0916  0.1616  1.0000  -3.5666   0.0000   0.0000   0.0000   0.3490
   5.100   0.8912   0.01187   0.00528  -0.0908  0.1251  1.0000  -3.6888   0.0000   0.0000   0.0000   0.3473
   5.200   0.8975   0.01229   0.00553  -0.0901  0.0964  1.0000  -3.8157   0.0000   0.0000   0.0000   0.3457
   5.300   0.9046   0.01265   0.00581  -0.0895  0.0765  1.0000  -3.9478   0.0000   0.0000   0.0000   0.3441
   5.400   0.9124   0.01295   0.00604  -0.0890  0.0607  1.0000  -4.0856   0.0000   0.0000   0.0000   0.3426
   5.500   0.9193   0.01334   0.00632  -0.0883  0.0460  1.0000  -4.2108   0.0000   0.0000   0.0000   0.3411
   5.600   0.9282   0.01354   0.00654  -0.0879  0.0403  1.0000  -4.3545   0.0000   0.0000   0.0000   0.3396
   5.700   0.9357   0.01388   0.00681  -0.0873  0.0332  1.0000  -4.5030   0.0000   0.0000   0.0000   0.3381
   5.800   0.9418   0.01438   0.00734  -0.0863  0.0253  1.0000  -4.5962   0.0000   0.0000   0.0000   0.3364
   5.900   0.9508   0.01457   0.00754  -0.0859  0.0214  1.0000  -4.7475   0.0000   0.0000   0.0000   0.3350
   6.000   0.9565   0.01511   0.00804  -0.0849  0.0152  1.0000  -4.8228   0.0000   0.0000   0.0000   0.3333
   6.100   0.9593   0.01596   0.00902  -0.0832  0.0123  1.0000  -4.8151   0.0000   0.0000   0.0000   0.3313
   6.200   0.9682   0.01616   0.00924  -0.0829  0.0115  1.0000  -4.9557   0.0000   0.0000   0.0000   0.3299
   6.300   0.9758   0.01651   0.00967  -0.0822  0.0106  1.0000  -5.0522   0.0000   0.0000   0.0000   0.3285
   6.400   0.9829   0.01693   0.01012  -0.0814  0.0097  1.0000  -5.1355   0.0000   0.0000   0.0000   0.3270
   6.500   0.9898   0.01737   0.01061  -0.0806  0.0091  1.0000  -5.2231   0.0000   0.0000   0.0000   0.3255
   6.600   0.9966   0.01784   0.01112  -0.0798  0.0086  1.0000  -5.3137   0.0000   0.0000   0.0000   0.3241
   6.700   1.0035   0.01834   0.01166  -0.0791  0.0083  1.0000  -5.4052   0.0000   0.0000   0.0000   0.3226
   6.800   1.0103   0.01887   0.01224  -0.0783  0.0080  1.0000  -5.4952   0.0000   0.0000   0.0000   0.3212
   6.900   1.0173   0.01946   0.01288  -0.0775  0.0078  1.0000  -5.5828   0.0000   0.0000   0.0000   0.3198
   7.000   1.0245   0.02009   0.01357  -0.0768  0.0077  1.0000  -5.6666   0.0000   0.0000   0.0000   0.3185
   7.100   1.0321   0.02074   0.01428  -0.0762  0.0075  1.0000  -5.7567   0.0000   0.0000   0.0000   0.3172
   7.200   1.0400   0.02135   0.01493  -0.0756  0.0073  1.0000  -5.8667   0.0000   0.0000   0.0000   0.3160
   7.300   1.0479   0.02196   0.01558  -0.0751  0.0070  1.0000  -5.9887   0.0000   0.0000   0.0000   0.3149
   7.400   1.0556   0.02279   0.01647  -0.0746  0.0066  1.0000  -6.0920   0.0000   0.0000   0.0000   0.3138
   7.500   1.0636   0.02432   0.01812  -0.0742  0.0062  1.0000  -6.1194   0.0000   0.0000   0.0000   0.3128
   7.600   1.0721   0.02703   0.02106  -0.0737  0.0058  1.0000  -6.0218   0.0000   0.0000   0.0000   0.3117
   7.700   1.0795   0.02910   0.02333  -0.0731  0.0057  1.0000  -5.9751   0.0000   0.0000   0.0000   0.3106
   7.800   1.0863   0.03062   0.02499  -0.0724  0.0057  1.0000  -5.9803   0.0000   0.0000   0.0000   0.3094
   7.900   1.0924   0.03206   0.02657  -0.0716  0.0057  1.0000  -5.9891   0.0000   0.0000   0.0000   0.3082
   8.000   1.0979   0.03341   0.02806  -0.0707  0.0057  1.0000  -6.0035   0.0000   0.0000   0.0000   0.3070
   8.100   1.1029   0.03469   0.02946  -0.0698  0.0057  1.0000  -6.0248   0.0000   0.0000   0.0000   0.3058
   8.200   1.1077   0.03587   0.03077  -0.0689  0.0057  1.0000  -6.0540   0.0000   0.0000   0.0000   0.3046
   8.300   1.1123   0.03697   0.03198  -0.0680  0.0058  1.0000  -6.0911   0.0000   0.0000   0.0000   0.3034
   8.400   1.1167   0.03799   0.03310  -0.0670  0.0058  1.0000  -6.1359   0.0000   0.0000   0.0000   0.3022
   8.500   1.1210   0.03895   0.03415  -0.0661  0.0058  1.0000  -6.1864   0.0000   0.0000   0.0000   0.3010
   8.600   1.1252   0.03985   0.03514  -0.0651  0.0059  1.0000  -6.2418   0.0000   0.0000   0.0000   0.2998
   8.700   1.1293   0.04069   0.03607  -0.0642  0.0059  1.0000  -6.3015   0.0000   0.0000   0.0000   0.2987
   8.800   1.1333   0.04149   0.03696  -0.0632  0.0060  1.0000  -6.3642   0.0000   0.0000   0.0000   0.2975
   8.900   1.1373   0.04225   0.03780  -0.0622  0.0060  1.0000  -6.4280   0.0000   0.0000   0.0000   0.2963
   9.000   1.1411   0.04299   0.03862  -0.0612  0.0061  1.0000  -6.4893   0.0000   0.0000   0.0000   0.2952
   9.100   1.1448   0.04373   0.03946  -0.0602  0.0063  1.0000  -6.5374   0.0000   0.0000   0.0000   0.2940
  13.900   0.8797   0.17178   0.16973  -0.0892  0.0125  1.0000  -2.6756   0.0000   0.0000   0.0000   0.3386
  14.000   0.8809   0.17377   0.17172  -0.0902  0.0125  1.0000  -2.6495   0.0000   0.0000   0.0000   0.3395
  14.100   0.8822   0.17576   0.17371  -0.0912  0.0125  1.0000  -2.6243   0.0000   0.0000   0.0000   0.3404
  14.200   0.8836   0.17775   0.17570  -0.0922  0.0125  1.0000  -2.5999   0.0000   0.0000   0.0000   0.3413
  14.300   0.8851   0.17975   0.17769  -0.0932  0.0125  1.0000  -2.5764   0.0000   0.0000   0.0000   0.3421
  14.400   0.8866   0.18174   0.17968  -0.0942  0.0125  1.0000  -2.5537   0.0000   0.0000   0.0000   0.3429
  14.500   0.8882   0.18374   0.18167  -0.0952  0.0125  1.0000  -2.5318   0.0000   0.0000   0.0000   0.3437
  14.600   0.8898   0.18573   0.18366  -0.0962  0.0125  1.0000  -2.5107   0.0000   0.0000   0.0000   0.3445
  14.700   0.8915   0.18771   0.18565  -0.0971  0.0124  1.0000  -2.4904   0.0000   0.0000   0.0000   0.3453
  14.800   0.8933   0.18970   0.18763  -0.0981  0.0124  1.0000  -2.4709   0.0000   0.0000   0.0000   0.3460
  14.900   0.8951   0.19168   0.18961  -0.0990  0.0124  1.0000  -2.4522   0.0000   0.0000   0.0000   0.3468
  15.000   0.8970   0.19365   0.19158  -0.1000  0.0124  1.0000  -2.4344   0.0000   0.0000   0.0000   0.3475
  15.100   0.8989   0.19562   0.19354  -0.1009  0.0124  1.0000  -2.4175   0.0000   0.0000   0.0000   0.3482
  15.200   0.9008   0.19757   0.19549  -0.1019  0.0123  1.0000  -2.4016   0.0000   0.0000   0.0000   0.3489
  15.300   0.9029   0.19951   0.19743  -0.1028  0.0123  1.0000  -2.3868   0.0000   0.0000   0.0000   0.3495
  15.400   0.9050   0.20143   0.19935  -0.1038  0.0123  1.0000  -2.3733   0.0000   0.0000   0.0000   0.3502
  15.500   0.9072   0.20331   0.20123  -0.1047  0.0122  1.0000  -2.3616   0.0000   0.0000   0.0000   0.3508
  15.600   0.9095   0.20516   0.20307  -0.1056  0.0122  1.0000  -2.3522   0.0000   0.0000   0.0000   0.3514
  15.700   0.9120   0.20692   0.20484  -0.1066  0.0121  1.0000  -2.3463   0.0000   0.0000   0.0000   0.3520
  15.800   0.9149   0.20856   0.20648  -0.1075  0.0119  1.0000  -2.3457   0.0000   0.0000   0.0000   0.3525
  15.900   0.9182   0.21011   0.20803  -0.1084  0.0116  1.0000  -2.3482   0.0000   0.0000   0.0000   0.3530
  16.000   0.9212   0.21177   0.20969  -0.1094  0.0113  1.0000  -2.3428   0.0000   0.0000   0.0000   0.3535
  16.100   0.9234   0.21367   0.21158  -0.1105  0.0111  1.0000  -2.3207   0.0000   0.0000   0.0000   0.3543
  16.200   0.9255   0.21563   0.21354  -0.1115  0.0108  1.0000  -2.2981   0.0000   0.0000   0.0000   0.3551
  16.300   0.9276   0.21763   0.21554  -0.1126  0.0106  1.0000  -2.2768   0.0000   0.0000   0.0000   0.3558
  16.400   0.9297   0.21964   0.21755  -0.1135  0.0103  1.0000  -2.2572   0.0000   0.0000   0.0000   0.3564
  16.500   0.9318   0.22166   0.21957  -0.1145  0.0101  1.0000  -2.2394   0.0000   0.0000   0.0000   0.3571
  16.600   0.9338   0.22369   0.22160  -0.1154  0.0099  1.0000  -2.2234   0.0000   0.0000   0.0000   0.3577
  16.700   0.9359   0.22572   0.22363  -0.1163  0.0097  1.0000  -2.2089   0.0000   0.0000   0.0000   0.3582
  16.800   0.9379   0.22775   0.22566  -0.1172  0.0095  1.0000  -2.1959   0.0000   0.0000   0.0000   0.3588
  16.900   0.9400   0.22978   0.22769  -0.1181  0.0094  1.0000  -2.1843   0.0000   0.0000   0.0000   0.3593
  17.000   0.9420   0.23181   0.22972  -0.1190  0.0092  1.0000  -2.1739   0.0000   0.0000   0.0000   0.3599
  17.100   0.9441   0.23384   0.23175  -0.1199  0.0090  1.0000  -2.1645   0.0000   0.0000   0.0000   0.3604
  17.200   0.9461   0.23587   0.23378  -0.1207  0.0089  1.0000  -2.1562   0.0000   0.0000   0.0000   0.3609
  17.300   0.9481   0.23790   0.23581  -0.1216  0.0087  1.0000  -2.1489   0.0000   0.0000   0.0000   0.3614
  17.400   0.9501   0.23993   0.23784  -0.1225  0.0086  1.0000  -2.1426   0.0000   0.0000   0.0000   0.3619
  17.500   0.9522   0.24197   0.23987  -0.1233  0.0084  1.0000  -2.1371   0.0000   0.0000   0.0000   0.3623
  17.600   0.9542   0.24400   0.24191  -0.1241  0.0083  1.0000  -2.1324   0.0000   0.0000   0.0000   0.3628
  17.700   0.9562   0.24603   0.24394  -0.1250  0.0082  1.0000  -2.1286   0.0000   0.0000   0.0000   0.3633
  17.800   0.9582   0.24807   0.24598  -0.1258  0.0081  1.0000  -2.1257   0.0000   0.0000   0.0000   0.3637
  17.900   0.9602   0.25010   0.24802  -0.1266  0.0079  1.0000  -2.1235   0.0000   0.0000   0.0000   0.3641
  18.000   0.9621   0.25214   0.25005  -0.1274  0.0078  1.0000  -2.1222   0.0000   0.0000   0.0000   0.3646
  18.100   0.9641   0.25418   0.25209  -0.1282  0.0077  1.0000  -2.1217   0.0000   0.0000   0.0000   0.3650
  18.200   0.9661   0.25622   0.25413  -0.1290  0.0076  1.0000  -2.1221   0.0000   0.0000   0.0000   0.3654
  18.300   0.9680   0.25825   0.25617  -0.1298  0.0075  1.0000  -2.1234   0.0000   0.0000   0.0000   0.3658
  18.400   0.9699   0.26029   0.25821  -0.1306  0.0074  1.0000  -2.1255   0.0000   0.0000   0.0000   0.3662
  18.500   0.9718   0.26233   0.26025  -0.1314  0.0073  1.0000  -2.1285   0.0000   0.0000   0.0000   0.3666
  18.600   0.9737   0.26437   0.26229  -0.1321  0.0072  1.0000  -2.1325   0.0000   0.0000   0.0000   0.3669
  18.700   0.9756   0.26640   0.26433  -0.1329  0.0071  1.0000  -2.1374   0.0000   0.0000   0.0000   0.3673
  18.800   0.9774   0.26844   0.26636  -0.1336  0.0070  1.0000  -2.1436   0.0000   0.0000   0.0000   0.3677
  18.900   0.9793   0.27047   0.26840  -0.1344  0.0070  1.0000  -2.1507   0.0000   0.0000   0.0000   0.3680
  19.000   0.9811   0.27250   0.27044  -0.1351  0.0069  1.0000  -2.1591   0.0000   0.0000   0.0000   0.3683
  19.100   0.9829   0.27454   0.27247  -0.1358  0.0068  1.0000  -2.1685   0.0000   0.0000   0.0000   0.3686
  19.200   0.9847   0.27657   0.27450  -0.1365  0.0067  1.0000  -2.1793   0.0000   0.0000   0.0000   0.3690
  19.300   0.9864   0.27860   0.27654  -0.1372  0.0067  1.0000  -2.1912   0.0000   0.0000   0.0000   0.3692
  19.400   0.9881   0.28062   0.27857  -0.1379  0.0066  1.0000  -2.2046   0.0000   0.0000   0.0000   0.3695
  19.500   0.9898   0.28265   0.28060  -0.1386  0.0065  1.0000  -2.2193   0.0000   0.0000   0.0000   0.3698
  19.600   0.9915   0.28469   0.28264  -0.1392  0.0065  1.0000  -2.2354   0.0000   0.0000   0.0000   0.3700
  19.700   0.9931   0.28673   0.28468  -0.1398  0.0064  1.0000  -2.2530   0.0000   0.0000   0.0000   0.3702
  19.800   0.9947   0.28877   0.28673  -0.1404  0.0063  1.0000  -2.2720   0.0000   0.0000   0.0000   0.3704
  19.900   0.9963   0.29084   0.28881  -0.1410  0.0062  1.0000  -2.2923   0.0000   0.0000   0.0000   0.3706
  20.000   0.9978   0.29294   0.29091  -0.1415  0.0062  1.0000  -2.3136   0.0000   0.0000   0.0000   0.3707
  20.100   0.9992   0.29512   0.29310  -0.1419  0.0061  1.0000  -2.3328   0.0000   0.0000   0.0000   0.3708
  20.200   1.0000   0.29758   0.29556  -0.1426  0.0060  1.0000  -2.3262   0.0000   0.0000   0.0000   0.3712
  20.300   1.0004   0.30028   0.29826  -0.1432  0.0059  1.0000  -2.3062   0.0000   0.0000   0.0000   0.3716
  20.400   0.9995   0.30386   0.30184  -0.1438  0.0058  1.0000  -2.2345   0.0000   0.0000   0.0000   0.3723
  20.500   0.9969   0.30877   0.30673  -0.1445  0.0057  1.0000  -2.0720   0.0000   0.0000   0.0000   0.3733
  20.600   0.9977   0.31107   0.30903  -0.1452  0.0057  1.0000  -2.0591   0.0000   0.0000   0.0000   0.3737
  20.700   0.9984   0.31337   0.31134  -0.1459  0.0057  1.0000  -2.0461   0.0000   0.0000   0.0000   0.3741
  20.800   0.9989   0.31566   0.31364  -0.1465  0.0057  1.0000  -2.0330   0.0000   0.0000   0.0000   0.3746
  20.900   0.9994   0.31795   0.31593  -0.1472  0.0057  1.0000  -2.0197   0.0000   0.0000   0.0000   0.3750
  21.000   0.9997   0.32023   0.31821  -0.1478  0.0057  1.0000  -2.0062   0.0000   0.0000   0.0000   0.3754
  21.100   0.9998   0.32250   0.32048  -0.1484  0.0057  1.0000  -1.9924   0.0000   0.0000   0.0000   0.3759
  21.200   0.9997   0.32475   0.32281  -0.1490  0.0057  1.0000  -1.9781   0.0000   0.0000   0.0000   0.3764
  21.300   0.9994   0.32697   0.32504  -0.1496  0.0057  1.0000  -1.9636   0.0000   0.0000   0.0000   0.3768
  21.400   0.9988   0.32917   0.32724  -0.1501  0.0057  1.0000  -1.9486   0.0000   0.0000   0.0000   0.3773
  21.500   0.9979   0.33132   0.32940  -0.1506  0.0056  1.0000  -1.9328   0.0000   0.0000   0.0000   0.3778
  21.600   0.9965   0.33340   0.33149  -0.1510  0.0056  1.0000  -1.9159   0.0000   0.0000   0.0000   0.3783
  21.700   0.9944   0.33539   0.33349  -0.1514  0.0056  1.0000  -1.8975   0.0000   0.0000   0.0000   0.3789
  21.800   0.9913   0.33722   0.33533  -0.1516  0.0056  1.0000  -1.8766   0.0000   0.0000   0.0000   0.3795


