xflr5 v6.61

 Calculated polar for: EPPLER 393 AIRFOIL

 1 1 Reynolds number fixed          Mach number fixed         

 xtrf =   1.000 (top)        1.000 (bottom)
 Mach =   0.000     Re =     0.450 e 6     Ncrit =   9.000

  alpha     CL        CD       CDp       Cm    Top Xtr Bot Xtr   Cpmin    Chinge    XCp    
 ------- -------- --------- --------- -------- ------- ------- -------- --------- ---------
 -10.000  -0.2953   0.10866   0.10622  -0.0432  1.0000  0.0155  -1.6605   0.0000   0.0000   0.0000   0.0905
  -9.900  -0.2948   0.10741   0.10497  -0.0433  1.0000  0.0155  -1.6705   0.0000   0.0000   0.0000   0.0900
  -9.800  -0.2945   0.10616   0.10373  -0.0434  1.0000  0.0155  -1.6809   0.0000   0.0000   0.0000   0.0895
  -9.700  -0.2942   0.10492   0.10251  -0.0435  1.0000  0.0155  -1.6915   0.0000   0.0000   0.0000   0.0893
  -9.600  -0.2942   0.10369   0.10129  -0.0436  1.0000  0.0155  -1.7025   0.0000   0.0000   0.0000   0.0892
  -9.500  -0.2942   0.10247   0.10008  -0.0436  1.0000  0.0155  -1.7138   0.0000   0.0000   0.0000   0.0892
  -9.400  -0.2945   0.10126   0.09889  -0.0436  1.0000  0.0155  -1.7255   0.0000   0.0000   0.0000   0.0895
  -9.300  -0.2949   0.10007   0.09771  -0.0436  1.0000  0.0155  -1.7375   0.0000   0.0000   0.0000   0.0900
  -9.200  -0.2956   0.09890   0.09655  -0.0435  1.0000  0.0155  -1.7498   0.0000   0.0000   0.0000   0.0908
  -9.100  -0.2966   0.09775   0.09542  -0.0434  1.0000  0.0155  -1.7626   0.0000   0.0000   0.0000   0.0918
  -9.000  -0.2979   0.09663   0.09432  -0.0432  1.0000  0.0155  -1.7757   0.0000   0.0000   0.0000   0.0933
  -8.900  -0.2995   0.09555   0.09325  -0.0430  1.0000  0.0155  -1.7893   0.0000   0.0000   0.0000   0.0951
  -8.800  -0.3015   0.09451   0.09224  -0.0426  1.0000  0.0155  -1.8032   0.0000   0.0000   0.0000   0.0974
  -8.700  -0.3013   0.09319   0.09093  -0.0430  0.9997  0.0155  -1.8174   0.0000   0.0000   0.0000   0.0962
  -8.600  -0.2952   0.09113   0.08887  -0.0452  0.9988  0.0155  -1.8321   0.0000   0.0000   0.0000   0.0856
  -8.300  -0.2779   0.08451   0.08229  -0.0523  0.9948  0.0156  -1.9009   0.0000   0.0000   0.0000   0.0503
  -8.200  -0.2839   0.07905   0.07684  -0.0568  0.9923  0.0159  -2.1314   0.0000   0.0000   0.0000   0.0386
  -8.100  -0.2813   0.07575   0.07355  -0.0603  0.9902  0.0161  -2.2193   0.0000   0.0000   0.0000   0.0243
  -8.000  -0.2767   0.07269   0.07049  -0.0640  0.9883  0.0161  -2.2856   0.0000   0.0000   0.0000   0.0072
  -7.900  -0.2720   0.06987   0.06767  -0.0674  0.9858  0.0162  -2.3397   0.0000   0.0000   0.0000  -0.0095
  -7.800  -0.2679   0.06723   0.06504  -0.0705  0.9815  0.0162  -2.3874   0.0000   0.0000   0.0000  -0.0249
  -7.700  -0.2617   0.06430   0.06211  -0.0745  0.9777  0.0162  -2.4372   0.0000   0.0000   0.0000  -0.0466
  -7.600  -0.2529   0.06082   0.05862  -0.0798  0.9746  0.0162  -2.4942   0.0000   0.0000   0.0000  -0.0779
  -7.500  -0.2389   0.05580   0.05356  -0.0887  0.9724  0.0161  -2.5845   0.0000   0.0000   0.0000  -0.1342
  -7.100  -0.1947   0.05026   0.04780  -0.1004  0.9551  0.0155  -2.4115   0.0000   0.0000   0.0000  -0.2797
  -7.000  -0.1872   0.04742   0.04486  -0.1044  0.9502  0.0155  -2.4544   0.0000   0.0000   0.0000  -0.3224
  -6.900  -0.1836   0.04525   0.04260  -0.1064  0.9415  0.0155  -2.4871   0.0000   0.0000   0.0000  -0.3442
  -6.800  -0.1883   0.03808   0.03521  -0.1123  0.9326  0.0147  -2.7941   0.0000   0.0000   0.0000  -0.3609
  -6.700  -0.1845   0.03337   0.03020  -0.1161  0.9260  0.0140  -2.9830   0.0000   0.0000   0.0000  -0.3940
  -6.600  -0.1803   0.03073   0.02734  -0.1173  0.9175  0.0137  -3.0671   0.0000   0.0000   0.0000  -0.4154
  -6.500  -0.1728   0.02824   0.02461  -0.1185  0.9105  0.0133  -3.1353   0.0000   0.0000   0.0000  -0.4513
  -6.400  -0.1637   0.02600   0.02213  -0.1197  0.9043  0.0130  -3.1871   0.0000   0.0000   0.0000  -0.4972
  -6.200  -0.1458   0.02250   0.01818  -0.1207  0.8917  0.0124  -3.2455   0.0000   0.0000   0.0000  -0.5955
  -6.100  -0.1368   0.02107   0.01655  -0.1208  0.8846  0.0122  -3.2587   0.0000   0.0000   0.0000  -0.6518
  -6.000  -0.1270   0.01975   0.01502  -0.1210  0.8778  0.0120  -3.2632   0.0000   0.0000   0.0000  -0.7227
  -5.900  -0.1166   0.01856   0.01362  -0.1211  0.8713  0.0118  -3.2591   0.0000   0.0000   0.0000  -0.8105
  -5.800  -0.1059   0.01749   0.01236  -0.1213  0.8647  0.0116  -3.2473   0.0000   0.0000   0.0000  -0.9180
  -5.700  -0.0963   0.01657   0.01130  -0.1211  0.8592  0.0115  -3.2300   0.0000   0.0000   0.0000  -1.0318
  -5.600  -0.0864   0.01573   0.01032  -0.1209  0.8530  0.0115  -3.2070   0.0000   0.0000   0.0000  -1.1776
  -5.500  -0.0761   0.01497   0.00942  -0.1208  0.8467  0.0114  -3.1786   0.0000   0.0000   0.0000  -1.3676
  -5.400  -0.0656   0.01428   0.00859  -0.1207  0.8406  0.0115  -3.1466   0.0000   0.0000   0.0000  -1.6229
  -5.300  -0.0551   0.01354   0.00760  -0.1205  0.8345  0.0117  -3.1440   0.0000   0.0000   0.0000  -1.9765
  -5.100  -0.0338   0.01259   0.00647  -0.1204  0.8243  0.0122  -3.0418   0.0000   0.0000   0.0000  -3.3724
  -5.000  -0.0232   0.01220   0.00600  -0.1203  0.8200  0.0126  -2.9848   0.0000   0.0000   0.0000  -5.0241
  -4.900  -0.0124   0.01188   0.00562  -0.1202  0.8153  0.0132  -2.9192   0.0000   0.0000   0.0000  -9.5868
  -4.800  -0.0015   0.01167   0.00535  -0.1202  0.8104  0.0139  -2.8383   0.0000   0.0000   0.0000  -80.1708
  -4.700   0.0095   0.01160   0.00525  -0.1201  0.8055  0.0145  -2.7349   0.0000   0.0000   0.0000  13.1167
  -4.600   0.0205   0.01166   0.00529  -0.1201  0.8005  0.0150  -2.6125   0.0000   0.0000   0.0000   6.1842
  -4.500   0.0317   0.01182   0.00544  -0.1201  0.7953  0.0154  -2.4792   0.0000   0.0000   0.0000   4.0983
  -4.400   0.0424   0.01135   0.00487  -0.1201  0.7897  0.0168  -2.4165   0.0000   0.0000   0.0000   3.1264
  -4.300   0.0534   0.01091   0.00433  -0.1202  0.7858  0.0189  -2.3543   0.0000   0.0000   0.0000   2.5313
  -4.200   0.0645   0.01067   0.00407  -0.1202  0.7831  0.0205  -2.2675   0.0000   0.0000   0.0000   2.1381
  -4.100   0.0757   0.01050   0.00388  -0.1203  0.7799  0.0220  -2.1731   0.0000   0.0000   0.0000   1.8595
  -4.000   0.0869   0.01036   0.00372  -0.1203  0.7763  0.0234  -2.0770   0.0000   0.0000   0.0000   1.6522
  -3.900   0.0981   0.01023   0.00356  -0.1203  0.7726  0.0250  -1.9823   0.0000   0.0000   0.0000   1.4916
  -3.800   0.1093   0.01009   0.00338  -0.1203  0.7688  0.0270  -1.8915   0.0000   0.0000   0.0000   1.3636
  -3.700   0.1208   0.00972   0.00305  -0.1204  0.7650  0.0486  -1.8641   0.0000   0.0000   0.0000   1.2586
  -3.600   0.1319   0.00960   0.00294  -0.1204  0.7609  0.0625  -1.8070   0.0000   0.0000   0.0000   1.1735
  -3.500   0.1429   0.00949   0.00286  -0.1205  0.7566  0.0746  -1.7443   0.0000   0.0000   0.0000   1.1023
  -3.400   0.1540   0.00939   0.00279  -0.1206  0.7519  0.0920  -1.6808   0.0000   0.0000   0.0000   1.0412
  -3.300   0.1652   0.00928   0.00273  -0.1207  0.7465  0.1136  -1.6164   0.0000   0.0000   0.0000   0.9881
  -3.100   0.1876   0.00886   0.00261  -0.1212  0.7410  0.1872  -1.4902   0.0000   0.0000   0.0000   0.9017
  -3.000   0.1987   0.00856   0.00254  -0.1214  0.7386  0.2444  -1.4284   0.0000   0.0000   0.0000   0.8665
  -2.900   0.2098   0.00830   0.00249  -0.1217  0.7360  0.3027  -1.3670   0.0000   0.0000   0.0000   0.8347
  -2.800   0.2210   0.00812   0.00247  -0.1218  0.7333  0.3489  -1.3060   0.0000   0.0000   0.0000   0.8056
  -2.700   0.2323   0.00804   0.00245  -0.1219  0.7304  0.3792  -1.2454   0.0000   0.0000   0.0000   0.7788
  -2.600   0.2435   0.00795   0.00244  -0.1220  0.7275  0.4102  -1.1855   0.0000   0.0000   0.0000   0.7546
  -2.500   0.2547   0.00792   0.00242  -0.1220  0.7246  0.4290  -1.1263   0.0000   0.0000   0.0000   0.7321
  -2.400   0.2659   0.00786   0.00242  -0.1220  0.7216  0.4519  -1.0681   0.0000   0.0000   0.0000   0.7118
  -2.300   0.2771   0.00785   0.00241  -0.1220  0.7186  0.4684  -1.0109   0.0000   0.0000   0.0000   0.6930
  -2.200   0.2883   0.00785   0.00239  -0.1220  0.7155  0.4807  -0.9549   0.0000   0.0000   0.0000   0.6755
  -2.100   0.2993   0.00782   0.00240  -0.1220  0.7123  0.4996  -0.9015   0.0000   0.0000   0.0000   0.6596
  -2.000   0.3105   0.00782   0.00236  -0.1220  0.7087  0.5153  -0.8577   0.0000   0.0000   0.0000   0.6447
  -1.900   0.3218   0.00786   0.00237  -0.1220  0.7047  0.5254  -0.8024   0.0000   0.0000   0.0000   0.6307
  -1.800   0.3334   0.00793   0.00238  -0.1221  0.7004  0.5312  -0.7474   0.0000   0.0000   0.0000   0.6176
  -1.700   0.3447   0.00791   0.00239  -0.1221  0.6980  0.5446  -0.6939   0.0000   0.0000   0.0000   0.6055
  -1.600   0.3559   0.00787   0.00240  -0.1221  0.6968  0.5573  -0.6500   0.0000   0.0000   0.0000   0.5942
  -1.500   0.3671   0.00785   0.00241  -0.1221  0.6954  0.5680  -0.6566   0.0000   0.0000   0.0000   0.5835
  -1.400   0.3784   0.00785   0.00241  -0.1221  0.6938  0.5759  -0.6632   0.0000   0.0000   0.0000   0.5735
  -1.300   0.3897   0.00786   0.00241  -0.1222  0.6921  0.5815  -0.6698   0.0000   0.0000   0.0000   0.5639
  -1.200   0.4011   0.00788   0.00241  -0.1222  0.6901  0.5859  -0.6765   0.0000   0.0000   0.0000   0.5550
  -1.100   0.4123   0.00785   0.00240  -0.1222  0.6881  0.5969  -0.6830   0.0000   0.0000   0.0000   0.5466
  -1.000   0.4234   0.00782   0.00241  -0.1222  0.6860  0.6068  -0.6900   0.0000   0.0000   0.0000   0.5386
  -0.900   0.4346   0.00782   0.00242  -0.1222  0.6838  0.6146  -0.6974   0.0000   0.0000   0.0000   0.5310
  -0.800   0.4458   0.00782   0.00243  -0.1222  0.6815  0.6220  -0.7048   0.0000   0.0000   0.0000   0.5238
  -0.700   0.4570   0.00783   0.00244  -0.1221  0.6791  0.6291  -0.7123   0.0000   0.0000   0.0000   0.5170
  -0.600   0.4682   0.00785   0.00244  -0.1221  0.6766  0.6352  -0.7197   0.0000   0.0000   0.0000   0.5104
  -0.500   0.4795   0.00788   0.00244  -0.1222  0.6740  0.6399  -0.7272   0.0000   0.0000   0.0000   0.5042
  -0.400   0.4905   0.00788   0.00244  -0.1221  0.6713  0.6495  -0.7346   0.0000   0.0000   0.0000   0.4983
  -0.300   0.5014   0.00788   0.00245  -0.1221  0.6683  0.6591  -0.7419   0.0000   0.0000   0.0000   0.4926
  -0.200   0.5123   0.00789   0.00248  -0.1220  0.6651  0.6672  -0.7493   0.0000   0.0000   0.0000   0.4872
  -0.100   0.5233   0.00793   0.00250  -0.1220  0.6614  0.6749  -0.7566   0.0000   0.0000   0.0000   0.4820
   0.000   0.5345   0.00799   0.00254  -0.1220  0.6573  0.6820  -0.7640   0.0000   0.0000   0.0000   0.4771
   0.100   0.5460   0.00807   0.00260  -0.1221  0.6531  0.6884  -0.7714   0.0000   0.0000   0.0000   0.4723
   0.200   0.5574   0.00810   0.00263  -0.1221  0.6512  0.6936  -0.7789   0.0000   0.0000   0.0000   0.4678
   0.300   0.5684   0.00807   0.00263  -0.1221  0.6503  0.7050  -0.7863   0.0000   0.0000   0.0000   0.4634
   0.400   0.5793   0.00804   0.00265  -0.1220  0.6493  0.7151  -0.7936   0.0000   0.0000   0.0000   0.4591
   0.500   0.5902   0.00803   0.00267  -0.1220  0.6481  0.7242  -0.8010   0.0000   0.0000   0.0000   0.4550
   0.600   0.6012   0.00802   0.00269  -0.1219  0.6468  0.7332  -0.8084   0.0000   0.0000   0.0000   0.4511
   0.700   0.6124   0.00803   0.00271  -0.1219  0.6453  0.7410  -0.8159   0.0000   0.0000   0.0000   0.4473
   0.900   0.6341   0.00801   0.00275  -0.1218  0.6419  0.7611  -0.8305   0.0000   0.0000   0.0000   0.4400
   1.000   0.6447   0.00799   0.00278  -0.1216  0.6401  0.7724  -0.8377   0.0000   0.0000   0.0000   0.4366
   1.100   0.6555   0.00800   0.00281  -0.1216  0.6382  0.7832  -0.8451   0.0000   0.0000   0.0000   0.4332
   1.200   0.6665   0.00801   0.00283  -0.1215  0.6362  0.7926  -0.8528   0.0000   0.0000   0.0000   0.4300
   1.300   0.6767   0.00799   0.00285  -0.1213  0.6342  0.8052  -0.8608   0.0000   0.0000   0.0000   0.4268
   1.400   0.6867   0.00798   0.00288  -0.1210  0.6321  0.8181  -0.8687   0.0000   0.0000   0.0000   0.4237
   1.500   0.6971   0.00798   0.00290  -0.1208  0.6299  0.8305  -0.8768   0.0000   0.0000   0.0000   0.4207
   1.600   0.7073   0.00799   0.00294  -0.1206  0.6275  0.8428  -0.8848   0.0000   0.0000   0.0000   0.4178
   1.700   0.7164   0.00797   0.00296  -0.1201  0.6250  0.8575  -0.8923   0.0000   0.0000   0.0000   0.4148
   1.800   0.7258   0.00798   0.00297  -0.1197  0.6223  0.8727  -0.8999   0.0000   0.0000   0.0000   0.4120
   1.900   0.7345   0.00798   0.00299  -0.1190  0.6194  0.8886  -0.9071   0.0000   0.0000   0.0000   0.4091
   2.000   0.7426   0.00798   0.00300  -0.1183  0.6162  0.9081  -0.9143   0.0000   0.0000   0.0000   0.4062
   2.100   0.7506   0.00799   0.00302  -0.1176  0.6129  0.9307  -0.9231   0.0000   0.0000   0.0000   0.4034
   2.200   0.7618   0.00801   0.00304  -0.1175  0.6092  0.9610  -0.9338   0.0000   0.0000   0.0000   0.4010
   2.300   0.7760   0.00810   0.00311  -0.1183  0.6049  1.0000  -0.9463   0.0000   0.0000   0.0000   0.3991
   2.400   0.7877   0.00814   0.00315  -0.1185  0.6033  1.0000  -0.9575   0.0000   0.0000   0.0000   0.3969
   2.500   0.7993   0.00815   0.00315  -0.1186  0.6023  1.0000  -0.9687   0.0000   0.0000   0.0000   0.3949
   2.600   0.8108   0.00815   0.00316  -0.1187  0.6010  1.0000  -0.9811   0.0000   0.0000   0.0000   0.3928
   2.700   0.8222   0.00816   0.00317  -0.1188  0.5993  1.0000  -0.9951   0.0000   0.0000   0.0000   0.3908
   2.800   0.8335   0.00817   0.00319  -0.1189  0.5974  1.0000  -1.0095   0.0000   0.0000   0.0000   0.3888
   2.900   0.8449   0.00819   0.00321  -0.1190  0.5954  1.0000  -1.0239   0.0000   0.0000   0.0000   0.3869
   3.000   0.8563   0.00822   0.00323  -0.1191  0.5933  1.0000  -1.0384   0.0000   0.0000   0.0000   0.3851
   3.100   0.8676   0.00825   0.00326  -0.1192  0.5911  1.0000  -1.0528   0.0000   0.0000   0.0000   0.3832
   3.200   0.8789   0.00827   0.00329  -0.1193  0.5888  1.0000  -1.0695   0.0000   0.0000   0.0000   0.3815
   3.300   0.8901   0.00830   0.00331  -0.1193  0.5861  1.0000  -1.0870   0.0000   0.0000   0.0000   0.3797
   3.400   0.9013   0.00833   0.00333  -0.1194  0.5831  1.0000  -1.1066   0.0000   0.0000   0.0000   0.3780
   3.500   0.9123   0.00836   0.00335  -0.1194  0.5797  1.0000  -1.1261   0.0000   0.0000   0.0000   0.3763
   3.600   0.9233   0.00840   0.00336  -0.1194  0.5763  1.0000  -1.1457   0.0000   0.0000   0.0000   0.3746
   3.700   0.9342   0.00846   0.00339  -0.1194  0.5728  1.0000  -1.1652   0.0000   0.0000   0.0000   0.3730
   3.800   0.9451   0.00852   0.00343  -0.1194  0.5691  1.0000  -1.1866   0.0000   0.0000   0.0000   0.3714
   3.900   0.9560   0.00860   0.00349  -0.1194  0.5651  1.0000  -1.2097   0.0000   0.0000   0.0000   0.3699
   4.000   0.9671   0.00871   0.00357  -0.1194  0.5605  1.0000  -1.2332   0.0000   0.0000   0.0000   0.3684
   4.100   0.9784   0.00883   0.00368  -0.1196  0.5556  1.0000  -1.2569   0.0000   0.0000   0.0000   0.3670
   4.200   0.9894   0.00883   0.00370  -0.1196  0.5544  1.0000  -1.2806   0.0000   0.0000   0.0000   0.3656
   4.300   1.0003   0.00883   0.00372  -0.1196  0.5526  1.0000  -1.3058   0.0000   0.0000   0.0000   0.3641
   4.400   1.0112   0.00884   0.00375  -0.1195  0.5503  1.0000  -1.3351   0.0000   0.0000   0.0000   0.3627
   4.500   1.0222   0.00886   0.00379  -0.1196  0.5477  1.0000  -1.3646   0.0000   0.0000   0.0000   0.3613
   4.600   1.0332   0.00888   0.00383  -0.1196  0.5449  1.0000  -1.3942   0.0000   0.0000   0.0000   0.3600
   4.700   1.0442   0.00891   0.00387  -0.1196  0.5420  1.0000  -1.4278   0.0000   0.0000   0.0000   0.3587
   4.800   1.0551   0.00896   0.00410  -0.1195  0.5388  1.0000  -1.4645   0.0000   0.0000   0.0000   0.3573
   4.900   1.0659   0.00900   0.00415  -0.1195  0.5351  1.0000  -1.5010   0.0000   0.0000   0.0000   0.3560
   5.000   1.0765   0.00905   0.00419  -0.1195  0.5308  1.0000  -1.5379   0.0000   0.0000   0.0000   0.3548
   5.100   1.0869   0.00911   0.00423  -0.1193  0.5260  1.0000  -1.5749   0.0000   0.0000   0.0000   0.3535
   5.200   1.0970   0.00919   0.00428  -0.1192  0.5203  1.0000  -1.6117   0.0000   0.0000   0.0000   0.3522
   5.300   1.1071   0.00929   0.00435  -0.1190  0.5136  1.0000  -1.6486   0.0000   0.0000   0.0000   0.3510
   5.400   1.1176   0.00941   0.00445  -0.1190  0.5074  1.0000  -1.6866   0.0000   0.0000   0.0000   0.3498
   5.500   1.1284   0.00942   0.00450  -0.1189  0.5052  1.0000  -1.7256   0.0000   0.0000   0.0000   0.3486
   5.600   1.1392   0.00944   0.00456  -0.1189  0.5023  1.0000  -1.7715   0.0000   0.0000   0.0000   0.3475
   5.700   1.1500   0.00948   0.00462  -0.1189  0.4988  1.0000  -1.8750   0.0000   0.0000   0.0000   0.3464
   5.800   1.1607   0.00952   0.00469  -0.1189  0.4949  1.0000  -1.9799   0.0000   0.0000   0.0000   0.3453
   5.900   1.1712   0.00958   0.00475  -0.1188  0.4899  1.0000  -2.0856   0.0000   0.0000   0.0000   0.3441
   6.000   1.1813   0.00965   0.00481  -0.1186  0.4833  1.0000  -2.1913   0.0000   0.0000   0.0000   0.3430
   6.100   1.1907   0.00975   0.00487  -0.1184  0.4752  1.0000  -2.2958   0.0000   0.0000   0.0000   0.3419
   6.200   1.1995   0.00990   0.00495  -0.1180  0.4645  1.0000  -2.3980   0.0000   0.0000   0.0000   0.3407
   6.300   1.2095   0.00998   0.00504  -0.1178  0.4570  1.0000  -2.5080   0.0000   0.0000   0.0000   0.3396
   6.400   1.2197   0.01005   0.00511  -0.1177  0.4486  1.0000  -2.6207   0.0000   0.0000   0.0000   0.3386
   6.500   1.2291   0.01016   0.00519  -0.1175  0.4370  1.0000  -2.7310   0.0000   0.0000   0.0000   0.3375
   6.600   1.2375   0.01034   0.00529  -0.1170  0.4247  1.0000  -2.8375   0.0000   0.0000   0.0000   0.3364
   6.700   1.2458   0.01052   0.00542  -0.1166  0.4126  1.0000  -2.9445   0.0000   0.0000   0.0000   0.3353
   6.800   1.2556   0.01063   0.00553  -0.1164  0.4022  1.0000  -3.0610   0.0000   0.0000   0.0000   0.3343
   6.900   1.2627   0.01090   0.00567  -0.1158  0.3801  1.0000  -3.1645   0.0000   0.0000   0.0000   0.3331
   7.000   1.2689   0.01123   0.00586  -0.1151  0.3549  1.0000  -3.2639   0.0000   0.0000   0.0000   0.3320
   7.100   1.2729   0.01172   0.00613  -0.1140  0.3210  1.0000  -3.3517   0.0000   0.0000   0.0000   0.3307
   7.200   1.2769   0.01225   0.00644  -0.1130  0.2874  1.0000  -3.4398   0.0000   0.0000   0.0000   0.3295
   7.300   1.2812   0.01276   0.00677  -0.1120  0.2564  1.0000  -3.5300   0.0000   0.0000   0.0000   0.3283
   7.400   1.2853   0.01329   0.00711  -0.1111  0.2274  1.0000  -3.6196   0.0000   0.0000   0.0000   0.3272
   7.500   1.2887   0.01386   0.00748  -0.1100  0.1989  1.0000  -3.7057   0.0000   0.0000   0.0000   0.3260
   7.600   1.2939   0.01430   0.00780  -0.1092  0.1787  1.0000  -3.8033   0.0000   0.0000   0.0000   0.3249
   7.700   1.2990   0.01473   0.00811  -0.1084  0.1602  1.0000  -3.9011   0.0000   0.0000   0.0000   0.3238
   7.800   1.3058   0.01503   0.00836  -0.1078  0.1486  1.0000  -4.0101   0.0000   0.0000   0.0000   0.3228
   7.900   1.3109   0.01545   0.00867  -0.1070  0.1352  1.0000  -4.1090   0.0000   0.0000   0.0000   0.3217
   8.000   1.3178   0.01573   0.00891  -0.1064  0.1251  1.0000  -4.2199   0.0000   0.0000   0.0000   0.3207
   8.100   1.3242   0.01603   0.00917  -0.1058  0.1158  1.0000  -4.3293   0.0000   0.0000   0.0000   0.3197
   8.200   1.3292   0.01643   0.00948  -0.1050  0.1053  1.0000  -4.4297   0.0000   0.0000   0.0000   0.3187
   8.300   1.3357   0.01671   0.00974  -0.1043  0.0972  1.0000  -4.5403   0.0000   0.0000   0.0000   0.3177
   8.400   1.3371   0.01732   0.01028  -0.1030  0.0778  1.0000  -4.5914   0.0000   0.0000   0.0000   0.3165
   8.500   1.3420   0.01765   0.01057  -0.1021  0.0692  1.0000  -4.6832   0.0000   0.0000   0.0000   0.3154
   8.600   1.3447   0.01808   0.01092  -0.1009  0.0595  1.0000  -4.7638   0.0000   0.0000   0.0000   0.3142
   8.700   1.3477   0.01849   0.01126  -0.0997  0.0501  1.0000  -4.8436   0.0000   0.0000   0.0000   0.3130
   8.800   1.3512   0.01888   0.01161  -0.0986  0.0428  1.0000  -4.9245   0.0000   0.0000   0.0000   0.3119
   8.900   1.3515   0.01945   0.01208  -0.0971  0.0325  1.0000  -4.9834   0.0000   0.0000   0.0000   0.3106
   9.000   1.3524   0.01999   0.01256  -0.0957  0.0232  1.0000  -5.0410   0.0000   0.0000   0.0000   0.3094
   9.100   1.3522   0.02061   0.01310  -0.0941  0.0150  1.0000  -5.0867   0.0000   0.0000   0.0000   0.3081
   9.200   1.3531   0.02117   0.01364  -0.0927  0.0111  1.0000  -5.1300   0.0000   0.0000   0.0000   0.3069
   9.300   1.3536   0.02180   0.01430  -0.0912  0.0074  1.0000  -5.0992   0.0000   0.0000   0.0000   0.3055
   9.400   1.3578   0.02219   0.01474  -0.0903  0.0071  1.0000  -5.1670   0.0000   0.0000   0.0000   0.3045
   9.500   1.3617   0.02259   0.01520  -0.0894  0.0069  1.0000  -5.2323   0.0000   0.0000   0.0000   0.3035
   9.600   1.3651   0.02303   0.01570  -0.0884  0.0067  1.0000  -5.2954   0.0000   0.0000   0.0000   0.3025
   9.700   1.3682   0.02350   0.01623  -0.0874  0.0066  1.0000  -5.3567   0.0000   0.0000   0.0000   0.3015
   9.800   1.3711   0.02399   0.01678  -0.0865  0.0065  1.0000  -5.4175   0.0000   0.0000   0.0000   0.3005
   9.900   1.3737   0.02452   0.01737  -0.0855  0.0064  1.0000  -5.4771   0.0000   0.0000   0.0000   0.2995
  10.000   1.3760   0.02508   0.01799  -0.0845  0.0063  1.0000  -5.5347   0.0000   0.0000   0.0000   0.2985
  10.100   1.3780   0.02567   0.01864  -0.0836  0.0062  1.0000  -5.5914   0.0000   0.0000   0.0000   0.2976
  10.200   1.3800   0.02628   0.01932  -0.0827  0.0062  1.0000  -5.6476   0.0000   0.0000   0.0000   0.2967
  10.300   1.3814   0.02694   0.02004  -0.0817  0.0061  1.0000  -5.7010   0.0000   0.0000   0.0000   0.2958
  10.400   1.3826   0.02764   0.02079  -0.0808  0.0061  1.0000  -5.7525   0.0000   0.0000   0.0000   0.2949
  10.500   1.3836   0.02836   0.02158  -0.0799  0.0060  1.0000  -5.8032   0.0000   0.0000   0.0000   0.2940
  10.600   1.3842   0.02912   0.02240  -0.0790  0.0060  1.0000  -5.8516   0.0000   0.0000   0.0000   0.2932
  10.700   1.3842   0.02992   0.02327  -0.0781  0.0060  1.0000  -5.8964   0.0000   0.0000   0.0000   0.2924
  10.800   1.3843   0.03076   0.02417  -0.0772  0.0060  1.0000  -5.9410   0.0000   0.0000   0.0000   0.2916
  10.900   1.3844   0.03162   0.02510  -0.0764  0.0059  1.0000  -5.9857   0.0000   0.0000   0.0000   0.2908
  11.000   1.3843   0.03254   0.02608  -0.0757  0.0059  1.0000  -6.0284   0.0000   0.0000   0.0000   0.2901
  11.100   1.3838   0.03351   0.02711  -0.0749  0.0059  1.0000  -6.0687   0.0000   0.0000   0.0000   0.2894
  11.200   1.3835   0.03449   0.02815  -0.0742  0.0059  1.0000  -6.1095   0.0000   0.0000   0.0000   0.2887
  11.300   1.3833   0.03547   0.02920  -0.0735  0.0059  1.0000  -6.1505   0.0000   0.0000   0.0000   0.2880
  11.400   1.3830   0.03650   0.03029  -0.0729  0.0059  1.0000  -6.1899   0.0000   0.0000   0.0000   0.2874
  11.500   1.3822   0.03759   0.03144  -0.0722  0.0059  1.0000  -6.2261   0.0000   0.0000   0.0000   0.2868
  11.600   1.3815   0.03868   0.03260  -0.0717  0.0059  1.0000  -6.2626   0.0000   0.0000   0.0000   0.2862
  11.700   1.3810   0.03977   0.03375  -0.0711  0.0059  1.0000  -6.2995   0.0000   0.0000   0.0000   0.2856
  11.800   1.3807   0.04086   0.03490  -0.0705  0.0059  1.0000  -6.3361   0.0000   0.0000   0.0000   0.2851
  11.900   1.3802   0.04196   0.03607  -0.0699  0.0059  1.0000  -6.3717   0.0000   0.0000   0.0000   0.2845
  12.000   1.3792   0.04314   0.03731  -0.0694  0.0059  1.0000  -6.4040   0.0000   0.0000   0.0000   0.2840
  12.100   1.3783   0.04432   0.03855  -0.0689  0.0059  1.0000  -6.4358   0.0000   0.0000   0.0000   0.2835
  12.200   1.3776   0.04547   0.03978  -0.0684  0.0059  1.0000  -6.4683   0.0000   0.0000   0.0000   0.2829
  12.300   1.3772   0.04662   0.04099  -0.0679  0.0059  1.0000  -6.5011   0.0000   0.0000   0.0000   0.2824
  12.400   1.3767   0.04776   0.04220  -0.0674  0.0059  1.0000  -6.5332   0.0000   0.0000   0.0000   0.2819
  12.500   1.3760   0.04889   0.04340  -0.0669  0.0059  1.0000  -6.5635   0.0000   0.0000   0.0000   0.2814
  12.600   1.3753   0.05004   0.04462  -0.0664  0.0059  1.0000  -6.5931   0.0000   0.0000   0.0000   0.2808
  12.700   1.3743   0.05128   0.04592  -0.0660  0.0060  1.0000  -6.6202   0.0000   0.0000   0.0000   0.2804
  12.800   1.3732   0.05257   0.04729  -0.0656  0.0060  1.0000  -6.6458   0.0000   0.0000   0.0000   0.2799
  12.900   1.3723   0.05387   0.04867  -0.0652  0.0060  1.0000  -6.6715   0.0000   0.0000   0.0000   0.2795
  13.000   1.3717   0.05520   0.05006  -0.0648  0.0060  1.0000  -6.6972   0.0000   0.0000   0.0000   0.2791
  13.100   1.3711   0.05654   0.05148  -0.0645  0.0060  1.0000  -6.7222   0.0000   0.0000   0.0000   0.2787
  13.200   1.3705   0.05792   0.05294  -0.0642  0.0060  1.0000  -6.7461   0.0000   0.0000   0.0000   0.2783
  13.300   1.3697   0.05934   0.05443  -0.0639  0.0060  1.0000  -6.7683   0.0000   0.0000   0.0000   0.2779
  13.400   1.3689   0.06080   0.05598  -0.0637  0.0061  1.0000  -6.7885   0.0000   0.0000   0.0000   0.2776
  13.500   1.3677   0.06231   0.05757  -0.0634  0.0061  1.0000  -6.8065   0.0000   0.0000   0.0000   0.2773
  13.600   1.3662   0.06389   0.05924  -0.0633  0.0061  1.0000  -6.8212   0.0000   0.0000   0.0000   0.2770
  13.700   1.3637   0.06560   0.06103  -0.0632  0.0061  1.0000  -6.8306   0.0000   0.0000   0.0000   0.2769
  13.800   1.3610   0.06736   0.06287  -0.0633  0.0062  1.0000  -6.8375   0.0000   0.0000   0.0000   0.2768
  13.900   1.3583   0.06913   0.06473  -0.0633  0.0062  1.0000  -6.8435   0.0000   0.0000   0.0000   0.2767
  14.000   1.3555   0.07093   0.06662  -0.0634  0.0062  1.0000  -6.8480   0.0000   0.0000   0.0000   0.2767
  14.100   1.3525   0.07276   0.06853  -0.0635  0.0062  1.0000  -6.8505   0.0000   0.0000   0.0000   0.2767
  14.200   1.3493   0.07464   0.07049  -0.0636  0.0062  1.0000  -6.8507   0.0000   0.0000   0.0000   0.2767
  14.300   1.3458   0.07657   0.07251  -0.0639  0.0063  1.0000  -6.8482   0.0000   0.0000   0.0000   0.2769
  14.400   1.3411   0.07865   0.07468  -0.0643  0.0063  1.0000  -6.8393   0.0000   0.0000   0.0000   0.2771
  14.500   1.3362   0.08079   0.07690  -0.0648  0.0063  1.0000  -6.8283   0.0000   0.0000   0.0000   0.2775
  14.600   1.3315   0.08290   0.07910  -0.0653  0.0063  1.0000  -6.8172   0.0000   0.0000   0.0000   0.2779
  14.700   1.3269   0.08502   0.08130  -0.0659  0.0063  1.0000  -6.8047   0.0000   0.0000   0.0000   0.2783
  14.800   1.3221   0.08718   0.08354  -0.0665  0.0064  1.0000  -6.7901   0.0000   0.0000   0.0000   0.2787
  14.900   1.3168   0.08943   0.08587  -0.0672  0.0064  1.0000  -6.7720   0.0000   0.0000   0.0000   0.2793
  15.000   1.3105   0.09185   0.08838  -0.0682  0.0064  1.0000  -6.7480   0.0000   0.0000   0.0000   0.2801
  15.100   1.3046   0.09424   0.09084  -0.0692  0.0064  1.0000  -6.7246   0.0000   0.0000   0.0000   0.2809
  15.200   1.2990   0.09661   0.09329  -0.0702  0.0064  1.0000  -6.7005   0.0000   0.0000   0.0000   0.2817
  15.300   1.2933   0.09888   0.09564  -0.0712  0.0065  1.0000  -6.6747   0.0000   0.0000   0.0000   0.2825
  15.400   1.2869   0.10124   0.09809  -0.0724  0.0065  1.0000  -6.6443   0.0000   0.0000   0.0000   0.2836
  15.500   1.2801   0.10381   0.10072  -0.0739  0.0065  1.0000  -6.6100   0.0000   0.0000   0.0000   0.2848
  15.600   1.2739   0.10633   0.10332  -0.0753  0.0065  1.0000  -6.5761   0.0000   0.0000   0.0000   0.2860
  15.700   1.2677   0.10890   0.10596  -0.0767  0.0065  1.0000  -6.5408   0.0000   0.0000   0.0000   0.2872
  15.800   1.2613   0.11165   0.10879  -0.0783  0.0065  1.0000  -6.5016   0.0000   0.0000   0.0000   0.2886
  15.900   1.2541   0.11468   0.11189  -0.0801  0.0066  1.0000  -6.4565   0.0000   0.0000   0.0000   0.2903
  16.000   1.2474   0.11765   0.11493  -0.0819  0.0066  1.0000  -6.4116   0.0000   0.0000   0.0000   0.2919
  16.100   1.2410   0.12068   0.11803  -0.0837  0.0066  1.0000  -6.3648   0.0000   0.0000   0.0000   0.2935
  16.200   1.2339   0.12400   0.12142  -0.0858  0.0066  1.0000  -6.3117   0.0000   0.0000   0.0000   0.2954
  16.300   1.2266   0.12746   0.12494  -0.0880  0.0066  1.0000  -6.2546   0.0000   0.0000   0.0000   0.2975
  16.400   1.2198   0.13089   0.12844  -0.0902  0.0066  1.0000  -6.1964   0.0000   0.0000   0.0000   0.2995
  16.500   1.2127   0.13458   0.13220  -0.0925  0.0066  1.0000  -6.1319   0.0000   0.0000   0.0000   0.3017
  16.600   1.2051   0.13852   0.13620  -0.0950  0.0067  1.0000  -6.0605   0.0000   0.0000   0.0000   0.3042
  16.700   1.1980   0.14241   0.14016  -0.0975  0.0067  1.0000  -5.9873   0.0000   0.0000   0.0000   0.3066
  16.800   1.1902   0.14673   0.14453  -0.1002  0.0067  1.0000  -5.9032   0.0000   0.0000   0.0000   0.3093
  16.900   1.1825   0.15113   0.14899  -0.1029  0.0067  1.0000  -5.8135   0.0000   0.0000   0.0000   0.3120
  17.000   1.1746   0.15574   0.15366  -0.1057  0.0067  1.0000  -5.7147   0.0000   0.0000   0.0000   0.3149
  17.100   1.1662   0.16078   0.15875  -0.1087  0.0067  1.0000  -5.6010   0.0000   0.0000   0.0000   0.3181
  17.200   1.1577   0.16600   0.16402  -0.1117  0.0068  1.0000  -5.4755   0.0000   0.0000   0.0000   0.3213
  17.300   1.1483   0.17179   0.16986  -0.1149  0.0068  1.0000  -5.3258   0.0000   0.0000   0.0000   0.3249
  17.400   1.1381   0.17819   0.17631  -0.1182  0.0068  1.0000  -5.1444   0.0000   0.0000   0.0000   0.3289
  17.500   1.1269   0.18520   0.18335  -0.1217  0.0068  1.0000  -4.9255   0.0000   0.0000   0.0000   0.3330
  17.600   1.1135   0.19361   0.19180  -0.1254  0.0069  1.0000  -4.6265   0.0000   0.0000   0.0000   0.3379
  17.700   1.0961   0.20426   0.20245  -0.1296  0.0071  1.0000  -4.1830   0.0000   0.0000   0.0000   0.3439
  18.000   1.0895   0.21539   0.21361  -0.1336  0.0077  1.0000  -3.9084   0.0000   0.0000   0.0000   0.3480
  18.100   1.0910   0.21767   0.21589  -0.1345  0.0078  1.0000  -3.9165   0.0000   0.0000   0.0000   0.3485
  18.200   1.0924   0.21999   0.21822  -0.1354  0.0079  1.0000  -3.9209   0.0000   0.0000   0.0000   0.3489
  18.300   1.0938   0.22240   0.22062  -0.1362  0.0081  1.0000  -3.9190   0.0000   0.0000   0.0000   0.3494
  18.400   1.0949   0.22506   0.22329  -0.1371  0.0083  1.0000  -3.8994   0.0000   0.0000   0.0000   0.3499
  18.800   1.0483   0.26417   0.26232  -0.1458  0.0175  1.0000  -2.2637   0.0000   0.0000   0.0000   0.3649
  18.900   1.0482   0.26704   0.26519  -0.1467  0.0175  1.0000  -2.2418   0.0000   0.0000   0.0000   0.3655
  19.000   1.0481   0.26989   0.26804  -0.1475  0.0175  1.0000  -2.2263   0.0000   0.0000   0.0000   0.3662
  19.100   1.0478   0.27272   0.27087  -0.1483  0.0175  1.0000  -2.2161   0.0000   0.0000   0.0000   0.3669
  19.200   1.0476   0.27552   0.27368  -0.1490  0.0174  1.0000  -2.2061   0.0000   0.0000   0.0000   0.3675
  19.300   1.0472   0.27830   0.27646  -0.1498  0.0174  1.0000  -2.1964   0.0000   0.0000   0.0000   0.3682
  19.400   1.0467   0.28105   0.27921  -0.1505  0.0174  1.0000  -2.1869   0.0000   0.0000   0.0000   0.3688
  19.500   1.0461   0.28377   0.28194  -0.1512  0.0174  1.0000  -2.1774   0.0000   0.0000   0.0000   0.3694
  19.600   1.0453   0.28646   0.28463  -0.1519  0.0174  1.0000  -2.1680   0.0000   0.0000   0.0000   0.3701
  19.700   1.0444   0.28911   0.28729  -0.1526  0.0174  1.0000  -2.1585   0.0000   0.0000   0.0000   0.3707
  19.800   1.0432   0.29171   0.28989  -0.1532  0.0174  1.0000  -2.1488   0.0000   0.0000   0.0000   0.3713
  19.900   1.0418   0.29426   0.29245  -0.1538  0.0173  1.0000  -2.1388   0.0000   0.0000   0.0000   0.3720
  20.000   1.0401   0.29674   0.29493  -0.1543  0.0173  1.0000  -2.1283   0.0000   0.0000   0.0000   0.3726
  20.100   1.0381   0.29913   0.29733  -0.1548  0.0173  1.0000  -2.1171   0.0000   0.0000   0.0000   0.3733
  20.200   1.0355   0.30141   0.29963  -0.1553  0.0173  1.0000  -2.1048   0.0000   0.0000   0.0000   0.3739
  20.300   1.0323   0.30354   0.30177  -0.1556  0.0172  1.0000  -2.0909   0.0000   0.0000   0.0000   0.3746
  20.400   1.0279   0.30544   0.30367  -0.1558  0.0172  1.0000  -2.0741   0.0000   0.0000   0.0000   0.3754
  20.500   0.9679   0.29589   0.29422  -0.1496  0.0172  1.0000  -1.8851   0.0000   0.0000   0.0000   0.3792
  20.600   0.9607   0.29597   0.29431  -0.1494  0.0172  1.0000  -1.8603   0.0000   0.0000   0.0000   0.3801
  20.700   0.9549   0.29623   0.29459  -0.1492  0.0172  1.0000  -1.8402   0.0000   0.0000   0.0000   0.3809
  20.800   0.9500   0.29661   0.29497  -0.1492  0.0171  1.0000  -1.8234   0.0000   0.0000   0.0000   0.3816
  20.900   0.9458   0.29706   0.29543  -0.1493  0.0171  1.0000  -1.8093   0.0000   0.0000   0.0000   0.3823
  21.000   0.9422   0.29756   0.29595  -0.1494  0.0170  1.0000  -1.7975   0.0000   0.0000   0.0000   0.3830
  21.100   0.9393   0.29812   0.29651  -0.1496  0.0169  1.0000  -1.7887   0.0000   0.0000   0.0000   0.3836
  21.200   0.9372   0.29875   0.29715  -0.1499  0.0167  1.0000  -1.7833   0.0000   0.0000   0.0000   0.3841
  21.300   0.9354   0.29955   0.29795  -0.1504  0.0163  1.0000  -1.7712   0.0000   0.0000   0.0000   0.3849
  21.400   0.9333   0.30051   0.29892  -0.1510  0.0158  1.0000  -1.7492   0.0000   0.0000   0.0000   0.3858
  21.500   0.9310   0.30142   0.29984  -0.1514  0.0154  1.0000  -1.7282   0.0000   0.0000   0.0000   0.3866
  21.600   0.9285   0.30224   0.30067  -0.1518  0.0149  1.0000  -1.7098   0.0000   0.0000   0.0000   0.3873
  21.700   0.9261   0.30302   0.30146  -0.1521  0.0145  1.0000  -1.6944   0.0000   0.0000   0.0000   0.3879
  21.800   0.9239   0.30377   0.30221  -0.1523  0.0140  1.0000  -1.6821   0.0000   0.0000   0.0000   0.3886
  21.900   0.9217   0.30448   0.30293  -0.1526  0.0135  1.0000  -1.6735   0.0000   0.0000   0.0000   0.3891
  22.000   0.9198   0.30516   0.30361  -0.1529  0.0129  1.0000  -1.6691   0.0000   0.0000   0.0000   0.3896
  22.100   0.9180   0.30579   0.30425  -0.1531  0.0124  1.0000  -1.6701   0.0000   0.0000   0.0000   0.3901
  22.200   0.9165   0.30637   0.30484  -0.1534  0.0118  1.0000  -1.6774   0.0000   0.0000   0.0000   0.3905
  22.300   0.9153   0.30689   0.30537  -0.1536  0.0112  1.0000  -1.6917   0.0000   0.0000   0.0000   0.3909
  22.400   0.9143   0.30734   0.30583  -0.1539  0.0107  1.0000  -1.7131   0.0000   0.0000   0.0000   0.3912
  22.500   0.9135   0.30773   0.30622  -0.1541  0.0102  1.0000  -1.7411   0.0000   0.0000   0.0000   0.3914
  22.600   0.9128   0.30806   0.30656  -0.1543  0.0098  1.0000  -1.7736   0.0000   0.0000   0.0000   0.3915
  22.700   0.9122   0.30839   0.30690  -0.1545  0.0095  1.0000  -1.8059   0.0000   0.0000   0.0000   0.3917
  22.800   0.9114   0.30877   0.30728  -0.1547  0.0093  1.0000  -1.8306   0.0000   0.0000   0.0000   0.3918
  22.900   0.9107   0.30912   0.30765  -0.1548  0.0091  1.0000  -1.8569   0.0000   0.0000   0.0000   0.3920
  23.000   0.9102   0.30942   0.30796  -0.1550  0.0089  1.0000  -1.8877   0.0000   0.0000   0.0000   0.3920
  23.100   0.9098   0.30966   0.30821  -0.1551  0.0087  1.0000  -1.9234   0.0000   0.0000   0.0000   0.3920
  23.200   0.9095   0.30983   0.30838  -0.1552  0.0085  1.0000  -1.9643   0.0000   0.0000   0.0000   0.3919
  23.300   0.9087   0.31010   0.30866  -0.1552  0.0083  1.0000  -1.9940   0.0000   0.0000   0.0000   0.3920
  23.400   0.9067   0.31050   0.30906  -0.1553  0.0080  1.0000  -2.0010   0.0000   0.0000   0.0000   0.3923
  23.500   0.8912   0.31307   0.31160  -0.1549  0.0074  1.0000  -1.6647   0.0000   0.0000   0.0000   0.3952
  23.600   0.8900   0.31392   0.31246  -0.1553  0.0074  1.0000  -1.6360   0.0000   0.0000   0.0000   0.3957


