xflr5 v6.61

 Calculated polar for: EPPLER 580 AIRFOIL

 1 1 Reynolds number fixed          Mach number fixed         

 xtrf =   1.000 (top)        1.000 (bottom)
 Mach =   0.000     Re =     0.400 e 6     Ncrit =   9.000

  alpha     CL        CD       CDp       Cm    Top Xtr Bot Xtr   Cpmin    Chinge    XCp    
 ------- -------- --------- --------- -------- ------- ------- -------- --------- ---------
 -10.000  -0.2358   0.09509   0.09256  -0.0746  0.9853  0.0349  -1.6830   0.0000   0.0000   0.0000  -0.0970
  -9.900  -0.2326   0.09347   0.09094  -0.0759  0.9835  0.0353  -1.6825   0.0000   0.0000   0.0000  -0.1069
  -9.800  -0.2289   0.09176   0.08923  -0.0774  0.9819  0.0358  -1.6839   0.0000   0.0000   0.0000  -0.1188
  -9.700  -0.2251   0.08996   0.08744  -0.0791  0.9805  0.0363  -1.6874   0.0000   0.0000   0.0000  -0.1323
  -9.600  -0.2212   0.08808   0.08556  -0.0810  0.9792  0.0369  -1.6936   0.0000   0.0000   0.0000  -0.1472
  -9.500  -0.2175   0.08608   0.08356  -0.0830  0.9780  0.0374  -1.7041   0.0000   0.0000   0.0000  -0.1633
  -9.400  -0.2139   0.08393   0.08141  -0.0853  0.9768  0.0379  -1.7200   0.0000   0.0000   0.0000  -0.1804
  -9.300  -0.2106   0.08166   0.07914  -0.0878  0.9758  0.0384  -1.7396   0.0000   0.0000   0.0000  -0.1988
  -9.200  -0.2074   0.07921   0.07670  -0.0905  0.9748  0.0389  -1.7644   0.0000   0.0000   0.0000  -0.2187
  -9.100  -0.2044   0.07644   0.07392  -0.0938  0.9738  0.0394  -1.7969   0.0000   0.0000   0.0000  -0.2412
  -9.000  -0.2023   0.07299   0.07048  -0.0979  0.9729  0.0399  -1.8471   0.0000   0.0000   0.0000  -0.2666
  -8.900  -0.2032   0.06836   0.06583  -0.1039  0.9719  0.0403  -1.9312   0.0000   0.0000   0.0000  -0.2935
  -8.800  -0.2132   0.06598   0.06344  -0.1047  0.9650  0.0403  -1.9845   0.0000   0.0000   0.0000  -0.2713
  -8.700  -0.2181   0.06283   0.06025  -0.1084  0.9611  0.0405  -2.0419   0.0000   0.0000   0.0000  -0.2762
  -8.600  -0.2209   0.05989   0.05726  -0.1123  0.9581  0.0408  -2.0885   0.0000   0.0000   0.0000  -0.2871
  -8.500  -0.2217   0.05718   0.05449  -0.1163  0.9557  0.0411  -2.1254   0.0000   0.0000   0.0000  -0.3025
  -8.400  -0.2213   0.05469   0.05193  -0.1203  0.9536  0.0415  -2.1541   0.0000   0.0000   0.0000  -0.3211
  -8.300  -0.2322   0.05362   0.05084  -0.1195  0.9456  0.0415  -2.1795   0.0000   0.0000   0.0000  -0.2902
  -8.200  -0.2350   0.05184   0.04900  -0.1213  0.9394  0.0418  -2.1983   0.0000   0.0000   0.0000  -0.2912
  -8.100  -0.2313   0.04990   0.04697  -0.1245  0.9362  0.0424  -2.2062   0.0000   0.0000   0.0000  -0.3130
  -8.000  -0.2248   0.04832   0.04530  -0.1268  0.9341  0.0432  -2.2017   0.0000   0.0000   0.0000  -0.3394
  -7.900  -0.2158   0.04706   0.04397  -0.1288  0.9325  0.0442  -2.1855   0.0000   0.0000   0.0000  -0.3725
  -7.800  -0.2041   0.04628   0.04311  -0.1304  0.9314  0.0453  -2.1537   0.0000   0.0000   0.0000  -0.4156
  -7.700  -0.1893   0.04628   0.04304  -0.1317  0.9305  0.0466  -2.0981   0.0000   0.0000   0.0000  -0.4741
  -7.600  -0.1731   0.04684   0.04352  -0.1331  0.9296  0.0476  -2.0286   0.0000   0.0000   0.0000  -0.5495
  -7.400  -0.1700   0.04605   0.04262  -0.1317  0.9187  0.0479  -1.9945   0.0000   0.0000   0.0000  -0.5544
  -7.300  -0.1627   0.04517   0.04165  -0.1324  0.9154  0.0480  -1.9747   0.0000   0.0000   0.0000  -0.5942
  -7.200  -0.1539   0.04409   0.04049  -0.1336  0.9127  0.0481  -1.9552   0.0000   0.0000   0.0000  -0.6496
  -7.100  -0.1438   0.04288   0.03913  -0.1349  0.9104  0.0482  -1.9394   0.0000   0.0000   0.0000  -0.7214
  -7.000  -0.1564   0.03365   0.02950  -0.1395  0.9065  0.0513  -2.1394   0.0000   0.0000   0.0000  -0.6722
  -6.900  -0.1447   0.03178   0.02758  -0.1412  0.9050  0.0528  -2.1049   0.0000   0.0000   0.0000  -0.7581
  -6.800  -0.1307   0.03059   0.02630  -0.1427  0.9035  0.0541  -2.0586   0.0000   0.0000   0.0000  -0.8776
  -6.700  -0.1157   0.02963   0.02532  -0.1443  0.9019  0.0554  -2.0012   0.0000   0.0000   0.0000  -1.0365
  -6.600  -0.1002   0.02876   0.02444  -0.1458  0.9002  0.0567  -1.9430   0.0000   0.0000   0.0000  -1.2500
  -6.500  -0.0989   0.02836   0.02403  -0.1442  0.8940  0.0575  -1.9178   0.0000   0.0000   0.0000  -1.2521
  -6.400  -0.0911   0.02778   0.02342  -0.1440  0.8894  0.0587  -1.8795   0.0000   0.0000   0.0000  -1.3784
  -6.300  -0.0801   0.02714   0.02273  -0.1444  0.8857  0.0602  -1.8366   0.0000   0.0000   0.0000  -1.6048
  -6.200  -0.0674   0.02649   0.02202  -0.1452  0.8826  0.0620  -1.7921   0.0000   0.0000   0.0000  -1.9652
  -6.100  -0.0537   0.02588   0.02135  -0.1461  0.8797  0.0641  -1.7474   0.0000   0.0000   0.0000  -2.5464
  -6.000  -0.0391   0.02536   0.02076  -0.1471  0.8769  0.0664  -1.7016   0.0000   0.0000   0.0000  -3.6146
  -5.900  -0.0236   0.02506   0.02039  -0.1480  0.8741  0.0689  -1.6525   0.0000   0.0000   0.0000  -6.1952
  -5.800  -0.0067   0.02527   0.02055  -0.1489  0.8713  0.0713  -1.5927   0.0000   0.0000   0.0000  -22.3763
  -5.700   0.0030   0.02274   0.01774  -0.1508  0.8675  0.0788  -1.5895   0.0000   0.0000   0.0000  51.5997
  -5.600   0.0086   0.02191   0.01694  -0.1502  0.8634  0.0811  -1.5590   0.0000   0.0000   0.0000  18.0717
  -5.500   0.0165   0.02137   0.01639  -0.1499  0.8591  0.0833  -1.5214   0.0000   0.0000   0.0000   9.5662
  -5.100   0.0660   0.01576   0.00986  -0.1465  0.8444  0.0342  -1.7962   0.0000   0.0000   0.0000   2.5217
  -5.000   0.0792   0.01539   0.00936  -0.1464  0.8408  0.0310  -1.7872   0.0000   0.0000   0.0000   2.1415
  -4.900   0.0931   0.01531   0.00922  -0.1468  0.8369  0.0299  -1.7332   0.0000   0.0000   0.0000   1.8630
  -4.800   0.1075   0.01528   0.00916  -0.1474  0.8327  0.0290  -1.6723   0.0000   0.0000   0.0000   1.6515
  -4.700   0.1182   0.01528   0.00915  -0.1473  0.8293  0.0284  -1.6183   0.0000   0.0000   0.0000   1.5222
  -4.600   0.1279   0.01529   0.00916  -0.1470  0.8258  0.0279  -1.5664   0.0000   0.0000   0.0000   1.4230
  -4.500   0.1343   0.01421   0.00803  -0.1461  0.8219  0.0269  -1.5939   0.0000   0.0000   0.0000   1.3594
  -4.400   0.1436   0.01370   0.00746  -0.1459  0.8178  0.0264  -1.5778   0.0000   0.0000   0.0000   1.2853
  -4.300   0.1540   0.01327   0.00698  -0.1459  0.8136  0.0260  -1.5533   0.0000   0.0000   0.0000   1.2147
  -4.200   0.1654   0.01290   0.00655  -0.1460  0.8093  0.0257  -1.5235   0.0000   0.0000   0.0000   1.1493
  -4.100   0.1774   0.01257   0.00614  -0.1464  0.8050  0.0254  -1.4896   0.0000   0.0000   0.0000   1.0898
  -4.000   0.1899   0.01229   0.00577  -0.1468  0.8006  0.0251  -1.4523   0.0000   0.0000   0.0000   1.0362
  -3.900   0.2031   0.01205   0.00543  -0.1474  0.7956  0.0248  -1.4118   0.0000   0.0000   0.0000   0.9877
  -3.800   0.2158   0.01185   0.00515  -0.1478  0.7911  0.0246  -1.3698   0.0000   0.0000   0.0000   0.9459
  -3.700   0.2262   0.01166   0.00492  -0.1478  0.7882  0.0245  -1.3302   0.0000   0.0000   0.0000   0.9134
  -3.600   0.2370   0.01151   0.00471  -0.1478  0.7848  0.0244  -1.2880   0.0000   0.0000   0.0000   0.8829
  -3.500   0.2480   0.01138   0.00453  -0.1479  0.7811  0.0243  -1.2427   0.0000   0.0000   0.0000   0.8546
  -3.400   0.2594   0.01128   0.00437  -0.1480  0.7773  0.0241  -1.1897   0.0000   0.0000   0.0000   0.8281
  -3.300   0.2709   0.01121   0.00416  -0.1481  0.7735  0.0236  -1.1223   0.0000   0.0000   0.0000   0.8037
  -3.200   0.2827   0.01113   0.00401  -0.1482  0.7697  0.0236  -1.0778   0.0000   0.0000   0.0000   0.7808
  -3.100   0.2946   0.01106   0.00387  -0.1484  0.7658  0.0236  -1.0327   0.0000   0.0000   0.0000   0.7596
  -3.000   0.3066   0.01100   0.00375  -0.1486  0.7619  0.0238  -0.9873   0.0000   0.0000   0.0000   0.7400
  -2.900   0.3187   0.01097   0.00365  -0.1488  0.7577  0.0241  -0.9414   0.0000   0.0000   0.0000   0.7219
  -2.800   0.3313   0.01095   0.00356  -0.1491  0.7529  0.0246  -0.8944   0.0000   0.0000   0.0000   0.7047
  -2.700   0.3436   0.01093   0.00349  -0.1494  0.7489  0.0254  -0.8479   0.0000   0.0000   0.0000   0.6889
  -2.600   0.3543   0.01088   0.00343  -0.1493  0.7468  0.0265  -0.8049   0.0000   0.0000   0.0000   0.6752
  -2.500   0.3652   0.01083   0.00337  -0.1493  0.7442  0.0304  -0.7630   0.0000   0.0000   0.0000   0.6622
  -2.400   0.3850   0.00885   0.00304  -0.1538  0.7413  0.4846  -0.7493   0.0000   0.0000   0.0000   0.6524
  -2.300   0.3959   0.00891   0.00310  -0.1537  0.7379  0.5012  -0.7568   0.0000   0.0000   0.0000   0.6408
  -2.200   0.4069   0.00894   0.00316  -0.1536  0.7342  0.5120  -0.7644   0.0000   0.0000   0.0000   0.6298
  -2.100   0.4177   0.00900   0.00326  -0.1534  0.7304  0.5217  -0.7718   0.0000   0.0000   0.0000   0.6194
  -2.000   0.4286   0.00908   0.00334  -0.1533  0.7266  0.5287  -0.7794   0.0000   0.0000   0.0000   0.6095
  -1.900   0.4396   0.00915   0.00340  -0.1532  0.7227  0.5341  -0.7870   0.0000   0.0000   0.0000   0.6001
  -1.800   0.4507   0.00923   0.00345  -0.1532  0.7188  0.5384  -0.7946   0.0000   0.0000   0.0000   0.5911
  -1.700   0.4619   0.00931   0.00349  -0.1531  0.7147  0.5419  -0.8022   0.0000   0.0000   0.0000   0.5826
  -1.600   0.4736   0.00941   0.00354  -0.1532  0.7102  0.5449  -0.8101   0.0000   0.0000   0.0000   0.5744
  -1.400   0.4967   0.00956   0.00365  -0.1534  0.7037  0.5494  -0.8273   0.0000   0.0000   0.0000   0.5593
  -1.300   0.5075   0.00960   0.00369  -0.1533  0.7018  0.5510  -0.8357   0.0000   0.0000   0.0000   0.5524
  -1.200   0.5183   0.00964   0.00373  -0.1533  0.6997  0.5523  -0.8441   0.0000   0.0000   0.0000   0.5457
  -1.100   0.5292   0.00969   0.00378  -0.1532  0.6974  0.5534  -0.8526   0.0000   0.0000   0.0000   0.5393
  -1.000   0.5401   0.00974   0.00382  -0.1532  0.6948  0.5543  -0.8611   0.0000   0.0000   0.0000   0.5332
  -0.900   0.5508   0.00983   0.00391  -0.1530  0.6919  0.5561  -0.8695   0.0000   0.0000   0.0000   0.5273
  -0.800   0.5615   0.00976   0.00387  -0.1530  0.6888  0.5660  -0.8779   0.0000   0.0000   0.0000   0.5217
  -0.700   0.5711   0.00988   0.00404  -0.1525  0.6855  0.5745  -0.8859   0.0000   0.0000   0.0000   0.5161
  -0.600   0.5802   0.01009   0.00431  -0.1518  0.6821  0.5818  -0.8936   0.0000   0.0000   0.0000   0.5105
  -0.500   0.5891   0.01034   0.00458  -0.1510  0.6786  0.5889  -0.9013   0.0000   0.0000   0.0000   0.5051
  -0.400   0.5983   0.01058   0.00484  -0.1503  0.6749  0.5952  -0.9091   0.0000   0.0000   0.0000   0.4998
  -0.300   0.6078   0.01081   0.00506  -0.1497  0.6710  0.5998  -0.9170   0.0000   0.0000   0.0000   0.4948
  -0.200   0.6183   0.01098   0.00520  -0.1495  0.6668  0.6023  -0.9254   0.0000   0.0000   0.0000   0.4901
  -0.100   0.6304   0.01105   0.00524  -0.1498  0.6623  0.6030  -0.9344   0.0000   0.0000   0.0000   0.4857
   0.000   0.6425   0.01111   0.00527  -0.1501  0.6586  0.6036  -0.9437   0.0000   0.0000   0.0000   0.4816
   0.100   0.6534   0.01111   0.00528  -0.1501  0.6574  0.6042  -0.9533   0.0000   0.0000   0.0000   0.4776
   0.200   0.6642   0.01111   0.00532  -0.1501  0.6559  0.6048  -0.9629   0.0000   0.0000   0.0000   0.4737
   0.300   0.6752   0.01111   0.00532  -0.1501  0.6543  0.6053  -0.9726   0.0000   0.0000   0.0000   0.4699
   0.400   0.6861   0.01111   0.00532  -0.1501  0.6523  0.6057  -0.9823   0.0000   0.0000   0.0000   0.4662
   0.500   0.6971   0.01112   0.00532  -0.1501  0.6502  0.6062  -0.9920   0.0000   0.0000   0.0000   0.4627
   0.600   0.7081   0.01113   0.00533  -0.1502  0.6479  0.6066  -1.0018   0.0000   0.0000   0.0000   0.4593
   0.700   0.7191   0.01114   0.00533  -0.1502  0.6453  0.6069  -1.0116   0.0000   0.0000   0.0000   0.4559
   0.800   0.7301   0.01116   0.00533  -0.1502  0.6426  0.6073  -1.0214   0.0000   0.0000   0.0000   0.4527
   0.900   0.7410   0.01117   0.00533  -0.1502  0.6396  0.6076  -1.0312   0.0000   0.0000   0.0000   0.4495
   1.000   0.7520   0.01119   0.00533  -0.1502  0.6365  0.6079  -1.0410   0.0000   0.0000   0.0000   0.4465
   1.100   0.7629   0.01122   0.00533  -0.1502  0.6333  0.6082  -1.0508   0.0000   0.0000   0.0000   0.4435
   1.200   0.7737   0.01126   0.00533  -0.1502  0.6301  0.6085  -1.0606   0.0000   0.0000   0.0000   0.4406
   1.300   0.7845   0.01130   0.00534  -0.1502  0.6266  0.6087  -1.0703   0.0000   0.0000   0.0000   0.4378
   1.400   0.7956   0.01134   0.00534  -0.1503  0.6230  0.6092  -1.0802   0.0000   0.0000   0.0000   0.4351
   1.500   0.8080   0.01127   0.00522  -0.1508  0.6191  0.6111  -1.0908   0.0000   0.0000   0.0000   0.4327
   1.600   0.8207   0.01125   0.00516  -0.1513  0.6149  0.6132  -1.1025   0.0000   0.0000   0.0000   0.4303
   1.700   0.8332   0.01125   0.00514  -0.1518  0.6114  0.6153  -1.1144   0.0000   0.0000   0.0000   0.4280
   1.800   0.8441   0.01120   0.00510  -0.1519  0.6104  0.6173  -1.1256   0.0000   0.0000   0.0000   0.4256
   1.900   0.8550   0.01117   0.00509  -0.1519  0.6092  0.6191  -1.1367   0.0000   0.0000   0.0000   0.4232
   2.000   0.8657   0.01115   0.00509  -0.1519  0.6078  0.6207  -1.1477   0.0000   0.0000   0.0000   0.4209
   2.100   0.8765   0.01115   0.00509  -0.1519  0.6061  0.6220  -1.1588   0.0000   0.0000   0.0000   0.4186
   2.200   0.8872   0.01114   0.00510  -0.1519  0.6041  0.6232  -1.1699   0.0000   0.0000   0.0000   0.4164
   2.300   0.8979   0.01114   0.00511  -0.1519  0.6019  0.6243  -1.1810   0.0000   0.0000   0.0000   0.4142
   2.400   0.9086   0.01115   0.00513  -0.1518  0.5995  0.6253  -1.1921   0.0000   0.0000   0.0000   0.4121
   2.500   0.9192   0.01116   0.00514  -0.1518  0.5969  0.6264  -1.2033   0.0000   0.0000   0.0000   0.4100
   2.600   0.9299   0.01117   0.00516  -0.1517  0.5940  0.6274  -1.2144   0.0000   0.0000   0.0000   0.4079
   2.700   0.9405   0.01119   0.00517  -0.1517  0.5910  0.6284  -1.2256   0.0000   0.0000   0.0000   0.4059
   2.800   0.9511   0.01122   0.00519  -0.1516  0.5880  0.6295  -1.2379   0.0000   0.0000   0.0000   0.4039
   2.900   0.9617   0.01126   0.00521  -0.1516  0.5850  0.6305  -1.2505   0.0000   0.0000   0.0000   0.4020
   3.000   0.9722   0.01130   0.00524  -0.1515  0.5821  0.6315  -1.2631   0.0000   0.0000   0.0000   0.4001
   3.100   0.9826   0.01135   0.00528  -0.1515  0.5789  0.6326  -1.2757   0.0000   0.0000   0.0000   0.3983
   3.200   0.9932   0.01142   0.00533  -0.1514  0.5754  0.6336  -1.2883   0.0000   0.0000   0.0000   0.3965
   3.300   1.0042   0.01150   0.00539  -0.1515  0.5714  0.6347  -1.3012   0.0000   0.0000   0.0000   0.3947
   3.400   1.0160   0.01162   0.00547  -0.1517  0.5667  0.6358  -1.3146   0.0000   0.0000   0.0000   0.3931
   3.500   1.0275   0.01170   0.00555  -0.1519  0.5633  0.6369  -1.3279   0.0000   0.0000   0.0000   0.3915
   3.600   1.0378   0.01170   0.00566  -0.1518  0.5622  0.6380  -1.3405   0.0000   0.0000   0.0000   0.3898
   3.700   1.0479   0.01170   0.00568  -0.1516  0.5607  0.6392  -1.3530   0.0000   0.0000   0.0000   0.3881
   3.800   1.0581   0.01170   0.00571  -0.1515  0.5590  0.6403  -1.3670   0.0000   0.0000   0.0000   0.3865
   3.900   1.0683   0.01171   0.00574  -0.1514  0.5569  0.6415  -1.3814   0.0000   0.0000   0.0000   0.3848
   4.000   1.0786   0.01173   0.00577  -0.1513  0.5546  0.6427  -1.3958   0.0000   0.0000   0.0000   0.3833
   4.100   1.0889   0.01175   0.00581  -0.1512  0.5521  0.6438  -1.4104   0.0000   0.0000   0.0000   0.3817
   4.200   1.0993   0.01178   0.00585  -0.1511  0.5497  0.6450  -1.4249   0.0000   0.0000   0.0000   0.3802
   4.300   1.1097   0.01182   0.00589  -0.1510  0.5470  0.6461  -1.4396   0.0000   0.0000   0.0000   0.3787
   4.400   1.1201   0.01186   0.00593  -0.1509  0.5442  0.6472  -1.4562   0.0000   0.0000   0.0000   0.3773
   4.500   1.1303   0.01190   0.00596  -0.1508  0.5411  0.6484  -1.4729   0.0000   0.0000   0.0000   0.3758
   4.600   1.1403   0.01195   0.00600  -0.1507  0.5378  0.6495  -1.4895   0.0000   0.0000   0.0000   0.3744
   4.700   1.1501   0.01201   0.00603  -0.1505  0.5340  0.6505  -1.5059   0.0000   0.0000   0.0000   0.3730
   4.800   1.1591   0.01208   0.00607  -0.1501  0.5289  0.6516  -1.5217   0.0000   0.0000   0.0000   0.3715
   4.900   1.1683   0.01220   0.00613  -0.1498  0.5216  0.6526  -1.5377   0.0000   0.0000   0.0000   0.3701
   5.000   1.1785   0.01231   0.00620  -0.1497  0.5148  0.6535  -1.5555   0.0000   0.0000   0.0000   0.3688
   5.100   1.1871   0.01228   0.00621  -0.1493  0.5119  0.6545  -1.5738   0.0000   0.0000   0.0000   0.3673
   5.200   1.1959   0.01227   0.00622  -0.1488  0.5074  0.6554  -1.5923   0.0000   0.0000   0.0000   0.3659
   5.300   1.2045   0.01229   0.00623  -0.1484  0.5011  0.6562  -1.6106   0.0000   0.0000   0.0000   0.3645
   5.400   1.2125   0.01234   0.00624  -0.1478  0.4931  0.6570  -1.6284   0.0000   0.0000   0.0000   0.3631
   5.500   1.2193   0.01244   0.00626  -0.1470  0.4839  0.6578  -1.6452   0.0000   0.0000   0.0000   0.3616
   5.600   1.2249   0.01259   0.00633  -0.1460  0.4731  0.6585  -1.6618   0.0000   0.0000   0.0000   0.3601
   5.700   1.2330   0.01268   0.00640  -0.1455  0.4652  0.6592  -1.6828   0.0000   0.0000   0.0000   0.3588
   5.800   1.2417   0.01273   0.00644  -0.1451  0.4583  0.6598  -1.7045   0.0000   0.0000   0.0000   0.3575
   5.900   1.2496   0.01282   0.00650  -0.1446  0.4493  0.6604  -1.7253   0.0000   0.0000   0.0000   0.3562
   6.000   1.2564   0.01295   0.00657  -0.1438  0.4400  0.6609  -1.7450   0.0000   0.0000   0.0000   0.3548
   6.100   1.2617   0.01311   0.00665  -0.1428  0.4312  0.6615  -1.7629   0.0000   0.0000   0.0000   0.3533
   6.200   1.2668   0.01326   0.00676  -0.1417  0.4229  0.6620  -1.7806   0.0000   0.0000   0.0000   0.3519
   6.300   1.2753   0.01335   0.00685  -0.1413  0.4185  0.6625  -1.8022   0.0000   0.0000   0.0000   0.3507
   6.400   1.2842   0.01343   0.00694  -0.1409  0.4141  0.6629  -1.8243   0.0000   0.0000   0.0000   0.3495
   6.500   1.2930   0.01349   0.00699  -0.1406  0.4085  0.6653  -1.8464   0.0000   0.0000   0.0000   0.3484
   6.600   1.3010   0.01358   0.00705  -0.1402  0.4019  0.6681  -1.8716   0.0000   0.0000   0.0000   0.3472
   6.700   1.3082   0.01370   0.00714  -0.1396  0.3949  0.6706  -1.8961   0.0000   0.0000   0.0000   0.3460
   6.800   1.3144   0.01385   0.00725  -0.1388  0.3878  0.6730  -1.9193   0.0000   0.0000   0.0000   0.3448
   6.900   1.3199   0.01403   0.00739  -0.1379  0.3802  0.6752  -1.9447   0.0000   0.0000   0.0000   0.3435
   7.000   1.3266   0.01418   0.00753  -0.1372  0.3735  0.6771  -1.9734   0.0000   0.0000   0.0000   0.3423
   7.100   1.3353   0.01428   0.00764  -0.1368  0.3686  0.6790  -2.0053   0.0000   0.0000   0.0000   0.3412
   7.200   1.3431   0.01441   0.00777  -0.1363  0.3620  0.6808  -2.0360   0.0000   0.0000   0.0000   0.3401
   7.300   1.3497   0.01458   0.00791  -0.1356  0.3539  0.6826  -2.0651   0.0000   0.0000   0.0000   0.3390
   7.400   1.3552   0.01480   0.00808  -0.1347  0.3451  0.6843  -2.0921   0.0000   0.0000   0.0000   0.3378
   7.500   1.3752   0.01453   0.00829  -0.1363  0.3727  0.6862  -2.1470   0.0000   0.0000   0.0000   0.3373
   7.600   1.3844   0.01461   0.00842  -0.1361  0.3709  0.6880  -2.1813   0.0000   0.0000   0.0000   0.3363
   7.700   1.3931   0.01472   0.00855  -0.1358  0.3675  0.6898  -2.2148   0.0000   0.0000   0.0000   0.3353
   7.800   1.4010   0.01485   0.00869  -0.1353  0.3625  0.6916  -2.2734   0.0000   0.0000   0.0000   0.3343
   7.900   1.4079   0.01501   0.00885  -0.1347  0.3560  0.6934  -2.3480   0.0000   0.0000   0.0000   0.3332
   8.000   1.4133   0.01523   0.00903  -0.1338  0.3484  0.6952  -2.4175   0.0000   0.0000   0.0000   0.3321
   8.100   1.4173   0.01549   0.00925  -0.1326  0.3402  0.6970  -2.4813   0.0000   0.0000   0.0000   0.3309
   8.200   1.4209   0.01577   0.00949  -0.1314  0.3314  0.6987  -2.5441   0.0000   0.0000   0.0000   0.3296
   8.300   1.4281   0.01593   0.00966  -0.1309  0.3262  0.7006  -2.6225   0.0000   0.0000   0.0000   0.3286
   8.400   1.4354   0.01609   0.00983  -0.1303  0.3206  0.7024  -2.7015   0.0000   0.0000   0.0000   0.3276
   8.500   1.4416   0.01630   0.01003  -0.1296  0.3136  0.7043  -2.7771   0.0000   0.0000   0.0000   0.3266
   8.600   1.4464   0.01657   0.01026  -0.1287  0.3052  0.7061  -2.8471   0.0000   0.0000   0.0000   0.3255
   8.700   1.4495   0.01691   0.01054  -0.1275  0.2960  0.7078  -2.9105   0.0000   0.0000   0.0000   0.3243
   8.800   1.4521   0.01727   0.01085  -0.1263  0.2863  0.7095  -2.9720   0.0000   0.0000   0.0000   0.3231
   8.900   1.4581   0.01750   0.01108  -0.1256  0.2795  0.7111  -3.0489   0.0000   0.0000   0.0000   0.3221
   9.000   1.4621   0.01781   0.01136  -0.1246  0.2699  0.7126  -3.1175   0.0000   0.0000   0.0000   0.3211
   9.100   1.4638   0.01825   0.01171  -0.1232  0.2588  0.7139  -3.1762   0.0000   0.0000   0.0000   0.3199
   9.200   1.4645   0.01874   0.01211  -0.1218  0.2467  0.7151  -3.2309   0.0000   0.0000   0.0000   0.3187
   9.300   1.4690   0.01906   0.01242  -0.1209  0.2381  0.7162  -3.3029   0.0000   0.0000   0.0000   0.3177
   9.400   1.4716   0.01946   0.01278  -0.1198  0.2278  0.7192  -3.3667   0.0000   0.0000   0.0000   0.3166
   9.500   1.4720   0.01999   0.01323  -0.1185  0.2170  0.7236  -3.4203   0.0000   0.0000   0.0000   0.3155
   9.600   1.4732   0.02049   0.01368  -0.1172  0.2059  0.7280  -3.4776   0.0000   0.0000   0.0000   0.3144
   9.700   1.4772   0.02085   0.01404  -0.1164  0.1983  0.7321  -3.5486   0.0000   0.0000   0.0000   0.3135
   9.800   1.4794   0.02132   0.01449  -0.1153  0.1887  0.7359  -3.6111   0.0000   0.0000   0.0000   0.3125
   9.900   1.4789   0.02194   0.01505  -0.1139  0.1789  0.7394  -3.6615   0.0000   0.0000   0.0000   0.3114
  10.000   1.4796   0.02251   0.01558  -0.1127  0.1690  0.7429  -3.7172   0.0000   0.0000   0.0000   0.3103
  10.100   1.4827   0.02296   0.01601  -0.1118  0.1615  0.7466  -3.7842   0.0000   0.0000   0.0000   0.3094
  10.200   1.4839   0.02353   0.01654  -0.1107  0.1526  0.7502  -3.8427   0.0000   0.0000   0.0000   0.3084
  10.300   1.4830   0.02423   0.01719  -0.1094  0.1434  0.7537  -3.8908   0.0000   0.0000   0.0000   0.3074
  10.400   1.4833   0.02486   0.01779  -0.1083  0.1350  0.7572  -3.9441   0.0000   0.0000   0.0000   0.3065
  10.500   1.4850   0.02542   0.01833  -0.1073  0.1278  0.7607  -4.0038   0.0000   0.0000   0.0000   0.3056
  10.600   1.4849   0.02613   0.01899  -0.1062  0.1188  0.7639  -4.0545   0.0000   0.0000   0.0000   0.3047
  10.700   1.4827   0.02703   0.01981  -0.1050  0.1087  0.7667  -4.0938   0.0000   0.0000   0.0000   0.3037
  10.900   1.4781   0.02886   0.02154  -0.1026  0.0880  0.7774  -4.1683   0.0000   0.0000   0.0000   0.3020
  11.000   1.4726   0.03006   0.02265  -0.1012  0.0737  0.7842  -4.1891   0.0000   0.0000   0.0000   0.3011
  11.100   1.4651   0.03146   0.02396  -0.0997  0.0600  0.7903  -4.2000   0.0000   0.0000   0.0000   0.3002
  11.200   1.4584   0.03284   0.02527  -0.0983  0.0468  0.7966  -4.2126   0.0000   0.0000   0.0000   0.2994
  11.300   1.4508   0.03435   0.02669  -0.0970  0.0350  0.8029  -4.2206   0.0000   0.0000   0.0000   0.2986
  11.400   1.4433   0.03590   0.02818  -0.0958  0.0233  0.8092  -4.2282   0.0000   0.0000   0.0000   0.2979
  11.500   1.4378   0.03731   0.02957  -0.0948  0.0162  0.8160  -4.2414   0.0000   0.0000   0.0000   0.2973
  11.700   1.4350   0.03938   0.03172  -0.0932  0.0095  0.8420  -4.2963   0.0000   0.0000   0.0000   0.2959
  11.800   1.4361   0.04012   0.03254  -0.0925  0.0090  0.8604  -4.3381   0.0000   0.0000   0.0000   0.2952
  11.900   1.4348   0.04068   0.03321  -0.0912  0.0087  0.9084  -4.3726   0.0000   0.0000   0.0000   0.2941
  12.000   1.4333   0.04138   0.03399  -0.0903  0.0085  1.0000  -4.4063   0.0000   0.0000   0.0000   0.2933
  12.100   1.4344   0.04233   0.03499  -0.0899  0.0082  1.0000  -4.4504   0.0000   0.0000   0.0000   0.2928
  12.200   1.4358   0.04326   0.03595  -0.0896  0.0080  1.0000  -4.4968   0.0000   0.0000   0.0000   0.2923
  12.300   1.4376   0.04415   0.03689  -0.0893  0.0079  1.0000  -4.5455   0.0000   0.0000   0.0000   0.2918
  12.400   1.4393   0.04502   0.03781  -0.0889  0.0077  1.0000  -4.5944   0.0000   0.0000   0.0000   0.2913
  12.500   1.4391   0.04608   0.03900  -0.0885  0.0074  1.0000  -4.6104   0.0000   0.0000   0.0000   0.2908
  12.600   1.4404   0.04699   0.03996  -0.0882  0.0073  1.0000  -4.6549   0.0000   0.0000   0.0000   0.2903
  12.700   1.4413   0.04799   0.04102  -0.0879  0.0072  1.0000  -4.6987   0.0000   0.0000   0.0000   0.2899
  12.800   1.4413   0.04911   0.04219  -0.0876  0.0072  1.0000  -4.7391   0.0000   0.0000   0.0000   0.2895
  12.900   1.4418   0.05020   0.04333  -0.0874  0.0071  1.0000  -4.7819   0.0000   0.0000   0.0000   0.2891
  13.000   1.4427   0.05125   0.04444  -0.0871  0.0071  1.0000  -4.8266   0.0000   0.0000   0.0000   0.2887
  13.100   1.4436   0.05232   0.04557  -0.0869  0.0071  1.0000  -4.8717   0.0000   0.0000   0.0000   0.2883
  13.200   1.4444   0.05342   0.04672  -0.0867  0.0070  1.0000  -4.9160   0.0000   0.0000   0.0000   0.2879
  13.300   1.4449   0.05456   0.04792  -0.0865  0.0070  1.0000  -4.9586   0.0000   0.0000   0.0000   0.2875
  13.400   1.4448   0.05580   0.04921  -0.0864  0.0070  1.0000  -4.9981   0.0000   0.0000   0.0000   0.2872
  13.500   1.4435   0.05725   0.05072  -0.0863  0.0070  1.0000  -5.0307   0.0000   0.0000   0.0000   0.2870
  13.600   1.4425   0.05865   0.05218  -0.0862  0.0070  1.0000  -5.0653   0.0000   0.0000   0.0000   0.2867
  13.700   1.4421   0.05999   0.05358  -0.0861  0.0070  1.0000  -5.1020   0.0000   0.0000   0.0000   0.2865
  13.800   1.4417   0.06132   0.05497  -0.0860  0.0070  1.0000  -5.1387   0.0000   0.0000   0.0000   0.2862
  13.900   1.4413   0.06269   0.05639  -0.0859  0.0070  1.0000  -5.1748   0.0000   0.0000   0.0000   0.2860
  14.000   1.4406   0.06409   0.05785  -0.0859  0.0070  1.0000  -5.2094   0.0000   0.0000   0.0000   0.2857
  14.100   1.4393   0.06560   0.05941  -0.0859  0.0070  1.0000  -5.2406   0.0000   0.0000   0.0000   0.2856
  14.200   1.4364   0.06736   0.06124  -0.0860  0.0070  1.0000  -5.2633   0.0000   0.0000   0.0000   0.2856
  14.300   1.4342   0.06903   0.06297  -0.0861  0.0071  1.0000  -5.2891   0.0000   0.0000   0.0000   0.2855
  14.400   1.4326   0.07062   0.06462  -0.0862  0.0071  1.0000  -5.3173   0.0000   0.0000   0.0000   0.2854
  14.500   1.4311   0.07220   0.06626  -0.0863  0.0071  1.0000  -5.3456   0.0000   0.0000   0.0000   0.2853
  14.600   1.4295   0.07379   0.06790  -0.0864  0.0071  1.0000  -5.3732   0.0000   0.0000   0.0000   0.2852
  14.700   1.4276   0.07540   0.06958  -0.0865  0.0071  1.0000  -5.3992   0.0000   0.0000   0.0000   0.2851
  14.800   1.4254   0.07710   0.07134  -0.0867  0.0071  1.0000  -5.4223   0.0000   0.0000   0.0000   0.2851
  14.900   1.4216   0.07909   0.07339  -0.0870  0.0072  1.0000  -5.4370   0.0000   0.0000   0.0000   0.2853
  15.000   1.4187   0.08092   0.07528  -0.0873  0.0072  1.0000  -5.4557   0.0000   0.0000   0.0000   0.2854
  15.100   1.4164   0.08263   0.07705  -0.0876  0.0072  1.0000  -5.4773   0.0000   0.0000   0.0000   0.2855
  15.200   1.4144   0.08428   0.07876  -0.0878  0.0072  1.0000  -5.4999   0.0000   0.0000   0.0000   0.2855
  15.300   1.4125   0.08591   0.08045  -0.0880  0.0073  1.0000  -5.5224   0.0000   0.0000   0.0000   0.2855
  15.400   1.4107   0.08754   0.08214  -0.0883  0.0073  1.0000  -5.5448   0.0000   0.0000   0.0000   0.2855
  15.500   1.4087   0.08918   0.08383  -0.0886  0.0073  1.0000  -5.5662   0.0000   0.0000   0.0000   0.2856
  15.600   1.4064   0.09089   0.08561  -0.0889  0.0074  1.0000  -5.5846   0.0000   0.0000   0.0000   0.2857
  15.700   1.4028   0.09283   0.08761  -0.0894  0.0074  1.0000  -5.5955   0.0000   0.0000   0.0000   0.2860
  15.800   1.4001   0.09460   0.08943  -0.0898  0.0075  1.0000  -5.6108   0.0000   0.0000   0.0000   0.2862
  15.900   1.3981   0.09622   0.09111  -0.0902  0.0075  1.0000  -5.6292   0.0000   0.0000   0.0000   0.2863
  16.000   1.3966   0.09776   0.09271  -0.0905  0.0075  1.0000  -5.6495   0.0000   0.0000   0.0000   0.2864
  16.100   1.3953   0.09925   0.09425  -0.0908  0.0076  1.0000  -5.6703   0.0000   0.0000   0.0000   0.2865
  16.200   1.3941   0.10070   0.09577  -0.0912  0.0076  1.0000  -5.6911   0.0000   0.0000   0.0000   0.2865
  16.300   1.3930   0.10213   0.09725  -0.0915  0.0077  1.0000  -5.7116   0.0000   0.0000   0.0000   0.2865
  16.400   1.3919   0.10347   0.09865  -0.0918  0.0077  1.0000  -5.7315   0.0000   0.0000   0.0000   0.2866
  16.500   1.3909   0.10474   0.09997  -0.0921  0.0078  1.0000  -5.7505   0.0000   0.0000   0.0000   0.2866
  16.600   1.3898   0.10598   0.10127  -0.0924  0.0079  1.0000  -5.7686   0.0000   0.0000   0.0000   0.2867
  16.700   1.3885   0.10729   0.10264  -0.0928  0.0079  1.0000  -5.7843   0.0000   0.0000   0.0000   0.2868
  16.800   1.3864   0.10877   0.10420  -0.0933  0.0080  1.0000  -5.7950   0.0000   0.0000   0.0000   0.2870
  16.900   1.3846   0.11024   0.10573  -0.0937  0.0080  1.0000  -5.8060   0.0000   0.0000   0.0000   0.2872
  17.000   1.3832   0.11165   0.10720  -0.0942  0.0081  1.0000  -5.8183   0.0000   0.0000   0.0000   0.2873
  17.100   1.3821   0.11304   0.10865  -0.0946  0.0082  1.0000  -5.8311   0.0000   0.0000   0.0000   0.2875
  17.200   1.3811   0.11443   0.11011  -0.0950  0.0083  1.0000  -5.8430   0.0000   0.0000   0.0000   0.2876
  17.300   1.3800   0.11585   0.11160  -0.0954  0.0083  1.0000  -5.8534   0.0000   0.0000   0.0000   0.2877
  17.400   1.3788   0.11732   0.11314  -0.0958  0.0084  1.0000  -5.8617   0.0000   0.0000   0.0000   0.2878
  17.500   1.3774   0.11885   0.11474  -0.0963  0.0085  1.0000  -5.8676   0.0000   0.0000   0.0000   0.2880
  17.600   1.3758   0.12046   0.11642  -0.0968  0.0086  1.0000  -5.8706   0.0000   0.0000   0.0000   0.2882
  17.700   1.3738   0.12216   0.11820  -0.0974  0.0087  1.0000  -5.8702   0.0000   0.0000   0.0000   0.2885
  17.800   1.3714   0.12398   0.12010  -0.0981  0.0088  1.0000  -5.8661   0.0000   0.0000   0.0000   0.2889
  17.900   1.3686   0.12592   0.12212  -0.0988  0.0088  1.0000  -5.8578   0.0000   0.0000   0.0000   0.2893
  18.000   1.3653   0.12802   0.12430  -0.0996  0.0089  1.0000  -5.8450   0.0000   0.0000   0.0000   0.2899
  18.100   1.3605   0.13048   0.12685  -0.1008  0.0090  1.0000  -5.8242   0.0000   0.0000   0.0000   0.2908
  18.200   1.3554   0.13309   0.12954  -0.1020  0.0091  1.0000  -5.7996   0.0000   0.0000   0.0000   0.2917
  18.300   1.3504   0.13568   0.13221  -0.1032  0.0091  1.0000  -5.7732   0.0000   0.0000   0.0000   0.2927
  18.400   1.3453   0.13836   0.13497  -0.1044  0.0092  1.0000  -5.7432   0.0000   0.0000   0.0000   0.2937
  18.500   1.3398   0.14119   0.13789  -0.1057  0.0093  1.0000  -5.7081   0.0000   0.0000   0.0000   0.2947
  18.600   1.3337   0.14422   0.14100  -0.1071  0.0094  1.0000  -5.6667   0.0000   0.0000   0.0000   0.2960
  18.700   1.3269   0.14749   0.14437  -0.1087  0.0094  1.0000  -5.6183   0.0000   0.0000   0.0000   0.2974
  18.800   1.3188   0.15121   0.14817  -0.1107  0.0095  1.0000  -5.5653   0.0000   0.0000   0.0000   0.2992
  18.900   1.3106   0.15502   0.15207  -0.1127  0.0095  1.0000  -5.5055   0.0000   0.0000   0.0000   0.3010
  19.000   1.3017   0.15906   0.15620  -0.1147  0.0096  1.0000  -5.4333   0.0000   0.0000   0.0000   0.3030
  19.100   1.2911   0.16368   0.16092  -0.1170  0.0097  1.0000  -5.3386   0.0000   0.0000   0.0000   0.3054
  19.200   1.2778   0.16921   0.16655  -0.1198  0.0098  1.0000  -5.2167   0.0000   0.0000   0.0000   0.3084
  19.300   1.2998   0.16541   0.16268  -0.1173  0.0105  1.0000  -5.4260   0.0000   0.0000   0.0000   0.3045
  19.400   1.3024   0.16681   0.16410  -0.1181  0.0107  1.0000  -5.4785   0.0000   0.0000   0.0000   0.3046
  19.500   1.3033   0.16865   0.16597  -0.1191  0.0108  1.0000  -5.5142   0.0000   0.0000   0.0000   0.3051
  19.600   1.3000   0.17166   0.16902  -0.1207  0.0109  1.0000  -5.5089   0.0000   0.0000   0.0000   0.3064
  19.700   1.2981   0.17432   0.17172  -0.1222  0.0111  1.0000  -5.5147   0.0000   0.0000   0.0000   0.3074
  19.800   1.2965   0.17690   0.17435  -0.1235  0.0112  1.0000  -5.5214   0.0000   0.0000   0.0000   0.3084
  19.900   1.2943   0.17971   0.17721  -0.1250  0.0114  1.0000  -5.5188   0.0000   0.0000   0.0000   0.3095
  20.000   1.2906   0.18299   0.18055  -0.1267  0.0116  1.0000  -5.4988   0.0000   0.0000   0.0000   0.3109
  20.100   1.2844   0.18707   0.18470  -0.1288  0.0117  1.0000  -5.4524   0.0000   0.0000   0.0000   0.3128
  20.200   1.2759   0.19189   0.18959  -0.1313  0.0117  1.0000  -5.3847   0.0000   0.0000   0.0000   0.3153
  20.300   1.2685   0.19650   0.19427  -0.1336  0.0119  1.0000  -5.3199   0.0000   0.0000   0.0000   0.3176
  20.400   1.2602   0.20153   0.19937  -0.1360  0.0120  1.0000  -5.2412   0.0000   0.0000   0.0000   0.3201
  20.500   1.2501   0.20724   0.20514  -0.1388  0.0120  1.0000  -5.1477   0.0000   0.0000   0.0000   0.3232
  20.600   1.2399   0.21310   0.21108  -0.1415  0.0120  1.0000  -5.0459   0.0000   0.0000   0.0000   0.3263
  20.700   1.2291   0.21940   0.21744  -0.1443  0.0121  1.0000  -4.9283   0.0000   0.0000   0.0000   0.3295
  20.800   1.2168   0.22638   0.22448  -0.1474  0.0120  1.0000  -4.7959   0.0000   0.0000   0.0000   0.3333
  20.900   1.2031   0.23410   0.23226  -0.1505  0.0121  1.0000  -4.6311   0.0000   0.0000   0.0000   0.3374
  21.000   1.1855   0.24371   0.24194  -0.1541  0.0121  1.0000  -4.4047   0.0000   0.0000   0.0000   0.3425
  21.800   0.9256   0.29519   0.29371  -0.1564  0.0213  1.0000  -1.6167   0.0000   0.0000   0.0000   0.3877
  21.900   0.9220   0.29606   0.29458  -0.1566  0.0213  1.0000  -1.5916   0.0000   0.0000   0.0000   0.3885
  22.000   0.9188   0.29693   0.29546  -0.1568  0.0213  1.0000  -1.5677   0.0000   0.0000   0.0000   0.3893
  22.100   0.9158   0.29781   0.29635  -0.1571  0.0212  1.0000  -1.5450   0.0000   0.0000   0.0000   0.3901
  22.200   0.9129   0.29869   0.29724  -0.1573  0.0212  1.0000  -1.5234   0.0000   0.0000   0.0000   0.3908
  22.300   0.9103   0.29957   0.29813  -0.1576  0.0212  1.0000  -1.5028   0.0000   0.0000   0.0000   0.3915


