xflr5 v6.61

 Calculated polar for: EPPLER E854 AIRFOIL

 1 1 Reynolds number fixed          Mach number fixed         

 xtrf =   1.000 (top)        1.000 (bottom)
 Mach =   0.000     Re =     0.200 e 6     Ncrit =   9.000

  alpha     CL        CD       CDp       Cm    Top Xtr Bot Xtr   Cpmin    Chinge    XCp    
 ------- -------- --------- --------- -------- ------- ------- -------- --------- ---------
 -10.000  -0.3716   0.10215   0.09873  -0.0444  1.0000  0.0473  -2.1074   0.0000   0.0000   0.0000   0.1167
  -9.900  -0.3727   0.10072   0.09732  -0.0447  1.0000  0.0477  -2.1225   0.0000   0.0000   0.0000   0.1164
  -9.800  -0.3740   0.09927   0.09589  -0.0450  1.0000  0.0481  -2.1392   0.0000   0.0000   0.0000   0.1162
  -9.700  -0.3755   0.09780   0.09444  -0.0453  1.0000  0.0485  -2.1576   0.0000   0.0000   0.0000   0.1160
  -9.600  -0.3773   0.09632   0.09298  -0.0456  1.0000  0.0488  -2.1776   0.0000   0.0000   0.0000   0.1160
  -9.500  -0.3794   0.09480   0.09149  -0.0460  1.0000  0.0492  -2.1993   0.0000   0.0000   0.0000   0.1159
  -9.400  -0.3817   0.09327   0.08997  -0.0463  1.0000  0.0494  -2.2226   0.0000   0.0000   0.0000   0.1160
  -9.300  -0.3844   0.09171   0.08845  -0.0466  1.0000  0.0496  -2.2476   0.0000   0.0000   0.0000   0.1163
  -9.200  -0.3874   0.09014   0.08690  -0.0469  1.0000  0.0498  -2.2744   0.0000   0.0000   0.0000   0.1167
  -9.100  -0.3909   0.08855   0.08534  -0.0472  1.0000  0.0499  -2.3029   0.0000   0.0000   0.0000   0.1172
  -9.000  -0.3948   0.08695   0.08376  -0.0475  1.0000  0.0499  -2.3333   0.0000   0.0000   0.0000   0.1180
  -8.900  -0.3992   0.08533   0.08218  -0.0477  1.0000  0.0499  -2.3657   0.0000   0.0000   0.0000   0.1189
  -8.800  -0.4042   0.08370   0.08058  -0.0480  1.0000  0.0498  -2.4003   0.0000   0.0000   0.0000   0.1201
  -8.700  -0.4099   0.08207   0.07898  -0.0481  1.0000  0.0497  -2.4370   0.0000   0.0000   0.0000   0.1217
  -8.600  -0.4164   0.08045   0.07739  -0.0482  1.0000  0.0496  -2.4762   0.0000   0.0000   0.0000   0.1235
  -8.500  -0.4238   0.07883   0.07581  -0.0483  1.0000  0.0494  -2.5178   0.0000   0.0000   0.0000   0.1257
  -8.400  -0.4323   0.07724   0.07427  -0.0482  1.0000  0.0493  -2.5618   0.0000   0.0000   0.0000   0.1283
  -8.300  -0.4422   0.07570   0.07277  -0.0481  1.0000  0.0493  -2.6083   0.0000   0.0000   0.0000   0.1314
  -8.200  -0.4537   0.07426   0.07137  -0.0478  1.0000  0.0493  -2.6569   0.0000   0.0000   0.0000   0.1351
  -8.100  -0.4667   0.07310   0.07025  -0.0472  1.0000  0.0493  -2.7024   0.0000   0.0000   0.0000   0.1398
  -8.000  -0.4808   0.07235   0.06954  -0.0460  1.0000  0.0494  -2.7410   0.0000   0.0000   0.0000   0.1455
  -7.900  -0.4823   0.06774   0.06487  -0.0540  0.9957  0.0492  -2.8386   0.0000   0.0000   0.0000   0.1295
  -7.700  -0.4863   0.05206   0.04848  -0.0725  0.9823  0.0328  -3.5051   0.0000   0.0000   0.0000   0.0922
  -7.600  -0.4828   0.04856   0.04481  -0.0755  0.9781  0.0314  -3.5776   0.0000   0.0000   0.0000   0.0849
  -7.500  -0.4763   0.04512   0.04115  -0.0785  0.9751  0.0299  -3.6533   0.0000   0.0000   0.0000   0.0765
  -7.400  -0.4676   0.04163   0.03738  -0.0812  0.9730  0.0282  -3.7439   0.0000   0.0000   0.0000   0.0674
  -7.300  -0.4630   0.03882   0.03432  -0.0821  0.9684  0.0270  -3.8307   0.0000   0.0000   0.0000   0.0638
  -7.200  -0.4562   0.03589   0.03107  -0.0831  0.9641  0.0257  -3.9317   0.0000   0.0000   0.0000   0.0588
  -7.100  -0.4462   0.03317   0.02802  -0.0843  0.9612  0.0246  -4.0170   0.0000   0.0000   0.0000   0.0520
  -7.000  -0.4340   0.03106   0.02565  -0.0854  0.9590  0.0240  -4.0523   0.0000   0.0000   0.0000   0.0441
  -6.900  -0.4205   0.02932   0.02367  -0.0865  0.9573  0.0237  -4.0561   0.0000   0.0000   0.0000   0.0350
  -6.800  -0.4062   0.02785   0.02200  -0.0876  0.9559  0.0236  -4.0355   0.0000   0.0000   0.0000   0.0248
  -6.700  -0.3912   0.02656   0.02053  -0.0887  0.9546  0.0237  -3.9981   0.0000   0.0000   0.0000   0.0135
  -6.600  -0.3758   0.02541   0.01924  -0.0899  0.9536  0.0240  -3.9483   0.0000   0.0000   0.0000   0.0010
  -6.500  -0.3696   0.02465   0.01840  -0.0891  0.9481  0.0243  -3.9126   0.0000   0.0000   0.0000  -0.0010
  -6.400  -0.3584   0.02382   0.01747  -0.0893  0.9445  0.0248  -3.8606   0.0000   0.0000   0.0000  -0.0092
  -6.300  -0.3453   0.02301   0.01657  -0.0899  0.9418  0.0254  -3.7997   0.0000   0.0000   0.0000  -0.0203
  -6.200  -0.3313   0.02224   0.01572  -0.0906  0.9395  0.0263  -3.7335   0.0000   0.0000   0.0000  -0.0336
  -6.100  -0.3166   0.02150   0.01490  -0.0914  0.9376  0.0274  -3.6646   0.0000   0.0000   0.0000  -0.0490
  -6.000  -0.3010   0.02093   0.01428  -0.0923  0.9358  0.0294  -3.5741   0.0000   0.0000   0.0000  -0.0674
  -5.900  -0.2847   0.02056   0.01387  -0.0935  0.9342  0.0322  -3.4628   0.0000   0.0000   0.0000  -0.0893
  -5.800  -0.2677   0.02023   0.01348  -0.0946  0.9328  0.0347  -3.3696   0.0000   0.0000   0.0000  -0.1147
  -5.700  -0.2502   0.01996   0.01314  -0.0958  0.9316  0.0363  -3.2947   0.0000   0.0000   0.0000  -0.1446
  -5.600  -0.2374   0.01787   0.01097  -0.0965  0.9305  0.0418  -3.3676   0.0000   0.0000   0.0000  -0.1686
  -5.500  -0.2205   0.01722   0.01035  -0.0978  0.9295  0.0483  -3.3001   0.0000   0.0000   0.0000  -0.2065
  -5.400  -0.2167   0.01708   0.01020  -0.0964  0.9215  0.0527  -3.2455   0.0000   0.0000   0.0000  -0.2077
  -5.300  -0.2029   0.01704   0.01013  -0.0969  0.9178  0.0579  -3.1396   0.0000   0.0000   0.0000  -0.2406
  -5.200  -0.1901   0.01592   0.00903  -0.0976  0.9150  0.0695  -3.1008   0.0000   0.0000   0.0000  -0.2771
  -5.100  -0.1748   0.01549   0.00859  -0.0985  0.9127  0.0796  -3.0039   0.0000   0.0000   0.0000  -0.3279
  -5.000  -0.1591   0.01491   0.00802  -0.0996  0.9106  0.0956  -2.9078   0.0000   0.0000   0.0000  -0.3915
  -4.900  -0.1427   0.01445   0.00761  -0.1009  0.9088  0.1153  -2.7945   0.0000   0.0000   0.0000  -0.4737
  -4.800  -0.1263   0.01367   0.00704  -0.1024  0.9071  0.1588  -2.6916   0.0000   0.0000   0.0000  -0.5787
  -4.700  -0.1100   0.01285   0.00660  -0.1041  0.9056  0.2359  -2.5753   0.0000   0.0000   0.0000  -0.7173
  -4.600  -0.0935   0.01219   0.00645  -0.1058  0.9040  0.3445  -2.4505   0.0000   0.0000   0.0000  -0.9052
  -4.500  -0.0761   0.01201   0.00641  -0.1071  0.9025  0.4051  -2.3181   0.0000   0.0000   0.0000  -1.1857
  -4.400  -0.0580   0.01195   0.00640  -0.1084  0.9009  0.4362  -2.1844   0.0000   0.0000   0.0000  -1.6525
  -4.300  -0.0509   0.01201   0.00649  -0.1075  0.8945  0.4528  -2.1005   0.0000   0.0000   0.0000  -1.9004
  -4.200  -0.0390   0.01207   0.00647  -0.1075  0.8896  0.4664  -1.9969   0.0000   0.0000   0.0000  -2.5576
  -4.100  -0.0250   0.01207   0.00641  -0.1080  0.8855  0.4757  -1.8860   0.0000   0.0000   0.0000  -4.1455
  -4.000  -0.0107   0.01200   0.00637  -0.1084  0.8820  0.4869  -1.7752   0.0000   0.0000   0.0000  -10.0054
  -3.900   0.0048   0.01201   0.00637  -0.1091  0.8788  0.4981  -1.6601   0.0000   0.0000   0.0000  23.4487
  -3.800   0.0214   0.01207   0.00638  -0.1100  0.8759  0.5085  -1.5420   0.0000   0.0000   0.0000   5.4572
  -3.700   0.0387   0.01212   0.00636  -0.1111  0.8730  0.5170  -1.4243   0.0000   0.0000   0.0000   3.1602
  -3.600   0.0565   0.01217   0.00632  -0.1123  0.8701  0.5227  -1.3076   0.0000   0.0000   0.0000   2.2654
  -3.500   0.0727   0.01219   0.00627  -0.1133  0.8666  0.5276  -1.1999   0.0000   0.0000   0.0000   1.8286
  -3.400   0.0802   0.01209   0.00619  -0.1125  0.8607  0.5349  -1.1280   0.0000   0.0000   0.0000   1.6703
  -3.300   0.0903   0.01208   0.00620  -0.1122  0.8552  0.5412  -1.0465   0.0000   0.0000   0.0000   1.5074
  -3.200   0.1019   0.01210   0.00622  -0.1121  0.8503  0.5467  -0.9607   0.0000   0.0000   0.0000   1.3634
  -3.100   0.1151   0.01212   0.00621  -0.1124  0.8457  0.5518  -0.8711   0.0000   0.0000   0.0000   1.2376
  -3.000   0.1292   0.01214   0.00618  -0.1128  0.8415  0.5570  -0.7868   0.0000   0.0000   0.0000   1.1329
  -2.900   0.1438   0.01218   0.00616  -0.1134  0.8374  0.5624  -0.7391   0.0000   0.0000   0.0000   1.0465
  -2.800   0.1590   0.01225   0.00617  -0.1141  0.8332  0.5683  -0.6911   0.0000   0.0000   0.0000   0.9746
  -2.700   0.1714   0.01236   0.00623  -0.1143  0.8285  0.5736  -0.6486   0.0000   0.0000   0.0000   0.9226
  -2.600   0.1802   0.01247   0.00631  -0.1137  0.8234  0.5773  -0.6129   0.0000   0.0000   0.0000   0.8862
  -2.500   0.1902   0.01254   0.00634  -0.1133  0.8181  0.5808  -0.5803   0.0000   0.0000   0.0000   0.8510
  -2.400   0.2003   0.01233   0.00613  -0.1132  0.8130  0.5881  -0.5830   0.0000   0.0000   0.0000   0.8196
  -2.300   0.2114   0.01228   0.00608  -0.1131  0.8081  0.5934  -0.5894   0.0000   0.0000   0.0000   0.7889
  -2.200   0.2233   0.01228   0.00606  -0.1131  0.8035  0.5977  -0.5963   0.0000   0.0000   0.0000   0.7600
  -2.100   0.2358   0.01230   0.00600  -0.1133  0.7992  0.6015  -0.6034   0.0000   0.0000   0.0000   0.7335
  -2.000   0.2488   0.01232   0.00598  -0.1136  0.7949  0.6049  -0.6107   0.0000   0.0000   0.0000   0.7093
  -1.800   0.2717   0.01238   0.00596  -0.1137  0.7868  0.6108  -0.6235   0.0000   0.0000   0.0000   0.6707
  -1.700   0.2815   0.01238   0.00595  -0.1135  0.7830  0.6138  -0.6290   0.0000   0.0000   0.0000   0.6550
  -1.600   0.2916   0.01239   0.00594  -0.1133  0.7790  0.6169  -0.6347   0.0000   0.0000   0.0000   0.6400
  -1.500   0.3021   0.01240   0.00593  -0.1132  0.7750  0.6200  -0.6407   0.0000   0.0000   0.0000   0.6259
  -1.400   0.3129   0.01241   0.00591  -0.1131  0.7711  0.6230  -0.6468   0.0000   0.0000   0.0000   0.6125
  -1.300   0.3241   0.01242   0.00589  -0.1131  0.7672  0.6256  -0.6531   0.0000   0.0000   0.0000   0.5999
  -1.200   0.3358   0.01244   0.00585  -0.1132  0.7634  0.6279  -0.6601   0.0000   0.0000   0.0000   0.5879
  -1.100   0.3477   0.01246   0.00582  -0.1134  0.7598  0.6299  -0.6677   0.0000   0.0000   0.0000   0.5767
  -1.000   0.3599   0.01249   0.00579  -0.1137  0.7562  0.6316  -0.6754   0.0000   0.0000   0.0000   0.5661
  -0.900   0.3723   0.01255   0.00579  -0.1140  0.7524  0.6332  -0.6832   0.0000   0.0000   0.0000   0.5562
  -0.800   0.3850   0.01257   0.00574  -0.1144  0.7481  0.6359  -0.6910   0.0000   0.0000   0.0000   0.5471
  -0.700   0.3957   0.01250   0.00566  -0.1144  0.7452  0.6398  -0.6978   0.0000   0.0000   0.0000   0.5391
  -0.600   0.4056   0.01243   0.00562  -0.1143  0.7426  0.6433  -0.7042   0.0000   0.0000   0.0000   0.5314
  -0.500   0.4155   0.01240   0.00560  -0.1141  0.7398  0.6464  -0.7107   0.0000   0.0000   0.0000   0.5241
  -0.400   0.4257   0.01239   0.00560  -0.1139  0.7368  0.6494  -0.7173   0.0000   0.0000   0.0000   0.5170
  -0.300   0.4360   0.01239   0.00562  -0.1137  0.7336  0.6525  -0.7239   0.0000   0.0000   0.0000   0.5102
  -0.200   0.4464   0.01241   0.00563  -0.1136  0.7305  0.6557  -0.7307   0.0000   0.0000   0.0000   0.5036
  -0.100   0.4569   0.01242   0.00565  -0.1135  0.7274  0.6590  -0.7375   0.0000   0.0000   0.0000   0.4974
   0.000   0.4676   0.01244   0.00567  -0.1134  0.7243  0.6624  -0.7445   0.0000   0.0000   0.0000   0.4914
   0.100   0.4785   0.01247   0.00568  -0.1133  0.7213  0.6658  -0.7515   0.0000   0.0000   0.0000   0.4857
   0.200   0.4897   0.01249   0.00569  -0.1134  0.7183  0.6692  -0.7587   0.0000   0.0000   0.0000   0.4802
   0.300   0.5011   0.01252   0.00569  -0.1134  0.7153  0.6723  -0.7661   0.0000   0.0000   0.0000   0.4749
   0.400   0.5127   0.01256   0.00569  -0.1135  0.7121  0.6753  -0.7736   0.0000   0.0000   0.0000   0.4699
   0.500   0.5245   0.01262   0.00572  -0.1137  0.7087  0.6781  -0.7811   0.0000   0.0000   0.0000   0.4651
   0.600   0.5365   0.01273   0.00578  -0.1140  0.7048  0.6807  -0.7886   0.0000   0.0000   0.0000   0.4607
   0.700   0.5483   0.01288   0.00590  -0.1142  0.7008  0.6832  -0.7958   0.0000   0.0000   0.0000   0.4564
   0.800   0.5585   0.01289   0.00592  -0.1141  0.6990  0.6854  -0.8024   0.0000   0.0000   0.0000   0.4523
   1.000   0.5790   0.01283   0.00591  -0.1139  0.6945  0.6925  -0.8156   0.0000   0.0000   0.0000   0.4445
   1.100   0.5891   0.01281   0.00592  -0.1137  0.6922  0.6969  -0.8221   0.0000   0.0000   0.0000   0.4408
   1.200   0.5993   0.01281   0.00596  -0.1136  0.6897  0.7010  -0.8286   0.0000   0.0000   0.0000   0.4372
   1.300   0.6095   0.01282   0.00600  -0.1134  0.6872  0.7049  -0.8352   0.0000   0.0000   0.0000   0.4336
   1.400   0.6198   0.01285   0.00605  -0.1133  0.6847  0.7089  -0.8418   0.0000   0.0000   0.0000   0.4302
   1.500   0.6303   0.01287   0.00610  -0.1132  0.6822  0.7130  -0.8486   0.0000   0.0000   0.0000   0.4269
   1.600   0.6409   0.01290   0.00615  -0.1131  0.6797  0.7171  -0.8556   0.0000   0.0000   0.0000   0.4237
   1.700   0.6517   0.01294   0.00619  -0.1130  0.6773  0.7214  -0.8636   0.0000   0.0000   0.0000   0.4206
   1.800   0.6626   0.01298   0.00623  -0.1130  0.6748  0.7257  -0.8716   0.0000   0.0000   0.0000   0.4176
   1.900   0.6736   0.01302   0.00627  -0.1130  0.6724  0.7300  -0.8797   0.0000   0.0000   0.0000   0.4148
   2.000   0.6847   0.01307   0.00632  -0.1131  0.6701  0.7343  -0.8879   0.0000   0.0000   0.0000   0.4120
   2.100   0.6960   0.01314   0.00637  -0.1131  0.6677  0.7381  -0.8962   0.0000   0.0000   0.0000   0.4093
   2.200   0.7068   0.01315   0.00641  -0.1131  0.6652  0.7446  -0.9042   0.0000   0.0000   0.0000   0.4067
   2.300   0.7173   0.01320   0.00648  -0.1130  0.6626  0.7510  -0.9120   0.0000   0.0000   0.0000   0.4041
   2.400   0.7280   0.01330   0.00661  -0.1129  0.6598  0.7571  -0.9198   0.0000   0.0000   0.0000   0.4016
   2.500   0.7387   0.01348   0.00683  -0.1129  0.6566  0.7632  -0.9274   0.0000   0.0000   0.0000   0.3992
   2.600   0.7490   0.01367   0.00706  -0.1128  0.6537  0.7695  -0.9346   0.0000   0.0000   0.0000   0.3970
   2.700   0.7588   0.01368   0.00712  -0.1126  0.6524  0.7758  -0.9429   0.0000   0.0000   0.0000   0.3946
   2.800   0.7688   0.01371   0.00717  -0.1124  0.6508  0.7819  -0.9526   0.0000   0.0000   0.0000   0.3924
   2.900   0.7789   0.01374   0.00723  -0.1123  0.6489  0.7876  -0.9625   0.0000   0.0000   0.0000   0.3902
   3.000   0.7877   0.01371   0.00728  -0.1118  0.6468  0.7958  -0.9717   0.0000   0.0000   0.0000   0.3879
   3.100   0.7964   0.01370   0.00735  -0.1113  0.6445  0.8039  -0.9811   0.0000   0.0000   0.0000   0.3856
   3.200   0.8054   0.01372   0.00741  -0.1108  0.6421  0.8126  -0.9931   0.0000   0.0000   0.0000   0.3834
   3.300   0.8149   0.01374   0.00749  -0.1105  0.6398  0.8219  -1.0085   0.0000   0.0000   0.0000   0.3812
   3.400   0.8248   0.01379   0.00757  -0.1103  0.6376  0.8313  -1.0263   0.0000   0.0000   0.0000   0.3793
   3.500   0.8334   0.01380   0.00764  -0.1098  0.6354  0.8419  -1.0460   0.0000   0.0000   0.0000   0.3771
   3.600   0.8417   0.01380   0.00771  -0.1091  0.6332  0.8545  -1.0657   0.0000   0.0000   0.0000   0.3750
   3.700   0.8506   0.01382   0.00777  -0.1086  0.6309  0.8688  -1.0862   0.0000   0.0000   0.0000   0.3729
   3.800   0.8591   0.01380   0.00781  -0.1079  0.6285  0.8851  -1.1064   0.0000   0.0000   0.0000   0.3708
   3.900   0.8676   0.01376   0.00787  -0.1073  0.6261  0.9070  -1.1269   0.0000   0.0000   0.0000   0.3687
   4.000   0.8795   0.01370   0.00785  -0.1073  0.6234  0.9375  -1.1519   0.0000   0.0000   0.0000   0.3670
   4.100   0.8975   0.01366   0.00783  -0.1088  0.6202  1.0000  -1.1895   0.0000   0.0000   0.0000   0.3660
   4.200   0.9105   0.01374   0.00788  -0.1093  0.6171  1.0000  -1.2207   0.0000   0.0000   0.0000   0.3648
   4.300   0.9233   0.01386   0.00797  -0.1098  0.6137  1.0000  -1.2517   0.0000   0.0000   0.0000   0.3635
   4.400   0.9357   0.01410   0.00818  -0.1102  0.6096  1.0000  -1.2823   0.0000   0.0000   0.0000   0.3623
   4.500   0.9471   0.01442   0.00850  -0.1105  0.6055  1.0000  -1.3116   0.0000   0.0000   0.0000   0.3611
   4.600   0.9574   0.01440   0.00852  -0.1104  0.6037  1.0000  -1.3474   0.0000   0.0000   0.0000   0.3597
   4.700   0.9675   0.01440   0.00854  -0.1102  0.6013  1.0000  -1.3833   0.0000   0.0000   0.0000   0.3582
   4.800   0.9775   0.01438   0.00856  -0.1100  0.5983  1.0000  -1.4194   0.0000   0.0000   0.0000   0.3567
   4.900   0.9875   0.01436   0.00856  -0.1098  0.5947  1.0000  -1.4560   0.0000   0.0000   0.0000   0.3552
   5.000   0.9978   0.01434   0.00855  -0.1096  0.5906  1.0000  -1.4933   0.0000   0.0000   0.0000   0.3538
   5.100   1.0083   0.01431   0.00853  -0.1095  0.5863  1.0000  -1.5314   0.0000   0.0000   0.0000   0.3523
   5.200   1.0190   0.01427   0.00849  -0.1093  0.5818  1.0000  -1.5732   0.0000   0.0000   0.0000   0.3509
   5.300   1.0298   0.01423   0.00844  -0.1092  0.5773  1.0000  -1.6257   0.0000   0.0000   0.0000   0.3495
   5.400   1.0406   0.01421   0.00840  -0.1090  0.5729  1.0000  -1.6789   0.0000   0.0000   0.0000   0.3482
   5.500   1.0519   0.01424   0.00840  -0.1090  0.5685  1.0000  -1.7333   0.0000   0.0000   0.0000   0.3469
   5.600   1.0634   0.01434   0.00848  -0.1090  0.5638  1.0000  -1.7886   0.0000   0.0000   0.0000   0.3457
   5.700   1.0753   0.01461   0.00872  -0.1093  0.5580  1.0000  -1.8482   0.0000   0.0000   0.0000   0.3447
   5.800   1.0847   0.01464   0.00888  -0.1090  0.5554  1.0000  -1.9057   0.0000   0.0000   0.0000   0.3434
   5.900   1.0937   0.01461   0.00892  -0.1085  0.5526  1.0000  -1.9998   0.0000   0.0000   0.0000   0.3421
   6.000   1.1027   0.01460   0.00895  -0.1081  0.5490  1.0000  -2.0964   0.0000   0.0000   0.0000   0.3407
   6.100   1.1119   0.01458   0.00898  -0.1077  0.5447  1.0000  -2.1954   0.0000   0.0000   0.0000   0.3394
   6.200   1.1214   0.01458   0.00901  -0.1073  0.5400  1.0000  -2.2971   0.0000   0.0000   0.0000   0.3382
   6.300   1.1310   0.01457   0.00904  -0.1070  0.5354  1.0000  -2.4014   0.0000   0.0000   0.0000   0.3369
   6.400   1.1407   0.01457   0.00906  -0.1067  0.5307  1.0000  -2.5078   0.0000   0.0000   0.0000   0.3357
   6.500   1.1507   0.01457   0.00905  -0.1064  0.5253  1.0000  -2.6172   0.0000   0.0000   0.0000   0.3345
   6.600   1.1607   0.01459   0.00903  -0.1061  0.5191  1.0000  -2.7288   0.0000   0.0000   0.0000   0.3333
   6.700   1.1713   0.01470   0.00908  -0.1059  0.5113  1.0000  -2.8442   0.0000   0.0000   0.0000   0.3322
   6.800   1.1800   0.01474   0.00916  -0.1054  0.5059  1.0000  -2.9509   0.0000   0.0000   0.0000   0.3310
   6.900   1.1878   0.01472   0.00923  -0.1047  0.5008  1.0000  -3.0543   0.0000   0.0000   0.0000   0.3297
   7.000   1.1960   0.01472   0.00930  -0.1041  0.4945  1.0000  -3.1610   0.0000   0.0000   0.0000   0.3285
   7.100   1.2045   0.01474   0.00934  -0.1036  0.4870  1.0000  -3.2702   0.0000   0.0000   0.0000   0.3273
   7.200   1.2127   0.01475   0.00935  -0.1029  0.4782  1.0000  -3.3802   0.0000   0.0000   0.0000   0.3260
   7.300   1.2204   0.01481   0.00933  -0.1022  0.4680  1.0000  -3.4890   0.0000   0.0000   0.0000   0.3248
   7.400   1.2278   0.01491   0.00940  -0.1014  0.4579  1.0000  -3.5958   0.0000   0.0000   0.0000   0.3235
   7.500   1.2348   0.01495   0.00951  -0.1006  0.4468  1.0000  -3.7017   0.0000   0.0000   0.0000   0.3223
   7.600   1.2409   0.01503   0.00956  -0.0996  0.4314  1.0000  -3.8034   0.0000   0.0000   0.0000   0.3209
   7.700   1.2450   0.01521   0.00961  -0.0983  0.4150  1.0000  -3.8952   0.0000   0.0000   0.0000   0.3194
   7.800   1.2513   0.01536   0.00977  -0.0974  0.3976  1.0000  -3.9989   0.0000   0.0000   0.0000   0.3182
   7.900   1.2542   0.01561   0.00989  -0.0959  0.3750  1.0000  -4.0844   0.0000   0.0000   0.0000   0.3167
   8.000   1.2568   0.01591   0.01009  -0.0944  0.3510  1.0000  -4.1678   0.0000   0.0000   0.0000   0.3152
   8.200   1.2553   0.01682   0.01065  -0.0904  0.2947  1.0000  -4.2957   0.0000   0.0000   0.0000   0.3118
   8.300   1.2525   0.01734   0.01101  -0.0881  0.2705  1.0000  -4.3470   0.0000   0.0000   0.0000   0.3100
   8.400   1.2500   0.01791   0.01142  -0.0859  0.2460  1.0000  -4.3992   0.0000   0.0000   0.0000   0.3083
   8.500   1.2482   0.01847   0.01186  -0.0839  0.2246  1.0000  -4.4554   0.0000   0.0000   0.0000   0.3066
   8.600   1.2455   0.01912   0.01235  -0.0818  0.2037  1.0000  -4.5054   0.0000   0.0000   0.0000   0.3050
   8.700   1.2448   0.01969   0.01283  -0.0801  0.1851  1.0000  -4.5672   0.0000   0.0000   0.0000   0.3035
   8.800   1.2423   0.02036   0.01337  -0.0781  0.1684  1.0000  -4.6176   0.0000   0.0000   0.0000   0.3019
   8.900   1.2421   0.02093   0.01388  -0.0766  0.1535  1.0000  -4.6816   0.0000   0.0000   0.0000   0.3005
   9.000   1.2408   0.02158   0.01444  -0.0749  0.1408  1.0000  -4.7385   0.0000   0.0000   0.0000   0.2991
   9.100   1.2383   0.02230   0.01507  -0.0731  0.1280  1.0000  -4.7855   0.0000   0.0000   0.0000   0.2976
   9.200   1.2403   0.02280   0.01556  -0.0719  0.1189  1.0000  -4.8624   0.0000   0.0000   0.0000   0.2964
   9.300   1.2391   0.02348   0.01617  -0.0704  0.1101  1.0000  -4.9188   0.0000   0.0000   0.0000   0.2951
   9.400   1.2352   0.02434   0.01695  -0.0686  0.1008  1.0000  -4.9538   0.0000   0.0000   0.0000   0.2937
   9.500   1.2375   0.02487   0.01761  -0.0675  0.0942  1.0000  -5.0309   0.0000   0.0000   0.0000   0.2926
   9.600   1.2393   0.02543   0.01818  -0.0665  0.0877  1.0000  -5.1069   0.0000   0.0000   0.0000   0.2915
   9.700   1.2382   0.02617   0.01886  -0.0652  0.0819  1.0000  -5.1629   0.0000   0.0000   0.0000   0.2904
   9.800   1.2344   0.02712   0.01976  -0.0637  0.0759  1.0000  -5.1952   0.0000   0.0000   0.0000   0.2891
   9.900   1.2311   0.02809   0.02074  -0.0622  0.0709  1.0000  -5.2248   0.0000   0.0000   0.0000   0.2879
  10.000   1.2361   0.02848   0.02119  -0.0616  0.0674  1.0000  -5.3215   0.0000   0.0000   0.0000   0.2871
  10.100   1.2385   0.02907   0.02182  -0.0609  0.0634  1.0000  -5.3987   0.0000   0.0000   0.0000   0.2862
  10.200   1.2392   0.02980   0.02255  -0.0600  0.0597  1.0000  -5.4636   0.0000   0.0000   0.0000   0.2853
  10.300   1.2380   0.03070   0.02342  -0.0589  0.0563  1.0000  -5.5123   0.0000   0.0000   0.0000   0.2844
  10.400   1.2341   0.03185   0.02456  -0.0577  0.0529  1.0000  -5.5340   0.0000   0.0000   0.0000   0.2834
  10.500   1.2275   0.03329   0.02604  -0.0562  0.0497  1.0000  -5.5242   0.0000   0.0000   0.0000   0.2822
  10.600   1.2290   0.03408   0.02687  -0.0554  0.0480  1.0000  -5.5834   0.0000   0.0000   0.0000   0.2814
  10.700   1.2330   0.03463   0.02748  -0.0550  0.0464  1.0000  -5.6668   0.0000   0.0000   0.0000   0.2807
  10.800   1.2359   0.03528   0.02819  -0.0544  0.0444  1.0000  -5.7410   0.0000   0.0000   0.0000   0.2800
  10.900   1.2384   0.03597   0.02891  -0.0539  0.0421  1.0000  -5.8131   0.0000   0.0000   0.0000   0.2793
  11.000   1.2405   0.03668   0.02964  -0.0534  0.0398  1.0000  -5.8868   0.0000   0.0000   0.0000   0.2787
  11.100   1.2421   0.03744   0.03040  -0.0530  0.0375  1.0000  -5.9593   0.0000   0.0000   0.0000   0.2781
  11.200   1.2413   0.03843   0.03138  -0.0524  0.0354  1.0000  -6.0099   0.0000   0.0000   0.0000   0.2774
  11.300   1.2378   0.03974   0.03269  -0.0515  0.0333  1.0000  -6.0253   0.0000   0.0000   0.0000   0.2767
  11.400   1.2316   0.04150   0.03451  -0.0501  0.0308  1.0000  -5.9862   0.0000   0.0000   0.0000   0.2756
  11.500   1.2335   0.04242   0.03547  -0.0495  0.0298  1.0000  -6.0321   0.0000   0.0000   0.0000   0.2749
  11.600   1.2372   0.04309   0.03619  -0.0491  0.0291  1.0000  -6.1028   0.0000   0.0000   0.0000   0.2743
  11.700   1.2402   0.04385   0.03701  -0.0487  0.0281  1.0000  -6.1619   0.0000   0.0000   0.0000   0.2737
  11.800   1.2429   0.04469   0.03791  -0.0482  0.0271  1.0000  -6.2116   0.0000   0.0000   0.0000   0.2730
  11.900   1.2452   0.04558   0.03886  -0.0477  0.0261  1.0000  -6.2553   0.0000   0.0000   0.0000   0.2724
  12.000   1.2473   0.04651   0.03985  -0.0472  0.0251  1.0000  -6.2950   0.0000   0.0000   0.0000   0.2717
  12.100   1.2493   0.04746   0.04086  -0.0467  0.0242  1.0000  -6.3329   0.0000   0.0000   0.0000   0.2711
  12.200   1.2512   0.04843   0.04188  -0.0462  0.0233  1.0000  -6.3702   0.0000   0.0000   0.0000   0.2705
  12.300   1.2529   0.04942   0.04292  -0.0457  0.0226  1.0000  -6.4071   0.0000   0.0000   0.0000   0.2699
  12.400   1.2545   0.05041   0.04396  -0.0453  0.0219  1.0000  -6.4473   0.0000   0.0000   0.0000   0.2694
  12.500   1.2558   0.05141   0.04499  -0.0450  0.0212  1.0000  -6.4988   0.0000   0.0000   0.0000   0.2689
  12.600   1.2569   0.05242   0.04603  -0.0446  0.0205  1.0000  -6.5595   0.0000   0.0000   0.0000   0.2684
  12.700   1.2577   0.05347   0.04712  -0.0444  0.0198  1.0000  -6.6192   0.0000   0.0000   0.0000   0.2680
  12.800   1.2581   0.05460   0.04828  -0.0440  0.0191  1.0000  -6.6727   0.0000   0.0000   0.0000   0.2676
  12.900   1.2582   0.05588   0.04961  -0.0436  0.0183  1.0000  -6.7109   0.0000   0.0000   0.0000   0.2670
  13.000   1.2575   0.05752   0.05134  -0.0429  0.0174  1.0000  -6.7152   0.0000   0.0000   0.0000   0.2664
  13.100   1.2547   0.05982   0.05382  -0.0420  0.0166  1.0000  -6.6649   0.0000   0.0000   0.0000   0.2656
  13.200   1.2491   0.06268   0.05691  -0.0413  0.0161  1.0000  -6.5803   0.0000   0.0000   0.0000   0.2651
  13.300   1.2479   0.06399   0.05827  -0.0411  0.0159  1.0000  -6.6169   0.0000   0.0000   0.0000   0.2648
  13.400   1.2475   0.06505   0.05940  -0.0411  0.0158  1.0000  -6.6733   0.0000   0.0000   0.0000   0.2646
  13.500   1.2465   0.06632   0.06074  -0.0411  0.0157  1.0000  -6.7140   0.0000   0.0000   0.0000   0.2644
  13.600   1.2451   0.06772   0.06223  -0.0410  0.0156  1.0000  -6.7444   0.0000   0.0000   0.0000   0.2642
  13.700   1.2436   0.06918   0.06378  -0.0410  0.0155  1.0000  -6.7713   0.0000   0.0000   0.0000   0.2641
  13.800   1.2418   0.07071   0.06539  -0.0410  0.0154  1.0000  -6.7938   0.0000   0.0000   0.0000   0.2639
  13.900   1.2396   0.07230   0.06708  -0.0411  0.0153  1.0000  -6.8117   0.0000   0.0000   0.0000   0.2639
  14.000   1.2366   0.07401   0.06888  -0.0412  0.0152  1.0000  -6.8222   0.0000   0.0000   0.0000   0.2639
  14.100   1.2330   0.07581   0.07078  -0.0415  0.0152  1.0000  -6.8271   0.0000   0.0000   0.0000   0.2640
  14.200   1.2293   0.07766   0.07271  -0.0417  0.0151  1.0000  -6.8297   0.0000   0.0000   0.0000   0.2641
  14.300   1.2255   0.07954   0.07469  -0.0420  0.0150  1.0000  -6.8296   0.0000   0.0000   0.0000   0.2643
  14.400   1.2214   0.08149   0.07673  -0.0424  0.0150  1.0000  -6.8261   0.0000   0.0000   0.0000   0.2645
  14.500   1.2168   0.08352   0.07886  -0.0429  0.0149  1.0000  -6.8176   0.0000   0.0000   0.0000   0.2648
  14.600   1.2113   0.08568   0.08111  -0.0435  0.0149  1.0000  -6.8022   0.0000   0.0000   0.0000   0.2653
  14.700   1.2059   0.08787   0.08339  -0.0442  0.0149  1.0000  -6.7854   0.0000   0.0000   0.0000   0.2658
  14.800   1.2005   0.09008   0.08569  -0.0449  0.0148  1.0000  -6.7669   0.0000   0.0000   0.0000   0.2664
  14.900   1.1949   0.09235   0.08805  -0.0457  0.0148  1.0000  -6.7458   0.0000   0.0000   0.0000   0.2671
  15.000   1.1888   0.09474   0.09053  -0.0466  0.0148  1.0000  -6.7189   0.0000   0.0000   0.0000   0.2679
  15.100   1.1820   0.09724   0.09312  -0.0477  0.0148  1.0000  -6.6863   0.0000   0.0000   0.0000   0.2688
  15.200   1.1755   0.09976   0.09573  -0.0488  0.0148  1.0000  -6.6531   0.0000   0.0000   0.0000   0.2698
  15.300   1.1691   0.10231   0.09836  -0.0500  0.0148  1.0000  -6.6178   0.0000   0.0000   0.0000   0.2709
  15.400   1.1623   0.10496   0.10109  -0.0513  0.0148  1.0000  -6.5780   0.0000   0.0000   0.0000   0.2720
  15.500   1.1546   0.10781   0.10402  -0.0528  0.0148  1.0000  -6.5298   0.0000   0.0000   0.0000   0.2735
  15.600   1.1472   0.11066   0.10695  -0.0544  0.0149  1.0000  -6.4806   0.0000   0.0000   0.0000   0.2750
  15.700   1.1400   0.11356   0.10993  -0.0560  0.0149  1.0000  -6.4287   0.0000   0.0000   0.0000   0.2765
  15.800   1.1321   0.11656   0.11301  -0.0578  0.0149  1.0000  -6.3693   0.0000   0.0000   0.0000   0.2783
  15.900   1.1237   0.11967   0.11620  -0.0598  0.0150  1.0000  -6.3019   0.0000   0.0000   0.0000   0.2803
  16.000   1.1157   0.12283   0.11943  -0.0619  0.0150  1.0000  -6.2321   0.0000   0.0000   0.0000   0.2824
  16.100   1.1073   0.12619   0.12286  -0.0641  0.0151  1.0000  -6.1535   0.0000   0.0000   0.0000   0.2847
  16.200   1.0978   0.12992   0.12666  -0.0666  0.0152  1.0000  -6.0594   0.0000   0.0000   0.0000   0.2873
  16.300   1.0886   0.13379   0.13060  -0.0692  0.0153  1.0000  -5.9583   0.0000   0.0000   0.0000   0.2901
  16.400   1.0780   0.13818   0.13505  -0.0721  0.0154  1.0000  -5.8328   0.0000   0.0000   0.0000   0.2934
  16.500   1.0667   0.14299   0.13992  -0.0753  0.0155  1.0000  -5.6843   0.0000   0.0000   0.0000   0.2970
  16.600   1.0524   0.14888   0.14587  -0.0790  0.0157  1.0000  -5.4754   0.0000   0.0000   0.0000   0.3015
  16.800   1.0316   0.15943   0.15653  -0.0853  0.0161  1.0000  -5.1236   0.0000   0.0000   0.0000   0.3091
  16.900   1.0283   0.16293   0.16005  -0.0874  0.0162  1.0000  -5.0593   0.0000   0.0000   0.0000   0.3113
  17.000   1.0250   0.16654   0.16369  -0.0895  0.0163  1.0000  -4.9891   0.0000   0.0000   0.0000   0.3135
  17.100   1.0219   0.17017   0.16734  -0.0915  0.0164  1.0000  -4.9142   0.0000   0.0000   0.0000   0.3157
  17.200   1.0190   0.17392   0.17111  -0.0935  0.0165  1.0000  -4.8315   0.0000   0.0000   0.0000   0.3179
  17.300   1.0162   0.17768   0.17487  -0.0954  0.0167  1.0000  -4.7436   0.0000   0.0000   0.0000   0.3200
  17.400   1.0135   0.18157   0.17877  -0.0973  0.0168  1.0000  -4.6447   0.0000   0.0000   0.0000   0.3221
  17.500   1.0109   0.18563   0.18283  -0.0991  0.0170  1.0000  -4.5312   0.0000   0.0000   0.0000   0.3241
  17.600   1.0079   0.19019   0.18739  -0.1010  0.0174  1.0000  -4.3786   0.0000   0.0000   0.0000   0.3263
  17.700   0.9810   0.20900   0.20609  -0.1081  0.0213  1.0000  -3.3420   0.0000   0.0000   0.0000   0.3373
  17.800   0.9782   0.21340   0.21047  -0.1099  0.0222  1.0000  -3.1993   0.0000   0.0000   0.0000   0.3393
  17.900   0.9768   0.21715   0.21421  -0.1113  0.0231  1.0000  -3.0964   0.0000   0.0000   0.0000   0.3409
  18.000   0.9758   0.22062   0.21767  -0.1126  0.0239  1.0000  -3.0111   0.0000   0.0000   0.0000   0.3423
  18.100   0.9755   0.22380   0.22084  -0.1138  0.0248  1.0000  -2.9439   0.0000   0.0000   0.0000   0.3434
  18.200   0.9756   0.22674   0.22377  -0.1148  0.0258  1.0000  -2.8921   0.0000   0.0000   0.0000   0.3443
  18.300   0.9761   0.22946   0.22649  -0.1155  0.0269  1.0000  -2.8565   0.0000   0.0000   0.0000   0.3449
  18.500   0.9803   0.23447   0.23156  -0.1145  0.0307  1.0000  -2.8804   0.0000   0.0000   0.0000   0.3430
  18.600   0.9821   0.23677   0.23387  -0.1154  0.0308  1.0000  -2.8672   0.0000   0.0000   0.0000   0.3435
  18.700   0.9801   0.24093   0.23802  -0.1166  0.0306  1.0000  -2.7924   0.0000   0.0000   0.0000   0.3450
  18.800   0.9764   0.24619   0.24323  -0.1182  0.0303  1.0000  -2.6805   0.0000   0.0000   0.0000   0.3470
  18.900   0.9775   0.24885   0.24588  -0.1191  0.0303  1.0000  -2.6580   0.0000   0.0000   0.0000   0.3476
  19.000   0.9786   0.25149   0.24853  -0.1200  0.0303  1.0000  -2.6362   0.0000   0.0000   0.0000   0.3483
  19.100   0.9797   0.25413   0.25116  -0.1209  0.0303  1.0000  -2.6150   0.0000   0.0000   0.0000   0.3489
  19.200   0.9808   0.25675   0.25378  -0.1218  0.0302  1.0000  -2.5945   0.0000   0.0000   0.0000   0.3496
  19.300   0.9819   0.25936   0.25639  -0.1227  0.0302  1.0000  -2.5747   0.0000   0.0000   0.0000   0.3502
  19.400   0.9830   0.26196   0.25900  -0.1236  0.0302  1.0000  -2.5553   0.0000   0.0000   0.0000   0.3508
  19.500   0.9841   0.26455   0.26159  -0.1245  0.0302  1.0000  -2.5365   0.0000   0.0000   0.0000   0.3514
  19.600   0.9852   0.26714   0.26417  -0.1254  0.0302  1.0000  -2.5182   0.0000   0.0000   0.0000   0.3521
  19.700   0.9863   0.26971   0.26675  -0.1262  0.0302  1.0000  -2.5002   0.0000   0.0000   0.0000   0.3526
  19.800   0.9874   0.27227   0.26931  -0.1271  0.0302  1.0000  -2.4827   0.0000   0.0000   0.0000   0.3532
  19.900   0.9884   0.27482   0.27186  -0.1279  0.0302  1.0000  -2.4655   0.0000   0.0000   0.0000   0.3538
  20.000   0.9895   0.27737   0.27441  -0.1288  0.0301  1.0000  -2.4486   0.0000   0.0000   0.0000   0.3544
  20.100   0.9905   0.27990   0.27694  -0.1296  0.0301  1.0000  -2.4320   0.0000   0.0000   0.0000   0.3550
  20.200   0.9914   0.28242   0.27946  -0.1305  0.0301  1.0000  -2.4156   0.0000   0.0000   0.0000   0.3555
  20.300   0.9924   0.28493   0.28197  -0.1313  0.0301  1.0000  -2.3995   0.0000   0.0000   0.0000   0.3561
  20.400   0.9933   0.28742   0.28447  -0.1321  0.0301  1.0000  -2.3835   0.0000   0.0000   0.0000   0.3567
  20.500   0.9941   0.28990   0.28695  -0.1329  0.0300  1.0000  -2.3677   0.0000   0.0000   0.0000   0.3572
  20.600   0.9949   0.29236   0.28942  -0.1338  0.0300  1.0000  -2.3520   0.0000   0.0000   0.0000   0.3578
  20.700   0.9957   0.29481   0.29186  -0.1346  0.0300  1.0000  -2.3364   0.0000   0.0000   0.0000   0.3584
  20.800   0.9964   0.29723   0.29429  -0.1354  0.0299  1.0000  -2.3209   0.0000   0.0000   0.0000   0.3589
  20.900   0.9971   0.29962   0.29669  -0.1362  0.0299  1.0000  -2.3054   0.0000   0.0000   0.0000   0.3595
  21.000   0.9977   0.30199   0.29906  -0.1370  0.0299  1.0000  -2.2900   0.0000   0.0000   0.0000   0.3601
  21.100   0.9982   0.30432   0.30139  -0.1378  0.0298  1.0000  -2.2746   0.0000   0.0000   0.0000   0.3607
  21.200   0.9987   0.30661   0.30369  -0.1386  0.0297  1.0000  -2.2591   0.0000   0.0000   0.0000   0.3612
  21.300   0.9991   0.30884   0.30592  -0.1394  0.0296  1.0000  -2.2434   0.0000   0.0000   0.0000   0.3618
  21.400   0.9994   0.31101   0.30809  -0.1402  0.0295  1.0000  -2.2277   0.0000   0.0000   0.0000   0.3625
  21.500   0.9996   0.31308   0.31016  -0.1410  0.0294  1.0000  -2.2114   0.0000   0.0000   0.0000   0.3631
  21.600   0.9993   0.31508   0.31217  -0.1420  0.0292  1.0000  -2.1879   0.0000   0.0000   0.0000   0.3640
  21.700   0.9982   0.31704   0.31413  -0.1432  0.0289  1.0000  -2.1538   0.0000   0.0000   0.0000   0.3652
  21.800   0.9971   0.31902   0.31611  -0.1445  0.0284  1.0000  -2.1151   0.0000   0.0000   0.0000   0.3665
  21.900   0.9963   0.32116   0.31826  -0.1457  0.0278  1.0000  -2.0771   0.0000   0.0000   0.0000   0.3677
  22.000   0.9956   0.32344   0.32054  -0.1467  0.0271  1.0000  -2.0455   0.0000   0.0000   0.0000   0.3687
  22.100   0.9946   0.32573   0.32284  -0.1474  0.0265  1.0000  -2.0196   0.0000   0.0000   0.0000   0.3695
  22.200   0.9933   0.32800   0.32511  -0.1480  0.0259  1.0000  -1.9970   0.0000   0.0000   0.0000   0.3702
  22.300   0.9915   0.33018   0.32731  -0.1486  0.0254  1.0000  -1.9757   0.0000   0.0000   0.0000   0.3709
  22.400   0.9889   0.33226   0.32941  -0.1490  0.0249  1.0000  -1.9543   0.0000   0.0000   0.0000   0.3715
  22.500   0.9851   0.33415   0.33131  -0.1492  0.0245  1.0000  -1.9306   0.0000   0.0000   0.0000   0.3723
  23.700   0.8702   0.32292   0.32046  -0.1421  0.0214  1.0000  -1.5005   0.0000   0.0000   0.0000   0.3852
  23.800   0.8685   0.32333   0.32088  -0.1423  0.0211  1.0000  -1.4902   0.0000   0.0000   0.0000   0.3857
  23.900   0.8668   0.32375   0.32131  -0.1425  0.0208  1.0000  -1.4810   0.0000   0.0000   0.0000   0.3862
  24.000   0.8653   0.32416   0.32174  -0.1427  0.0205  1.0000  -1.4731   0.0000   0.0000   0.0000   0.3866
  24.100   0.8639   0.32458   0.32217  -0.1429  0.0202  1.0000  -1.4665   0.0000   0.0000   0.0000   0.3870
  24.200   0.8626   0.32499   0.32259  -0.1432  0.0199  1.0000  -1.4613   0.0000   0.0000   0.0000   0.3874
  24.300   0.8614   0.32539   0.32301  -0.1434  0.0196  1.0000  -1.4576   0.0000   0.0000   0.0000   0.3878
  24.400   0.8603   0.32579   0.32341  -0.1436  0.0194  1.0000  -1.4556   0.0000   0.0000   0.0000   0.3881
  24.500   0.8593   0.32616   0.32380  -0.1438  0.0191  1.0000  -1.4556   0.0000   0.0000   0.0000   0.3884
  24.600   0.8584   0.32652   0.32417  -0.1440  0.0188  1.0000  -1.4576   0.0000   0.0000   0.0000   0.3887
  24.700   0.8575   0.32686   0.32451  -0.1442  0.0185  1.0000  -1.4619   0.0000   0.0000   0.0000   0.3889
  24.800   0.8568   0.32717   0.32483  -0.1443  0.0183  1.0000  -1.4687   0.0000   0.0000   0.0000   0.3890
  24.900   0.8562   0.32744   0.32512  -0.1444  0.0180  1.0000  -1.4786   0.0000   0.0000   0.0000   0.3891
  25.000   0.8557   0.32770   0.32539  -0.1445  0.0178  1.0000  -1.4915   0.0000   0.0000   0.0000   0.3892
  25.100   0.8553   0.32794   0.32564  -0.1445  0.0175  1.0000  -1.5077   0.0000   0.0000   0.0000   0.3891
  25.200   0.8551   0.32819   0.32590  -0.1444  0.0173  1.0000  -1.5272   0.0000   0.0000   0.0000   0.3889
  25.300   0.8550   0.32852   0.32625  -0.1443  0.0170  1.0000  -1.5500   0.0000   0.0000   0.0000   0.3885
  25.400   0.8553   0.32920   0.32695  -0.1438  0.0167  1.0000  -1.5750   0.0000   0.0000   0.0000   0.3878
  25.500   0.8478   0.33239   0.33011  -0.1433  0.0160  1.0000  -1.4479   0.0000   0.0000   0.0000   0.3890
  25.600   0.8470   0.33302   0.33074  -0.1437  0.0160  1.0000  -1.4327   0.0000   0.0000   0.0000   0.3894
  25.700   0.8462   0.33365   0.33138  -0.1441  0.0160  1.0000  -1.4178   0.0000   0.0000   0.0000   0.3899
  25.800   0.8455   0.33429   0.33203  -0.1444  0.0160  1.0000  -1.4032   0.0000   0.0000   0.0000   0.3903
  25.900   0.8448   0.33493   0.33267  -0.1448  0.0160  1.0000  -1.3890   0.0000   0.0000   0.0000   0.3908
  26.000   0.8441   0.33557   0.33333  -0.1452  0.0160  1.0000  -1.3751   0.0000   0.0000   0.0000   0.3912
  26.100   0.8434   0.33621   0.33404  -0.1456  0.0160  1.0000  -1.3614   0.0000   0.0000   0.0000   0.3917
  26.200   0.8428   0.33686   0.33469  -0.1460  0.0160  1.0000  -1.3480   0.0000   0.0000   0.0000   0.3921
  26.300   0.8422   0.33750   0.33534  -0.1463  0.0160  1.0000  -1.3348   0.0000   0.0000   0.0000   0.3925
  26.400   0.8416   0.33814   0.33599  -0.1467  0.0160  1.0000  -1.3219   0.0000   0.0000   0.0000   0.3930
  26.500   0.8411   0.33878   0.33664  -0.1471  0.0159  1.0000  -1.3093   0.0000   0.0000   0.0000   0.3934
  26.600   0.8406   0.33943   0.33729  -0.1475  0.0159  1.0000  -1.2969   0.0000   0.0000   0.0000   0.3938
  26.700   0.8400   0.34006   0.33793  -0.1479  0.0159  1.0000  -1.2845   0.0000   0.0000   0.0000   0.3942
  26.800   0.8395   0.34069   0.33857  -0.1483  0.0159  1.0000  -1.2723   0.0000   0.0000   0.0000   0.3947
  26.900   0.8390   0.34133   0.33921  -0.1487  0.0159  1.0000  -1.2603   0.0000   0.0000   0.0000   0.3951
  27.000   0.8386   0.34196   0.33985  -0.1491  0.0159  1.0000  -1.2485   0.0000   0.0000   0.0000   0.3955
  27.100   0.8381   0.34259   0.34049  -0.1495  0.0159  1.0000  -1.2369   0.0000   0.0000   0.0000   0.3959
  27.200   0.8377   0.34323   0.34113  -0.1499  0.0159  1.0000  -1.2255   0.0000   0.0000   0.0000   0.3963
  27.300   0.8372   0.34386   0.34177  -0.1503  0.0159  1.0000  -1.2160   0.0000   0.0000   0.0000   0.3967
  27.400   0.8368   0.34449   0.34241  -0.1507  0.0159  1.0000  -1.2113   0.0000   0.0000   0.0000   0.3971
  27.500   0.8365   0.34513   0.34305  -0.1511  0.0158  1.0000  -1.2067   0.0000   0.0000   0.0000   0.3975
  27.600   0.8361   0.34576   0.34369  -0.1515  0.0158  1.0000  -1.2021   0.0000   0.0000   0.0000   0.3979
  27.700   0.8357   0.34639   0.34433  -0.1519  0.0158  1.0000  -1.1974   0.0000   0.0000   0.0000   0.3983
  27.800   0.8353   0.34701   0.34496  -0.1523  0.0158  1.0000  -1.1924   0.0000   0.0000   0.0000   0.3987
  27.900   0.8350   0.34763   0.34559  -0.1528  0.0158  1.0000  -1.1875   0.0000   0.0000   0.0000   0.3992
  28.000   0.8346   0.34826   0.34622  -0.1532  0.0158  1.0000  -1.1827   0.0000   0.0000   0.0000   0.3996
  28.100   0.8343   0.34888   0.34685  -0.1536  0.0158  1.0000  -1.1778   0.0000   0.0000   0.0000   0.4000
  28.200   0.8339   0.34950   0.34748  -0.1540  0.0157  1.0000  -1.1730   0.0000   0.0000   0.0000   0.4004
  28.300   0.8336   0.35012   0.34811  -0.1545  0.0157  1.0000  -1.1683   0.0000   0.0000   0.0000   0.4008
  28.400   0.8332   0.35073   0.34872  -0.1549  0.0157  1.0000  -1.1621   0.0000   0.0000   0.0000   0.4012
  28.500   0.8328   0.35134   0.34934  -0.1554  0.0157  1.0000  -1.1558   0.0000   0.0000   0.0000   0.4017
  28.600   0.8325   0.35195   0.34995  -0.1558  0.0157  1.0000  -1.1496   0.0000   0.0000   0.0000   0.4021
  28.700   0.8321   0.35257   0.35057  -0.1563  0.0156  1.0000  -1.1433   0.0000   0.0000   0.0000   0.4025
  28.800   0.8318   0.35319   0.35120  -0.1568  0.0156  1.0000  -1.1370   0.0000   0.0000   0.0000   0.4030
  28.900   0.8315   0.35381   0.35183  -0.1572  0.0156  1.0000  -1.1308   0.0000   0.0000   0.0000   0.4034
  29.000   0.8312   0.35444   0.35247  -0.1577  0.0156  1.0000  -1.1245   0.0000   0.0000   0.0000   0.4038


