xflr5 v6.61

 Calculated polar for: EPPLER 580 AIRFOIL

 1 1 Reynolds number fixed          Mach number fixed         

 xtrf =   1.000 (top)        1.000 (bottom)
 Mach =   0.000     Re =     0.450 e 6     Ncrit =   9.000

  alpha     CL        CD       CDp       Cm    Top Xtr Bot Xtr   Cpmin    Chinge    XCp    
 ------- -------- --------- --------- -------- ------- ------- -------- --------- ---------
 -10.000  -0.2467   0.08675   0.08436  -0.0831  0.9824  0.0313  -2.0368   0.0000   0.0000   0.0000  -0.1170
  -9.900  -0.2419   0.08537   0.08297  -0.0843  0.9811  0.0316  -2.0170   0.0000   0.0000   0.0000  -0.1288
  -9.800  -0.2371   0.08389   0.08150  -0.0857  0.9798  0.0319  -2.0004   0.0000   0.0000   0.0000  -0.1420
  -9.700  -0.2324   0.08231   0.07992  -0.0873  0.9787  0.0323  -1.9877   0.0000   0.0000   0.0000  -0.1564
  -9.600  -0.2278   0.08060   0.07821  -0.0890  0.9776  0.0326  -1.9797   0.0000   0.0000   0.0000  -0.1720
  -9.500  -0.2235   0.07874   0.07635  -0.0910  0.9766  0.0330  -1.9774   0.0000   0.0000   0.0000  -0.1887
  -9.400  -0.2196   0.07664   0.07425  -0.0934  0.9757  0.0333  -1.9827   0.0000   0.0000   0.0000  -0.2069
  -9.300  -0.2162   0.07408   0.07169  -0.0963  0.9747  0.0337  -2.0014   0.0000   0.0000   0.0000  -0.2273
  -9.200  -0.2154   0.07025   0.06785  -0.1008  0.9737  0.0340  -2.0598   0.0000   0.0000   0.0000  -0.2500
  -9.100  -0.2158   0.06643   0.06400  -0.1057  0.9727  0.0342  -2.1211   0.0000   0.0000   0.0000  -0.2714
  -9.000  -0.2165   0.06295   0.06048  -0.1106  0.9717  0.0345  -2.1739   0.0000   0.0000   0.0000  -0.2920
  -8.900  -0.2289   0.06100   0.05851  -0.1105  0.9638  0.0344  -2.2259   0.0000   0.0000   0.0000  -0.2618
  -8.800  -0.2316   0.05846   0.05594  -0.1135  0.9604  0.0346  -2.2609   0.0000   0.0000   0.0000  -0.2686
  -8.700  -0.2325   0.05604   0.05346  -0.1169  0.9577  0.0348  -2.2871   0.0000   0.0000   0.0000  -0.2804
  -8.600  -0.2325   0.05372   0.05108  -0.1204  0.9554  0.0351  -2.3076   0.0000   0.0000   0.0000  -0.2952
  -8.500  -0.2309   0.05159   0.04889  -0.1239  0.9535  0.0354  -2.3187   0.0000   0.0000   0.0000  -0.3137
  -8.400  -0.2427   0.05064   0.04792  -0.1226  0.9446  0.0354  -2.3447   0.0000   0.0000   0.0000  -0.2803
  -8.300  -0.2423   0.04892   0.04614  -0.1247  0.9396  0.0357  -2.3482   0.0000   0.0000   0.0000  -0.2893
  -8.200  -0.2380   0.04726   0.04441  -0.1272  0.9366  0.0362  -2.3404   0.0000   0.0000   0.0000  -0.3089
  -8.100  -0.2320   0.04574   0.04281  -0.1292  0.9345  0.0369  -2.3250   0.0000   0.0000   0.0000  -0.3318
  -8.000  -0.2247   0.04428   0.04128  -0.1311  0.9329  0.0377  -2.3057   0.0000   0.0000   0.0000  -0.3589
  -7.900  -0.2161   0.04288   0.03980  -0.1331  0.9315  0.0386  -2.2832   0.0000   0.0000   0.0000  -0.3916
  -7.800  -0.2060   0.04154   0.03839  -0.1350  0.9303  0.0397  -2.2574   0.0000   0.0000   0.0000  -0.4320
  -7.700  -0.1942   0.04031   0.03708  -0.1370  0.9293  0.0410  -2.2272   0.0000   0.0000   0.0000  -0.4835
  -7.600  -0.1962   0.03977   0.03649  -0.1354  0.9228  0.0416  -2.2186   0.0000   0.0000   0.0000  -0.4673
  -7.500  -0.1916   0.03907   0.03573  -0.1352  0.9181  0.0426  -2.1976   0.0000   0.0000   0.0000  -0.4831
  -7.400  -0.1826   0.03825   0.03483  -0.1359  0.9149  0.0436  -2.1703   0.0000   0.0000   0.0000  -0.5223
  -7.300  -0.1708   0.03765   0.03416  -0.1368  0.9125  0.0448  -2.1319   0.0000   0.0000   0.0000  -0.5806
  -7.200  -0.1553   0.03757   0.03402  -0.1379  0.9106  0.0461  -2.0741   0.0000   0.0000   0.0000  -0.6695
  -7.100  -0.1366   0.03848   0.03489  -0.1388  0.9090  0.0474  -1.9888   0.0000   0.0000   0.0000  -0.8011
  -7.000  -0.1204   0.03861   0.03489  -0.1401  0.9071  0.0479  -1.9305   0.0000   0.0000   0.0000  -0.9522
  -6.900  -0.1063   0.03785   0.03404  -0.1417  0.9051  0.0481  -1.8927   0.0000   0.0000   0.0000  -1.1272
  -6.800  -0.0923   0.03683   0.03291  -0.1434  0.9030  0.0482  -1.8610   0.0000   0.0000   0.0000  -1.3539
  -6.700  -0.1044   0.02891   0.02454  -0.1458  0.8970  0.0515  -2.0426   0.0000   0.0000   0.0000  -1.1904
  -6.600  -0.1005   0.02772   0.02331  -0.1453  0.8916  0.0527  -2.0201   0.0000   0.0000   0.0000  -1.2401
  -6.500  -0.0913   0.02681   0.02237  -0.1457  0.8875  0.0539  -1.9783   0.0000   0.0000   0.0000  -1.3931
  -6.400  -0.0799   0.02604   0.02157  -0.1464  0.8839  0.0552  -1.9295   0.0000   0.0000   0.0000  -1.6369
  -6.300  -0.0671   0.02535   0.02087  -0.1471  0.8808  0.0565  -1.8760   0.0000   0.0000   0.0000  -2.0066
  -6.200  -0.0537   0.02470   0.02020  -0.1480  0.8777  0.0580  -1.8231   0.0000   0.0000   0.0000  -2.5841
  -6.100  -0.0399   0.02408   0.01953  -0.1490  0.8746  0.0596  -1.7718   0.0000   0.0000   0.0000  -3.5880
  -5.800  -0.0036   0.02263   0.01792  -0.1504  0.8639  0.0655  -1.6401   0.0000   0.0000   0.0000  -42.6645
  -5.700   0.0053   0.02235   0.01760  -0.1501  0.8596  0.0674  -1.6036   0.0000   0.0000   0.0000  29.3515
  -5.600   0.0161   0.02220   0.01740  -0.1500  0.8553  0.0694  -1.5621   0.0000   0.0000   0.0000   9.8143
  -5.000   0.0880   0.01480   0.00888  -0.1483  0.8313  0.0318  -1.7617   0.0000   0.0000   0.0000   1.9723
  -4.900   0.0975   0.01473   0.00879  -0.1478  0.8282  0.0303  -1.7213   0.0000   0.0000   0.0000   1.7983
  -4.800   0.1077   0.01474   0.00879  -0.1475  0.8247  0.0294  -1.6700   0.0000   0.0000   0.0000   1.6489
  -4.700   0.1186   0.01478   0.00883  -0.1474  0.8207  0.0286  -1.6138   0.0000   0.0000   0.0000   1.5189
  -4.600   0.1300   0.01486   0.00890  -0.1474  0.8166  0.0280  -1.5545   0.0000   0.0000   0.0000   1.4068
  -4.500   0.1374   0.01363   0.00759  -0.1467  0.8124  0.0265  -1.5940   0.0000   0.0000   0.0000   1.3390
  -4.400   0.1477   0.01312   0.00702  -0.1467  0.8080  0.0259  -1.5764   0.0000   0.0000   0.0000   1.2619
  -4.300   0.1589   0.01272   0.00653  -0.1468  0.8035  0.0254  -1.5508   0.0000   0.0000   0.0000   1.1912
  -4.200   0.1707   0.01237   0.00611  -0.1471  0.7987  0.0250  -1.5202   0.0000   0.0000   0.0000   1.1274
  -4.100   0.1834   0.01208   0.00572  -0.1476  0.7933  0.0246  -1.4851   0.0000   0.0000   0.0000   1.0687
  -4.000   0.1944   0.01182   0.00541  -0.1477  0.7899  0.0242  -1.4502   0.0000   0.0000   0.0000   1.0226
  -3.900   0.2050   0.01159   0.00513  -0.1477  0.7868  0.0239  -1.4139   0.0000   0.0000   0.0000   0.9824
  -3.800   0.2159   0.01138   0.00487  -0.1478  0.7832  0.0237  -1.3749   0.0000   0.0000   0.0000   0.9452
  -3.700   0.2273   0.01121   0.00463  -0.1479  0.7793  0.0235  -1.3333   0.0000   0.0000   0.0000   0.9106
  -3.600   0.2389   0.01106   0.00442  -0.1481  0.7754  0.0233  -1.2894   0.0000   0.0000   0.0000   0.8789
  -3.500   0.2506   0.01094   0.00423  -0.1483  0.7714  0.0232  -1.2423   0.0000   0.0000   0.0000   0.8499
  -3.400   0.2624   0.01086   0.00408  -0.1484  0.7675  0.0229  -1.1854   0.0000   0.0000   0.0000   0.8234
  -3.300   0.2741   0.01081   0.00388  -0.1486  0.7634  0.0225  -1.1221   0.0000   0.0000   0.0000   0.7991
  -3.200   0.2859   0.01074   0.00374  -0.1488  0.7591  0.0224  -1.0772   0.0000   0.0000   0.0000   0.7766
  -3.100   0.2981   0.01070   0.00362  -0.1490  0.7543  0.0224  -1.0312   0.0000   0.0000   0.0000   0.7556
  -3.000   0.3108   0.01067   0.00353  -0.1494  0.7494  0.0225  -0.9832   0.0000   0.0000   0.0000   0.7359
  -2.900   0.3217   0.01061   0.00344  -0.1493  0.7475  0.0227  -0.9382   0.0000   0.0000   0.0000   0.7190
  -2.800   0.3327   0.01056   0.00335  -0.1493  0.7451  0.0230  -0.8927   0.0000   0.0000   0.0000   0.7033
  -2.700   0.3437   0.01051   0.00328  -0.1493  0.7424  0.0235  -0.8471   0.0000   0.0000   0.0000   0.6884
  -2.600   0.3549   0.01047   0.00320  -0.1493  0.7392  0.0243  -0.8017   0.0000   0.0000   0.0000   0.6745
  -2.500   0.3662   0.01043   0.00314  -0.1494  0.7356  0.0255  -0.7569   0.0000   0.0000   0.0000   0.6613
  -2.400   0.3775   0.01038   0.00307  -0.1495  0.7318  0.0275  -0.7467   0.0000   0.0000   0.0000   0.6489
  -2.300   0.3980   0.00843   0.00272  -0.1540  0.7280  0.4797  -0.7585   0.0000   0.0000   0.0000   0.6396
  -2.200   0.4092   0.00849   0.00278  -0.1540  0.7240  0.4991  -0.7662   0.0000   0.0000   0.0000   0.6286
  -2.100   0.4203   0.00855   0.00281  -0.1539  0.7198  0.5062  -0.7738   0.0000   0.0000   0.0000   0.6183
  -2.000   0.4313   0.00860   0.00288  -0.1539  0.7153  0.5164  -0.7814   0.0000   0.0000   0.0000   0.6085
  -1.900   0.4426   0.00869   0.00296  -0.1539  0.7105  0.5235  -0.7891   0.0000   0.0000   0.0000   0.5992
  -1.800   0.4547   0.00879   0.00305  -0.1541  0.7054  0.5291  -0.7971   0.0000   0.0000   0.0000   0.5901
  -1.700   0.4655   0.00882   0.00310  -0.1540  0.7038  0.5336  -0.8045   0.0000   0.0000   0.0000   0.5818
  -1.600   0.4764   0.00886   0.00315  -0.1539  0.7020  0.5373  -0.8120   0.0000   0.0000   0.0000   0.5739
  -1.500   0.4873   0.00889   0.00319  -0.1539  0.6999  0.5404  -0.8202   0.0000   0.0000   0.0000   0.5663
  -1.400   0.4983   0.00893   0.00322  -0.1538  0.6976  0.5431  -0.8287   0.0000   0.0000   0.0000   0.5591
  -1.300   0.5093   0.00897   0.00326  -0.1538  0.6951  0.5455  -0.8372   0.0000   0.0000   0.0000   0.5521
  -1.200   0.5204   0.00901   0.00329  -0.1538  0.6923  0.5475  -0.8458   0.0000   0.0000   0.0000   0.5455
  -1.100   0.5315   0.00906   0.00332  -0.1538  0.6892  0.5492  -0.8544   0.0000   0.0000   0.0000   0.5391
  -1.000   0.5425   0.00911   0.00335  -0.1537  0.6860  0.5507  -0.8630   0.0000   0.0000   0.0000   0.5330
  -0.900   0.5535   0.00916   0.00338  -0.1537  0.6826  0.5519  -0.8716   0.0000   0.0000   0.0000   0.5271
  -0.800   0.5644   0.00924   0.00342  -0.1536  0.6790  0.5532  -0.8802   0.0000   0.0000   0.0000   0.5214
  -0.700   0.5748   0.00940   0.00356  -0.1534  0.6752  0.5550  -0.8885   0.0000   0.0000   0.0000   0.5159
  -0.600   0.5854   0.00938   0.00354  -0.1533  0.6711  0.5644  -0.8969   0.0000   0.0000   0.0000   0.5108
  -0.500   0.5954   0.00950   0.00370  -0.1529  0.6665  0.5740  -0.9050   0.0000   0.0000   0.0000   0.5056
  -0.400   0.6054   0.00976   0.00399  -0.1525  0.6614  0.5816  -0.9132   0.0000   0.0000   0.0000   0.5004
  -0.300   0.6151   0.01000   0.00427  -0.1519  0.6584  0.5885  -0.9212   0.0000   0.0000   0.0000   0.4954
  -0.200   0.6245   0.01017   0.00450  -0.1513  0.6572  0.5940  -0.9290   0.0000   0.0000   0.0000   0.4906
  -0.100   0.6346   0.01028   0.00463  -0.1510  0.6557  0.5973  -0.9372   0.0000   0.0000   0.0000   0.4861
   0.000   0.6457   0.01029   0.00464  -0.1510  0.6540  0.5982  -0.9460   0.0000   0.0000   0.0000   0.4819
   0.100   0.6567   0.01029   0.00468  -0.1511  0.6521  0.5990  -0.9557   0.0000   0.0000   0.0000   0.4779
   0.200   0.6678   0.01030   0.00468  -0.1511  0.6500  0.5997  -0.9655   0.0000   0.0000   0.0000   0.4740
   0.300   0.6790   0.01030   0.00468  -0.1512  0.6477  0.6003  -0.9753   0.0000   0.0000   0.0000   0.4703
   0.400   0.6901   0.01031   0.00467  -0.1513  0.6453  0.6010  -0.9852   0.0000   0.0000   0.0000   0.4666
   0.500   0.7013   0.01032   0.00467  -0.1513  0.6426  0.6016  -0.9950   0.0000   0.0000   0.0000   0.4631
   0.600   0.7123   0.01034   0.00467  -0.1514  0.6397  0.6022  -1.0049   0.0000   0.0000   0.0000   0.4597
   0.700   0.7233   0.01036   0.00466  -0.1514  0.6367  0.6027  -1.0147   0.0000   0.0000   0.0000   0.4563
   0.800   0.7342   0.01038   0.00466  -0.1514  0.6335  0.6033  -1.0245   0.0000   0.0000   0.0000   0.4531
   0.900   0.7450   0.01041   0.00466  -0.1514  0.6301  0.6038  -1.0342   0.0000   0.0000   0.0000   0.4500
   1.000   0.7558   0.01045   0.00466  -0.1513  0.6264  0.6043  -1.0439   0.0000   0.0000   0.0000   0.4469
   1.100   0.7666   0.01051   0.00468  -0.1513  0.6223  0.6047  -1.0536   0.0000   0.0000   0.0000   0.4440
   1.200   0.7781   0.01058   0.00471  -0.1515  0.6179  0.6052  -1.0637   0.0000   0.0000   0.0000   0.4411
   1.300   0.7902   0.01066   0.00476  -0.1518  0.6134  0.6056  -1.0740   0.0000   0.0000   0.0000   0.4384
   1.400   0.8017   0.01070   0.00479  -0.1519  0.6111  0.6060  -1.0842   0.0000   0.0000   0.0000   0.4357
   1.500   0.8126   0.01070   0.00480  -0.1520  0.6101  0.6064  -1.0940   0.0000   0.0000   0.0000   0.4330
   1.600   0.8235   0.01071   0.00482  -0.1520  0.6089  0.6068  -1.1048   0.0000   0.0000   0.0000   0.4305
   1.700   0.8343   0.01073   0.00485  -0.1519  0.6075  0.6072  -1.1159   0.0000   0.0000   0.0000   0.4279
   1.800   0.8451   0.01075   0.00488  -0.1519  0.6059  0.6076  -1.1270   0.0000   0.0000   0.0000   0.4254
   1.900   0.8560   0.01078   0.00491  -0.1519  0.6041  0.6080  -1.1381   0.0000   0.0000   0.0000   0.4230
   2.000   0.8667   0.01080   0.00494  -0.1519  0.6021  0.6084  -1.1493   0.0000   0.0000   0.0000   0.4207
   2.100   0.8775   0.01083   0.00498  -0.1518  0.5998  0.6087  -1.1604   0.0000   0.0000   0.0000   0.4184
   2.200   0.8883   0.01085   0.00500  -0.1518  0.5974  0.6090  -1.1716   0.0000   0.0000   0.0000   0.4161
   2.300   0.9000   0.01076   0.00488  -0.1521  0.5946  0.6114  -1.1833   0.0000   0.0000   0.0000   0.4141
   2.400   0.9113   0.01071   0.00481  -0.1523  0.5916  0.6132  -1.1948   0.0000   0.0000   0.0000   0.4121
   2.500   0.9223   0.01068   0.00476  -0.1524  0.5885  0.6150  -1.2062   0.0000   0.0000   0.0000   0.4101
   2.600   0.9331   0.01068   0.00474  -0.1524  0.5853  0.6166  -1.2175   0.0000   0.0000   0.0000   0.4081
   2.700   0.9438   0.01069   0.00473  -0.1524  0.5821  0.6182  -1.2286   0.0000   0.0000   0.0000   0.4061
   2.800   0.9543   0.01072   0.00474  -0.1524  0.5788  0.6197  -1.2408   0.0000   0.0000   0.0000   0.4042
   2.900   0.9650   0.01077   0.00476  -0.1524  0.5752  0.6212  -1.2534   0.0000   0.0000   0.0000   0.4023
   3.000   0.9760   0.01083   0.00480  -0.1525  0.5711  0.6226  -1.2663   0.0000   0.0000   0.0000   0.4005
   3.100   0.9877   0.01092   0.00487  -0.1527  0.5667  0.6239  -1.2796   0.0000   0.0000   0.0000   0.3987
   3.200   0.9994   0.01099   0.00494  -0.1529  0.5634  0.6252  -1.2929   0.0000   0.0000   0.0000   0.3970
   3.300   1.0099   0.01098   0.00496  -0.1529  0.5624  0.6265  -1.3056   0.0000   0.0000   0.0000   0.3952
   3.400   1.0203   0.01099   0.00498  -0.1528  0.5611  0.6277  -1.3183   0.0000   0.0000   0.0000   0.3935
   3.500   1.0307   0.01099   0.00501  -0.1527  0.5595  0.6289  -1.3309   0.0000   0.0000   0.0000   0.3918
   3.600   1.0411   0.01099   0.00511  -0.1526  0.5576  0.6301  -1.3437   0.0000   0.0000   0.0000   0.3901
   3.700   1.0515   0.01101   0.00514  -0.1525  0.5555  0.6313  -1.3564   0.0000   0.0000   0.0000   0.3884
   3.800   1.0619   0.01102   0.00517  -0.1524  0.5531  0.6324  -1.3707   0.0000   0.0000   0.0000   0.3868
   3.900   1.0723   0.01105   0.00521  -0.1523  0.5505  0.6336  -1.3852   0.0000   0.0000   0.0000   0.3852
   4.000   1.0828   0.01108   0.00524  -0.1523  0.5479  0.6348  -1.3998   0.0000   0.0000   0.0000   0.3836
   4.100   1.0932   0.01111   0.00528  -0.1522  0.5452  0.6359  -1.4144   0.0000   0.0000   0.0000   0.3821
   4.200   1.1036   0.01116   0.00532  -0.1521  0.5424  0.6371  -1.4290   0.0000   0.0000   0.0000   0.3806
   4.300   1.1138   0.01120   0.00536  -0.1520  0.5394  0.6382  -1.4436   0.0000   0.0000   0.0000   0.3791
   4.400   1.1237   0.01126   0.00540  -0.1518  0.5360  0.6393  -1.4600   0.0000   0.0000   0.0000   0.3776
   4.500   1.1330   0.01133   0.00544  -0.1515  0.5315  0.6405  -1.4760   0.0000   0.0000   0.0000   0.3761
   4.600   1.1417   0.01143   0.00549  -0.1511  0.5250  0.6416  -1.4914   0.0000   0.0000   0.0000   0.3746
   4.700   1.1519   0.01158   0.00558  -0.1510  0.5160  0.6427  -1.5081   0.0000   0.0000   0.0000   0.3732
   4.800   1.1609   0.01156   0.00559  -0.1506  0.5133  0.6438  -1.5241   0.0000   0.0000   0.0000   0.3717
   4.900   1.1700   0.01154   0.00560  -0.1502  0.5094  0.6449  -1.5403   0.0000   0.0000   0.0000   0.3702
   5.000   1.1791   0.01155   0.00561  -0.1499  0.5035  0.6460  -1.5573   0.0000   0.0000   0.0000   0.3688
   5.100   1.1876   0.01160   0.00562  -0.1494  0.4960  0.6471  -1.5754   0.0000   0.0000   0.0000   0.3674
   5.200   1.1951   0.01169   0.00565  -0.1487  0.4870  0.6481  -1.5926   0.0000   0.0000   0.0000   0.3659
   5.300   1.2010   0.01183   0.00571  -0.1478  0.4765  0.6491  -1.6082   0.0000   0.0000   0.0000   0.3643
   5.400   1.2084   0.01196   0.00579  -0.1472  0.4666  0.6501  -1.6253   0.0000   0.0000   0.0000   0.3629
   5.500   1.2177   0.01200   0.00583  -0.1469  0.4605  0.6511  -1.6443   0.0000   0.0000   0.0000   0.3616
   5.600   1.2261   0.01208   0.00588  -0.1464  0.4516  0.6521  -1.6641   0.0000   0.0000   0.0000   0.3603
   5.700   1.2333   0.01220   0.00594  -0.1457  0.4416  0.6530  -1.6840   0.0000   0.0000   0.0000   0.3589
   5.800   1.2393   0.01236   0.00603  -0.1448  0.4323  0.6539  -1.7026   0.0000   0.0000   0.0000   0.3575
   5.900   1.2452   0.01251   0.00613  -0.1439  0.4240  0.6547  -1.7209   0.0000   0.0000   0.0000   0.3560
   6.000   1.2537   0.01259   0.00621  -0.1435  0.4192  0.6556  -1.7423   0.0000   0.0000   0.0000   0.3548
   6.100   1.2630   0.01266   0.00628  -0.1432  0.4155  0.6564  -1.7648   0.0000   0.0000   0.0000   0.3536
   6.200   1.2717   0.01274   0.00636  -0.1429  0.4104  0.6572  -1.7866   0.0000   0.0000   0.0000   0.3524
   6.300   1.2797   0.01285   0.00645  -0.1423  0.4040  0.6581  -1.8077   0.0000   0.0000   0.0000   0.3511
   6.400   1.2867   0.01298   0.00655  -0.1416  0.3968  0.6589  -1.8278   0.0000   0.0000   0.0000   0.3498
   6.500   1.2929   0.01315   0.00667  -0.1408  0.3892  0.6597  -1.8469   0.0000   0.0000   0.0000   0.3485
   6.600   1.2985   0.01334   0.00681  -0.1399  0.3814  0.6604  -1.8688   0.0000   0.0000   0.0000   0.3472
   6.700   1.3050   0.01351   0.00695  -0.1391  0.3742  0.6611  -1.8923   0.0000   0.0000   0.0000   0.3459
   6.800   1.3139   0.01361   0.00706  -0.1388  0.3702  0.6617  -1.9192   0.0000   0.0000   0.0000   0.3448
   6.900   1.3221   0.01373   0.00717  -0.1383  0.3644  0.6622  -1.9489   0.0000   0.0000   0.0000   0.3437
   7.000   1.3293   0.01390   0.00730  -0.1377  0.3568  0.6627  -1.9785   0.0000   0.0000   0.0000   0.3425
   7.100   1.3353   0.01410   0.00745  -0.1369  0.3478  0.6633  -2.0063   0.0000   0.0000   0.0000   0.3413
   7.200   1.3404   0.01433   0.00761  -0.1360  0.3381  0.6655  -2.0325   0.0000   0.0000   0.0000   0.3401
   7.300   1.3464   0.01453   0.00778  -0.1352  0.3291  0.6679  -2.0602   0.0000   0.0000   0.0000   0.3389
   7.400   1.3547   0.01465   0.00789  -0.1349  0.3239  0.6703  -2.0919   0.0000   0.0000   0.0000   0.3379
   7.500   1.3809   0.01410   0.00791  -0.1375  0.3615  0.6731  -2.1573   0.0000   0.0000   0.0000   0.3378
   7.600   1.3892   0.01422   0.00804  -0.1371  0.3574  0.6756  -2.1900   0.0000   0.0000   0.0000   0.3368
   7.700   1.3962   0.01437   0.00818  -0.1365  0.3514  0.6779  -2.2208   0.0000   0.0000   0.0000   0.3357
   7.800   1.4018   0.01459   0.00836  -0.1357  0.3441  0.6801  -2.2818   0.0000   0.0000   0.0000   0.3345
   7.900   1.4060   0.01484   0.00858  -0.1346  0.3356  0.6822  -2.3459   0.0000   0.0000   0.0000   0.3333
   8.000   1.4119   0.01504   0.00878  -0.1338  0.3285  0.6843  -2.4169   0.0000   0.0000   0.0000   0.3322
   8.100   1.4197   0.01517   0.00893  -0.1333  0.3235  0.6864  -2.4961   0.0000   0.0000   0.0000   0.3312
   8.200   1.4264   0.01535   0.00910  -0.1326  0.3168  0.6884  -2.5721   0.0000   0.0000   0.0000   0.3301
   8.300   1.4319   0.01558   0.00931  -0.1318  0.3087  0.6904  -2.6438   0.0000   0.0000   0.0000   0.3290
   8.400   1.4359   0.01588   0.00955  -0.1307  0.2996  0.6924  -2.7094   0.0000   0.0000   0.0000   0.3279
   8.500   1.4390   0.01622   0.00984  -0.1295  0.2893  0.6944  -2.7719   0.0000   0.0000   0.0000   0.3267
   8.600   1.4452   0.01643   0.01006  -0.1288  0.2824  0.6965  -2.8480   0.0000   0.0000   0.0000   0.3256
   8.700   1.4507   0.01668   0.01029  -0.1280  0.2742  0.6986  -2.9215   0.0000   0.0000   0.0000   0.3246
   8.800   1.4537   0.01704   0.01058  -0.1269  0.2635  0.7006  -2.9853   0.0000   0.0000   0.0000   0.3234
   8.900   1.4547   0.01749   0.01095  -0.1254  0.2517  0.7026  -3.0403   0.0000   0.0000   0.0000   0.3222
   9.000   1.4583   0.01784   0.01126  -0.1243  0.2415  0.7045  -3.1069   0.0000   0.0000   0.0000   0.3211
   9.100   1.4620   0.01819   0.01158  -0.1233  0.2313  0.7064  -3.1747   0.0000   0.0000   0.0000   0.3201
   9.200   1.4633   0.01868   0.01198  -0.1220  0.2194  0.7082  -3.2319   0.0000   0.0000   0.0000   0.3189
   9.300   1.4638   0.01921   0.01242  -0.1206  0.2068  0.7099  -3.2859   0.0000   0.0000   0.0000   0.3177
   9.400   1.4676   0.01957   0.01276  -0.1196  0.1988  0.7116  -3.3547   0.0000   0.0000   0.0000   0.3167
   9.500   1.4698   0.02003   0.01318  -0.1185  0.1890  0.7131  -3.4169   0.0000   0.0000   0.0000   0.3157
   9.600   1.4701   0.02061   0.01367  -0.1171  0.1783  0.7145  -3.4703   0.0000   0.0000   0.0000   0.3146
   9.700   1.4723   0.02110   0.01410  -0.1161  0.1680  0.7157  -3.5328   0.0000   0.0000   0.0000   0.3135
   9.900   1.4761   0.02210   0.01504  -0.1139  0.1510  0.7219  -3.6547   0.0000   0.0000   0.0000   0.3115
  10.000   1.4754   0.02277   0.01564  -0.1126  0.1413  0.7266  -3.7038   0.0000   0.0000   0.0000   0.3105
  10.100   1.4781   0.02325   0.01610  -0.1117  0.1330  0.7313  -3.7686   0.0000   0.0000   0.0000   0.3096
  10.200   1.4805   0.02375   0.01659  -0.1107  0.1252  0.7355  -3.8322   0.0000   0.0000   0.0000   0.3086
  10.300   1.4799   0.02443   0.01723  -0.1095  0.1167  0.7395  -3.8813   0.0000   0.0000   0.0000   0.3076
  10.400   1.4783   0.02518   0.01794  -0.1081  0.1080  0.7432  -3.9253   0.0000   0.0000   0.0000   0.3066
  10.500   1.4802   0.02574   0.01848  -0.1072  0.1009  0.7472  -3.9848   0.0000   0.0000   0.0000   0.3057
  10.600   1.4800   0.02646   0.01916  -0.1061  0.0919  0.7511  -4.0336   0.0000   0.0000   0.0000   0.3048
  10.700   1.4766   0.02744   0.02007  -0.1048  0.0811  0.7547  -4.0660   0.0000   0.0000   0.0000   0.3039
  10.800   1.4735   0.02843   0.02100  -0.1035  0.0700  0.7584  -4.0980   0.0000   0.0000   0.0000   0.3030
  10.900   1.4662   0.02978   0.02222  -0.1019  0.0558  0.7615  -4.1101   0.0000   0.0000   0.0000   0.3020
  11.000   1.4590   0.03118   0.02352  -0.1004  0.0418  0.7645  -4.1215   0.0000   0.0000   0.0000   0.3012
  11.100   1.4515   0.03265   0.02491  -0.0990  0.0294  0.7672  -4.1298   0.0000   0.0000   0.0000   0.3004
  11.400   1.4389   0.03642   0.02863  -0.0959  0.0093  0.7865  -4.1864   0.0000   0.0000   0.0000   0.2982
  11.500   1.4394   0.03730   0.02957  -0.0952  0.0086  0.7943  -4.2243   0.0000   0.0000   0.0000   0.2975
  11.600   1.4406   0.03812   0.03045  -0.0946  0.0082  0.8024  -4.2669   0.0000   0.0000   0.0000   0.2968
  11.700   1.4424   0.03891   0.03129  -0.0941  0.0078  0.8109  -4.3139   0.0000   0.0000   0.0000   0.2962
  11.900   1.4467   0.04036   0.03290  -0.0931  0.0073  0.8375  -4.4141   0.0000   0.0000   0.0000   0.2949
  12.000   1.4487   0.04107   0.03369  -0.0925  0.0072  0.8569  -4.4648   0.0000   0.0000   0.0000   0.2942
  12.100   1.4478   0.04172   0.03447  -0.0914  0.0071  0.8992  -4.5043   0.0000   0.0000   0.0000   0.2933
  12.200   1.4450   0.04246   0.03529  -0.0903  0.0070  1.0000  -4.5355   0.0000   0.0000   0.0000   0.2925
  12.300   1.4469   0.04333   0.03621  -0.0900  0.0069  1.0000  -4.5867   0.0000   0.0000   0.0000   0.2920
  12.400   1.4474   0.04436   0.03736  -0.0896  0.0067  1.0000  -4.6097   0.0000   0.0000   0.0000   0.2914
  12.500   1.4490   0.04524   0.03830  -0.0892  0.0066  1.0000  -4.6563   0.0000   0.0000   0.0000   0.2909
  12.600   1.4505   0.04612   0.03923  -0.0889  0.0065  1.0000  -4.7046   0.0000   0.0000   0.0000   0.2904
  12.700   1.4518   0.04703   0.04020  -0.0886  0.0065  1.0000  -4.7531   0.0000   0.0000   0.0000   0.2899
  12.800   1.4522   0.04809   0.04131  -0.0883  0.0065  1.0000  -4.7971   0.0000   0.0000   0.0000   0.2895
  12.900   1.4520   0.04924   0.04251  -0.0880  0.0065  1.0000  -4.8383   0.0000   0.0000   0.0000   0.2891
  13.000   1.4525   0.05032   0.04365  -0.0878  0.0065  1.0000  -4.8828   0.0000   0.0000   0.0000   0.2887
  13.100   1.4533   0.05139   0.04477  -0.0876  0.0064  1.0000  -4.9290   0.0000   0.0000   0.0000   0.2883
  13.200   1.4542   0.05246   0.04590  -0.0874  0.0064  1.0000  -4.9753   0.0000   0.0000   0.0000   0.2879
  13.300   1.4550   0.05357   0.04706  -0.0871  0.0064  1.0000  -5.0206   0.0000   0.0000   0.0000   0.2876
  13.400   1.4555   0.05471   0.04826  -0.0870  0.0064  1.0000  -5.0645   0.0000   0.0000   0.0000   0.2872
  13.500   1.4550   0.05601   0.04962  -0.0868  0.0065  1.0000  -5.1031   0.0000   0.0000   0.0000   0.2869
  13.600   1.4535   0.05748   0.05115  -0.0868  0.0065  1.0000  -5.1361   0.0000   0.0000   0.0000   0.2867
  13.700   1.4527   0.05887   0.05259  -0.0867  0.0065  1.0000  -5.1720   0.0000   0.0000   0.0000   0.2864
  13.800   1.4521   0.06022   0.05400  -0.0866  0.0065  1.0000  -5.2089   0.0000   0.0000   0.0000   0.2862
  13.900   1.4516   0.06158   0.05542  -0.0865  0.0065  1.0000  -5.2453   0.0000   0.0000   0.0000   0.2859
  14.000   1.4509   0.06298   0.05687  -0.0864  0.0065  1.0000  -5.2806   0.0000   0.0000   0.0000   0.2857
  14.100   1.4499   0.06443   0.05838  -0.0864  0.0066  1.0000  -5.3138   0.0000   0.0000   0.0000   0.2855
  14.200   1.4477   0.06608   0.06010  -0.0865  0.0066  1.0000  -5.3401   0.0000   0.0000   0.0000   0.2854
  14.300   1.4446   0.06787   0.06194  -0.0866  0.0066  1.0000  -5.3618   0.0000   0.0000   0.0000   0.2854
  14.400   1.4428   0.06951   0.06364  -0.0867  0.0066  1.0000  -5.3889   0.0000   0.0000   0.0000   0.2853
  14.500   1.4412   0.07109   0.06528  -0.0867  0.0066  1.0000  -5.4171   0.0000   0.0000   0.0000   0.2852
  14.600   1.4396   0.07267   0.06691  -0.0868  0.0067  1.0000  -5.4449   0.0000   0.0000   0.0000   0.2851
  14.700   1.4379   0.07427   0.06857  -0.0869  0.0067  1.0000  -5.4714   0.0000   0.0000   0.0000   0.2850
  14.800   1.4359   0.07590   0.07027  -0.0870  0.0067  1.0000  -5.4960   0.0000   0.0000   0.0000   0.2849
  14.900   1.4330   0.07774   0.07216  -0.0873  0.0068  1.0000  -5.5150   0.0000   0.0000   0.0000   0.2850
  15.000   1.4293   0.07972   0.07421  -0.0876  0.0068  1.0000  -5.5292   0.0000   0.0000   0.0000   0.2852
  15.100   1.4266   0.08149   0.07604  -0.0879  0.0068  1.0000  -5.5488   0.0000   0.0000   0.0000   0.2852
  15.200   1.4245   0.08317   0.07778  -0.0881  0.0069  1.0000  -5.5703   0.0000   0.0000   0.0000   0.2853
  15.300   1.4225   0.08482   0.07949  -0.0883  0.0069  1.0000  -5.5920   0.0000   0.0000   0.0000   0.2853
  15.400   1.4206   0.08646   0.08118  -0.0886  0.0070  1.0000  -5.6138   0.0000   0.0000   0.0000   0.2853
  15.500   1.4187   0.08809   0.08288  -0.0888  0.0070  1.0000  -5.6347   0.0000   0.0000   0.0000   0.2853
  15.600   1.4167   0.08974   0.08459  -0.0891  0.0071  1.0000  -5.6543   0.0000   0.0000   0.0000   0.2854
  15.700   1.4137   0.09157   0.08647  -0.0895  0.0071  1.0000  -5.6681   0.0000   0.0000   0.0000   0.2856
  15.800   1.4101   0.09351   0.08848  -0.0900  0.0071  1.0000  -5.6778   0.0000   0.0000   0.0000   0.2859
  15.900   1.4076   0.09523   0.09025  -0.0904  0.0072  1.0000  -5.6927   0.0000   0.0000   0.0000   0.2860
  16.000   1.4057   0.09682   0.09191  -0.0907  0.0072  1.0000  -5.7102   0.0000   0.0000   0.0000   0.2861
  16.100   1.4042   0.09835   0.09349  -0.0910  0.0073  1.0000  -5.7292   0.0000   0.0000   0.0000   0.2862
  16.200   1.4029   0.09982   0.09502  -0.0913  0.0074  1.0000  -5.7481   0.0000   0.0000   0.0000   0.2862
  16.300   1.4017   0.10127   0.09652  -0.0916  0.0074  1.0000  -5.7668   0.0000   0.0000   0.0000   0.2862
  16.400   1.4006   0.10267   0.09799  -0.0919  0.0075  1.0000  -5.7850   0.0000   0.0000   0.0000   0.2862
  16.500   1.3994   0.10397   0.09934  -0.0922  0.0076  1.0000  -5.8023   0.0000   0.0000   0.0000   0.2863
  16.600   1.3983   0.10521   0.10064  -0.0924  0.0077  1.0000  -5.8182   0.0000   0.0000   0.0000   0.2863
  16.700   1.3971   0.10644   0.10194  -0.0927  0.0077  1.0000  -5.8329   0.0000   0.0000   0.0000   0.2863
  16.800   1.3958   0.10773   0.10330  -0.0931  0.0078  1.0000  -5.8455   0.0000   0.0000   0.0000   0.2864
  16.900   1.3936   0.10922   0.10486  -0.0936  0.0079  1.0000  -5.8529   0.0000   0.0000   0.0000   0.2866
  17.000   1.3914   0.11075   0.10645  -0.0940  0.0080  1.0000  -5.8590   0.0000   0.0000   0.0000   0.2868
  17.100   1.3896   0.11222   0.10799  -0.0945  0.0081  1.0000  -5.8658   0.0000   0.0000   0.0000   0.2870
  17.200   1.3881   0.11367   0.10951  -0.0949  0.0082  1.0000  -5.8723   0.0000   0.0000   0.0000   0.2871
  17.300   1.3866   0.11515   0.11106  -0.0953  0.0083  1.0000  -5.8773   0.0000   0.0000   0.0000   0.2873
  17.400   1.3850   0.11668   0.11266  -0.0958  0.0084  1.0000  -5.8799   0.0000   0.0000   0.0000   0.2875
  17.500   1.3831   0.11828   0.11433  -0.0963  0.0085  1.0000  -5.8795   0.0000   0.0000   0.0000   0.2877
  17.600   1.3809   0.11996   0.11610  -0.0968  0.0086  1.0000  -5.8755   0.0000   0.0000   0.0000   0.2879
  17.700   1.3783   0.12177   0.11798  -0.0974  0.0087  1.0000  -5.8674   0.0000   0.0000   0.0000   0.2883
  17.800   1.3752   0.12370   0.12000  -0.0981  0.0088  1.0000  -5.8546   0.0000   0.0000   0.0000   0.2887
  17.900   1.3716   0.12579   0.12218  -0.0989  0.0089  1.0000  -5.8364   0.0000   0.0000   0.0000   0.2892
  18.000   1.3673   0.12806   0.12453  -0.0998  0.0090  1.0000  -5.8126   0.0000   0.0000   0.0000   0.2899
  18.100   1.3619   0.13063   0.12719  -0.1009  0.0091  1.0000  -5.7821   0.0000   0.0000   0.0000   0.2908
  18.200   1.3555   0.13352   0.13017  -0.1023  0.0092  1.0000  -5.7456   0.0000   0.0000   0.0000   0.2920
  18.300   1.3490   0.13644   0.13318  -0.1037  0.0093  1.0000  -5.7040   0.0000   0.0000   0.0000   0.2931
  18.400   1.3420   0.13953   0.13635  -0.1051  0.0094  1.0000  -5.6537   0.0000   0.0000   0.0000   0.2944
  18.500   1.3340   0.14294   0.13986  -0.1067  0.0095  1.0000  -5.5902   0.0000   0.0000   0.0000   0.2958
  18.600   1.3239   0.14691   0.14394  -0.1085  0.0096  1.0000  -5.5038   0.0000   0.0000   0.0000   0.2977
  18.700   1.3393   0.14522   0.14221  -0.1070  0.0107  1.0000  -5.6149   0.0000   0.0000   0.0000   0.2953
  18.800   1.3434   0.14622   0.14322  -0.1076  0.0109  1.0000  -5.6833   0.0000   0.0000   0.0000   0.2952
  18.900   1.3462   0.14751   0.14453  -0.1083  0.0111  1.0000  -5.7381   0.0000   0.0000   0.0000   0.2953
  19.000   1.3473   0.14919   0.14625  -0.1092  0.0114  1.0000  -5.7747   0.0000   0.0000   0.0000   0.2957
  19.100   1.3444   0.15183   0.14894  -0.1107  0.0116  1.0000  -5.7739   0.0000   0.0000   0.0000   0.2967
  19.200   1.3399   0.15487   0.15206  -0.1123  0.0118  1.0000  -5.7554   0.0000   0.0000   0.0000   0.2980
  19.300   1.3343   0.15825   0.15554  -0.1141  0.0122  1.0000  -5.7151   0.0000   0.0000   0.0000   0.2995
  19.400   1.3244   0.16292   0.16035  -0.1165  0.0127  1.0000  -5.6156   0.0000   0.0000   0.0000   0.3018
  19.500   1.3123   0.16822   0.16579  -0.1193  0.0130  1.0000  -5.5027   0.0000   0.0000   0.0000   0.3046
  19.600   1.3013   0.17332   0.17099  -0.1220  0.0132  1.0000  -5.4103   0.0000   0.0000   0.0000   0.3073
  19.700   1.2878   0.17936   0.17716  -0.1250  0.0135  1.0000  -5.2734   0.0000   0.0000   0.0000   0.3106
  19.800   1.2769   0.18481   0.18269  -0.1278  0.0136  1.0000  -5.1752   0.0000   0.0000   0.0000   0.3135
  19.900   1.2683   0.18964   0.18758  -0.1304  0.0136  1.0000  -5.1123   0.0000   0.0000   0.0000   0.3161
  20.000   1.2574   0.19534   0.19336  -0.1332  0.0136  1.0000  -5.0094   0.0000   0.0000   0.0000   0.3192
  20.100   1.2473   0.20099   0.19908  -0.1359  0.0137  1.0000  -4.9151   0.0000   0.0000   0.0000   0.3222
  20.200   1.2393   0.20600   0.20413  -0.1385  0.0135  1.0000  -4.8546   0.0000   0.0000   0.0000   0.3248
  20.300   1.2288   0.21201   0.21019  -0.1412  0.0135  1.0000  -4.7509   0.0000   0.0000   0.0000   0.3280
  20.400   1.2185   0.21817   0.21640  -0.1440  0.0134  1.0000  -4.6467   0.0000   0.0000   0.0000   0.3313
  20.500   1.2086   0.22433   0.22260  -0.1467  0.0133  1.0000  -4.5471   0.0000   0.0000   0.0000   0.3345
  20.600   1.1945   0.23229   0.23061  -0.1500  0.0133  1.0000  -4.3777   0.0000   0.0000   0.0000   0.3387
  20.700   1.1748   0.24298   0.24136  -0.1539  0.0132  1.0000  -4.1161   0.0000   0.0000   0.0000   0.3445
  22.000   0.9185   0.29763   0.29626  -0.1578  0.0212  1.0000  -1.5419   0.0000   0.0000   0.0000   0.3905
  22.100   0.9157   0.29850   0.29714  -0.1581  0.0212  1.0000  -1.5204   0.0000   0.0000   0.0000   0.3913


