xflr5 v6.61

 Calculated polar for: EPPLER 420 AIRFOIL

 1 1 Reynolds number fixed          Mach number fixed         

 xtrf =   1.000 (top)        1.000 (bottom)
 Mach =   0.000     Re =     0.450 e 6     Ncrit =   9.000

  alpha     CL        CD       CDp       Cm    Top Xtr Bot Xtr   Cpmin    Chinge    XCp    
 ------- -------- --------- --------- -------- ------- ------- -------- --------- ---------
 -10.000   0.3697   0.09858   0.09425  -0.1597  0.6666  0.0251  -1.1037   0.0000   0.0000   0.0000   0.7161
  -9.900   0.3732   0.09774   0.09341  -0.1599  0.6640  0.0251  -1.1074   0.0000   0.0000   0.0000   0.7121
  -9.800   0.3767   0.09691   0.09257  -0.1601  0.6611  0.0251  -1.1110   0.0000   0.0000   0.0000   0.7081
  -9.700   0.3802   0.09608   0.09173  -0.1603  0.6581  0.0251  -1.1145   0.0000   0.0000   0.0000   0.7041
  -9.600   0.3836   0.09526   0.09090  -0.1605  0.6550  0.0251  -1.1180   0.0000   0.0000   0.0000   0.7003
  -9.500   0.3869   0.09445   0.09007  -0.1607  0.6517  0.0251  -1.1215   0.0000   0.0000   0.0000   0.6965
  -9.400   0.3901   0.09366   0.08926  -0.1608  0.6484  0.0251  -1.1248   0.0000   0.0000   0.0000   0.6929
  -9.300   0.3932   0.09288   0.08845  -0.1609  0.6450  0.0252  -1.1281   0.0000   0.0000   0.0000   0.6893
  -9.200   0.3962   0.09211   0.08766  -0.1610  0.6414  0.0252  -1.1313   0.0000   0.0000   0.0000   0.6858
  -9.100   0.3991   0.09136   0.08688  -0.1610  0.6374  0.0252  -1.1344   0.0000   0.0000   0.0000   0.6824
  -9.000   0.4022   0.09060   0.08610  -0.1611  0.6330  0.0252  -1.1375   0.0000   0.0000   0.0000   0.6790
  -8.900   0.4056   0.08983   0.08530  -0.1613  0.6285  0.0252  -1.1406   0.0000   0.0000   0.0000   0.6756
  -8.800   0.4092   0.08902   0.08448  -0.1616  0.6249  0.0252  -1.1440   0.0000   0.0000   0.0000   0.6721
  -8.700   0.4127   0.08819   0.08366  -0.1618  0.6240  0.0252  -1.1473   0.0000   0.0000   0.0000   0.6687
  -8.600   0.4162   0.08736   0.08284  -0.1620  0.6229  0.0252  -1.1507   0.0000   0.0000   0.0000   0.6654
  -8.500   0.4197   0.08653   0.08201  -0.1622  0.6216  0.0252  -1.1540   0.0000   0.0000   0.0000   0.6621
  -8.400   0.4232   0.08570   0.08119  -0.1623  0.6202  0.0252  -1.1573   0.0000   0.0000   0.0000   0.6588
  -8.300   0.4266   0.08487   0.08037  -0.1625  0.6186  0.0252  -1.1605   0.0000   0.0000   0.0000   0.6556
  -8.200   0.4300   0.08405   0.07955  -0.1627  0.6168  0.0252  -1.1637   0.0000   0.0000   0.0000   0.6525
  -8.100   0.4334   0.08323   0.07874  -0.1628  0.6150  0.0252  -1.1668   0.0000   0.0000   0.0000   0.6494
  -8.000   0.4366   0.08243   0.07794  -0.1629  0.6131  0.0253  -1.1699   0.0000   0.0000   0.0000   0.6464
  -7.900   0.4398   0.08163   0.07714  -0.1630  0.6111  0.0253  -1.1729   0.0000   0.0000   0.0000   0.6434
  -7.800   0.4430   0.08084   0.07634  -0.1631  0.6090  0.0253  -1.1759   0.0000   0.0000   0.0000   0.6405
  -7.700   0.4460   0.08005   0.07552  -0.1632  0.6069  0.0253  -1.1788   0.0000   0.0000   0.0000   0.6376
  -7.600   0.4490   0.07927   0.07473  -0.1632  0.6048  0.0253  -1.1816   0.0000   0.0000   0.0000   0.6348
  -7.500   0.4519   0.07850   0.07395  -0.1632  0.6026  0.0253  -1.1844   0.0000   0.0000   0.0000   0.6321
  -7.400   0.4546   0.07774   0.07318  -0.1632  0.6003  0.0253  -1.1870   0.0000   0.0000   0.0000   0.6294
  -7.300   0.4572   0.07700   0.07242  -0.1632  0.5979  0.0253  -1.1895   0.0000   0.0000   0.0000   0.6268
  -7.200   0.4597   0.07626   0.07168  -0.1631  0.5954  0.0253  -1.1919   0.0000   0.0000   0.0000   0.6243
  -7.100   0.4621   0.07554   0.07094  -0.1629  0.5928  0.0253  -1.1942   0.0000   0.0000   0.0000   0.6218
  -7.000   0.4644   0.07482   0.07020  -0.1628  0.5899  0.0253  -1.1964   0.0000   0.0000   0.0000   0.6193
  -6.900   0.4670   0.07409   0.06946  -0.1628  0.5868  0.0253  -1.1986   0.0000   0.0000   0.0000   0.6168
  -6.800   0.4698   0.07335   0.06871  -0.1628  0.5836  0.0253  -1.2009   0.0000   0.0000   0.0000   0.6144
  -6.700   0.4536   0.06886   0.06427  -0.1628  0.5827  0.0263  -1.3637   0.0000   0.0000   0.0000   0.6273
  -6.600   0.4540   0.06764   0.06305  -0.1628  0.5798  0.0267  -1.3839   0.0000   0.0000   0.0000   0.6265
  -6.500   0.4556   0.06678   0.06220  -0.1625  0.5781  0.0270  -1.3846   0.0000   0.0000   0.0000   0.6243
  -6.400   0.4570   0.06607   0.06150  -0.1621  0.5777  0.0273  -1.3801   0.0000   0.0000   0.0000   0.6220
  -6.300   0.4586   0.06542   0.06087  -0.1617  0.5771  0.0275  -1.3726   0.0000   0.0000   0.0000   0.6195
  -6.200   0.4605   0.06482   0.06029  -0.1614  0.5765  0.0277  -1.3634   0.0000   0.0000   0.0000   0.6168
  -6.100   0.4636   0.06420   0.05968  -0.1612  0.5758  0.0279  -1.3486   0.0000   0.0000   0.0000   0.6136
  -6.000   0.4677   0.06359   0.05908  -0.1610  0.5750  0.0282  -1.3279   0.0000   0.0000   0.0000   0.6098
  -5.900   0.4718   0.06299   0.05849  -0.1609  0.5742  0.0284  -1.3068   0.0000   0.0000   0.0000   0.6061
  -5.800   0.4759   0.06240   0.05792  -0.1607  0.5733  0.0287  -1.2860   0.0000   0.0000   0.0000   0.6024
  -5.700   0.4800   0.06182   0.05734  -0.1606  0.5723  0.0289  -1.2664   0.0000   0.0000   0.0000   0.5988
  -5.600   0.4841   0.06124   0.05678  -0.1606  0.5713  0.0292  -1.2479   0.0000   0.0000   0.0000   0.5954
  -5.500   0.4882   0.06066   0.05620  -0.1605  0.5702  0.0295  -1.2305   0.0000   0.0000   0.0000   0.5921
  -5.400   0.4924   0.06008   0.05563  -0.1606  0.5691  0.0298  -1.2248   0.0000   0.0000   0.0000   0.5890
  -5.300   0.4966   0.05949   0.05504  -0.1606  0.5680  0.0301  -1.2283   0.0000   0.0000   0.0000   0.5859
  -5.200   0.5008   0.05889   0.05446  -0.1607  0.5668  0.0305  -1.2318   0.0000   0.0000   0.0000   0.5830
  -5.100   0.5051   0.05829   0.05386  -0.1608  0.5656  0.0309  -1.2353   0.0000   0.0000   0.0000   0.5801
  -5.000   0.5096   0.05769   0.05326  -0.1610  0.5644  0.0313  -1.2388   0.0000   0.0000   0.0000   0.5772
  -4.900   0.5142   0.05708   0.05265  -0.1612  0.5631  0.0318  -1.2423   0.0000   0.0000   0.0000   0.5744
  -4.800   0.5189   0.05647   0.05204  -0.1615  0.5618  0.0323  -1.2458   0.0000   0.0000   0.0000   0.5717
  -4.700   0.5237   0.05584   0.05141  -0.1618  0.5604  0.0329  -1.2493   0.0000   0.0000   0.0000   0.5690
  -4.600   0.5287   0.05519   0.05076  -0.1622  0.5591  0.0335  -1.2528   0.0000   0.0000   0.0000   0.5664
  -4.500   0.5340   0.05452   0.05009  -0.1626  0.5578  0.0342  -1.2564   0.0000   0.0000   0.0000   0.5639
  -4.400   0.5394   0.05384   0.04940  -0.1632  0.5564  0.0350  -1.2599   0.0000   0.0000   0.0000   0.5615
  -4.300   0.5450   0.05313   0.04868  -0.1638  0.5550  0.0359  -1.2635   0.0000   0.0000   0.0000   0.5592
  -4.200   0.5511   0.05239   0.04794  -0.1646  0.5536  0.0369  -1.2671   0.0000   0.0000   0.0000   0.5569
  -4.100   0.5579   0.05162   0.04716  -0.1656  0.5521  0.0380  -1.2710   0.0000   0.0000   0.0000   0.5547
  -4.000   0.5656   0.05084   0.04636  -0.1669  0.5506  0.0394  -1.2750   0.0000   0.0000   0.0000   0.5526
  -3.500   0.6438   0.03453   0.02980  -0.1944  0.5430  0.0268  -1.9039   0.0000   0.0000   0.0000   0.5578
  -3.400   0.6605   0.03327   0.02849  -0.1971  0.5407  0.0264  -1.9128   0.0000   0.0000   0.0000   0.5540
  -3.300   0.6786   0.03189   0.02705  -0.2002  0.5384  0.0260  -1.9230   0.0000   0.0000   0.0000   0.5503
  -3.200   0.7015   0.02979   0.02487  -0.2050  0.5361  0.0257  -1.9621   0.0000   0.0000   0.0000   0.5472
  -3.100   0.7564   0.02237   0.01693  -0.2214  0.5338  0.0254  -2.2088   0.0000   0.0000   0.0000   0.5472
  -3.000   0.7887   0.01875   0.01273  -0.2289  0.5317  0.0257  -2.3249   0.0000   0.0000   0.0000   0.5442
  -2.900   0.8076   0.01705   0.01068  -0.2314  0.5314  0.0262  -2.3598   0.0000   0.0000   0.0000   0.5404
  -2.800   0.8233   0.01598   0.00934  -0.2329  0.5311  0.0270  -2.3657   0.0000   0.0000   0.0000   0.5364
  -2.700   0.8375   0.01523   0.00841  -0.2337  0.5307  0.0283  -2.3538   0.0000   0.0000   0.0000   0.5324
  -2.600   0.8503   0.01481   0.00788  -0.2342  0.5303  0.0298  -2.3202   0.0000   0.0000   0.0000   0.5284
  -2.500   0.8623   0.01455   0.00756  -0.2344  0.5299  0.0313  -2.2744   0.0000   0.0000   0.0000   0.5245
  -2.400   0.8740   0.01437   0.00734  -0.2345  0.5294  0.0328  -2.2221   0.0000   0.0000   0.0000   0.5208
  -2.300   0.8855   0.01424   0.00718  -0.2345  0.5288  0.0344  -2.1661   0.0000   0.0000   0.0000   0.5171
  -2.200   0.8968   0.01413   0.00704  -0.2345  0.5282  0.0362  -2.1084   0.0000   0.0000   0.0000   0.5135
  -2.100   0.9081   0.01403   0.00692  -0.2345  0.5276  0.0383  -2.0507   0.0000   0.0000   0.0000   0.5100
  -2.000   0.9194   0.01395   0.00681  -0.2345  0.5269  0.0407  -1.9919   0.0000   0.0000   0.0000   0.5066
  -1.900   0.9305   0.01390   0.00674  -0.2345  0.5263  0.0429  -1.9292   0.0000   0.0000   0.0000   0.5033
  -1.800   0.9414   0.01392   0.00675  -0.2344  0.5256  0.0444  -1.8601   0.0000   0.0000   0.0000   0.5000
  -1.700   0.9539   0.01364   0.00641  -0.2347  0.5249  0.0525  -1.8159   0.0000   0.0000   0.0000   0.4969
  -1.600   0.9652   0.01360   0.00641  -0.2348  0.5242  0.0603  -1.7507   0.0000   0.0000   0.0000   0.4938
  -1.500   0.9761   0.01363   0.00643  -0.2347  0.5235  0.0651  -1.6836   0.0000   0.0000   0.0000   0.4908
  -1.400   0.9868   0.01369   0.00649  -0.2346  0.5227  0.0682  -1.6163   0.0000   0.0000   0.0000   0.4879
  -1.300   0.9973   0.01377   0.00657  -0.2345  0.5220  0.0698  -1.5484   0.0000   0.0000   0.0000   0.4850
  -1.200   1.0091   0.01362   0.00638  -0.2347  0.5212  0.0768  -1.5489   0.0000   0.0000   0.0000   0.4822
  -1.100   1.0204   0.01358   0.00637  -0.2347  0.5204  0.0849  -1.5587   0.0000   0.0000   0.0000   0.4794
  -1.000   1.0313   0.01360   0.00642  -0.2347  0.5197  0.0901  -1.5684   0.0000   0.0000   0.0000   0.4767
  -0.900   1.0420   0.01366   0.00647  -0.2346  0.5189  0.0944  -1.5780   0.0000   0.0000   0.0000   0.4741
  -0.800   1.0526   0.01373   0.00654  -0.2344  0.5181  0.0977  -1.5875   0.0000   0.0000   0.0000   0.4715
  -0.700   1.0631   0.01382   0.00662  -0.2343  0.5173  0.0998  -1.5970   0.0000   0.0000   0.0000   0.4689
  -0.600   1.0736   0.01390   0.00671  -0.2342  0.5165  0.1009  -1.6065   0.0000   0.0000   0.0000   0.4664
  -0.500   1.0855   0.01373   0.00651  -0.2344  0.5157  0.1101  -1.6166   0.0000   0.0000   0.0000   0.4640
  -0.400   1.0965   0.01373   0.00654  -0.2343  0.5149  0.1173  -1.6263   0.0000   0.0000   0.0000   0.4616
  -0.300   1.1071   0.01378   0.00661  -0.2343  0.5142  0.1225  -1.6359   0.0000   0.0000   0.0000   0.4593
  -0.200   1.1178   0.01383   0.00667  -0.2341  0.5134  0.1270  -1.6454   0.0000   0.0000   0.0000   0.4570
  -0.100   1.1284   0.01388   0.00671  -0.2340  0.5126  0.1308  -1.6549   0.0000   0.0000   0.0000   0.4547
   0.000   1.1390   0.01394   0.00675  -0.2339  0.5118  0.1336  -1.6644   0.0000   0.0000   0.0000   0.4524
   0.100   1.1494   0.01400   0.00680  -0.2338  0.5110  0.1356  -1.6739   0.0000   0.0000   0.0000   0.4503
   0.200   1.1599   0.01407   0.00686  -0.2336  0.5102  0.1368  -1.6833   0.0000   0.0000   0.0000   0.4481
   0.300   1.1709   0.01404   0.00680  -0.2336  0.5094  0.1410  -1.6930   0.0000   0.0000   0.0000   0.4460
   0.400   1.1821   0.01398   0.00674  -0.2337  0.5086  0.1499  -1.7028   0.0000   0.0000   0.0000   0.4440
   0.500   1.1927   0.01401   0.00679  -0.2336  0.5077  0.1556  -1.7123   0.0000   0.0000   0.0000   0.4419
   0.600   1.2032   0.01405   0.00685  -0.2335  0.5069  0.1603  -1.7217   0.0000   0.0000   0.0000   0.4399
   0.700   1.2137   0.01411   0.00691  -0.2334  0.5060  0.1646  -1.7311   0.0000   0.0000   0.0000   0.4380
   0.800   1.2241   0.01417   0.00697  -0.2332  0.5051  0.1686  -1.7404   0.0000   0.0000   0.0000   0.4360
   0.900   1.2344   0.01425   0.00703  -0.2331  0.5042  0.1723  -1.7497   0.0000   0.0000   0.0000   0.4341
   1.000   1.2447   0.01433   0.00711  -0.2329  0.5033  0.1753  -1.7589   0.0000   0.0000   0.0000   0.4322
   1.100   1.2549   0.01443   0.00720  -0.2328  0.5023  0.1774  -1.7681   0.0000   0.0000   0.0000   0.4304
   1.200   1.2651   0.01454   0.00730  -0.2326  0.5013  0.1787  -1.7773   0.0000   0.0000   0.0000   0.4285
   1.300   1.2758   0.01458   0.00733  -0.2326  0.5002  0.1821  -1.7866   0.0000   0.0000   0.0000   0.4268
   1.400   1.2871   0.01456   0.00729  -0.2327  0.4991  0.1913  -1.7963   0.0000   0.0000   0.0000   0.4251
   1.500   1.2981   0.01462   0.00737  -0.2327  0.4979  0.1975  -1.8057   0.0000   0.0000   0.0000   0.4234
   1.600   1.3092   0.01471   0.00747  -0.2327  0.4966  0.2023  -1.8151   0.0000   0.0000   0.0000   0.4217
   1.700   1.3203   0.01481   0.00758  -0.2328  0.4953  0.2068  -1.8245   0.0000   0.0000   0.0000   0.4201
   1.800   1.3316   0.01494   0.00770  -0.2329  0.4939  0.2110  -1.8347   0.0000   0.0000   0.0000   0.4184
   1.900   1.3431   0.01508   0.00785  -0.2331  0.4924  0.2149  -1.8457   0.0000   0.0000   0.0000   0.4169
   2.000   1.3547   0.01526   0.00802  -0.2332  0.4908  0.2186  -1.8566   0.0000   0.0000   0.0000   0.4153
   2.100   1.3663   0.01548   0.00824  -0.2335  0.4890  0.2220  -1.8675   0.0000   0.0000   0.0000   0.4138
   2.200   1.3781   0.01578   0.00856  -0.2337  0.4869  0.2245  -1.8781   0.0000   0.0000   0.0000   0.4124
   2.300   1.3886   0.01601   0.00881  -0.2337  0.4855  0.2262  -1.8881   0.0000   0.0000   0.0000   0.4109
   2.400   1.3985   0.01605   0.00885  -0.2335  0.4852  0.2273  -1.8987   0.0000   0.0000   0.0000   0.4094
   2.500   1.4088   0.01602   0.00881  -0.2334  0.4850  0.2323  -1.9095   0.0000   0.0000   0.0000   0.4079
   2.600   1.4191   0.01598   0.00878  -0.2333  0.4847  0.2397  -1.9201   0.0000   0.0000   0.0000   0.4064
   2.700   1.4291   0.01598   0.00879  -0.2331  0.4845  0.2462  -1.9307   0.0000   0.0000   0.0000   0.4049
   2.800   1.4390   0.01599   0.00883  -0.2329  0.4842  0.2515  -1.9411   0.0000   0.0000   0.0000   0.4035
   2.900   1.4488   0.01601   0.00887  -0.2327  0.4839  0.2562  -1.9515   0.0000   0.0000   0.0000   0.4020
   3.000   1.4586   0.01605   0.00893  -0.2325  0.4835  0.2607  -1.9618   0.0000   0.0000   0.0000   0.4006
   3.100   1.4685   0.01609   0.00899  -0.2323  0.4832  0.2651  -1.9720   0.0000   0.0000   0.0000   0.3992
   3.200   1.4782   0.01614   0.00905  -0.2320  0.4829  0.2691  -1.9823   0.0000   0.0000   0.0000   0.3978
   3.300   1.4879   0.01620   0.00911  -0.2318  0.4825  0.2728  -1.9924   0.0000   0.0000   0.0000   0.3965
   3.400   1.4976   0.01626   0.00918  -0.2316  0.4822  0.2760  -2.0025   0.0000   0.0000   0.0000   0.3951
   3.500   1.5071   0.01632   0.00925  -0.2313  0.4817  0.2787  -2.0126   0.0000   0.0000   0.0000   0.3938
   3.600   1.5166   0.01639   0.00933  -0.2311  0.4813  0.2807  -2.0226   0.0000   0.0000   0.0000   0.3924
   3.700   1.5262   0.01646   0.00940  -0.2308  0.4809  0.2839  -2.0326   0.0000   0.0000   0.0000   0.3911
   3.800   1.5360   0.01648   0.00946  -0.2307  0.4804  0.2964  -2.0428   0.0000   0.0000   0.0000   0.3899
   3.900   1.5457   0.01653   0.00954  -0.2305  0.4799  0.3072  -2.0529   0.0000   0.0000   0.0000   0.3886
   4.000   1.5553   0.01659   0.00964  -0.2303  0.4794  0.3154  -2.0628   0.0000   0.0000   0.0000   0.3874
   4.100   1.5647   0.01665   0.00973  -0.2300  0.4789  0.3226  -2.0727   0.0000   0.0000   0.0000   0.3861
   4.200   1.5739   0.01671   0.00981  -0.2297  0.4784  0.3293  -2.0824   0.0000   0.0000   0.0000   0.3849
   4.300   1.5831   0.01678   0.00990  -0.2294  0.4778  0.3352  -2.0921   0.0000   0.0000   0.0000   0.3836
   4.400   1.5921   0.01686   0.00999  -0.2291  0.4773  0.3397  -2.1016   0.0000   0.0000   0.0000   0.3824
   4.500   1.6013   0.01693   0.01008  -0.2288  0.4767  0.3525  -2.1112   0.0000   0.0000   0.0000   0.3812
   4.600   1.6105   0.01697   0.01019  -0.2285  0.4761  0.3739  -2.1210   0.0000   0.0000   0.0000   0.3800
   4.700   1.6197   0.01703   0.01030  -0.2283  0.4755  0.3926  -2.1306   0.0000   0.0000   0.0000   0.3789
   4.900   1.6396   0.01682   0.01068  -0.2283  0.4743  0.7251  -2.1511   0.0000   0.0000   0.0000   0.3767
   5.100   1.6531   0.01674   0.01082  -0.2265  0.4730  1.0000  -2.1668   0.0000   0.0000   0.0000   0.3742
   5.200   1.6620   0.01684   0.01092  -0.2262  0.4724  1.0000  -2.1761   0.0000   0.0000   0.0000   0.3730
   5.300   1.6708   0.01694   0.01102  -0.2258  0.4717  1.0000  -2.1855   0.0000   0.0000   0.0000   0.3719
   5.400   1.6796   0.01705   0.01113  -0.2255  0.4711  1.0000  -2.1948   0.0000   0.0000   0.0000   0.3708
   5.500   1.6884   0.01716   0.01123  -0.2251  0.4704  1.0000  -2.2041   0.0000   0.0000   0.0000   0.3697
   5.600   1.6972   0.01726   0.01134  -0.2248  0.4697  1.0000  -2.2134   0.0000   0.0000   0.0000   0.3686
   5.700   1.7058   0.01737   0.01145  -0.2244  0.4691  1.0000  -2.2226   0.0000   0.0000   0.0000   0.3675
   5.800   1.7145   0.01748   0.01156  -0.2240  0.4684  1.0000  -2.2325   0.0000   0.0000   0.0000   0.3664
   5.900   1.7230   0.01758   0.01166  -0.2236  0.4676  1.0000  -2.2431   0.0000   0.0000   0.0000   0.3653
   6.000   1.7315   0.01767   0.01175  -0.2232  0.4669  1.0000  -2.2537   0.0000   0.0000   0.0000   0.3642
   6.100   1.7399   0.01776   0.01184  -0.2228  0.4661  1.0000  -2.2643   0.0000   0.0000   0.0000   0.3632
   6.200   1.7482   0.01785   0.01193  -0.2224  0.4652  1.0000  -2.2748   0.0000   0.0000   0.0000   0.3621
   6.300   1.7565   0.01793   0.01201  -0.2219  0.4644  1.0000  -2.2854   0.0000   0.0000   0.0000   0.3611
   6.400   1.7647   0.01801   0.01209  -0.2215  0.4635  1.0000  -2.2959   0.0000   0.0000   0.0000   0.3600
   6.500   1.7729   0.01810   0.01217  -0.2210  0.4627  1.0000  -2.3064   0.0000   0.0000   0.0000   0.3590
   6.600   1.7810   0.01819   0.01226  -0.2205  0.4618  1.0000  -2.3168   0.0000   0.0000   0.0000   0.3579
   6.700   1.7891   0.01828   0.01236  -0.2201  0.4610  1.0000  -2.3271   0.0000   0.0000   0.0000   0.3569
   6.800   1.7971   0.01839   0.01247  -0.2196  0.4603  1.0000  -2.3374   0.0000   0.0000   0.0000   0.3559
   6.900   1.8052   0.01851   0.01259  -0.2192  0.4595  1.0000  -2.3476   0.0000   0.0000   0.0000   0.3549
   7.000   1.8132   0.01863   0.01272  -0.2187  0.4588  1.0000  -2.3578   0.0000   0.0000   0.0000   0.3539
   7.100   1.8213   0.01875   0.01284  -0.2183  0.4580  1.0000  -2.3679   0.0000   0.0000   0.0000   0.3529
   7.200   1.8293   0.01888   0.01298  -0.2178  0.4572  1.0000  -2.3781   0.0000   0.0000   0.0000   0.3519
   7.300   1.8372   0.01901   0.01311  -0.2174  0.4563  1.0000  -2.3886   0.0000   0.0000   0.0000   0.3509
   7.400   1.8450   0.01915   0.01325  -0.2169  0.4553  1.0000  -2.4001   0.0000   0.0000   0.0000   0.3500
   7.500   1.8528   0.01929   0.01339  -0.2164  0.4543  1.0000  -2.4115   0.0000   0.0000   0.0000   0.3490
   7.600   1.8607   0.01944   0.01354  -0.2160  0.4531  1.0000  -2.4230   0.0000   0.0000   0.0000   0.3481
   7.700   1.8688   0.01961   0.01370  -0.2156  0.4516  1.0000  -2.4347   0.0000   0.0000   0.0000   0.3471
   7.800   1.8774   0.01980   0.01390  -0.2153  0.4500  1.0000  -2.4466   0.0000   0.0000   0.0000   0.3463
   7.900   1.8864   0.02004   0.01414  -0.2151  0.4482  1.0000  -2.4588   0.0000   0.0000   0.0000   0.3454
   8.000   1.8958   0.02034   0.01445  -0.2151  0.4462  1.0000  -2.4712   0.0000   0.0000   0.0000   0.3446
   8.100   1.9054   0.02076   0.01489  -0.2151  0.4439  1.0000  -2.4832   0.0000   0.0000   0.0000   0.3438
   8.200   1.9130   0.02144   0.01561  -0.2149  0.4412  1.0000  -2.4939   0.0000   0.0000   0.0000   0.3431
   8.300   1.9192   0.02176   0.01596  -0.2143  0.4403  1.0000  -2.5050   0.0000   0.0000   0.0000   0.3422
   8.400   1.9260   0.02184   0.01606  -0.2136  0.4401  1.0000  -2.5174   0.0000   0.0000   0.0000   0.3412
   8.500   1.9328   0.02191   0.01615  -0.2130  0.4399  1.0000  -2.5297   0.0000   0.0000   0.0000   0.3403
   8.600   1.9395   0.02198   0.01624  -0.2123  0.4396  1.0000  -2.5420   0.0000   0.0000   0.0000   0.3393
   8.700   1.9458   0.02206   0.01633  -0.2116  0.4393  1.0000  -2.5539   0.0000   0.0000   0.0000   0.3384
   8.800   1.9519   0.02214   0.01643  -0.2108  0.4389  1.0000  -2.5669   0.0000   0.0000   0.0000   0.3374
   8.900   1.9579   0.02222   0.01654  -0.2101  0.4385  1.0000  -2.5802   0.0000   0.0000   0.0000   0.3365
   9.000   1.9638   0.02232   0.01665  -0.2093  0.4381  1.0000  -2.5935   0.0000   0.0000   0.0000   0.3355
   9.100   1.9694   0.02243   0.01678  -0.2085  0.4376  1.0000  -2.6064   0.0000   0.0000   0.0000   0.3346
   9.200   1.9745   0.02255   0.01693  -0.2076  0.4371  1.0000  -2.6189   0.0000   0.0000   0.0000   0.3336
   9.300   1.9797   0.02269   0.01710  -0.2067  0.4365  1.0000  -2.6313   0.0000   0.0000   0.0000   0.3327
   9.400   1.9848   0.02284   0.01726  -0.2059  0.4359  1.0000  -2.6438   0.0000   0.0000   0.0000   0.3318
   9.500   1.9901   0.02298   0.01743  -0.2050  0.4352  1.0000  -2.6563   0.0000   0.0000   0.0000   0.3309
   9.600   1.9954   0.02313   0.01760  -0.2042  0.4345  1.0000  -2.6689   0.0000   0.0000   0.0000   0.3299
   9.700   2.0008   0.02328   0.01777  -0.2034  0.4337  1.0000  -2.6832   0.0000   0.0000   0.0000   0.3290
   9.800   2.0062   0.02344   0.01795  -0.2026  0.4328  1.0000  -2.6979   0.0000   0.0000   0.0000   0.3282
   9.900   2.0115   0.02361   0.01815  -0.2019  0.4320  1.0000  -2.7124   0.0000   0.0000   0.0000   0.3273
  10.000   2.0165   0.02381   0.01840  -0.2010  0.4311  1.0000  -2.7266   0.0000   0.0000   0.0000   0.3264
  10.100   2.0214   0.02403   0.01864  -0.2002  0.4302  1.0000  -2.7405   0.0000   0.0000   0.0000   0.3255
  10.200   2.0263   0.02424   0.01887  -0.1994  0.4293  1.0000  -2.7546   0.0000   0.0000   0.0000   0.3246
  10.300   2.0314   0.02444   0.01910  -0.1987  0.4283  1.0000  -2.7689   0.0000   0.0000   0.0000   0.3238
  10.400   2.0366   0.02464   0.01931  -0.1979  0.4272  1.0000  -2.7833   0.0000   0.0000   0.0000   0.3229
  10.500   2.0419   0.02482   0.01951  -0.1972  0.4261  1.0000  -2.7980   0.0000   0.0000   0.0000   0.3221
  10.600   2.0474   0.02500   0.01971  -0.1965  0.4249  1.0000  -2.8129   0.0000   0.0000   0.0000   0.3213
  10.700   2.0529   0.02518   0.01990  -0.1958  0.4237  1.0000  -2.8301   0.0000   0.0000   0.0000   0.3204
  10.800   2.0579   0.02538   0.02012  -0.1951  0.4225  1.0000  -2.8467   0.0000   0.0000   0.0000   0.3196
  10.900   2.0627   0.02560   0.02035  -0.1943  0.4213  1.0000  -2.8630   0.0000   0.0000   0.0000   0.3188
  11.000   2.0676   0.02583   0.02059  -0.1935  0.4201  1.0000  -2.8794   0.0000   0.0000   0.0000   0.3179
  11.100   2.0725   0.02607   0.02085  -0.1928  0.4190  1.0000  -2.8959   0.0000   0.0000   0.0000   0.3171
  11.200   2.0774   0.02632   0.02112  -0.1921  0.4179  1.0000  -2.9123   0.0000   0.0000   0.0000   0.3163
  11.300   2.0823   0.02657   0.02138  -0.1914  0.4168  1.0000  -2.9287   0.0000   0.0000   0.0000   0.3155
  11.400   2.0873   0.02681   0.02163  -0.1907  0.4155  1.0000  -2.9454   0.0000   0.0000   0.0000   0.3147
  11.500   2.0923   0.02705   0.02187  -0.1901  0.4142  1.0000  -2.9621   0.0000   0.0000   0.0000   0.3139
  11.600   2.0965   0.02733   0.02216  -0.1893  0.4127  1.0000  -2.9799   0.0000   0.0000   0.0000   0.3131
  11.700   2.1001   0.02765   0.02248  -0.1884  0.4111  1.0000  -2.9973   0.0000   0.0000   0.0000   0.3123
  11.800   2.1037   0.02800   0.02283  -0.1876  0.4093  1.0000  -3.0146   0.0000   0.0000   0.0000   0.3115
  11.900   2.1076   0.02835   0.02318  -0.1869  0.4073  1.0000  -3.0325   0.0000   0.0000   0.0000   0.3108
  12.000   2.1124   0.02870   0.02352  -0.1862  0.4050  1.0000  -3.0514   0.0000   0.0000   0.0000   0.3100
  12.100   2.1184   0.02904   0.02387  -0.1858  0.4025  1.0000  -3.0720   0.0000   0.0000   0.0000   0.3093
  12.200   2.1255   0.02941   0.02424  -0.1855  0.3997  1.0000  -3.0939   0.0000   0.0000   0.0000   0.3087
  12.300   2.1323   0.02989   0.02474  -0.1852  0.3968  1.0000  -3.1152   0.0000   0.0000   0.0000   0.3080
  12.400   2.1348   0.03028   0.02517  -0.1844  0.3965  1.0000  -3.1312   0.0000   0.0000   0.0000   0.3072
  12.500   2.1371   0.03069   0.02562  -0.1835  0.3961  1.0000  -3.1468   0.0000   0.0000   0.0000   0.3065
  12.600   2.1376   0.03121   0.02618  -0.1824  0.3955  1.0000  -3.1616   0.0000   0.0000   0.0000   0.3057
  12.700   2.1376   0.03178   0.02680  -0.1813  0.3949  1.0000  -3.1765   0.0000   0.0000   0.0000   0.3049
  12.800   2.1383   0.03233   0.02738  -0.1803  0.3942  1.0000  -3.1926   0.0000   0.0000   0.0000   0.3042
  12.900   2.1394   0.03287   0.02797  -0.1794  0.3933  1.0000  -3.2092   0.0000   0.0000   0.0000   0.3034
  13.000   2.1406   0.03343   0.02856  -0.1786  0.3922  1.0000  -3.2260   0.0000   0.0000   0.0000   0.3027
  13.100   2.1405   0.03409   0.02927  -0.1776  0.3910  1.0000  -3.2406   0.0000   0.0000   0.0000   0.3020
  13.200   2.1394   0.03484   0.03006  -0.1766  0.3897  1.0000  -3.2536   0.0000   0.0000   0.0000   0.3013
  13.300   2.1399   0.03551   0.03077  -0.1757  0.3883  1.0000  -3.2691   0.0000   0.0000   0.0000   0.3006
  13.400   2.1412   0.03614   0.03144  -0.1750  0.3867  1.0000  -3.2860   0.0000   0.0000   0.0000   0.2999
  13.500   2.1429   0.03676   0.03209  -0.1743  0.3852  1.0000  -3.3034   0.0000   0.0000   0.0000   0.2993
  13.600   2.1447   0.03739   0.03282  -0.1736  0.3835  1.0000  -3.3210   0.0000   0.0000   0.0000   0.2986
  13.700   2.1448   0.03817   0.03363  -0.1728  0.3817  1.0000  -3.3358   0.0000   0.0000   0.0000   0.2980
  13.800   2.1438   0.03905   0.03454  -0.1720  0.3797  1.0000  -3.3488   0.0000   0.0000   0.0000   0.2974
  13.900   2.1450   0.03976   0.03526  -0.1713  0.3776  1.0000  -3.3655   0.0000   0.0000   0.0000   0.2967
  14.000   2.1470   0.04040   0.03591  -0.1707  0.3753  1.0000  -3.3837   0.0000   0.0000   0.0000   0.2961
  14.100   2.1491   0.04104   0.03655  -0.1702  0.3729  1.0000  -3.4018   0.0000   0.0000   0.0000   0.2955
  14.200   2.1504   0.04174   0.03725  -0.1695  0.3703  1.0000  -3.4188   0.0000   0.0000   0.0000   0.2949
  14.300   2.1501   0.04260   0.03809  -0.1688  0.3675  1.0000  -3.4359   0.0000   0.0000   0.0000   0.2942
  14.400   2.1448   0.04396   0.03945  -0.1678  0.3642  1.0000  -3.4438   0.0000   0.0000   0.0000   0.2937
  14.500   2.1430   0.04500   0.04048  -0.1670  0.3604  1.0000  -3.4581   0.0000   0.0000   0.0000   0.2931
  14.600   2.1472   0.04549   0.04094  -0.1665  0.3563  1.0000  -3.4838   0.0000   0.0000   0.0000   0.2925
  14.700   2.1480   0.04634   0.04183  -0.1660  0.3543  1.0000  -3.5029   0.0000   0.0000   0.0000   0.2919
  14.800   2.1456   0.04756   0.04310  -0.1653  0.3534  1.0000  -3.5160   0.0000   0.0000   0.0000   0.2914
  14.900   2.1432   0.04879   0.04439  -0.1647  0.3523  1.0000  -3.5288   0.0000   0.0000   0.0000   0.2909
  15.000   2.1394   0.05017   0.04584  -0.1640  0.3508  1.0000  -3.5391   0.0000   0.0000   0.0000   0.2904
  15.100   2.1297   0.05224   0.04798  -0.1632  0.3489  1.0000  -3.5377   0.0000   0.0000   0.0000   0.2900
  15.200   2.1259   0.05368   0.04947  -0.1626  0.3468  1.0000  -3.5478   0.0000   0.0000   0.0000   0.2896
  15.300   2.1235   0.05496   0.05078  -0.1621  0.3444  1.0000  -3.5607   0.0000   0.0000   0.0000   0.2892
  15.400   2.1214   0.05621   0.05206  -0.1615  0.3417  1.0000  -3.5739   0.0000   0.0000   0.0000   0.2887
  15.500   2.1191   0.05750   0.05337  -0.1611  0.3388  1.0000  -3.5869   0.0000   0.0000   0.0000   0.2883
  15.600   2.1106   0.05950   0.05539  -0.1604  0.3353  1.0000  -3.5876   0.0000   0.0000   0.0000   0.2879
  15.700   2.1031   0.06139   0.05728  -0.1598  0.3318  1.0000  -3.5901   0.0000   0.0000   0.0000   0.2876
  15.800   2.0991   0.06287   0.05875  -0.1593  0.3280  1.0000  -3.6002   0.0000   0.0000   0.0000   0.2872
  15.900   2.0936   0.06452   0.06037  -0.1587  0.3236  1.0000  -3.6093   0.0000   0.0000   0.0000   0.2868
  16.000   2.0892   0.06600   0.06182  -0.1582  0.3186  1.0000  -3.6208   0.0000   0.0000   0.0000   0.2864
  16.100   2.0908   0.06678   0.06258  -0.1578  0.3140  1.0000  -3.6457   0.0000   0.0000   0.0000   0.2859
  16.200   2.0828   0.06884   0.06471  -0.1573  0.3125  1.0000  -3.6489   0.0000   0.0000   0.0000   0.2857
  16.300   2.0638   0.07232   0.06829  -0.1568  0.3103  1.0000  -3.6263   0.0000   0.0000   0.0000   0.2858
  16.400   2.0569   0.07425   0.07027  -0.1564  0.3076  1.0000  -3.6316   0.0000   0.0000   0.0000   0.2855
  16.500   2.0518   0.07595   0.07199  -0.1561  0.3044  1.0000  -3.6410   0.0000   0.0000   0.0000   0.2853
  16.600   2.0474   0.07759   0.07365  -0.1558  0.3006  1.0000  -3.6517   0.0000   0.0000   0.0000   0.2850
  16.700   2.0428   0.07926   0.07531  -0.1555  0.2964  1.0000  -3.6623   0.0000   0.0000   0.0000   0.2847
  16.800   2.0356   0.08125   0.07729  -0.1552  0.2918  1.0000  -3.6667   0.0000   0.0000   0.0000   0.2845
  16.900   2.0124   0.08539   0.08142  -0.1548  0.2862  1.0000  -3.6332   0.0000   0.0000   0.0000   0.2849
  17.000   2.0048   0.08746   0.08344  -0.1545  0.2803  1.0000  -3.6358   0.0000   0.0000   0.0000   0.2847
  17.100   2.0055   0.08840   0.08434  -0.1543  0.2747  1.0000  -3.6581   0.0000   0.0000   0.0000   0.2843
  17.200   2.0020   0.09007   0.08607  -0.1542  0.2731  1.0000  -3.6702   0.0000   0.0000   0.0000   0.2841
  17.300   1.9986   0.09172   0.08776  -0.1541  0.2710  1.0000  -3.6824   0.0000   0.0000   0.0000   0.2839
  17.400   1.9949   0.09339   0.08947  -0.1541  0.2682  1.0000  -3.6938   0.0000   0.0000   0.0000   0.2837
  17.500   1.9902   0.09518   0.09128  -0.1540  0.2650  1.0000  -3.7029   0.0000   0.0000   0.0000   0.2835
  17.600   1.9835   0.09723   0.09334  -0.1539  0.2614  1.0000  -3.7071   0.0000   0.0000   0.0000   0.2834
  17.700   1.9630   0.10127   0.09740  -0.1540  0.2569  1.0000  -3.6770   0.0000   0.0000   0.0000   0.2840
  17.800   1.9582   0.10306   0.09916  -0.1540  0.2528  1.0000  -3.6855   0.0000   0.0000   0.0000   0.2839
  17.900   1.9533   0.10484   0.10091  -0.1540  0.2482  1.0000  -3.6935   0.0000   0.0000   0.0000   0.2838
  18.000   1.9496   0.10644   0.10246  -0.1540  0.2430  1.0000  -3.7043   0.0000   0.0000   0.0000   0.2836
  18.100   1.9513   0.10724   0.10323  -0.1539  0.2378  1.0000  -3.7285   0.0000   0.0000   0.0000   0.2832
  18.200   1.9508   0.10848   0.10451  -0.1539  0.2360  1.0000  -3.7470   0.0000   0.0000   0.0000   0.2829
  18.300   1.9494   0.10986   0.10593  -0.1540  0.2343  1.0000  -3.7630   0.0000   0.0000   0.0000   0.2827
  18.400   1.9474   0.11128   0.10739  -0.1541  0.2321  1.0000  -3.7779   0.0000   0.0000   0.0000   0.2825
  18.500   1.9448   0.11279   0.10892  -0.1542  0.2294  1.0000  -3.7911   0.0000   0.0000   0.0000   0.2824
  18.600   1.9414   0.11441   0.11055  -0.1543  0.2262  1.0000  -3.8024   0.0000   0.0000   0.0000   0.2823
  18.700   1.9367   0.11621   0.11235  -0.1545  0.2226  1.0000  -3.8139   0.0000   0.0000   0.0000   0.2823
  18.800   1.9163   0.12034   0.11651  -0.1551  0.2188  1.0000  -3.7786   0.0000   0.0000   0.0000   0.2831
  18.900   1.9093   0.12244   0.11858  -0.1553  0.2148  1.0000  -3.7829   0.0000   0.0000   0.0000   0.2832
  19.000   1.9044   0.12422   0.12032  -0.1555  0.2102  1.0000  -3.7928   0.0000   0.0000   0.0000   0.2833
  19.100   1.9030   0.12547   0.12153  -0.1557  0.2050  1.0000  -3.8130   0.0000   0.0000   0.0000   0.2831
  19.200   1.9052   0.12620   0.12224  -0.1557  0.2009  1.0000  -3.8439   0.0000   0.0000   0.0000   0.2827
  19.300   1.9057   0.12729   0.12338  -0.1559  0.1998  1.0000  -3.8695   0.0000   0.0000   0.0000   0.2825
  19.400   1.9063   0.12834   0.12446  -0.1561  0.1983  1.0000  -3.8959   0.0000   0.0000   0.0000   0.2822
  19.500   1.9070   0.12935   0.12551  -0.1563  0.1965  1.0000  -3.9225   0.0000   0.0000   0.0000   0.2820
  19.600   1.9077   0.13037   0.12654  -0.1564  0.1944  1.0000  -3.9489   0.0000   0.0000   0.0000   0.2817
  19.700   1.9081   0.13140   0.12759  -0.1566  0.1920  1.0000  -3.9747   0.0000   0.0000   0.0000   0.2815
  19.800   1.9085   0.13244   0.12863  -0.1568  0.1893  1.0000  -4.0004   0.0000   0.0000   0.0000   0.2812
  19.900   1.9083   0.13356   0.12974  -0.1570  0.1864  1.0000  -4.0243   0.0000   0.0000   0.0000   0.2811
  20.000   1.9071   0.13477   0.13093  -0.1573  0.1834  1.0000  -4.0453   0.0000   0.0000   0.0000   0.2809
  20.100   1.9042   0.13619   0.13232  -0.1576  0.1801  1.0000  -4.0604   0.0000   0.0000   0.0000   0.2809
  20.200   1.8988   0.13791   0.13403  -0.1581  0.1765  1.0000  -4.0673   0.0000   0.0000   0.0000   0.2811
  20.300   1.8939   0.13956   0.13566  -0.1585  0.1724  1.0000  -4.0753   0.0000   0.0000   0.0000   0.2812
  20.400   1.8947   0.14037   0.13644  -0.1587  0.1682  1.0000  -4.1016   0.0000   0.0000   0.0000   0.2810
  20.500   1.8823   0.14324   0.13939  -0.1596  0.1668  1.0000  -4.0846   0.0000   0.0000   0.0000   0.2817
  20.600   1.8803   0.14463   0.14082  -0.1601  0.1658  1.0000  -4.1017   0.0000   0.0000   0.0000   0.2817
  20.700   1.8803   0.14571   0.14195  -0.1604  0.1646  1.0000  -4.1253   0.0000   0.0000   0.0000   0.2816
  20.800   1.8808   0.14671   0.14299  -0.1607  0.1631  1.0000  -4.1507   0.0000   0.0000   0.0000   0.2814
  20.900   1.8815   0.14768   0.14397  -0.1610  0.1612  1.0000  -4.1770   0.0000   0.0000   0.0000   0.2812
  21.000   1.8822   0.14863   0.14494  -0.1613  0.1589  1.0000  -4.2034   0.0000   0.0000   0.0000   0.2810
  21.100   1.8827   0.14961   0.14591  -0.1617  0.1564  1.0000  -4.2293   0.0000   0.0000   0.0000   0.2808
  21.200   1.8830   0.15063   0.14691  -0.1620  0.1536  1.0000  -4.2550   0.0000   0.0000   0.0000   0.2807
  21.300   1.8828   0.15173   0.14797  -0.1623  0.1506  1.0000  -4.2852   0.0000   0.0000   0.0000   0.2805
  21.400   1.8816   0.15298   0.14919  -0.1628  0.1474  1.0000  -4.3113   0.0000   0.0000   0.0000   0.2805
  21.500   1.8794   0.15439   0.15056  -0.1632  0.1437  1.0000  -4.3336   0.0000   0.0000   0.0000   0.2805
  21.600   1.8785   0.15560   0.15182  -0.1636  0.1396  1.0000  -4.3602   0.0000   0.0000   0.0000   0.2804
  21.700   1.8802   0.15637   0.15257  -0.1639  0.1359  1.0000  -4.3972   0.0000   0.0000   0.0000   0.2801
  21.800   1.8812   0.15737   0.15362  -0.1642  0.1352  1.0000  -4.4322   0.0000   0.0000   0.0000   0.2799
  21.900   1.8820   0.15841   0.15471  -0.1646  0.1343  1.0000  -4.4660   0.0000   0.0000   0.0000   0.2798
  22.000   1.8822   0.15955   0.15589  -0.1650  0.1332  1.0000  -4.4974   0.0000   0.0000   0.0000   0.2796
  22.100   1.8814   0.16084   0.15722  -0.1655  0.1318  1.0000  -4.5251   0.0000   0.0000   0.0000   0.2796
  22.200   1.8794   0.16234   0.15876  -0.1661  0.1303  1.0000  -4.5478   0.0000   0.0000   0.0000   0.2797
  22.300   1.8674   0.16561   0.16209  -0.1673  0.1288  1.0000  -4.5288   0.0000   0.0000   0.0000   0.2806
  22.400   1.8640   0.16740   0.16389  -0.1680  0.1269  1.0000  -4.5450   0.0000   0.0000   0.0000   0.2808
  22.500   1.8628   0.16879   0.16528  -0.1685  0.1249  1.0000  -4.5707   0.0000   0.0000   0.0000   0.2808
  22.600   1.8620   0.17010   0.16658  -0.1690  0.1227  1.0000  -4.5981   0.0000   0.0000   0.0000   0.2808
  22.700   1.8611   0.17142   0.16788  -0.1695  0.1204  1.0000  -4.6252   0.0000   0.0000   0.0000   0.2808
  22.800   1.8598   0.17282   0.16926  -0.1701  0.1179  1.0000  -4.6505   0.0000   0.0000   0.0000   0.2808
  22.900   1.8581   0.17429   0.17070  -0.1707  0.1151  1.0000  -4.6739   0.0000   0.0000   0.0000   0.2808
  23.000   1.8574   0.17559   0.17198  -0.1712  0.1119  1.0000  -4.7010   0.0000   0.0000   0.0000   0.2808
  23.100   1.8586   0.17651   0.17288  -0.1715  0.1085  1.0000  -4.7361   0.0000   0.0000   0.0000   0.2805
  23.200   1.8606   0.17737   0.17377  -0.1719  0.1070  1.0000  -4.7749   0.0000   0.0000   0.0000   0.2803
  23.300   1.8621   0.17836   0.17480  -0.1723  0.1064  1.0000  -4.8122   0.0000   0.0000   0.0000   0.2801
  23.400   1.8633   0.17938   0.17587  -0.1727  0.1056  1.0000  -4.8487   0.0000   0.0000   0.0000   0.2799
  23.500   1.8643   0.18046   0.17698  -0.1732  0.1045  1.0000  -4.8840   0.0000   0.0000   0.0000   0.2797
  23.600   1.8648   0.18162   0.17818  -0.1737  0.1031  1.0000  -4.9171   0.0000   0.0000   0.0000   0.2796
  23.700   1.8646   0.18290   0.17948  -0.1742  0.1016  1.0000  -4.9475   0.0000   0.0000   0.0000   0.2796
  23.800   1.8637   0.18433   0.18092  -0.1748  0.0999  1.0000  -4.9745   0.0000   0.0000   0.0000   0.2796
  23.900   1.8617   0.18596   0.18256  -0.1755  0.0981  1.0000  -4.9968   0.0000   0.0000   0.0000   0.2797
  24.000   1.8582   0.18789   0.18449  -0.1763  0.0962  1.0000  -5.0123   0.0000   0.0000   0.0000   0.2800
  24.100   1.8463   0.19157   0.18821  -0.1778  0.0947  1.0000  -4.9881   0.0000   0.0000   0.0000   0.2811
  24.200   1.8410   0.19393   0.19056  -0.1788  0.0928  1.0000  -4.9943   0.0000   0.0000   0.0000   0.2816
  24.300   1.8377   0.19589   0.19250  -0.1797  0.0906  1.0000  -5.0093   0.0000   0.0000   0.0000   0.2819
  24.400   1.8351   0.19770   0.19428  -0.1804  0.0880  1.0000  -5.0274   0.0000   0.0000   0.0000   0.2821
  24.500   1.8339   0.19920   0.19576  -0.1811  0.0851  1.0000  -5.0518   0.0000   0.0000   0.0000   0.2821
  24.600   1.8351   0.20019   0.19674  -0.1815  0.0821  1.0000  -5.0896   0.0000   0.0000   0.0000   0.2819
  24.700   1.8362   0.20129   0.19788  -0.1820  0.0814  1.0000  -5.1359   0.0000   0.0000   0.0000   0.2817
  24.800   1.8371   0.20242   0.19906  -0.1825  0.0810  1.0000  -5.1816   0.0000   0.0000   0.0000   0.2816
  24.900   1.8380   0.20357   0.20025  -0.1830  0.0804  1.0000  -5.2271   0.0000   0.0000   0.0000   0.2815
  25.000   1.8390   0.20471   0.20143  -0.1836  0.0796  1.0000  -5.2732   0.0000   0.0000   0.0000   0.2813
  25.100   1.8397   0.20589   0.20265  -0.1841  0.0787  1.0000  -5.3182   0.0000   0.0000   0.0000   0.2812
  25.200   1.8401   0.20715   0.20394  -0.1847  0.0777  1.0000  -5.3633   0.0000   0.0000   0.0000   0.2811
  25.300   1.8400   0.20850   0.20531  -0.1853  0.0765  1.0000  -5.4203   0.0000   0.0000   0.0000   0.2811
  25.400   1.8394   0.20997   0.20680  -0.1859  0.0752  1.0000  -5.4736   0.0000   0.0000   0.0000   0.2811
  25.500   1.8381   0.21160   0.20844  -0.1867  0.0738  1.0000  -5.5219   0.0000   0.0000   0.0000   0.2812
  25.600   1.8358   0.21345   0.21030  -0.1875  0.0725  1.0000  -5.5633   0.0000   0.0000   0.0000   0.2814
  25.700   1.8321   0.21563   0.21248  -0.1884  0.0710  1.0000  -5.5945   0.0000   0.0000   0.0000   0.2817
  25.800   1.8209   0.21962   0.21651  -0.1901  0.0699  1.0000  -5.5679   0.0000   0.0000   0.0000   0.2830
  25.900   1.8150   0.22238   0.21926  -0.1913  0.0684  1.0000  -5.5814   0.0000   0.0000   0.0000   0.2837
  26.000   1.8113   0.22462   0.22149  -0.1923  0.0667  1.0000  -5.6112   0.0000   0.0000   0.0000   0.2840
  26.100   1.8085   0.22665   0.22351  -0.1932  0.0647  1.0000  -5.6474   0.0000   0.0000   0.0000   0.2843
  26.200   1.8072   0.22832   0.22517  -0.1939  0.0623  1.0000  -5.6938   0.0000   0.0000   0.0000   0.2844
  26.300   1.8080   0.22944   0.22628  -0.1944  0.0597  1.0000  -5.7560   0.0000   0.0000   0.0000   0.2842
  26.400   1.8083   0.23078   0.22766  -0.1950  0.0592  1.0000  -5.8167   0.0000   0.0000   0.0000   0.2841
  26.500   1.8084   0.23219   0.22911  -0.1956  0.0589  1.0000  -5.8761   0.0000   0.0000   0.0000   0.2841
  26.600   1.8083   0.23363   0.23059  -0.1963  0.0585  1.0000  -5.9349   0.0000   0.0000   0.0000   0.2841
  26.700   1.8081   0.23509   0.23210  -0.1970  0.0580  1.0000  -5.9930   0.0000   0.0000   0.0000   0.2841
  26.800   1.8079   0.23658   0.23363  -0.1976  0.0573  1.0000  -6.0508   0.0000   0.0000   0.0000   0.2841
  26.900   1.8073   0.23815   0.23524  -0.1984  0.0566  1.0000  -6.1062   0.0000   0.0000   0.0000   0.2841
  27.000   1.8064   0.23983   0.23696  -0.1991  0.0558  1.0000  -6.1583   0.0000   0.0000   0.0000   0.2842
  27.100   1.8047   0.24168   0.23884  -0.1999  0.0549  1.0000  -6.2049   0.0000   0.0000   0.0000   0.2843
  27.200   1.8021   0.24378   0.24096  -0.2008  0.0539  1.0000  -6.2442   0.0000   0.0000   0.0000   0.2846
  27.300   1.7982   0.24621   0.24342  -0.2019  0.0529  1.0000  -6.2730   0.0000   0.0000   0.0000   0.2851
  27.400   1.7866   0.25076   0.24802  -0.2037  0.0522  1.0000  -6.2364   0.0000   0.0000   0.0000   0.2865
  27.500   1.7818   0.25348   0.25076  -0.2049  0.0511  1.0000  -6.2569   0.0000   0.0000   0.0000   0.2871
  27.600   1.7786   0.25580   0.25307  -0.2059  0.0500  1.0000  -6.2905   0.0000   0.0000   0.0000   0.2875
  27.700   1.7755   0.25807   0.25533  -0.2068  0.0487  1.0000  -6.3256   0.0000   0.0000   0.0000   0.2879
  27.800   1.7722   0.26042   0.25766  -0.2078  0.0474  1.0000  -6.3582   0.0000   0.0000   0.0000   0.2882
  27.900   1.7688   0.26281   0.26004  -0.2088  0.0458  1.0000  -6.3889   0.0000   0.0000   0.0000   0.2887
  28.000   1.7661   0.26499   0.26220  -0.2097  0.0440  1.0000  -6.4255   0.0000   0.0000   0.0000   0.2889
  28.100   1.7652   0.26665   0.26386  -0.2104  0.0417  1.0000  -6.4755   0.0000   0.0000   0.0000   0.2890
  28.200   1.7648   0.26818   0.26541  -0.2110  0.0404  1.0000  -6.5312   0.0000   0.0000   0.0000   0.2889
  28.300   1.7636   0.26999   0.26726  -0.2118  0.0402  1.0000  -6.5838   0.0000   0.0000   0.0000   0.2890
  28.400   1.7622   0.27189   0.26925  -0.2126  0.0400  1.0000  -6.6340   0.0000   0.0000   0.0000   0.2892
  28.500   1.7602   0.27395   0.27136  -0.2135  0.0397  1.0000  -6.6790   0.0000   0.0000   0.0000   0.2894
  28.600   1.7574   0.27625   0.27370  -0.2144  0.0393  1.0000  -6.7170   0.0000   0.0000   0.0000   0.2897
  28.700   1.7535   0.27888   0.27638  -0.2155  0.0389  1.0000  -6.7447   0.0000   0.0000   0.0000   0.2902
  28.800   1.7420   0.28379   0.28137  -0.2173  0.0386  1.0000  -6.7034   0.0000   0.0000   0.0000   0.2918
  28.900   1.7355   0.28722   0.28486  -0.2186  0.0381  1.0000  -6.7072   0.0000   0.0000   0.0000   0.2926
  29.000   1.7321   0.28972   0.28741  -0.2196  0.0375  1.0000  -6.7393   0.0000   0.0000   0.0000   0.2930
  29.100   1.7294   0.29200   0.28972  -0.2204  0.0369  1.0000  -6.7782   0.0000   0.0000   0.0000   0.2933
  29.200   1.7269   0.29420   0.29195  -0.2213  0.0363  1.0000  -6.8193   0.0000   0.0000   0.0000   0.2936
  29.300   1.7244   0.29641   0.29418  -0.2222  0.0356  1.0000  -6.8604   0.0000   0.0000   0.0000   0.2939
  29.400   1.7218   0.29865   0.29644  -0.2230  0.0348  1.0000  -6.9005   0.0000   0.0000   0.0000   0.2941
  29.500   1.7188   0.30099   0.29879  -0.2239  0.0340  1.0000  -6.9377   0.0000   0.0000   0.0000   0.2945
  29.600   1.7155   0.30342   0.30122  -0.2248  0.0333  1.0000  -6.9726   0.0000   0.0000   0.0000   0.2948
  29.700   1.7114   0.30609   0.30389  -0.2257  0.0325  1.0000  -7.0002   0.0000   0.0000   0.0000   0.2953
  29.800   1.7060   0.30917   0.30698  -0.2268  0.0317  1.0000  -7.0153   0.0000   0.0000   0.0000   0.2959
  29.900   1.6983   0.31292   0.31074  -0.2280  0.0308  1.0000  -7.0100   0.0000   0.0000   0.0000   0.2969
  30.000   1.6785   0.32041   0.31830  -0.2302  0.0301  1.0000  -6.8929   0.0000   0.0000   0.0000   0.2995


