xflr5 v6.61

 Calculated polar for: EPPLER 580 AIRFOIL

 1 1 Reynolds number fixed          Mach number fixed         

 xtrf =   1.000 (top)        1.000 (bottom)
 Mach =   0.000     Re =     0.719 e 6     Ncrit =   9.000

  alpha     CL        CD       CDp       Cm    Top Xtr Bot Xtr   Cpmin    Chinge    XCp    
 ------- -------- --------- --------- -------- ------- ------- -------- --------- ---------
 -10.000  -0.2029   0.08289   0.08089  -0.0917  0.9803  0.0216  -2.0063   0.0000   0.0000   0.0000  -0.2387
  -9.900  -0.2008   0.08052   0.07852  -0.0939  0.9792  0.0219  -2.0373   0.0000   0.0000   0.0000  -0.2544
  -9.800  -0.1990   0.07793   0.07594  -0.0963  0.9782  0.0222  -2.0755   0.0000   0.0000   0.0000  -0.2711
  -9.700  -0.1975   0.07509   0.07310  -0.0991  0.9772  0.0225  -2.1217   0.0000   0.0000   0.0000  -0.2889
  -9.600  -0.1978   0.07128   0.06928  -0.1030  0.9763  0.0225  -2.1997   0.0000   0.0000   0.0000  -0.3075
  -9.500  -0.2038   0.06536   0.06333  -0.1094  0.9750  0.0222  -2.3511   0.0000   0.0000   0.0000  -0.3226
  -9.400  -0.2085   0.06092   0.05884  -0.1148  0.9739  0.0221  -2.4543   0.0000   0.0000   0.0000  -0.3353
  -9.300  -0.2123   0.05719   0.05505  -0.1198  0.9729  0.0220  -2.5326   0.0000   0.0000   0.0000  -0.3485
  -9.200  -0.2132   0.05413   0.05193  -0.1243  0.9720  0.0221  -2.5842   0.0000   0.0000   0.0000  -0.3662
  -9.100  -0.2261   0.05284   0.05062  -0.1230  0.9643  0.0219  -2.6248   0.0000   0.0000   0.0000  -0.3246
  -9.000  -0.2289   0.05067   0.04840  -0.1254  0.9606  0.0220  -2.6566   0.0000   0.0000   0.0000  -0.3281
  -8.900  -0.2293   0.04858   0.04625  -0.1283  0.9578  0.0222  -2.6789   0.0000   0.0000   0.0000  -0.3390
  -8.800  -0.2280   0.04663   0.04423  -0.1313  0.9555  0.0225  -2.6921   0.0000   0.0000   0.0000  -0.3548
  -8.700  -0.2244   0.04483   0.04236  -0.1343  0.9536  0.0229  -2.6941   0.0000   0.0000   0.0000  -0.3774
  -8.600  -0.2313   0.04387   0.04136  -0.1335  0.9462  0.0230  -2.7074   0.0000   0.0000   0.0000  -0.3548
  -8.500  -0.2314   0.04276   0.04019  -0.1341  0.9405  0.0233  -2.7046   0.0000   0.0000   0.0000  -0.3563
  -8.400  -0.2253   0.04167   0.03904  -0.1353  0.9373  0.0238  -2.6823   0.0000   0.0000   0.0000  -0.3776
  -8.300  -0.2160   0.04079   0.03811  -0.1365  0.9351  0.0245  -2.6451   0.0000   0.0000   0.0000  -0.4101
  -8.200  -0.2031   0.04024   0.03751  -0.1379  0.9336  0.0253  -2.5873   0.0000   0.0000   0.0000  -0.4584
  -8.100  -0.1856   0.04067   0.03792  -0.1389  0.9326  0.0263  -2.4853   0.0000   0.0000   0.0000  -0.5296
  -8.000  -0.1659   0.04178   0.03903  -0.1397  0.9316  0.0271  -2.3581   0.0000   0.0000   0.0000  -0.6265
  -7.900  -0.1533   0.04108   0.03825  -0.1417  0.9298  0.0273  -2.3096   0.0000   0.0000   0.0000  -0.7105
  -7.800  -0.1481   0.04027   0.03738  -0.1422  0.9251  0.0274  -2.2872   0.0000   0.0000   0.0000  -0.7471
  -7.700  -0.1441   0.03944   0.03648  -0.1423  0.9191  0.0275  -2.2692   0.0000   0.0000   0.0000  -0.7752
  -7.600  -0.1358   0.03840   0.03535  -0.1434  0.9146  0.0275  -2.2457   0.0000   0.0000   0.0000  -0.8453
  -7.500  -0.1257   0.03727   0.03413  -0.1449  0.9107  0.0275  -2.2200   0.0000   0.0000   0.0000  -0.9443
  -7.400  -0.1146   0.03611   0.03286  -0.1465  0.9069  0.0276  -2.1929   0.0000   0.0000   0.0000  -1.0735
  -7.300  -0.1030   0.03496   0.03161  -0.1481  0.9031  0.0276  -2.1649   0.0000   0.0000   0.0000  -1.2367
  -7.200  -0.0937   0.03401   0.03052  -0.1490  0.8986  0.0277  -2.1398   0.0000   0.0000   0.0000  -1.3928
  -7.100  -0.0882   0.03318   0.02962  -0.1489  0.8931  0.0277  -2.1209   0.0000   0.0000   0.0000  -1.4937
  -7.000  -0.1074   0.02461   0.02056  -0.1500  0.8832  0.0306  -2.4128   0.0000   0.0000   0.0000  -1.1930
  -6.900  -0.0972   0.02372   0.01962  -0.1507  0.8786  0.0316  -2.3588   0.0000   0.0000   0.0000  -1.3498
  -6.800  -0.0860   0.02316   0.01898  -0.1514  0.8740  0.0326  -2.2940   0.0000   0.0000   0.0000  -1.5647
  -6.700  -0.0744   0.02268   0.01844  -0.1520  0.8690  0.0335  -2.2298   0.0000   0.0000   0.0000  -1.8558
  -6.600  -0.0653   0.02229   0.01804  -0.1520  0.8651  0.0343  -2.1716   0.0000   0.0000   0.0000  -2.1493
  -6.500  -0.0565   0.02192   0.01767  -0.1519  0.8611  0.0352  -2.1156   0.0000   0.0000   0.0000  -2.5181
  -6.400  -0.0471   0.02156   0.01728  -0.1520  0.8566  0.0363  -2.0597   0.0000   0.0000   0.0000  -3.0677
  -6.300  -0.0372   0.02122   0.01690  -0.1521  0.8519  0.0375  -2.0044   0.0000   0.0000   0.0000  -3.9546
  -6.200  -0.0268   0.02089   0.01653  -0.1522  0.8471  0.0389  -1.9496   0.0000   0.0000   0.0000  -5.5956
  -6.100  -0.0160   0.02061   0.01619  -0.1524  0.8421  0.0405  -1.8954   0.0000   0.0000   0.0000  -9.5595
  -6.000  -0.0049   0.02042   0.01595  -0.1525  0.8368  0.0424  -1.8407   0.0000   0.0000   0.0000  -32.0089
  -5.900   0.0070   0.02042   0.01590  -0.1527  0.8313  0.0443  -1.7815   0.0000   0.0000   0.0000  22.6607
  -5.800   0.0180   0.02079   0.01628  -0.1525  0.8285  0.0462  -1.7160   0.0000   0.0000   0.0000   8.9186
  -5.700   0.0313   0.02217   0.01770  -0.1523  0.8251  0.0477  -1.6211   0.0000   0.0000   0.0000   5.2372
  -5.600   0.0427   0.02267   0.01817  -0.1521  0.8210  0.0481  -1.5602   0.0000   0.0000   0.0000   3.8987
  -5.500   0.0430   0.01755   0.01274  -0.1526  0.8166  0.0536  -1.6519   0.0000   0.0000   0.0000   3.8865
  -5.400   0.0528   0.01706   0.01225  -0.1527  0.8121  0.0554  -1.6046   0.0000   0.0000   0.0000   3.2088
  -5.300   0.0629   0.01670   0.01186  -0.1527  0.8074  0.0571  -1.5561   0.0000   0.0000   0.0000   2.7311
  -5.200   0.0731   0.01638   0.01151  -0.1527  0.8024  0.0588  -1.5084   0.0000   0.0000   0.0000   2.3842
  -5.100   0.0835   0.01610   0.01118  -0.1527  0.7965  0.0608  -1.4621   0.0000   0.0000   0.0000   2.1187
  -5.000   0.0943   0.01582   0.01087  -0.1528  0.7914  0.0629  -1.4169   0.0000   0.0000   0.0000   1.9042
  -4.900   0.1046   0.01555   0.01059  -0.1527  0.7889  0.0652  -1.3746   0.0000   0.0000   0.0000   1.7399
  -4.800   0.1151   0.01532   0.01034  -0.1526  0.7857  0.0675  -1.3332   0.0000   0.0000   0.0000   1.6022
  -4.700   0.1259   0.01516   0.01016  -0.1525  0.7819  0.0695  -1.2918   0.0000   0.0000   0.0000   1.4850
  -4.600   0.1369   0.01511   0.01009  -0.1524  0.7776  0.0713  -1.2491   0.0000   0.0000   0.0000   1.3840
  -4.500   0.1457   0.01208   0.00654  -0.1490  0.7742  0.0314  -1.5311   0.0000   0.0000   0.0000   1.2920
  -4.400   0.1573   0.01223   0.00666  -0.1489  0.7695  0.0295  -1.4739   0.0000   0.0000   0.0000   1.2142
  -4.300   0.1669   0.01164   0.00600  -0.1485  0.7647  0.0259  -1.4900   0.0000   0.0000   0.0000   1.1561
  -4.200   0.1769   0.01113   0.00540  -0.1484  0.7595  0.0246  -1.4844   0.0000   0.0000   0.0000   1.1036
  -4.100   0.1880   0.01078   0.00495  -0.1486  0.7538  0.0235  -1.4651   0.0000   0.0000   0.0000   1.0536
  -4.000   0.1999   0.01049   0.00457  -0.1488  0.7492  0.0225  -1.4380   0.0000   0.0000   0.0000   1.0068
  -3.900   0.2116   0.01024   0.00426  -0.1491  0.7474  0.0217  -1.4063   0.0000   0.0000   0.0000   0.9655
  -3.800   0.2234   0.01003   0.00400  -0.1493  0.7452  0.0211  -1.3709   0.0000   0.0000   0.0000   0.9283
  -3.700   0.2352   0.00987   0.00377  -0.1495  0.7425  0.0205  -1.3321   0.0000   0.0000   0.0000   0.8948
  -3.600   0.2469   0.00973   0.00359  -0.1496  0.7395  0.0201  -1.2895   0.0000   0.0000   0.0000   0.8645
  -3.500   0.2585   0.00964   0.00344  -0.1498  0.7362  0.0197  -1.2415   0.0000   0.0000   0.0000   0.8372
  -3.400   0.2698   0.00960   0.00328  -0.1498  0.7325  0.0194  -1.1699   0.0000   0.0000   0.0000   0.8126
  -3.300   0.2812   0.00952   0.00315  -0.1499  0.7286  0.0190  -1.1230   0.0000   0.0000   0.0000   0.7898
  -3.200   0.2924   0.00947   0.00303  -0.1500  0.7243  0.0187  -1.0748   0.0000   0.0000   0.0000   0.7689
  -3.100   0.3034   0.00942   0.00293  -0.1500  0.7194  0.0185  -1.0261   0.0000   0.0000   0.0000   0.7499
  -3.000   0.3143   0.00940   0.00283  -0.1500  0.7138  0.0182  -0.9773   0.0000   0.0000   0.0000   0.7322
  -2.900   0.3256   0.00938   0.00275  -0.1500  0.7076  0.0181  -0.9275   0.0000   0.0000   0.0000   0.7154
  -2.800   0.3373   0.00935   0.00268  -0.1502  0.7043  0.0179  -0.8772   0.0000   0.0000   0.0000   0.6995
  -2.700   0.3488   0.00929   0.00260  -0.1503  0.7026  0.0179  -0.8278   0.0000   0.0000   0.0000   0.6847
  -2.600   0.3603   0.00925   0.00253  -0.1504  0.7006  0.0179  -0.7788   0.0000   0.0000   0.0000   0.6709
  -2.500   0.3718   0.00921   0.00247  -0.1505  0.6982  0.0180  -0.7438   0.0000   0.0000   0.0000   0.6579
  -2.400   0.3833   0.00918   0.00241  -0.1506  0.6957  0.0183  -0.7515   0.0000   0.0000   0.0000   0.6457
  -2.300   0.3948   0.00915   0.00235  -0.1507  0.6928  0.0190  -0.7592   0.0000   0.0000   0.0000   0.6342
  -2.200   0.4062   0.00912   0.00229  -0.1507  0.6898  0.0207  -0.7669   0.0000   0.0000   0.0000   0.6233
  -2.100   0.4176   0.00910   0.00229  -0.1508  0.6865  0.0248  -0.7746   0.0000   0.0000   0.0000   0.6131
  -2.000   0.4375   0.00741   0.00183  -0.1548  0.6833  0.3976  -0.7860   0.0000   0.0000   0.0000   0.6055
  -1.900   0.4496   0.00725   0.00189  -0.1553  0.6797  0.4664  -0.7942   0.0000   0.0000   0.0000   0.5967
  -1.800   0.4606   0.00726   0.00197  -0.1553  0.6757  0.4888  -0.8018   0.0000   0.0000   0.0000   0.5883
  -1.700   0.4713   0.00731   0.00200  -0.1552  0.6711  0.4964  -0.8092   0.0000   0.0000   0.0000   0.5802
  -1.600   0.4822   0.00737   0.00202  -0.1552  0.6659  0.5001  -0.8167   0.0000   0.0000   0.0000   0.5725
  -1.500   0.4936   0.00744   0.00205  -0.1552  0.6604  0.5022  -0.8249   0.0000   0.0000   0.0000   0.5650
  -1.400   0.5051   0.00746   0.00206  -0.1553  0.6582  0.5040  -0.8337   0.0000   0.0000   0.0000   0.5578
  -1.300   0.5165   0.00745   0.00207  -0.1554  0.6569  0.5098  -0.8425   0.0000   0.0000   0.0000   0.5510
  -1.200   0.5279   0.00744   0.00209  -0.1555  0.6552  0.5152  -0.8513   0.0000   0.0000   0.0000   0.5444
  -1.100   0.5393   0.00745   0.00212  -0.1556  0.6533  0.5199  -0.8601   0.0000   0.0000   0.0000   0.5382
  -1.000   0.5507   0.00746   0.00215  -0.1556  0.6510  0.5239  -0.8689   0.0000   0.0000   0.0000   0.5322
  -0.900   0.5620   0.00748   0.00218  -0.1557  0.6487  0.5274  -0.8777   0.0000   0.0000   0.0000   0.5264
  -0.800   0.5732   0.00751   0.00221  -0.1557  0.6462  0.5305  -0.8864   0.0000   0.0000   0.0000   0.5209
  -0.700   0.5844   0.00754   0.00224  -0.1557  0.6436  0.5334  -0.8952   0.0000   0.0000   0.0000   0.5155
  -0.600   0.5955   0.00758   0.00227  -0.1558  0.6408  0.5361  -0.9039   0.0000   0.0000   0.0000   0.5104
  -0.500   0.6066   0.00762   0.00229  -0.1557  0.6380  0.5386  -0.9126   0.0000   0.0000   0.0000   0.5055
  -0.400   0.6175   0.00766   0.00232  -0.1557  0.6349  0.5410  -0.9212   0.0000   0.0000   0.0000   0.5007
  -0.300   0.6282   0.00772   0.00236  -0.1557  0.6316  0.5433  -0.9297   0.0000   0.0000   0.0000   0.4962
  -0.200   0.6387   0.00781   0.00243  -0.1555  0.6279  0.5475  -0.9381   0.0000   0.0000   0.0000   0.4917
  -0.100   0.6487   0.00797   0.00259  -0.1552  0.6237  0.5523  -0.9463   0.0000   0.0000   0.0000   0.4873
   0.000   0.6581   0.00828   0.00292  -0.1546  0.6189  0.5563  -0.9543   0.0000   0.0000   0.0000   0.4828
   0.100   0.6690   0.00825   0.00296  -0.1546  0.6140  0.5749  -0.9640   0.0000   0.0000   0.0000   0.4789
   0.200   0.6805   0.00828   0.00297  -0.1547  0.6112  0.5758  -0.9740   0.0000   0.0000   0.0000   0.4750
   0.300   0.6918   0.00827   0.00297  -0.1548  0.6103  0.5766  -0.9840   0.0000   0.0000   0.0000   0.4713
   0.400   0.7031   0.00827   0.00298  -0.1549  0.6091  0.5774  -0.9940   0.0000   0.0000   0.0000   0.4677
   0.500   0.7144   0.00827   0.00298  -0.1549  0.6077  0.5782  -1.0041   0.0000   0.0000   0.0000   0.4642
   0.600   0.7257   0.00827   0.00299  -0.1550  0.6062  0.5790  -1.0141   0.0000   0.0000   0.0000   0.4608
   0.700   0.7371   0.00828   0.00300  -0.1551  0.6045  0.5798  -1.0242   0.0000   0.0000   0.0000   0.4575
   0.800   0.7484   0.00829   0.00301  -0.1552  0.6027  0.5806  -1.0342   0.0000   0.0000   0.0000   0.4543
   0.900   0.7596   0.00831   0.00302  -0.1552  0.6006  0.5813  -1.0443   0.0000   0.0000   0.0000   0.4511
   1.000   0.7708   0.00833   0.00303  -0.1553  0.5984  0.5821  -1.0543   0.0000   0.0000   0.0000   0.4481
   1.100   0.7819   0.00835   0.00305  -0.1553  0.5961  0.5829  -1.0642   0.0000   0.0000   0.0000   0.4452
   1.200   0.7930   0.00837   0.00306  -0.1554  0.5936  0.5837  -1.0742   0.0000   0.0000   0.0000   0.4423
   1.300   0.8039   0.00840   0.00308  -0.1554  0.5911  0.5844  -1.0841   0.0000   0.0000   0.0000   0.4395
   1.400   0.8147   0.00844   0.00310  -0.1554  0.5882  0.5852  -1.0939   0.0000   0.0000   0.0000   0.4368
   1.500   0.8253   0.00848   0.00312  -0.1553  0.5851  0.5861  -1.1036   0.0000   0.0000   0.0000   0.4342
   1.600   0.8357   0.00853   0.00314  -0.1552  0.5815  0.5871  -1.1142   0.0000   0.0000   0.0000   0.4316
   1.700   0.8460   0.00859   0.00318  -0.1551  0.5773  0.5881  -1.1250   0.0000   0.0000   0.0000   0.4291
   1.800   0.8564   0.00865   0.00321  -0.1550  0.5726  0.5891  -1.1358   0.0000   0.0000   0.0000   0.4266
   1.900   0.8673   0.00873   0.00326  -0.1550  0.5678  0.5902  -1.1470   0.0000   0.0000   0.0000   0.4242
   2.000   0.8786   0.00879   0.00331  -0.1551  0.5636  0.5912  -1.1584   0.0000   0.0000   0.0000   0.4219
   2.100   0.8897   0.00880   0.00333  -0.1551  0.5629  0.5921  -1.1698   0.0000   0.0000   0.0000   0.4196
   2.200   0.9009   0.00881   0.00335  -0.1552  0.5620  0.5931  -1.1813   0.0000   0.0000   0.0000   0.4174
   2.300   0.9121   0.00882   0.00337  -0.1552  0.5611  0.5939  -1.1928   0.0000   0.0000   0.0000   0.4153
   2.400   0.9233   0.00883   0.00339  -0.1553  0.5600  0.5948  -1.2043   0.0000   0.0000   0.0000   0.4131
   2.500   0.9344   0.00884   0.00342  -0.1554  0.5587  0.5956  -1.2158   0.0000   0.0000   0.0000   0.4111
   2.600   0.9456   0.00885   0.00344  -0.1554  0.5572  0.5964  -1.2273   0.0000   0.0000   0.0000   0.4091
   2.700   0.9566   0.00887   0.00347  -0.1555  0.5554  0.5972  -1.2389   0.0000   0.0000   0.0000   0.4071
   2.800   0.9676   0.00890   0.00349  -0.1555  0.5532  0.5980  -1.2518   0.0000   0.0000   0.0000   0.4051
   2.900   0.9785   0.00892   0.00352  -0.1555  0.5506  0.5988  -1.2647   0.0000   0.0000   0.0000   0.4032
   3.000   0.9892   0.00896   0.00355  -0.1555  0.5478  0.5996  -1.2775   0.0000   0.0000   0.0000   0.4014
   3.100   0.9998   0.00899   0.00357  -0.1554  0.5447  0.6003  -1.2903   0.0000   0.0000   0.0000   0.3995
   3.200   1.0102   0.00904   0.00361  -0.1553  0.5414  0.6011  -1.3029   0.0000   0.0000   0.0000   0.3977
   3.300   1.0204   0.00909   0.00364  -0.1552  0.5380  0.6018  -1.3155   0.0000   0.0000   0.0000   0.3959
   3.400   1.0304   0.00916   0.00368  -0.1550  0.5344  0.6024  -1.3279   0.0000   0.0000   0.0000   0.3941
   3.500   1.0404   0.00922   0.00372  -0.1548  0.5307  0.6031  -1.3402   0.0000   0.0000   0.0000   0.3924
   3.600   1.0504   0.00929   0.00383  -0.1547  0.5267  0.6037  -1.3526   0.0000   0.0000   0.0000   0.3907
   3.700   1.0606   0.00936   0.00388  -0.1546  0.5224  0.6042  -1.3651   0.0000   0.0000   0.0000   0.3891
   3.800   1.0708   0.00946   0.00395  -0.1545  0.5154  0.6048  -1.3793   0.0000   0.0000   0.0000   0.3875
   3.900   1.0812   0.00944   0.00394  -0.1543  0.5129  0.6053  -1.3941   0.0000   0.0000   0.0000   0.3858
   4.000   1.0914   0.00944   0.00395  -0.1542  0.5074  0.6058  -1.4088   0.0000   0.0000   0.0000   0.3842
   4.100   1.1005   0.00951   0.00397  -0.1538  0.4982  0.6062  -1.4227   0.0000   0.0000   0.0000   0.3826
   4.200   1.1080   0.00964   0.00401  -0.1532  0.4862  0.6066  -1.4351   0.0000   0.0000   0.0000   0.3809
   4.300   1.1143   0.00982   0.00409  -0.1523  0.4713  0.6069  -1.4466   0.0000   0.0000   0.0000   0.3792
   4.400   1.1240   0.00988   0.00413  -0.1521  0.4640  0.6073  -1.4630   0.0000   0.0000   0.0000   0.3777
   4.500   1.1336   0.00996   0.00418  -0.1518  0.4557  0.6076  -1.4792   0.0000   0.0000   0.0000   0.3763
   4.600   1.1419   0.01008   0.00424  -0.1514  0.4449  0.6079  -1.4944   0.0000   0.0000   0.0000   0.3747
   4.700   1.1490   0.01025   0.00433  -0.1507  0.4335  0.6081  -1.5085   0.0000   0.0000   0.0000   0.3732
   4.800   1.1567   0.01040   0.00442  -0.1501  0.4225  0.6084  -1.5231   0.0000   0.0000   0.0000   0.3717
   4.900   1.1666   0.01047   0.00448  -0.1499  0.4183  0.6086  -1.5397   0.0000   0.0000   0.0000   0.3703
   5.000   1.1765   0.01053   0.00454  -0.1497  0.4141  0.6088  -1.5568   0.0000   0.0000   0.0000   0.3689
   5.100   1.1861   0.01061   0.00459  -0.1495  0.4087  0.6095  -1.5758   0.0000   0.0000   0.0000   0.3676
   5.200   1.1954   0.01068   0.00464  -0.1493  0.4023  0.6112  -1.5946   0.0000   0.0000   0.0000   0.3663
   5.300   1.2042   0.01078   0.00469  -0.1490  0.3958  0.6128  -1.6128   0.0000   0.0000   0.0000   0.3650
   5.400   1.2120   0.01090   0.00477  -0.1484  0.3883  0.6144  -1.6302   0.0000   0.0000   0.0000   0.3636
   5.500   1.2195   0.01104   0.00485  -0.1478  0.3791  0.6160  -1.6471   0.0000   0.0000   0.0000   0.3622
   5.600   1.2282   0.01112   0.00491  -0.1475  0.3730  0.6176  -1.6677   0.0000   0.0000   0.0000   0.3609
   5.700   1.2374   0.01119   0.00497  -0.1472  0.3684  0.6192  -1.6897   0.0000   0.0000   0.0000   0.3597
   5.800   1.2459   0.01128   0.00505  -0.1468  0.3620  0.6208  -1.7110   0.0000   0.0000   0.0000   0.3584
   5.900   1.2534   0.01142   0.00515  -0.1462  0.3537  0.6224  -1.7313   0.0000   0.0000   0.0000   0.3571
   6.000   1.2600   0.01159   0.00527  -0.1454  0.3447  0.6239  -1.7506   0.0000   0.0000   0.0000   0.3558
   6.100   1.2668   0.01178   0.00539  -0.1447  0.3351  0.6254  -1.7700   0.0000   0.0000   0.0000   0.3544
   6.200   1.2751   0.01189   0.00549  -0.1443  0.3282  0.6270  -1.7913   0.0000   0.0000   0.0000   0.3532
   6.300   1.2837   0.01200   0.00559  -0.1439  0.3231  0.6285  -1.8132   0.0000   0.0000   0.0000   0.3520
   6.400   1.2914   0.01215   0.00571  -0.1434  0.3151  0.6300  -1.8339   0.0000   0.0000   0.0000   0.3508
   6.500   1.2973   0.01238   0.00588  -0.1425  0.3042  0.6316  -1.8534   0.0000   0.0000   0.0000   0.3495
   6.600   1.3023   0.01266   0.00607  -0.1416  0.2912  0.6332  -1.8747   0.0000   0.0000   0.0000   0.3482
   6.700   1.3099   0.01281   0.00621  -0.1410  0.2831  0.6348  -1.8996   0.0000   0.0000   0.0000   0.3470
   6.800   1.3174   0.01297   0.00634  -0.1404  0.2760  0.6364  -1.9245   0.0000   0.0000   0.0000   0.3458
   6.900   1.3238   0.01318   0.00651  -0.1397  0.2668  0.6379  -1.9514   0.0000   0.0000   0.0000   0.3446
   7.000   1.3288   0.01347   0.00673  -0.1388  0.2557  0.6393  -1.9774   0.0000   0.0000   0.0000   0.3433
   7.100   1.3348   0.01372   0.00692  -0.1380  0.2442  0.6407  -2.0050   0.0000   0.0000   0.0000   0.3421
   7.200   1.3417   0.01391   0.00708  -0.1373  0.2366  0.6420  -2.0342   0.0000   0.0000   0.0000   0.3410
   7.300   1.3465   0.01420   0.00730  -0.1363  0.2249  0.6433  -2.0601   0.0000   0.0000   0.0000   0.3398
   7.400   1.3491   0.01460   0.00760  -0.1350  0.2097  0.6445  -2.0822   0.0000   0.0000   0.0000   0.3384
   7.500   1.3832   0.01345   0.00716  -0.1388  0.2748  0.6461  -2.1619   0.0000   0.0000   0.0000   0.3386
   7.600   1.3895   0.01367   0.00734  -0.1381  0.2669  0.6473  -2.1913   0.0000   0.0000   0.0000   0.3374
   7.700   1.3941   0.01395   0.00757  -0.1371  0.2572  0.6485  -2.2214   0.0000   0.0000   0.0000   0.3362
   7.800   1.3989   0.01424   0.00780  -0.1361  0.2456  0.6497  -2.2872   0.0000   0.0000   0.0000   0.3350
   7.900   1.4058   0.01442   0.00796  -0.1354  0.2398  0.6509  -2.3619   0.0000   0.0000   0.0000   0.3339
   8.000   1.4114   0.01466   0.00817  -0.1346  0.2312  0.6521  -2.4323   0.0000   0.0000   0.0000   0.3328
   8.100   1.4150   0.01501   0.00844  -0.1335  0.2202  0.6532  -2.4951   0.0000   0.0000   0.0000   0.3316
   8.200   1.4188   0.01537   0.00873  -0.1324  0.2076  0.6543  -2.5586   0.0000   0.0000   0.0000   0.3305
   8.300   1.4250   0.01559   0.00893  -0.1317  0.2009  0.6554  -2.6333   0.0000   0.0000   0.0000   0.3294
   8.400   1.4299   0.01589   0.00918  -0.1308  0.1920  0.6565  -2.7027   0.0000   0.0000   0.0000   0.3283
   8.500   1.4320   0.01632   0.00953  -0.1295  0.1806  0.6575  -2.7609   0.0000   0.0000   0.0000   0.3271
   8.600   1.4351   0.01670   0.00985  -0.1283  0.1687  0.6584  -2.8234   0.0000   0.0000   0.0000   0.3259
   8.700   1.4391   0.01702   0.01013  -0.1273  0.1605  0.6593  -2.8906   0.0000   0.0000   0.0000   0.3248
   8.800   1.4411   0.01746   0.01050  -0.1260  0.1499  0.6600  -2.9494   0.0000   0.0000   0.0000   0.3236
   8.900   1.4427   0.01794   0.01090  -0.1246  0.1374  0.6608  -3.0067   0.0000   0.0000   0.0000   0.3225
   9.000   1.4474   0.01826   0.01119  -0.1238  0.1307  0.6614  -3.0783   0.0000   0.0000   0.0000   0.3214
   9.100   1.4503   0.01867   0.01155  -0.1227  0.1226  0.6620  -3.1420   0.0000   0.0000   0.0000   0.3203
   9.200   1.4505   0.01922   0.01202  -0.1212  0.1126  0.6625  -3.1940   0.0000   0.0000   0.0000   0.3191
   9.300   1.4535   0.01963   0.01240  -0.1202  0.1040  0.6630  -3.2588   0.0000   0.0000   0.0000   0.3181
   9.400   1.4568   0.02004   0.01279  -0.1192  0.0969  0.6666  -3.3248   0.0000   0.0000   0.0000   0.3171
   9.500   1.4576   0.02061   0.01328  -0.1179  0.0881  0.6704  -3.3796   0.0000   0.0000   0.0000   0.3160
   9.600   1.4594   0.02112   0.01374  -0.1168  0.0783  0.6743  -3.4394   0.0000   0.0000   0.0000   0.3149
   9.700   1.4616   0.02160   0.01421  -0.1157  0.0720  0.6781  -3.5009   0.0000   0.0000   0.0000   0.3139
   9.800   1.4607   0.02227   0.01484  -0.1143  0.0637  0.6815  -3.5484   0.0000   0.0000   0.0000   0.3128
   9.900   1.4612   0.02289   0.01540  -0.1131  0.0545  0.6848  -3.6018   0.0000   0.0000   0.0000   0.3118
  10.000   1.4621   0.02349   0.01597  -0.1120  0.0469  0.6879  -3.6572   0.0000   0.0000   0.0000   0.3108
  10.100   1.4586   0.02435   0.01677  -0.1104  0.0379  0.6905  -3.6911   0.0000   0.0000   0.0000   0.3097
  10.200   1.4582   0.02503   0.01743  -0.1092  0.0308  0.6932  -3.7393   0.0000   0.0000   0.0000   0.3087
  10.300   1.4548   0.02597   0.01830  -0.1077  0.0221  0.6957  -3.7721   0.0000   0.0000   0.0000   0.3077
  10.500   1.4491   0.02788   0.02015  -0.1050  0.0090  0.7005  -3.8383   0.0000   0.0000   0.0000   0.3057
  10.600   1.4488   0.02870   0.02093  -0.1039  0.0071  0.7029  -3.8657   0.0000   0.0000   0.0000   0.3048
  10.700   1.4513   0.02934   0.02161  -0.1031  0.0054  0.7054  -3.8813   0.0000   0.0000   0.0000   0.3040
  10.800   1.4554   0.02986   0.02218  -0.1025  0.0051  0.7078  -3.9301   0.0000   0.0000   0.0000   0.3032
  10.900   1.4595   0.03037   0.02275  -0.1019  0.0049  0.7101  -3.9862   0.0000   0.0000   0.0000   0.3024
  11.000   1.4635   0.03091   0.02333  -0.1014  0.0048  0.7122  -4.0444   0.0000   0.0000   0.0000   0.3016
  11.100   1.4665   0.03153   0.02400  -0.1008  0.0047  0.7140  -4.1002   0.0000   0.0000   0.0000   0.3009
  11.200   1.4693   0.03217   0.02468  -0.1002  0.0047  0.7156  -4.1561   0.0000   0.0000   0.0000   0.3002
  11.400   1.4759   0.03339   0.02602  -0.0991  0.0046  0.7252  -4.2747   0.0000   0.0000   0.0000   0.2987
  11.500   1.4794   0.03401   0.02671  -0.0986  0.0046  0.7322  -4.3355   0.0000   0.0000   0.0000   0.2981
  11.600   1.4827   0.03464   0.02740  -0.0981  0.0046  0.7384  -4.3964   0.0000   0.0000   0.0000   0.2974
  11.700   1.4859   0.03529   0.02811  -0.0976  0.0046  0.7441  -4.4568   0.0000   0.0000   0.0000   0.2967
  11.800   1.4879   0.03605   0.02894  -0.0971  0.0046  0.7496  -4.5119   0.0000   0.0000   0.0000   0.2961
  11.900   1.4893   0.03686   0.02981  -0.0965  0.0046  0.7550  -4.5650   0.0000   0.0000   0.0000   0.2954
  12.000   1.4903   0.03774   0.03081  -0.0960  0.0046  0.7600  -4.6002   0.0000   0.0000   0.0000   0.2948
  12.100   1.4923   0.03853   0.03166  -0.0955  0.0046  0.7649  -4.6531   0.0000   0.0000   0.0000   0.2942
  12.300   1.4964   0.04011   0.03337  -0.0945  0.0047  0.7814  -4.7636   0.0000   0.0000   0.0000   0.2930
  12.400   1.4980   0.04095   0.03428  -0.0941  0.0047  0.7918  -4.8172   0.0000   0.0000   0.0000   0.2924
  12.500   1.4979   0.04196   0.03537  -0.0936  0.0047  0.8017  -4.8630   0.0000   0.0000   0.0000   0.2918
  12.600   1.4981   0.04296   0.03645  -0.0931  0.0048  0.8118  -4.9103   0.0000   0.0000   0.0000   0.2913
  12.800   1.4995   0.04478   0.03844  -0.0922  0.0048  0.8459  -5.0103   0.0000   0.0000   0.0000   0.2902
  12.900   1.4996   0.04563   0.03940  -0.0916  0.0049  0.8727  -5.0574   0.0000   0.0000   0.0000   0.2896
  13.000   1.4959   0.04625   0.04016  -0.0902  0.0049  1.0000  -5.0878   0.0000   0.0000   0.0000   0.2887
  13.100   1.4957   0.04734   0.04130  -0.0899  0.0049  1.0000  -5.1326   0.0000   0.0000   0.0000   0.2882
  13.200   1.4940   0.04864   0.04264  -0.0896  0.0050  1.0000  -5.1699   0.0000   0.0000   0.0000   0.2879
  13.300   1.4935   0.04983   0.04389  -0.0893  0.0050  1.0000  -5.2129   0.0000   0.0000   0.0000   0.2875
  13.400   1.4935   0.05098   0.04508  -0.0891  0.0051  1.0000  -5.2583   0.0000   0.0000   0.0000   0.2871
  13.500   1.4936   0.05213   0.04629  -0.0888  0.0051  1.0000  -5.3037   0.0000   0.0000   0.0000   0.2867
  13.600   1.4935   0.05333   0.04753  -0.0886  0.0052  1.0000  -5.3479   0.0000   0.0000   0.0000   0.2864
  13.700   1.4931   0.05457   0.04883  -0.0884  0.0052  1.0000  -5.3903   0.0000   0.0000   0.0000   0.2860
  13.800   1.4909   0.05612   0.05043  -0.0883  0.0053  1.0000  -5.4222   0.0000   0.0000   0.0000   0.2858
  13.900   1.4887   0.05767   0.05204  -0.0882  0.0053  1.0000  -5.4537   0.0000   0.0000   0.0000   0.2856
  14.000   1.4875   0.05910   0.05352  -0.0881  0.0054  1.0000  -5.4896   0.0000   0.0000   0.0000   0.2854
  14.100   1.4865   0.06050   0.05498  -0.0880  0.0054  1.0000  -5.5261   0.0000   0.0000   0.0000   0.2851
  14.200   1.4855   0.06193   0.05647  -0.0879  0.0055  1.0000  -5.5612   0.0000   0.0000   0.0000   0.2849
  14.300   1.4842   0.06341   0.05800  -0.0879  0.0056  1.0000  -5.5934   0.0000   0.0000   0.0000   0.2847
  14.400   1.4822   0.06501   0.05966  -0.0879  0.0057  1.0000  -5.6206   0.0000   0.0000   0.0000   0.2845
  14.500   1.4778   0.06700   0.06172  -0.0880  0.0057  1.0000  -5.6346   0.0000   0.0000   0.0000   0.2846
  14.600   1.4750   0.06878   0.06356  -0.0881  0.0058  1.0000  -5.6546   0.0000   0.0000   0.0000   0.2845
  14.700   1.4727   0.07047   0.06531  -0.0881  0.0059  1.0000  -5.6750   0.0000   0.0000   0.0000   0.2844
  14.800   1.4703   0.07215   0.06706  -0.0882  0.0060  1.0000  -5.6930   0.0000   0.0000   0.0000   0.2843
  14.900   1.4678   0.07387   0.06883  -0.0882  0.0061  1.0000  -5.7082   0.0000   0.0000   0.0000   0.2842
  15.000   1.4650   0.07562   0.07066  -0.0883  0.0062  1.0000  -5.7205   0.0000   0.0000   0.0000   0.2841
  15.100   1.4613   0.07756   0.07266  -0.0885  0.0063  1.0000  -5.7274   0.0000   0.0000   0.0000   0.2842
  15.200   1.4561   0.07977   0.07494  -0.0889  0.0064  1.0000  -5.7268   0.0000   0.0000   0.0000   0.2844
  15.300   1.4524   0.08169   0.07693  -0.0891  0.0066  1.0000  -5.7310   0.0000   0.0000   0.0000   0.2845
  15.400   1.4492   0.08349   0.07880  -0.0892  0.0067  1.0000  -5.7358   0.0000   0.0000   0.0000   0.2845
  15.500   1.4464   0.08523   0.08061  -0.0893  0.0069  1.0000  -5.7398   0.0000   0.0000   0.0000   0.2845
  15.600   1.4436   0.08695   0.08240  -0.0895  0.0070  1.0000  -5.7427   0.0000   0.0000   0.0000   0.2844
  15.700   1.4409   0.08864   0.08416  -0.0895  0.0072  1.0000  -5.7437   0.0000   0.0000   0.0000   0.2844
  15.800   1.4382   0.09031   0.08590  -0.0896  0.0074  1.0000  -5.7425   0.0000   0.0000   0.0000   0.2843
  15.900   1.4354   0.09196   0.08763  -0.0897  0.0076  1.0000  -5.7376   0.0000   0.0000   0.0000   0.2842
  16.000   1.4325   0.09358   0.08932  -0.0897  0.0079  1.0000  -5.7292   0.0000   0.0000   0.0000   0.2842
  16.100   1.4290   0.09529   0.09112  -0.0898  0.0081  1.0000  -5.7156   0.0000   0.0000   0.0000   0.2842
  16.200   1.4252   0.09703   0.09295  -0.0899  0.0084  1.0000  -5.6965   0.0000   0.0000   0.0000   0.2842
  16.300   1.4213   0.09867   0.09467  -0.0899  0.0087  1.0000  -5.6696   0.0000   0.0000   0.0000   0.2841
  16.400   1.4163   0.10005   0.09616  -0.0896  0.0091  1.0000  -5.6170   0.0000   0.0000   0.0000   0.2838
  16.500   1.4320   0.09886   0.09496  -0.0881  0.0119  1.0000  -5.6531   0.0000   0.0000   0.0000   0.2819
  20.300   1.0705   0.28575   0.28448  -0.1642  0.0211  1.0000  -2.2284   0.0000   0.0000   0.0000   0.3710
  20.400   1.0677   0.28904   0.28777  -0.1650  0.0210  1.0000  -2.1984   0.0000   0.0000   0.0000   0.3721
  20.500   1.0649   0.29209   0.29083  -0.1658  0.0210  1.0000  -2.1730   0.0000   0.0000   0.0000   0.3731
  20.600   1.0625   0.29481   0.29356  -0.1664  0.0209  1.0000  -2.1551   0.0000   0.0000   0.0000   0.3739
  20.700   1.0614   0.29696   0.29571  -0.1670  0.0207  1.0000  -2.1543   0.0000   0.0000   0.0000   0.3745
  20.800   1.0627   0.29841   0.29717  -0.1675  0.0203  1.0000  -2.1778   0.0000   0.0000   0.0000   0.3746
  20.900   1.0627   0.30007   0.29883  -0.1680  0.0198  1.0000  -2.1900   0.0000   0.0000   0.0000   0.3749
  21.000   1.0590   0.30209   0.30086  -0.1683  0.0193  1.0000  -2.1756   0.0000   0.0000   0.0000   0.3757


