xflr5 v6.61

 Calculated polar for: EPPLER 580 AIRFOIL

 1 1 Reynolds number fixed          Mach number fixed         

 xtrf =   1.000 (top)        1.000 (bottom)
 Mach =   0.000     Re =     0.130 e 6     Ncrit =   9.000

  alpha     CL        CD       CDp       Cm    Top Xtr Bot Xtr   Cpmin    Chinge    XCp    
 ------- -------- --------- --------- -------- ------- ------- -------- --------- ---------
 -10.000  -0.3375   0.11926   0.11527  -0.0384  1.0000  0.0828  -1.3722   0.0000   0.0000   0.0000   0.1163
  -9.900  -0.3391   0.11861   0.11464  -0.0377  1.0000  0.0835  -1.3677   0.0000   0.0000   0.0000   0.1193
  -9.800  -0.3411   0.11796   0.11402  -0.0370  1.0000  0.0843  -1.3649   0.0000   0.0000   0.0000   0.1224
  -9.700  -0.3435   0.11732   0.11340  -0.0363  1.0000  0.0850  -1.3636   0.0000   0.0000   0.0000   0.1255
  -9.600  -0.3462   0.11668   0.11278  -0.0356  1.0000  0.0857  -1.3636   0.0000   0.0000   0.0000   0.1286
  -9.500  -0.3492   0.11604   0.11217  -0.0350  1.0000  0.0865  -1.3650   0.0000   0.0000   0.0000   0.1318
  -9.400  -0.3525   0.11540   0.11157  -0.0343  1.0000  0.0873  -1.3677   0.0000   0.0000   0.0000   0.1349
  -9.300  -0.3561   0.11476   0.11096  -0.0337  1.0000  0.0880  -1.3714   0.0000   0.0000   0.0000   0.1381
  -9.200  -0.3545   0.11356   0.10976  -0.0345  0.9992  0.0893  -1.3719   0.0000   0.0000   0.0000   0.1355
  -9.100  -0.3483   0.11180   0.10800  -0.0368  0.9975  0.0911  -1.3720   0.0000   0.0000   0.0000   0.1269
  -9.000  -0.3428   0.11001   0.10621  -0.0393  0.9958  0.0931  -1.3773   0.0000   0.0000   0.0000   0.1179
  -8.900  -0.3382   0.10817   0.10437  -0.0419  0.9936  0.0952  -1.3884   0.0000   0.0000   0.0000   0.1085
  -8.800  -0.3347   0.10634   0.10254  -0.0452  0.9911  0.0977  -1.4098   0.0000   0.0000   0.0000   0.0973
  -8.700  -0.3342   0.10466   0.10087  -0.0503  0.9883  0.1006  -1.4573   0.0000   0.0000   0.0000   0.0820
  -8.600  -0.3335   0.10388   0.10010  -0.0556  0.9846  0.1028  -1.5011   0.0000   0.0000   0.0000   0.0659
  -8.500  -0.3350   0.10226   0.09848  -0.0594  0.9803  0.1034  -1.5382   0.0000   0.0000   0.0000   0.0556
  -8.400  -0.3367   0.10019   0.09639  -0.0634  0.9767  0.1037  -1.5765   0.0000   0.0000   0.0000   0.0449
  -8.300  -0.3382   0.09813   0.09431  -0.0673  0.9737  0.1038  -1.6109   0.0000   0.0000   0.0000   0.0344
  -8.200  -0.3418   0.09637   0.09253  -0.0703  0.9701  0.1039  -1.6413   0.0000   0.0000   0.0000   0.0282
  -8.100  -0.3492   0.09508   0.09124  -0.0713  0.9637  0.1040  -1.6669   0.0000   0.0000   0.0000   0.0303
  -8.000  -0.3238   0.08714   0.08342  -0.0683  0.9719  0.1102  -1.5904   0.0000   0.0000   0.0000   0.0220
  -7.900  -0.3119   0.08678   0.08306  -0.0670  0.9699  0.1117  -1.5341   0.0000   0.0000   0.0000   0.0178
  -7.800  -0.3050   0.08606   0.08234  -0.0664  0.9665  0.1132  -1.5014   0.0000   0.0000   0.0000   0.0146
  -7.700  -0.2980   0.08507   0.08135  -0.0668  0.9635  0.1150  -1.4764   0.0000   0.0000   0.0000   0.0081
  -7.600  -0.2907   0.08391   0.08019  -0.0676  0.9609  0.1170  -1.4561   0.0000   0.0000   0.0000  -0.0006
  -7.500  -0.2844   0.08249   0.07869  -0.0691  0.9584  0.1194  -1.4492   0.0000   0.0000   0.0000  -0.0112
  -7.400  -0.2796   0.08073   0.07693  -0.0714  0.9561  0.1221  -1.4492   0.0000   0.0000   0.0000  -0.0237
  -7.300  -0.2772   0.07851   0.07471  -0.0748  0.9538  0.1251  -1.4650   0.0000   0.0000   0.0000  -0.0381
  -7.200  -0.2862   0.07672   0.07293  -0.0761  0.9477  0.1267  -1.4973   0.0000   0.0000   0.0000  -0.0334
  -7.100  -0.2978   0.07487   0.07118  -0.0775  0.9402  0.1279  -1.5310   0.0000   0.0000   0.0000  -0.0268
  -7.000  -0.3043   0.07141   0.06766  -0.0843  0.9342  0.1310  -1.5876   0.0000   0.0000   0.0000  -0.0429
  -6.800  -0.3063   0.07238   0.06826  -0.0920  0.9195  0.1381  -1.6163   0.0000   0.0000   0.0000  -0.0652
  -6.700  -0.3307   0.06469   0.06050  -0.0955  0.9136  0.1414  -1.7206   0.0000   0.0000   0.0000  -0.0525
  -6.600  -0.3270   0.06127   0.05717  -0.0960  0.9119  0.1447  -1.7074   0.0000   0.0000   0.0000  -0.0572
  -6.500  -0.3129   0.06030   0.05632  -0.0950  0.9110  0.1475  -1.6531   0.0000   0.0000   0.0000  -0.0677
  -6.400  -0.2992   0.05962   0.05562  -0.0944  0.9098  0.1508  -1.6087   0.0000   0.0000   0.0000  -0.0801
  -6.300  -0.2872   0.05867   0.05468  -0.0950  0.9081  0.1547  -1.5722   0.0000   0.0000   0.0000  -0.0956
  -5.500  -0.2091   0.03888   0.03253  -0.1106  0.8813  0.0695  -1.9548   0.0000   0.0000   0.0000  -0.2975
  -5.400  -0.1952   0.03637   0.02979  -0.1120  0.8796  0.0648  -1.9759   0.0000   0.0000   0.0000  -0.3438
  -5.300  -0.1789   0.03423   0.02735  -0.1132  0.8782  0.0594  -2.0096   0.0000   0.0000   0.0000  -0.4044
  -5.200  -0.1609   0.03249   0.02521  -0.1140  0.8769  0.0538  -2.0590   0.0000   0.0000   0.0000  -0.4823
  -5.100  -0.1430   0.03196   0.02448  -0.1148  0.8755  0.0514  -2.0376   0.0000   0.0000   0.0000  -0.5790
  -5.000  -0.1254   0.03170   0.02413  -0.1157  0.8741  0.0501  -1.9893   0.0000   0.0000   0.0000  -0.7020
  -4.900  -0.1077   0.03148   0.02387  -0.1167  0.8730  0.0492  -1.9342   0.0000   0.0000   0.0000  -0.8658
  -4.800  -0.0899   0.03125   0.02361  -0.1177  0.8719  0.0485  -1.8770   0.0000   0.0000   0.0000  -1.0973
  -4.700  -0.0740   0.02964   0.02187  -0.1186  0.8712  0.0475  -1.8715   0.0000   0.0000   0.0000  -1.3979
  -4.600  -0.0576   0.02845   0.02059  -0.1196  0.8705  0.0469  -1.8528   0.0000   0.0000   0.0000  -1.8843
  -4.500  -0.0408   0.02748   0.01955  -0.1204  0.8698  0.0464  -1.8270   0.0000   0.0000   0.0000  -2.7802
  -4.400  -0.0239   0.02662   0.01865  -0.1213  0.8691  0.0460  -1.7974   0.0000   0.0000   0.0000  -4.9488
  -4.300  -0.0069   0.02587   0.01785  -0.1222  0.8684  0.0457  -1.7650   0.0000   0.0000   0.0000  -17.9277
  -4.200  -0.0266   0.02651   0.01850  -0.1172  0.8565  0.0457  -1.7796   0.0000   0.0000   0.0000  -4.2596
  -4.100  -0.0170   0.02605   0.01802  -0.1169  0.8532  0.0456  -1.7556   0.0000   0.0000   0.0000  -6.7869
  -4.000  -0.0054   0.02556   0.01751  -0.1169  0.8506  0.0454  -1.7277   0.0000   0.0000   0.0000  -22.0109
  -3.900   0.0078   0.02505   0.01698  -0.1172  0.8484  0.0453  -1.6965   0.0000   0.0000   0.0000  15.6724
  -3.800   0.0220   0.02454   0.01644  -0.1177  0.8465  0.0454  -1.6628   0.0000   0.0000   0.0000   5.7113
  -3.700   0.0374   0.02403   0.01590  -0.1184  0.8449  0.0455  -1.6265   0.0000   0.0000   0.0000   3.4880
  -3.600   0.0538   0.02353   0.01536  -0.1194  0.8435  0.0459  -1.5880   0.0000   0.0000   0.0000   2.5181
  -3.500   0.0712   0.02305   0.01481  -0.1206  0.8422  0.0464  -1.5474   0.0000   0.0000   0.0000   1.9794
  -3.400   0.0894   0.02259   0.01427  -0.1220  0.8411  0.0471  -1.5051   0.0000   0.0000   0.0000   1.6411
  -3.300   0.1085   0.02216   0.01374  -0.1235  0.8400  0.0481  -1.4610   0.0000   0.0000   0.0000   1.4095
  -3.200   0.1297   0.02152   0.01295  -0.1255  0.8391  0.0535  -1.4419   0.0000   0.0000   0.0000   1.2344
  -3.100   0.1611   0.01905   0.01246  -0.1319  0.8392  0.4644  -1.4423   0.0000   0.0000   0.0000   1.0818
  -3.000   0.1741   0.01987   0.01341  -0.1306  0.8376  0.5442  -1.4057   0.0000   0.0000   0.0000   1.0112
  -2.800   0.2131   0.01955   0.01269  -0.1336  0.8353  0.5494  -1.1969   0.0000   0.0000   0.0000   0.8851
  -2.700   0.2259   0.01998   0.01317  -0.1325  0.8338  0.5666  -1.1434   0.0000   0.0000   0.0000   0.8443
  -2.600   0.2335   0.02090   0.01423  -0.1296  0.8320  0.5853  -1.0922   0.0000   0.0000   0.0000   0.8123
  -2.500   0.2227   0.02131   0.01466  -0.1260  0.8235  0.5871  -1.0928   0.0000   0.0000   0.0000   0.8228
  -2.400   0.2253   0.02163   0.01496  -0.1242  0.8180  0.5929  -1.0600   0.0000   0.0000   0.0000   0.8081
  -2.300   0.2353   0.02180   0.01507  -0.1239  0.8145  0.5983  -1.0090   0.0000   0.0000   0.0000   0.7824
  -2.200   0.2479   0.02194   0.01516  -0.1240  0.8117  0.6033  -0.9507   0.0000   0.0000   0.0000   0.7555
  -2.100   0.2618   0.02207   0.01524  -0.1243  0.8093  0.6071  -0.8884   0.0000   0.0000   0.0000   0.7296
  -2.000   0.2761   0.02201   0.01513  -0.1248  0.8072  0.6109  -0.8252   0.0000   0.0000   0.0000   0.7062
  -1.900   0.2886   0.02185   0.01497  -0.1247  0.8053  0.6152  -0.7660   0.0000   0.0000   0.0000   0.6859
  -1.800   0.2960   0.02207   0.01525  -0.1228  0.8033  0.6220  -0.7158   0.0000   0.0000   0.0000   0.6684
  -1.700   0.3009   0.02258   0.01583  -0.1199  0.8013  0.6319  -0.6989   0.0000   0.0000   0.0000   0.6516
  -1.600   0.3073   0.02319   0.01649  -0.1172  0.7994  0.6456  -0.7052   0.0000   0.0000   0.0000   0.6343
  -1.500   0.3211   0.02423   0.01751  -0.1163  0.7978  0.6618  -0.7157   0.0000   0.0000   0.0000   0.6146
  -1.400   0.3255   0.02389   0.01721  -0.1138  0.7961  0.6721  -0.7214   0.0000   0.0000   0.0000   0.6018
  -1.300   0.3293   0.02419   0.01755  -0.1106  0.7943  0.6804  -0.7269   0.0000   0.0000   0.0000   0.5876
  -1.200   0.3377   0.02449   0.01785  -0.1087  0.7922  0.6876  -0.7345   0.0000   0.0000   0.0000   0.5736
  -1.100   0.3302   0.02473   0.01813  -0.1058  0.7866  0.6896  -0.7310   0.0000   0.0000   0.0000   0.5718
  -1.000   0.3283   0.02490   0.01831  -0.1037  0.7809  0.6919  -0.7308   0.0000   0.0000   0.0000   0.5673
  -0.900   0.3357   0.02488   0.01826  -0.1034  0.7767  0.6934  -0.7364   0.0000   0.0000   0.0000   0.5590
  -0.800   0.3473   0.02476   0.01812  -0.1038  0.7733  0.6949  -0.7446   0.0000   0.0000   0.0000   0.5494
  -0.700   0.3613   0.02460   0.01792  -0.1045  0.7704  0.6963  -0.7544   0.0000   0.0000   0.0000   0.5396
  -0.600   0.3768   0.02443   0.01770  -0.1055  0.7680  0.6981  -0.7651   0.0000   0.0000   0.0000   0.5299
  -0.500   0.3930   0.02426   0.01750  -0.1065  0.7657  0.7003  -0.7762   0.0000   0.0000   0.0000   0.5208
  -0.400   0.4096   0.02411   0.01731  -0.1077  0.7637  0.7025  -0.7877   0.0000   0.0000   0.0000   0.5124
  -0.300   0.4267   0.02397   0.01713  -0.1089  0.7618  0.7046  -0.7994   0.0000   0.0000   0.0000   0.5046
  -0.200   0.4443   0.02383   0.01694  -0.1103  0.7600  0.7063  -0.8113   0.0000   0.0000   0.0000   0.4974
  -0.100   0.4623   0.02368   0.01675  -0.1118  0.7582  0.7076  -0.8236   0.0000   0.0000   0.0000   0.4908
   0.000   0.4804   0.02354   0.01656  -0.1134  0.7564  0.7087  -0.8359   0.0000   0.0000   0.0000   0.4847
   0.100   0.4984   0.02343   0.01641  -0.1149  0.7545  0.7098  -0.8486   0.0000   0.0000   0.0000   0.4790
   0.200   0.5162   0.02338   0.01632  -0.1164  0.7524  0.7109  -0.8619   0.0000   0.0000   0.0000   0.4738
   0.300   0.5336   0.02345   0.01635  -0.1179  0.7499  0.7119  -0.8748   0.0000   0.0000   0.0000   0.4691
   0.400   0.5386   0.02357   0.01648  -0.1172  0.7469  0.7129  -0.8797   0.0000   0.0000   0.0000   0.4657
   0.500   0.5426   0.02371   0.01663  -0.1164  0.7432  0.7138  -0.8840   0.0000   0.0000   0.0000   0.4624
   0.600   0.5488   0.02382   0.01675  -0.1159  0.7393  0.7146  -0.8897   0.0000   0.0000   0.0000   0.4589
   0.700   0.5576   0.02389   0.01681  -0.1158  0.7356  0.7154  -0.8972   0.0000   0.0000   0.0000   0.4552
   0.800   0.5685   0.02391   0.01683  -0.1160  0.7321  0.7162  -0.9062   0.0000   0.0000   0.0000   0.4515
   0.900   0.5811   0.02379   0.01675  -0.1166  0.7289  0.7172  -0.9164   0.0000   0.0000   0.0000   0.4478
   1.000   0.5946   0.02346   0.01639  -0.1173  0.7260  0.7187  -0.9273   0.0000   0.0000   0.0000   0.4443
   1.100   0.6085   0.02318   0.01609  -0.1180  0.7233  0.7201  -0.9386   0.0000   0.0000   0.0000   0.4408
   1.200   0.6228   0.02295   0.01583  -0.1187  0.7208  0.7214  -0.9503   0.0000   0.0000   0.0000   0.4373
   1.300   0.6373   0.02275   0.01561  -0.1194  0.7184  0.7227  -0.9621   0.0000   0.0000   0.0000   0.4339
   1.400   0.6520   0.02259   0.01542  -0.1201  0.7162  0.7239  -0.9739   0.0000   0.0000   0.0000   0.4307
   1.500   0.6666   0.02246   0.01527  -0.1208  0.7140  0.7251  -0.9858   0.0000   0.0000   0.0000   0.4276
   1.600   0.6813   0.02238   0.01515  -0.1215  0.7118  0.7263  -0.9977   0.0000   0.0000   0.0000   0.4246
   1.700   0.6960   0.02235   0.01509  -0.1222  0.7095  0.7274  -1.0105   0.0000   0.0000   0.0000   0.4218
   1.800   0.7107   0.02244   0.01515  -0.1230  0.7067  0.7286  -1.0235   0.0000   0.0000   0.0000   0.4191
   1.900   0.7194   0.02260   0.01532  -0.1228  0.7039  0.7298  -1.0322   0.0000   0.0000   0.0000   0.4167
   2.000   0.7240   0.02269   0.01545  -0.1219  0.7012  0.7313  -1.0382   0.0000   0.0000   0.0000   0.4141
   2.100   0.7286   0.02280   0.01559  -0.1209  0.6980  0.7329  -1.0442   0.0000   0.0000   0.0000   0.4116
   2.200   0.7342   0.02290   0.01572  -0.1201  0.6946  0.7346  -1.0510   0.0000   0.0000   0.0000   0.4091
   2.300   0.7413   0.02297   0.01581  -0.1195  0.6911  0.7364  -1.0589   0.0000   0.0000   0.0000   0.4066
   2.400   0.7501   0.02300   0.01584  -0.1192  0.6876  0.7381  -1.0680   0.0000   0.0000   0.0000   0.4042
   2.500   0.7606   0.02298   0.01583  -0.1192  0.6843  0.7399  -1.0785   0.0000   0.0000   0.0000   0.4018
   2.600   0.7727   0.02292   0.01576  -0.1194  0.6812  0.7415  -1.0901   0.0000   0.0000   0.0000   0.3995
   2.700   0.7861   0.02283   0.01566  -0.1199  0.6782  0.7429  -1.1028   0.0000   0.0000   0.0000   0.3974
   2.800   0.8005   0.02273   0.01554  -0.1206  0.6754  0.7441  -1.1162   0.0000   0.0000   0.0000   0.3954
   2.900   0.8155   0.02262   0.01541  -0.1214  0.6728  0.7453  -1.1300   0.0000   0.0000   0.0000   0.3934
   3.000   0.8307   0.02254   0.01531  -0.1222  0.6703  0.7465  -1.1449   0.0000   0.0000   0.0000   0.3916
   3.100   0.8458   0.02249   0.01524  -0.1230  0.6679  0.7478  -1.1605   0.0000   0.0000   0.0000   0.3898
   3.200   0.8610   0.02248   0.01521  -0.1239  0.6654  0.7490  -1.1760   0.0000   0.0000   0.0000   0.3882
   3.300   0.8763   0.02257   0.01527  -0.1248  0.6626  0.7503  -1.1915   0.0000   0.0000   0.0000   0.3866
   3.400   0.8904   0.02290   0.01558  -0.1257  0.6589  0.7515  -1.2058   0.0000   0.0000   0.0000   0.3852
   3.500   0.8975   0.02297   0.01569  -0.1253  0.6568  0.7528  -1.2149   0.0000   0.0000   0.0000   0.3835
   3.600   0.9039   0.02308   0.01584  -0.1247  0.6540  0.7541  -1.2236   0.0000   0.0000   0.0000   0.3818
   3.700   0.9108   0.02319   0.01599  -0.1243  0.6508  0.7554  -1.2325   0.0000   0.0000   0.0000   0.3801
   3.800   0.9186   0.02329   0.01612  -0.1239  0.6474  0.7567  -1.2423   0.0000   0.0000   0.0000   0.3784
   3.900   0.9276   0.02335   0.01620  -0.1238  0.6437  0.7580  -1.2532   0.0000   0.0000   0.0000   0.3768
   4.000   0.9381   0.02337   0.01623  -0.1238  0.6402  0.7593  -1.2653   0.0000   0.0000   0.0000   0.3753
   4.100   0.9499   0.02335   0.01621  -0.1241  0.6367  0.7606  -1.2804   0.0000   0.0000   0.0000   0.3738
   4.200   0.9629   0.02329   0.01615  -0.1245  0.6333  0.7618  -1.2966   0.0000   0.0000   0.0000   0.3724
   4.300   0.9768   0.02321   0.01620  -0.1251  0.6303  0.7631  -1.3137   0.0000   0.0000   0.0000   0.3710
   4.400   0.9912   0.02313   0.01611  -0.1258  0.6274  0.7643  -1.3313   0.0000   0.0000   0.0000   0.3697
   4.500   1.0060   0.02307   0.01603  -0.1265  0.6246  0.7654  -1.3492   0.0000   0.0000   0.0000   0.3684
   4.600   1.0209   0.02305   0.01599  -0.1273  0.6220  0.7665  -1.3671   0.0000   0.0000   0.0000   0.3672
   4.700   1.0357   0.02308   0.01600  -0.1280  0.6192  0.7676  -1.3866   0.0000   0.0000   0.0000   0.3660
   4.800   1.0511   0.02320   0.01609  -0.1289  0.6160  0.7685  -1.4073   0.0000   0.0000   0.0000   0.3650
   4.900   1.0658   0.02356   0.01641  -0.1300  0.6116  0.7702  -1.4270   0.0000   0.0000   0.0000   0.3641
   5.000   1.0722   0.02353   0.01645  -0.1294  0.6094  0.7722  -1.4396   0.0000   0.0000   0.0000   0.3627
   5.100   1.0778   0.02357   0.01654  -0.1286  0.6066  0.7740  -1.4514   0.0000   0.0000   0.0000   0.3612
   5.200   1.0837   0.02362   0.01665  -0.1278  0.6032  0.7759  -1.4634   0.0000   0.0000   0.0000   0.3597
   5.300   1.0903   0.02368   0.01675  -0.1272  0.5996  0.7777  -1.4763   0.0000   0.0000   0.0000   0.3583
   5.400   1.0980   0.02371   0.01681  -0.1267  0.5958  0.7795  -1.4915   0.0000   0.0000   0.0000   0.3569
   5.500   1.1069   0.02371   0.01684  -0.1263  0.5920  0.7813  -1.5094   0.0000   0.0000   0.0000   0.3555
   5.600   1.1171   0.02368   0.01682  -0.1262  0.5884  0.7831  -1.5286   0.0000   0.0000   0.0000   0.3542
   5.700   1.1282   0.02363   0.01679  -0.1262  0.5850  0.7851  -1.5489   0.0000   0.0000   0.0000   0.3529
   5.800   1.1398   0.02358   0.01675  -0.1262  0.5818  0.7874  -1.5698   0.0000   0.0000   0.0000   0.3517
   5.900   1.1520   0.02354   0.01671  -0.1264  0.5788  0.7898  -1.5915   0.0000   0.0000   0.0000   0.3506
   6.000   1.1649   0.02349   0.01665  -0.1267  0.5758  0.7923  -1.6148   0.0000   0.0000   0.0000   0.3494
   6.100   1.1784   0.02346   0.01660  -0.1271  0.5726  0.7949  -1.6416   0.0000   0.0000   0.0000   0.3484
   6.200   1.1933   0.02351   0.01662  -0.1277  0.5688  0.7975  -1.6702   0.0000   0.0000   0.0000   0.3475
   6.300   1.2080   0.02392   0.01700  -0.1286  0.5635  0.8001  -1.6980   0.0000   0.0000   0.0000   0.3467
   6.400   1.2131   0.02397   0.01712  -0.1277  0.5611  0.8025  -1.7148   0.0000   0.0000   0.0000   0.3454
   6.500   1.2185   0.02406   0.01727  -0.1268  0.5580  0.8048  -1.7319   0.0000   0.0000   0.0000   0.3441
   6.600   1.2247   0.02416   0.01743  -0.1261  0.5544  0.8070  -1.7501   0.0000   0.0000   0.0000   0.3428
   6.700   1.2320   0.02425   0.01756  -0.1256  0.5505  0.8090  -1.7697   0.0000   0.0000   0.0000   0.3417
   6.800   1.2406   0.02431   0.01766  -0.1253  0.5465  0.8109  -1.7910   0.0000   0.0000   0.0000   0.3406
   6.900   1.2506   0.02434   0.01771  -0.1252  0.5425  0.8129  -1.8174   0.0000   0.0000   0.0000   0.3396
   7.000   1.2619   0.02432   0.01770  -0.1253  0.5385  0.8147  -1.8472   0.0000   0.0000   0.0000   0.3386
   7.100   1.2743   0.02425   0.01763  -0.1256  0.5346  0.8165  -1.8790   0.0000   0.0000   0.0000   0.3377
   7.200   1.2875   0.02416   0.01753  -0.1260  0.5307  0.8182  -1.9155   0.0000   0.0000   0.0000   0.3368
   7.300   1.3010   0.02400   0.01736  -0.1264  0.5268  0.8211  -1.9553   0.0000   0.0000   0.0000   0.3360
   7.400   1.3157   0.02393   0.01725  -0.1270  0.5226  0.8240  -1.9972   0.0000   0.0000   0.0000   0.3352
   7.500   1.3312   0.02412   0.01739  -0.1278  0.5172  0.8269  -2.0400   0.0000   0.0000   0.0000   0.3345
   7.600   1.3377   0.02431   0.01764  -0.1271  0.5137  0.8298  -2.0678   0.0000   0.0000   0.0000   0.3334
   7.700   1.3403   0.02443   0.01816  -0.1257  0.5101  0.8328  -2.0926   0.0000   0.0000   0.0000   0.3320
   7.800   1.3444   0.02452   0.01835  -0.1246  0.5062  0.8360  -2.1183   0.0000   0.0000   0.0000   0.3308
   7.900   1.3497   0.02459   0.01849  -0.1237  0.5020  0.8393  -2.1457   0.0000   0.0000   0.0000   0.3296
   8.000   1.3565   0.02462   0.01857  -0.1230  0.4975  0.8428  -2.1756   0.0000   0.0000   0.0000   0.3284
   8.100   1.3648   0.02460   0.01859  -0.1225  0.4929  0.8465  -2.2083   0.0000   0.0000   0.0000   0.3274
   8.200   1.3742   0.02456   0.01856  -0.1222  0.4884  0.8503  -2.2499   0.0000   0.0000   0.0000   0.3264
   8.300   1.3844   0.02449   0.01850  -0.1220  0.4840  0.8541  -2.3370   0.0000   0.0000   0.0000   0.3254
   8.400   1.3972   0.02441   0.01840  -0.1223  0.4794  0.8580  -2.4353   0.0000   0.0000   0.0000   0.3246
   8.500   1.4124   0.02440   0.01832  -0.1230  0.4742  0.8616  -2.5442   0.0000   0.0000   0.0000   0.3240
   8.700   1.4293   0.02469   0.01867  -0.1222  0.4645  0.8711  -2.7075   0.0000   0.0000   0.0000   0.3222
   8.800   1.4305   0.02476   0.01884  -0.1206  0.4609  0.8770  -2.7603   0.0000   0.0000   0.0000   0.3208
   8.900   1.4327   0.02484   0.01900  -0.1191  0.4568  0.8835  -2.8176   0.0000   0.0000   0.0000   0.3195
   9.000   1.4362   0.02490   0.01913  -0.1179  0.4522  0.8906  -2.8805   0.0000   0.0000   0.0000   0.3183
   9.100   1.4406   0.02493   0.01921  -0.1168  0.4475  0.8982  -2.9483   0.0000   0.0000   0.0000   0.3171
   9.300   1.4497   0.02484   0.01919  -0.1144  0.4384  0.9203  -3.0869   0.0000   0.0000   0.0000   0.3146
   9.400   1.4564   0.02465   0.01897  -0.1135  0.4327  0.9421  -3.1680   0.0000   0.0000   0.0000   0.3135
   9.500   1.4734   0.02448   0.01863  -0.1144  0.4221  1.0000  -3.2973   0.0000   0.0000   0.0000   0.3130
   9.600   1.4756   0.02468   0.01888  -0.1133  0.4165  1.0000  -3.3582   0.0000   0.0000   0.0000   0.3120
   9.700   1.4765   0.02487   0.01913  -0.1120  0.4102  1.0000  -3.4135   0.0000   0.0000   0.0000   0.3109
   9.800   1.4782   0.02503   0.01932  -0.1108  0.4025  1.0000  -3.4739   0.0000   0.0000   0.0000   0.3098
   9.900   1.4818   0.02513   0.01936  -0.1099  0.3933  1.0000  -3.5442   0.0000   0.0000   0.0000   0.3088
  10.000   1.4866   0.02524   0.01931  -0.1090  0.3829  1.0000  -3.6217   0.0000   0.0000   0.0000   0.3078
  10.100   1.4908   0.02552   0.01946  -0.1082  0.3726  1.0000  -3.6956   0.0000   0.0000   0.0000   0.3068
  10.200   1.4900   0.02588   0.01991  -0.1068  0.3659  1.0000  -3.7443   0.0000   0.0000   0.0000   0.3057
  10.300   1.4903   0.02625   0.02029  -0.1055  0.3573  1.0000  -3.7993   0.0000   0.0000   0.0000   0.3047
  10.400   1.4909   0.02663   0.02063  -0.1042  0.3481  1.0000  -3.8562   0.0000   0.0000   0.0000   0.3036
  10.500   1.4917   0.02705   0.02093  -0.1030  0.3390  1.0000  -3.9148   0.0000   0.0000   0.0000   0.3026
  10.600   1.4926   0.02755   0.02129  -0.1018  0.3300  1.0000  -3.9737   0.0000   0.0000   0.0000   0.3015
  10.700   1.4944   0.02800   0.02182  -0.1009  0.3240  1.0000  -4.0351   0.0000   0.0000   0.0000   0.3007
  10.800   1.4963   0.02847   0.02234  -0.1000  0.3176  1.0000  -4.0966   0.0000   0.0000   0.0000   0.2998
  10.900   1.4975   0.02898   0.02286  -0.0990  0.3107  1.0000  -4.1558   0.0000   0.0000   0.0000   0.2989
  11.000   1.4982   0.02952   0.02338  -0.0979  0.3036  1.0000  -4.2128   0.0000   0.0000   0.0000   0.2979
  11.100   1.4982   0.03011   0.02391  -0.0968  0.2965  1.0000  -4.2671   0.0000   0.0000   0.0000   0.2970
  11.200   1.4975   0.03077   0.02449  -0.0957  0.2896  1.0000  -4.3178   0.0000   0.0000   0.0000   0.2961
  11.300   1.4988   0.03137   0.02510  -0.0948  0.2834  1.0000  -4.3774   0.0000   0.0000   0.0000   0.2952
  11.400   1.5006   0.03196   0.02574  -0.0941  0.2769  1.0000  -4.4393   0.0000   0.0000   0.0000   0.2945
  11.500   1.5016   0.03260   0.02640  -0.0932  0.2697  1.0000  -4.4975   0.0000   0.0000   0.0000   0.2937
  11.600   1.5013   0.03333   0.02711  -0.0923  0.2626  1.0000  -4.5494   0.0000   0.0000   0.0000   0.2929
  11.700   1.4996   0.03416   0.02789  -0.0913  0.2559  1.0000  -4.5944   0.0000   0.0000   0.0000   0.2921
  11.800   1.4973   0.03505   0.02872  -0.0902  0.2494  1.0000  -4.6361   0.0000   0.0000   0.0000   0.2912
  11.900   1.4969   0.03585   0.02951  -0.0894  0.2434  1.0000  -4.6867   0.0000   0.0000   0.0000   0.2905
  12.000   1.4958   0.03672   0.03051  -0.0886  0.2332  1.0000  -4.7118   0.0000   0.0000   0.0000   0.2898
  12.100   1.4943   0.03764   0.03142  -0.0878  0.2258  1.0000  -4.7521   0.0000   0.0000   0.0000   0.2891
  12.200   1.4918   0.03865   0.03240  -0.0870  0.2188  1.0000  -4.7879   0.0000   0.0000   0.0000   0.2885
  12.300   1.4877   0.03978   0.03348  -0.0861  0.2117  1.0000  -4.8166   0.0000   0.0000   0.0000   0.2878
  12.400   1.4843   0.04090   0.03455  -0.0852  0.2043  1.0000  -4.8479   0.0000   0.0000   0.0000   0.2872
  12.500   1.4826   0.04195   0.03561  -0.0846  0.1950  1.0000  -4.8863   0.0000   0.0000   0.0000   0.2866
  12.600   1.4781   0.04324   0.03686  -0.0839  0.1855  1.0000  -4.9116   0.0000   0.0000   0.0000   0.2861
  12.700   1.4719   0.04466   0.03821  -0.0832  0.1771  1.0000  -4.9282   0.0000   0.0000   0.0000   0.2856
  12.800   1.4651   0.04617   0.03965  -0.0824  0.1697  1.0000  -4.9412   0.0000   0.0000   0.0000   0.2851
  12.900   1.4625   0.04739   0.04087  -0.0820  0.1603  1.0000  -4.9730   0.0000   0.0000   0.0000   0.2847
  13.000   1.4588   0.04875   0.04221  -0.0815  0.1522  1.0000  -4.9983   0.0000   0.0000   0.0000   0.2843
  13.100   1.4539   0.05026   0.04368  -0.0811  0.1449  1.0000  -5.0175   0.0000   0.0000   0.0000   0.2840
  13.200   1.4480   0.05191   0.04527  -0.0806  0.1382  1.0000  -5.0307   0.0000   0.0000   0.0000   0.2837
  13.300   1.4451   0.05332   0.04669  -0.0804  0.1301  1.0000  -5.0562   0.0000   0.0000   0.0000   0.2834
  13.400   1.4408   0.05492   0.04826  -0.0801  0.1210  1.0000  -5.0745   0.0000   0.0000   0.0000   0.2831
  13.500   1.4347   0.05674   0.05003  -0.0799  0.1130  1.0000  -5.0838   0.0000   0.0000   0.0000   0.2830
  13.600   1.4282   0.05866   0.05190  -0.0797  0.1061  1.0000  -5.0901   0.0000   0.0000   0.0000   0.2829
  13.700   1.4250   0.06025   0.05348  -0.0796  0.0967  1.0000  -5.1072   0.0000   0.0000   0.0000   0.2827
  13.800   1.4187   0.06222   0.05543  -0.0795  0.0883  1.0000  -5.1108   0.0000   0.0000   0.0000   0.2827
  13.900   1.4113   0.06439   0.05753  -0.0795  0.0809  1.0000  -5.1085   0.0000   0.0000   0.0000   0.2828
  14.000   1.4056   0.06634   0.05945  -0.0795  0.0707  1.0000  -5.1096   0.0000   0.0000   0.0000   0.2828
  14.100   1.3983   0.06850   0.06154  -0.0796  0.0608  1.0000  -5.1041   0.0000   0.0000   0.0000   0.2829
  14.200   1.3907   0.07076   0.06374  -0.0797  0.0523  1.0000  -5.0951   0.0000   0.0000   0.0000   0.2830
  14.300   1.3830   0.07308   0.06602  -0.0799  0.0444  1.0000  -5.0840   0.0000   0.0000   0.0000   0.2833
  14.400   1.3750   0.07542   0.06830  -0.0801  0.0382  1.0000  -5.0718   0.0000   0.0000   0.0000   0.2836
  14.500   1.3687   0.07759   0.07045  -0.0804  0.0331  1.0000  -5.0594   0.0000   0.0000   0.0000   0.2838
  14.600   1.3630   0.07967   0.07253  -0.0806  0.0296  1.0000  -5.0500   0.0000   0.0000   0.0000   0.2840
  14.700   1.3572   0.08178   0.07464  -0.0809  0.0272  1.0000  -5.0411   0.0000   0.0000   0.0000   0.2842
  14.800   1.3511   0.08399   0.07687  -0.0813  0.0253  1.0000  -5.0288   0.0000   0.0000   0.0000   0.2846
  14.900   1.3451   0.08621   0.07913  -0.0817  0.0237  1.0000  -5.0130   0.0000   0.0000   0.0000   0.2849
  15.000   1.3390   0.08845   0.08145  -0.0822  0.0224  1.0000  -4.9933   0.0000   0.0000   0.0000   0.2853
  15.100   1.3326   0.09072   0.08380  -0.0827  0.0215  1.0000  -4.9715   0.0000   0.0000   0.0000   0.2858
  15.200   1.3294   0.09254   0.08566  -0.0831  0.0210  1.0000  -4.9753   0.0000   0.0000   0.0000   0.2861
  15.300   1.3264   0.09437   0.08757  -0.0837  0.0207  1.0000  -4.9830   0.0000   0.0000   0.0000   0.2864
  15.400   1.3232   0.09623   0.08951  -0.0842  0.0204  1.0000  -4.9895   0.0000   0.0000   0.0000   0.2867
  15.500   1.3205   0.09800   0.09136  -0.0848  0.0201  1.0000  -4.9977   0.0000   0.0000   0.0000   0.2870
  15.600   1.3180   0.09971   0.09314  -0.0853  0.0199  1.0000  -5.0071   0.0000   0.0000   0.0000   0.2873
  15.700   1.3158   0.10134   0.09485  -0.0858  0.0196  1.0000  -5.0173   0.0000   0.0000   0.0000   0.2876
  15.800   1.3135   0.10294   0.09651  -0.0863  0.0194  1.0000  -5.0271   0.0000   0.0000   0.0000   0.2879
  15.900   1.3112   0.10453   0.09818  -0.0869  0.0191  1.0000  -5.0366   0.0000   0.0000   0.0000   0.2882
  16.000   1.3089   0.10614   0.09985  -0.0874  0.0189  1.0000  -5.0457   0.0000   0.0000   0.0000   0.2886
  16.100   1.3064   0.10781   0.10159  -0.0881  0.0188  1.0000  -5.0532   0.0000   0.0000   0.0000   0.2890
  16.200   1.3043   0.10941   0.10326  -0.0887  0.0186  1.0000  -5.0628   0.0000   0.0000   0.0000   0.2893
  16.300   1.3028   0.11091   0.10482  -0.0893  0.0184  1.0000  -5.0753   0.0000   0.0000   0.0000   0.2896
  16.400   1.3019   0.11233   0.10630  -0.0897  0.0182  1.0000  -5.0906   0.0000   0.0000   0.0000   0.2898
  16.500   1.3013   0.11371   0.10774  -0.0902  0.0180  1.0000  -5.1073   0.0000   0.0000   0.0000   0.2900
  16.600   1.3008   0.11509   0.10917  -0.0907  0.0179  1.0000  -5.1245   0.0000   0.0000   0.0000   0.2901
  16.700   1.3007   0.11643   0.11057  -0.0911  0.0177  1.0000  -5.1430   0.0000   0.0000   0.0000   0.2902
  16.800   1.3008   0.11770   0.11190  -0.0915  0.0176  1.0000  -5.1633   0.0000   0.0000   0.0000   0.2903
  16.900   1.3015   0.11890   0.11315  -0.0918  0.0175  1.0000  -5.1857   0.0000   0.0000   0.0000   0.2903
  17.000   1.3024   0.12006   0.11437  -0.0921  0.0173  1.0000  -5.2093   0.0000   0.0000   0.0000   0.2902
  17.100   1.3031   0.12128   0.11564  -0.0925  0.0172  1.0000  -5.2314   0.0000   0.0000   0.0000   0.2902
  17.200   1.3041   0.12245   0.11687  -0.0928  0.0171  1.0000  -5.2546   0.0000   0.0000   0.0000   0.2902
  17.300   1.3052   0.12362   0.11810  -0.0930  0.0171  1.0000  -5.2779   0.0000   0.0000   0.0000   0.2901
  17.400   1.3063   0.12481   0.11935  -0.0933  0.0170  1.0000  -5.3006   0.0000   0.0000   0.0000   0.2900
  17.500   1.3075   0.12599   0.12059  -0.0936  0.0169  1.0000  -5.3234   0.0000   0.0000   0.0000   0.2899
  17.600   1.3084   0.12727   0.12193  -0.0939  0.0169  1.0000  -5.3434   0.0000   0.0000   0.0000   0.2899
  17.700   1.3087   0.12870   0.12343  -0.0944  0.0168  1.0000  -5.3589   0.0000   0.0000   0.0000   0.2900
  17.800   1.3088   0.13021   0.12502  -0.0949  0.0168  1.0000  -5.3724   0.0000   0.0000   0.0000   0.2901
  17.900   1.3086   0.13182   0.12669  -0.0954  0.0168  1.0000  -5.3831   0.0000   0.0000   0.0000   0.2903
  18.000   1.3079   0.13354   0.12850  -0.0961  0.0168  1.0000  -5.3903   0.0000   0.0000   0.0000   0.2906
  18.100   1.3070   0.13535   0.13038  -0.0967  0.0168  1.0000  -5.3952   0.0000   0.0000   0.0000   0.2910
  18.200   1.3057   0.13725   0.13237  -0.0975  0.0168  1.0000  -5.3974   0.0000   0.0000   0.0000   0.2914
  18.300   1.3042   0.13925   0.13445  -0.0983  0.0169  1.0000  -5.3967   0.0000   0.0000   0.0000   0.2919
  18.400   1.3024   0.14137   0.13665  -0.0992  0.0169  1.0000  -5.3928   0.0000   0.0000   0.0000   0.2925
  18.500   1.3001   0.14361   0.13898  -0.1001  0.0169  1.0000  -5.3852   0.0000   0.0000   0.0000   0.2931
  18.600   1.2972   0.14606   0.14151  -0.1012  0.0170  1.0000  -5.3726   0.0000   0.0000   0.0000   0.2939
  18.700   1.2935   0.14873   0.14428  -0.1025  0.0170  1.0000  -5.3538   0.0000   0.0000   0.0000   0.2949
  18.800   1.2888   0.15172   0.14736  -0.1040  0.0171  1.0000  -5.3268   0.0000   0.0000   0.0000   0.2961
  18.900   1.2833   0.15497   0.15071  -0.1056  0.0171  1.0000  -5.2929   0.0000   0.0000   0.0000   0.2976
  19.000   1.2777   0.15829   0.15412  -0.1073  0.0172  1.0000  -5.2568   0.0000   0.0000   0.0000   0.2991
  19.100   1.2719   0.16173   0.15765  -0.1090  0.0173  1.0000  -5.2173   0.0000   0.0000   0.0000   0.3007
  19.200   1.2656   0.16536   0.16137  -0.1109  0.0173  1.0000  -5.1727   0.0000   0.0000   0.0000   0.3024
  19.300   1.2584   0.16935   0.16545  -0.1129  0.0174  1.0000  -5.1191   0.0000   0.0000   0.0000   0.3044
  19.400   1.2501   0.17377   0.16996  -0.1152  0.0175  1.0000  -5.0543   0.0000   0.0000   0.0000   0.3067
  19.500   1.2418   0.17826   0.17454  -0.1175  0.0176  1.0000  -4.9864   0.0000   0.0000   0.0000   0.3090
  19.600   1.2330   0.18300   0.17937  -0.1199  0.0177  1.0000  -4.9110   0.0000   0.0000   0.0000   0.3115
  19.700   1.2225   0.18843   0.18489  -0.1226  0.0178  1.0000  -4.8175   0.0000   0.0000   0.0000   0.3145
  19.800   1.2113   0.19427   0.19081  -0.1255  0.0179  1.0000  -4.7115   0.0000   0.0000   0.0000   0.3178
  19.900   1.1994   0.20049   0.19712  -0.1285  0.0181  1.0000  -4.5917   0.0000   0.0000   0.0000   0.3213
  20.000   1.1844   0.20811   0.20482  -0.1320  0.0183  1.0000  -4.4316   0.0000   0.0000   0.0000   0.3257
  20.100   1.1683   0.21636   0.21314  -0.1356  0.0185  1.0000  -4.2463   0.0000   0.0000   0.0000   0.3305
  20.200   1.1489   0.22632   0.22316  -0.1396  0.0188  1.0000  -4.0030   0.0000   0.0000   0.0000   0.3362
  20.300   1.1291   0.23686   0.23372  -0.1433  0.0192  1.0000  -3.7305   0.0000   0.0000   0.0000   0.3419
  20.400   1.1127   0.24630   0.24318  -0.1462  0.0196  1.0000  -3.4851   0.0000   0.0000   0.0000   0.3467
  20.500   1.0999   0.25428   0.25117  -0.1484  0.0200  1.0000  -3.2843   0.0000   0.0000   0.0000   0.3505
  20.600   1.0894   0.26110   0.25799  -0.1501  0.0204  1.0000  -3.1202   0.0000   0.0000   0.0000   0.3534
  20.700   1.0801   0.26717   0.26406  -0.1514  0.0207  1.0000  -2.9790   0.0000   0.0000   0.0000   0.3559
  20.800   1.0695   0.27325   0.27013  -0.1524  0.0212  1.0000  -2.8293   0.0000   0.0000   0.0000   0.3583
  21.000   1.0685   0.27801   0.27496  -0.1534  0.0217  1.0000  -2.8066   0.0000   0.0000   0.0000   0.3591
  21.100   1.0681   0.28046   0.27742  -0.1539  0.0221  1.0000  -2.7901   0.0000   0.0000   0.0000   0.3595
  21.200   0.9779   0.29143   0.28851  -0.1516  0.0292  1.0000  -1.9371   0.0000   0.0000   0.0000   0.3731
  21.300   0.9619   0.29149   0.28862  -0.1507  0.0309  1.0000  -1.8475   0.0000   0.0000   0.0000   0.3750
  21.400   0.9523   0.29169   0.28884  -0.1500  0.0324  1.0000  -1.7957   0.0000   0.0000   0.0000   0.3760
  21.500   0.9457   0.29169   0.28886  -0.1493  0.0339  1.0000  -1.7674   0.0000   0.0000   0.0000   0.3763
  21.600   0.9276   0.29724   0.29442  -0.1460  0.0557  1.0000  -1.5233   0.0000   0.0000   0.0000   0.3768
  21.700   0.9237   0.29804   0.29524  -0.1462  0.0557  1.0000  -1.5005   0.0000   0.0000   0.0000   0.3776
  21.800   0.9200   0.29883   0.29604  -0.1464  0.0556  1.0000  -1.4784   0.0000   0.0000   0.0000   0.3784
  21.900   0.9166   0.29959   0.29682  -0.1466  0.0556  1.0000  -1.4571   0.0000   0.0000   0.0000   0.3792
  22.000   0.9134   0.30034   0.29757  -0.1469  0.0555  1.0000  -1.4364   0.0000   0.0000   0.0000   0.3800
  22.100   0.9103   0.30105   0.29830  -0.1472  0.0554  1.0000  -1.4161   0.0000   0.0000   0.0000   0.3809
  22.400   0.8984   0.30248   0.29984  -0.1489  0.0547  1.0000  -1.3282   0.0000   0.0000   0.0000   0.3847
  22.900   0.8805   0.30637   0.30376  -0.1530  0.0496  1.0000  -1.1749   0.0000   0.0000   0.0000   0.3926
  23.000   0.8789   0.30717   0.30457  -0.1534  0.0489  1.0000  -1.1613   0.0000   0.0000   0.0000   0.3932
  23.100   0.8774   0.30795   0.30536  -0.1538  0.0482  1.0000  -1.1497   0.0000   0.0000   0.0000   0.3938
  23.200   0.8760   0.30871   0.30612  -0.1541  0.0475  1.0000  -1.1395   0.0000   0.0000   0.0000   0.3944
  23.300   0.8747   0.30945   0.30688  -0.1544  0.0469  1.0000  -1.1305   0.0000   0.0000   0.0000   0.3949
  23.400   0.8736   0.31018   0.30762  -0.1547  0.0463  1.0000  -1.1226   0.0000   0.0000   0.0000   0.3953
  23.500   0.8725   0.31090   0.30834  -0.1550  0.0457  1.0000  -1.1156   0.0000   0.0000   0.0000   0.3958
  23.600   0.8716   0.31160   0.30906  -0.1553  0.0452  1.0000  -1.1095   0.0000   0.0000   0.0000   0.3962
  23.700   0.8707   0.31229   0.30976  -0.1556  0.0446  1.0000  -1.1044   0.0000   0.0000   0.0000   0.3966
  23.800   0.8699   0.31297   0.31045  -0.1558  0.0441  1.0000  -1.1000   0.0000   0.0000   0.0000   0.3969
  23.900   0.8692   0.31364   0.31112  -0.1561  0.0436  1.0000  -1.0966   0.0000   0.0000   0.0000   0.3972
  24.000   0.8686   0.31429   0.31178  -0.1564  0.0432  1.0000  -1.0941   0.0000   0.0000   0.0000   0.3975
  24.100   0.8681   0.31492   0.31243  -0.1566  0.0427  1.0000  -1.0926   0.0000   0.0000   0.0000   0.3978
  24.200   0.8676   0.31554   0.31306  -0.1569  0.0422  1.0000  -1.0921   0.0000   0.0000   0.0000   0.3980
  24.300   0.8673   0.31615   0.31367  -0.1571  0.0418  1.0000  -1.0926   0.0000   0.0000   0.0000   0.3982
  24.400   0.8670   0.31673   0.31426  -0.1573  0.0414  1.0000  -1.0944   0.0000   0.0000   0.0000   0.3983
  24.500   0.8669   0.31730   0.31484  -0.1575  0.0410  1.0000  -1.0974   0.0000   0.0000   0.0000   0.3984
  24.600   0.8668   0.31784   0.31539  -0.1577  0.0406  1.0000  -1.1017   0.0000   0.0000   0.0000   0.3985
  24.700   0.8668   0.31837   0.31593  -0.1578  0.0402  1.0000  -1.1076   0.0000   0.0000   0.0000   0.3984
  24.800   0.8670   0.31888   0.31646  -0.1579  0.0398  1.0000  -1.1150   0.0000   0.0000   0.0000   0.3984
  24.900   0.8673   0.31939   0.31698  -0.1580  0.0394  1.0000  -1.1244   0.0000   0.0000   0.0000   0.3982
  25.000   0.8679   0.31991   0.31750  -0.1581  0.0391  1.0000  -1.1358   0.0000   0.0000   0.0000   0.3979
  25.100   0.8686   0.32046   0.31807  -0.1580  0.0387  1.0000  -1.1498   0.0000   0.0000   0.0000   0.3975
  25.200   0.8698   0.32111   0.31874  -0.1579  0.0384  1.0000  -1.1667   0.0000   0.0000   0.0000   0.3970
  25.300   0.8715   0.32201   0.31965  -0.1577  0.0380  1.0000  -1.1875   0.0000   0.0000   0.0000   0.3961
  25.400   0.8744   0.32370   0.32135  -0.1572  0.0376  1.0000  -1.2145   0.0000   0.0000   0.0000   0.3948


