xflr5 v6.61

 Calculated polar for: EPPLER 654 AIRFOIL

 1 1 Reynolds number fixed          Mach number fixed         

 xtrf =   1.000 (top)        1.000 (bottom)
 Mach =   0.000     Re =     1.000 e 6     Ncrit =   9.000

  alpha     CL        CD       CDp       Cm    Top Xtr Bot Xtr   Cpmin    Chinge    XCp    
 ------- -------- --------- --------- -------- ------- ------- -------- --------- ---------
 -10.000  -0.3889   0.02437   0.01976  -0.1345  0.6918  0.0079  -6.5483   0.0000   0.0000   0.0000  -0.1208
  -9.900  -0.3834   0.02395   0.01930  -0.1342  0.6905  0.0079  -6.4789   0.0000   0.0000   0.0000  -0.1249
  -9.800  -0.3773   0.02358   0.01889  -0.1339  0.6893  0.0079  -6.4029   0.0000   0.0000   0.0000  -0.1299
  -9.700  -0.3706   0.02325   0.01847  -0.1337  0.6886  0.0080  -6.3212   0.0000   0.0000   0.0000  -0.1357
  -9.600  -0.3659   0.02259   0.01776  -0.1333  0.6884  0.0080  -6.2766   0.0000   0.0000   0.0000  -0.1392
  -9.500  -0.3625   0.02171   0.01678  -0.1328  0.6883  0.0080  -6.2608   0.0000   0.0000   0.0000  -0.1412
  -9.400  -0.3582   0.02087   0.01585  -0.1323  0.6882  0.0080  -6.2386   0.0000   0.0000   0.0000  -0.1442
  -9.300  -0.3533   0.02009   0.01499  -0.1319  0.6880  0.0081  -6.2090   0.0000   0.0000   0.0000  -0.1482
  -9.200  -0.3476   0.01937   0.01420  -0.1315  0.6879  0.0081  -6.1725   0.0000   0.0000   0.0000  -0.1532
  -9.100  -0.3416   0.01869   0.01344  -0.1311  0.6877  0.0081  -6.1325   0.0000   0.0000   0.0000  -0.1589
  -9.000  -0.3352   0.01804   0.01272  -0.1308  0.6875  0.0082  -6.0887   0.0000   0.0000   0.0000  -0.1653
  -8.900  -0.3284   0.01744   0.01205  -0.1304  0.6873  0.0082  -6.0395   0.0000   0.0000   0.0000  -0.1725
  -8.800  -0.3212   0.01690   0.01145  -0.1301  0.6871  0.0083  -5.9838   0.0000   0.0000   0.0000  -0.1807
  -8.700  -0.3136   0.01641   0.01091  -0.1299  0.6869  0.0083  -5.9208   0.0000   0.0000   0.0000  -0.1900
  -8.600  -0.3055   0.01598   0.01044  -0.1297  0.6867  0.0084  -5.8503   0.0000   0.0000   0.0000  -0.2005
  -8.500  -0.2971   0.01561   0.01003  -0.1295  0.6864  0.0085  -5.7725   0.0000   0.0000   0.0000  -0.2123
  -8.400  -0.2882   0.01529   0.00967  -0.1294  0.6862  0.0086  -5.6879   0.0000   0.0000   0.0000  -0.2256
  -8.300  -0.2790   0.01501   0.00937  -0.1293  0.6859  0.0087  -5.5972   0.0000   0.0000   0.0000  -0.2405
  -8.200  -0.2695   0.01476   0.00911  -0.1292  0.6856  0.0088  -5.5018   0.0000   0.0000   0.0000  -0.2570
  -8.100  -0.2598   0.01455   0.00888  -0.1291  0.6853  0.0088  -5.4027   0.0000   0.0000   0.0000  -0.2753
  -8.000  -0.2499   0.01435   0.00867  -0.1291  0.6849  0.0089  -5.3014   0.0000   0.0000   0.0000  -0.2955
  -7.900  -0.2399   0.01417   0.00848  -0.1291  0.6846  0.0090  -5.1990   0.0000   0.0000   0.0000  -0.3178
  -7.800  -0.2297   0.01400   0.00830  -0.1291  0.6842  0.0091  -5.0965   0.0000   0.0000   0.0000  -0.3423
  -7.700  -0.2195   0.01384   0.00813  -0.1291  0.6838  0.0092  -4.9944   0.0000   0.0000   0.0000  -0.3694
  -7.600  -0.2093   0.01368   0.00795  -0.1291  0.6834  0.0094  -4.8931   0.0000   0.0000   0.0000  -0.3992
  -7.500  -0.1989   0.01352   0.00779  -0.1291  0.6830  0.0095  -4.7930   0.0000   0.0000   0.0000  -0.4324
  -7.400  -0.1886   0.01336   0.00762  -0.1291  0.6825  0.0096  -4.6941   0.0000   0.0000   0.0000  -0.4693
  -7.300  -0.1782   0.01320   0.00745  -0.1292  0.6821  0.0097  -4.5964   0.0000   0.0000   0.0000  -0.5107
  -7.200  -0.1677   0.01305   0.00728  -0.1292  0.6816  0.0099  -4.4997   0.0000   0.0000   0.0000  -0.5575
  -7.100  -0.1573   0.01290   0.00711  -0.1292  0.6810  0.0100  -4.4042   0.0000   0.0000   0.0000  -0.6108
  -7.000  -0.1467   0.01275   0.00695  -0.1292  0.6805  0.0102  -4.3095   0.0000   0.0000   0.0000  -0.6720
  -6.900  -0.1361   0.01260   0.00679  -0.1292  0.6800  0.0104  -4.2153   0.0000   0.0000   0.0000  -0.7431
  -6.800  -0.1255   0.01246   0.00664  -0.1293  0.6794  0.0106  -4.1214   0.0000   0.0000   0.0000  -0.8267
  -6.700  -0.1148   0.01233   0.00650  -0.1293  0.6788  0.0107  -4.0272   0.0000   0.0000   0.0000  -0.9268
  -6.600  -0.1040   0.01221   0.00637  -0.1294  0.6782  0.0109  -3.9380   0.0000   0.0000   0.0000  -1.0486
  -6.500  -0.0931   0.01211   0.00626  -0.1294  0.6775  0.0111  -3.8484   0.0000   0.0000   0.0000  -1.2006
  -6.400  -0.0820   0.01204   0.00618  -0.1295  0.6768  0.0112  -3.7553   0.0000   0.0000   0.0000  -1.3961
  -6.300  -0.0708   0.01199   0.00613  -0.1296  0.6761  0.0114  -3.6591   0.0000   0.0000   0.0000  -1.6566
  -6.200  -0.0598   0.01189   0.00603  -0.1297  0.6753  0.0115  -3.5704   0.0000   0.0000   0.0000  -2.0066
  -6.100  -0.0517   0.01116   0.00508  -0.1294  0.6745  0.0129  -3.5911   0.0000   0.0000   0.0000  -2.3533
  -6.000  -0.0414   0.01084   0.00467  -0.1294  0.6737  0.0145  -3.5540   0.0000   0.0000   0.0000  -2.9986
  -5.900  -0.0305   0.01064   0.00443  -0.1294  0.6729  0.0165  -3.4956   0.0000   0.0000   0.0000  -4.1532
  -5.800  -0.0195   0.01049   0.00428  -0.1295  0.6721  0.0186  -3.4207   0.0000   0.0000   0.0000  -6.6429
  -5.700  -0.0084   0.01036   0.00417  -0.1296  0.6713  0.0206  -3.3366   0.0000   0.0000   0.0000  -15.7375
  -5.600   0.0028   0.01026   0.00408  -0.1297  0.6705  0.0226  -3.2488   0.0000   0.0000   0.0000  48.6339
  -5.500   0.0141   0.01018   0.00399  -0.1298  0.6697  0.0242  -3.1581   0.0000   0.0000   0.0000   9.8099
  -5.400   0.0254   0.01012   0.00393  -0.1299  0.6689  0.0253  -3.0650   0.0000   0.0000   0.0000   5.5365
  -5.300   0.0368   0.01008   0.00388  -0.1301  0.6682  0.0259  -2.9705   0.0000   0.0000   0.0000   3.8997
  -5.100   0.0595   0.00991   0.00368  -0.1303  0.6666  0.0328  -2.7997   0.0000   0.0000   0.0000   2.5102
  -5.000   0.0706   0.00976   0.00360  -0.1305  0.6658  0.0395  -2.7144   0.0000   0.0000   0.0000   2.1559
  -4.900   0.0818   0.00966   0.00353  -0.1306  0.6650  0.0440  -2.6263   0.0000   0.0000   0.0000   1.8948
  -4.800   0.0932   0.00960   0.00347  -0.1308  0.6642  0.0463  -2.5373   0.0000   0.0000   0.0000   1.6944
  -4.700   0.1045   0.00951   0.00339  -0.1309  0.6633  0.0553  -2.4523   0.0000   0.0000   0.0000   1.5382
  -4.600   0.1157   0.00939   0.00334  -0.1311  0.6625  0.0636  -2.3671   0.0000   0.0000   0.0000   1.4142
  -4.500   0.1271   0.00931   0.00328  -0.1313  0.6615  0.0694  -2.2815   0.0000   0.0000   0.0000   1.3107
  -4.400   0.1386   0.00926   0.00323  -0.1314  0.6606  0.0743  -2.1964   0.0000   0.0000   0.0000   1.2232
  -4.300   0.1501   0.00920   0.00318  -0.1316  0.6596  0.0875  -2.1129   0.0000   0.0000   0.0000   1.1492
  -4.200   0.1615   0.00912   0.00314  -0.1318  0.6586  0.0984  -2.0303   0.0000   0.0000   0.0000   1.0862
  -4.100   0.1730   0.00905   0.00310  -0.1320  0.6576  0.1072  -1.9481   0.0000   0.0000   0.0000   1.0312
  -4.000   0.1846   0.00899   0.00306  -0.1322  0.6565  0.1157  -1.8668   0.0000   0.0000   0.0000   0.9829
  -3.900   0.1960   0.00886   0.00302  -0.1324  0.6554  0.1308  -1.7871   0.0000   0.0000   0.0000   0.9410
  -3.800   0.2076   0.00879   0.00299  -0.1327  0.6543  0.1473  -1.7078   0.0000   0.0000   0.0000   0.9031
  -3.700   0.2191   0.00867   0.00295  -0.1330  0.6532  0.1674  -1.6298   0.0000   0.0000   0.0000   0.8696
  -3.600   0.2308   0.00858   0.00293  -0.1332  0.6521  0.1891  -1.5524   0.0000   0.0000   0.0000   0.8392
  -3.500   0.2424   0.00846   0.00291  -0.1336  0.6509  0.2131  -1.4761   0.0000   0.0000   0.0000   0.8119
  -3.400   0.2541   0.00835   0.00289  -0.1339  0.6498  0.2393  -1.4007   0.0000   0.0000   0.0000   0.7869
  -3.300   0.2659   0.00828   0.00289  -0.1342  0.6487  0.2589  -1.3261   0.0000   0.0000   0.0000   0.7639
  -3.200   0.2776   0.00821   0.00289  -0.1345  0.6476  0.2823  -1.2525   0.0000   0.0000   0.0000   0.7429
  -3.100   0.2894   0.00815   0.00290  -0.1348  0.6465  0.3035  -1.1800   0.0000   0.0000   0.0000   0.7236
  -3.000   0.3012   0.00811   0.00292  -0.1351  0.6454  0.3258  -1.1085   0.0000   0.0000   0.0000   0.7058
  -2.900   0.3129   0.00804   0.00295  -0.1354  0.6443  0.3510  -1.0383   0.0000   0.0000   0.0000   0.6894
  -2.800   0.3246   0.00802   0.00297  -0.1357  0.6432  0.3730  -0.9691   0.0000   0.0000   0.0000   0.6742
  -2.700   0.3367   0.00789   0.00294  -0.1361  0.6431  0.4012  -0.9001   0.0000   0.0000   0.0000   0.6598
  -2.600   0.3488   0.00780   0.00291  -0.1364  0.6430  0.4276  -0.8623   0.0000   0.0000   0.0000   0.6463
  -2.500   0.3608   0.00766   0.00288  -0.1368  0.6429  0.4621  -0.8686   0.0000   0.0000   0.0000   0.6338
  -2.400   0.3730   0.00750   0.00286  -0.1372  0.6428  0.5048  -0.8748   0.0000   0.0000   0.0000   0.6220
  -2.300   0.3851   0.00741   0.00286  -0.1375  0.6427  0.5366  -0.8811   0.0000   0.0000   0.0000   0.6109
  -2.200   0.3971   0.00734   0.00286  -0.1378  0.6426  0.5613  -0.8873   0.0000   0.0000   0.0000   0.6004
  -2.100   0.4091   0.00730   0.00286  -0.1380  0.6424  0.5795  -0.8936   0.0000   0.0000   0.0000   0.5904
  -2.000   0.4210   0.00724   0.00289  -0.1382  0.6423  0.6034  -0.8998   0.0000   0.0000   0.0000   0.5810
  -1.900   0.4329   0.00723   0.00289  -0.1384  0.6421  0.6150  -0.9060   0.0000   0.0000   0.0000   0.5721
  -1.800   0.4448   0.00723   0.00288  -0.1386  0.6419  0.6198  -0.9123   0.0000   0.0000   0.0000   0.5636
  -1.700   0.4568   0.00722   0.00286  -0.1387  0.6417  0.6247  -0.9185   0.0000   0.0000   0.0000   0.5556
  -1.600   0.4687   0.00720   0.00286  -0.1389  0.6414  0.6333  -0.9247   0.0000   0.0000   0.0000   0.5480
  -1.500   0.4805   0.00719   0.00288  -0.1391  0.6412  0.6419  -0.9309   0.0000   0.0000   0.0000   0.5408
  -1.400   0.4922   0.00719   0.00291  -0.1392  0.6409  0.6502  -0.9369   0.0000   0.0000   0.0000   0.5339
  -1.300   0.5040   0.00720   0.00293  -0.1394  0.6407  0.6568  -0.9430   0.0000   0.0000   0.0000   0.5273
  -1.200   0.5158   0.00722   0.00294  -0.1395  0.6405  0.6613  -0.9499   0.0000   0.0000   0.0000   0.5210
  -1.100   0.5276   0.00723   0.00295  -0.1397  0.6402  0.6642  -0.9567   0.0000   0.0000   0.0000   0.5150
  -1.000   0.5395   0.00725   0.00295  -0.1399  0.6399  0.6668  -0.9636   0.0000   0.0000   0.0000   0.5093
  -0.900   0.5514   0.00727   0.00297  -0.1400  0.6396  0.6691  -0.9704   0.0000   0.0000   0.0000   0.5038
  -0.800   0.5632   0.00729   0.00298  -0.1402  0.6393  0.6707  -0.9773   0.0000   0.0000   0.0000   0.4986
  -0.700   0.5751   0.00731   0.00299  -0.1404  0.6389  0.6718  -0.9841   0.0000   0.0000   0.0000   0.4935
  -0.600   0.5869   0.00732   0.00298  -0.1405  0.6384  0.6725  -0.9910   0.0000   0.0000   0.0000   0.4887
  -0.500   0.5987   0.00731   0.00296  -0.1407  0.6380  0.6759  -0.9979   0.0000   0.0000   0.0000   0.4841
  -0.400   0.6105   0.00729   0.00295  -0.1409  0.6374  0.6806  -1.0048   0.0000   0.0000   0.0000   0.4796
  -0.300   0.6222   0.00728   0.00295  -0.1410  0.6368  0.6852  -1.0116   0.0000   0.0000   0.0000   0.4754
  -0.200   0.6338   0.00727   0.00296  -0.1412  0.6362  0.6894  -1.0184   0.0000   0.0000   0.0000   0.4712
  -0.100   0.6455   0.00727   0.00298  -0.1413  0.6356  0.6932  -1.0252   0.0000   0.0000   0.0000   0.4672
   0.000   0.6571   0.00728   0.00300  -0.1414  0.6349  0.6966  -1.0320   0.0000   0.0000   0.0000   0.4633
   0.100   0.6687   0.00729   0.00301  -0.1415  0.6343  0.6994  -1.0388   0.0000   0.0000   0.0000   0.4596
   0.200   0.6804   0.00730   0.00302  -0.1417  0.6336  0.7018  -1.0456   0.0000   0.0000   0.0000   0.4560
   0.300   0.6921   0.00731   0.00303  -0.1418  0.6328  0.7040  -1.0527   0.0000   0.0000   0.0000   0.4525
   0.400   0.7038   0.00732   0.00304  -0.1419  0.6320  0.7060  -1.0603   0.0000   0.0000   0.0000   0.4492
   0.500   0.7155   0.00733   0.00305  -0.1421  0.6311  0.7080  -1.0680   0.0000   0.0000   0.0000   0.4459
   0.600   0.7271   0.00734   0.00306  -0.1422  0.6302  0.7100  -1.0756   0.0000   0.0000   0.0000   0.4427
   0.700   0.7388   0.00736   0.00307  -0.1423  0.6294  0.7118  -1.0832   0.0000   0.0000   0.0000   0.4397
   0.800   0.7505   0.00737   0.00308  -0.1425  0.6285  0.7136  -1.0908   0.0000   0.0000   0.0000   0.4367
   0.900   0.7621   0.00739   0.00310  -0.1426  0.6277  0.7151  -1.0984   0.0000   0.0000   0.0000   0.4338
   1.000   0.7738   0.00740   0.00311  -0.1428  0.6267  0.7164  -1.1066   0.0000   0.0000   0.0000   0.4311
   1.100   0.7854   0.00742   0.00311  -0.1429  0.6258  0.7177  -1.1151   0.0000   0.0000   0.0000   0.4283
   1.200   0.7971   0.00743   0.00312  -0.1430  0.6247  0.7188  -1.1236   0.0000   0.0000   0.0000   0.4257
   1.300   0.8087   0.00744   0.00313  -0.1432  0.6237  0.7197  -1.1321   0.0000   0.0000   0.0000   0.4231
   1.400   0.8203   0.00745   0.00314  -0.1433  0.6226  0.7205  -1.1406   0.0000   0.0000   0.0000   0.4206
   1.500   0.8318   0.00747   0.00315  -0.1434  0.6214  0.7211  -1.1491   0.0000   0.0000   0.0000   0.4182
   1.600   0.8434   0.00749   0.00316  -0.1435  0.6203  0.7217  -1.1576   0.0000   0.0000   0.0000   0.4159
   1.700   0.8549   0.00751   0.00317  -0.1436  0.6190  0.7222  -1.1664   0.0000   0.0000   0.0000   0.4136
   1.800   0.8663   0.00753   0.00318  -0.1437  0.6177  0.7226  -1.1758   0.0000   0.0000   0.0000   0.4113
   1.900   0.8777   0.00756   0.00320  -0.1438  0.6162  0.7230  -1.1852   0.0000   0.0000   0.0000   0.4091
   2.000   0.8892   0.00755   0.00317  -0.1440  0.6146  0.7256  -1.1947   0.0000   0.0000   0.0000   0.4070
   2.100   0.9007   0.00754   0.00315  -0.1442  0.6129  0.7288  -1.2041   0.0000   0.0000   0.0000   0.4050
   2.200   0.9121   0.00755   0.00316  -0.1443  0.6111  0.7316  -1.2134   0.0000   0.0000   0.0000   0.4030
   2.300   0.9235   0.00757   0.00317  -0.1444  0.6092  0.7340  -1.2239   0.0000   0.0000   0.0000   0.4011
   2.400   0.9349   0.00760   0.00321  -0.1446  0.6071  0.7363  -1.2344   0.0000   0.0000   0.0000   0.3992
   2.500   0.9463   0.00765   0.00325  -0.1447  0.6048  0.7384  -1.2448   0.0000   0.0000   0.0000   0.3974
   2.600   0.9578   0.00771   0.00332  -0.1449  0.6023  0.7404  -1.2553   0.0000   0.0000   0.0000   0.3956
   2.700   0.9692   0.00779   0.00340  -0.1450  0.5996  0.7421  -1.2658   0.0000   0.0000   0.0000   0.3938
   2.800   0.9806   0.00786   0.00348  -0.1452  0.5978  0.7437  -1.2763   0.0000   0.0000   0.0000   0.3921
   2.900   0.9921   0.00785   0.00348  -0.1453  0.5976  0.7451  -1.2873   0.0000   0.0000   0.0000   0.3904
   3.000   1.0036   0.00785   0.00349  -0.1454  0.5973  0.7464  -1.2993   0.0000   0.0000   0.0000   0.3887
   3.100   1.0151   0.00785   0.00350  -0.1456  0.5971  0.7476  -1.3114   0.0000   0.0000   0.0000   0.3870
   3.200   1.0266   0.00784   0.00351  -0.1457  0.5968  0.7486  -1.3234   0.0000   0.0000   0.0000   0.3854
   3.300   1.0381   0.00784   0.00351  -0.1459  0.5964  0.7496  -1.3355   0.0000   0.0000   0.0000   0.3838
   3.400   1.0495   0.00783   0.00352  -0.1460  0.5959  0.7506  -1.3476   0.0000   0.0000   0.0000   0.3823
   3.500   1.0609   0.00783   0.00352  -0.1461  0.5954  0.7517  -1.3596   0.0000   0.0000   0.0000   0.3808
   3.600   1.0723   0.00782   0.00353  -0.1462  0.5947  0.7529  -1.3723   0.0000   0.0000   0.0000   0.3793
   3.700   1.0837   0.00782   0.00354  -0.1463  0.5940  0.7541  -1.3859   0.0000   0.0000   0.0000   0.3778
   3.800   1.0951   0.00783   0.00356  -0.1464  0.5933  0.7553  -1.3995   0.0000   0.0000   0.0000   0.3764
   3.900   1.1064   0.00784   0.00358  -0.1466  0.5925  0.7565  -1.4131   0.0000   0.0000   0.0000   0.3750
   4.000   1.1178   0.00784   0.00360  -0.1467  0.5916  0.7575  -1.4268   0.0000   0.0000   0.0000   0.3736
   4.100   1.1292   0.00785   0.00362  -0.1468  0.5905  0.7585  -1.4405   0.0000   0.0000   0.0000   0.3722
   4.200   1.1405   0.00785   0.00363  -0.1469  0.5892  0.7595  -1.4542   0.0000   0.0000   0.0000   0.3709
   4.300   1.1519   0.00785   0.00364  -0.1470  0.5877  0.7604  -1.4689   0.0000   0.0000   0.0000   0.3696
   4.400   1.1632   0.00786   0.00365  -0.1472  0.5860  0.7612  -1.4845   0.0000   0.0000   0.0000   0.3683
   4.500   1.1745   0.00786   0.00366  -0.1473  0.5843  0.7621  -1.5001   0.0000   0.0000   0.0000   0.3670
   4.600   1.1857   0.00787   0.00367  -0.1474  0.5823  0.7629  -1.5157   0.0000   0.0000   0.0000   0.3658
   4.700   1.1969   0.00788   0.00368  -0.1475  0.5802  0.7637  -1.5313   0.0000   0.0000   0.0000   0.3646
   4.800   1.2080   0.00790   0.00370  -0.1475  0.5779  0.7645  -1.5476   0.0000   0.0000   0.0000   0.3633
   4.900   1.2188   0.00792   0.00370  -0.1475  0.5752  0.7653  -1.5652   0.0000   0.0000   0.0000   0.3621
   5.000   1.2295   0.00794   0.00371  -0.1475  0.5722  0.7660  -1.5827   0.0000   0.0000   0.0000   0.3609
   5.100   1.2399   0.00798   0.00373  -0.1475  0.5689  0.7667  -1.5999   0.0000   0.0000   0.0000   0.3597
   5.200   1.2500   0.00802   0.00376  -0.1474  0.5654  0.7674  -1.6170   0.0000   0.0000   0.0000   0.3585
   5.300   1.2602   0.00807   0.00379  -0.1473  0.5619  0.7680  -1.6341   0.0000   0.0000   0.0000   0.3573
   5.400   1.2705   0.00813   0.00384  -0.1472  0.5583  0.7686  -1.6513   0.0000   0.0000   0.0000   0.3562
   5.500   1.2810   0.00819   0.00389  -0.1472  0.5547  0.7692  -1.6687   0.0000   0.0000   0.0000   0.3551
   5.600   1.2920   0.00824   0.00394  -0.1473  0.5524  0.7697  -1.6866   0.0000   0.0000   0.0000   0.3540
   5.700   1.3031   0.00825   0.00399  -0.1474  0.5517  0.7702  -1.7057   0.0000   0.0000   0.0000   0.3530
   5.800   1.3141   0.00827   0.00403  -0.1474  0.5506  0.7707  -1.7266   0.0000   0.0000   0.0000   0.3519
   5.900   1.3251   0.00830   0.00408  -0.1475  0.5492  0.7712  -1.7475   0.0000   0.0000   0.0000   0.3509
   6.000   1.3360   0.00832   0.00412  -0.1475  0.5471  0.7716  -1.7683   0.0000   0.0000   0.0000   0.3499
   6.100   1.3467   0.00836   0.00416  -0.1476  0.5444  0.7719  -1.7891   0.0000   0.0000   0.0000   0.3489
   6.200   1.3572   0.00839   0.00420  -0.1475  0.5411  0.7723  -1.8097   0.0000   0.0000   0.0000   0.3478
   6.300   1.3678   0.00842   0.00423  -0.1475  0.5375  0.7743  -1.8303   0.0000   0.0000   0.0000   0.3469
   6.400   1.3779   0.00846   0.00425  -0.1475  0.5332  0.7768  -1.8535   0.0000   0.0000   0.0000   0.3459
   6.500   1.3872   0.00852   0.00429  -0.1472  0.5278  0.7791  -1.8763   0.0000   0.0000   0.0000   0.3448
   6.600   1.3954   0.00861   0.00434  -0.1468  0.5211  0.7814  -1.8979   0.0000   0.0000   0.0000   0.3437
   6.700   1.4027   0.00872   0.00442  -0.1462  0.5127  0.7837  -1.9184   0.0000   0.0000   0.0000   0.3426
   6.800   1.4116   0.00880   0.00449  -0.1459  0.5065  0.7858  -1.9408   0.0000   0.0000   0.0000   0.3416
   6.900   1.4219   0.00885   0.00457  -0.1458  0.5035  0.7877  -1.9650   0.0000   0.0000   0.0000   0.3406
   7.000   1.4316   0.00891   0.00464  -0.1457  0.4992  0.7894  -1.9886   0.0000   0.0000   0.0000   0.3397
   7.100   1.4407   0.00899   0.00472  -0.1454  0.4937  0.7911  -2.0116   0.0000   0.0000   0.0000   0.3387
   7.200   1.4487   0.00910   0.00481  -0.1449  0.4868  0.7928  -2.0359   0.0000   0.0000   0.0000   0.3376
   7.300   1.4551   0.00926   0.00492  -0.1441  0.4786  0.7944  -2.0595   0.0000   0.0000   0.0000   0.3365
   7.400   1.4598   0.00946   0.00507  -0.1431  0.4683  0.7960  -2.0808   0.0000   0.0000   0.0000   0.3353
   7.500   1.4666   0.00960   0.00519  -0.1424  0.4603  0.7975  -2.1051   0.0000   0.0000   0.0000   0.3342
   7.600   1.4746   0.00970   0.00530  -0.1419  0.4547  0.7989  -2.1312   0.0000   0.0000   0.0000   0.3332
   7.700   1.4807   0.00986   0.00543  -0.1411  0.4464  0.8004  -2.1547   0.0000   0.0000   0.0000   0.3321
   7.800   1.4831   0.01009   0.00559  -0.1396  0.4366  0.8020  -2.1730   0.0000   0.0000   0.0000   0.3307
   7.900   1.4829   0.01036   0.00580  -0.1376  0.4256  0.8036  -2.1878   0.0000   0.0000   0.0000   0.3292
   8.000   1.4860   0.01058   0.00599  -0.1362  0.4157  0.8051  -2.2072   0.0000   0.0000   0.0000   0.3280
   8.100   1.4925   0.01071   0.00613  -0.1355  0.4110  0.8065  -2.2313   0.0000   0.0000   0.0000   0.3269
   8.200   1.4979   0.01088   0.00628  -0.1346  0.4053  0.8079  -2.2559   0.0000   0.0000   0.0000   0.3258
   8.300   1.5019   0.01110   0.00647  -0.1334  0.3985  0.8093  -2.2811   0.0000   0.0000   0.0000   0.3247
   8.400   1.5040   0.01137   0.00671  -0.1320  0.3909  0.8107  -2.3033   0.0000   0.0000   0.0000   0.3234
   8.500   1.5047   0.01170   0.00699  -0.1303  0.3824  0.8121  -2.3228   0.0000   0.0000   0.0000   0.3221
   8.600   1.5067   0.01199   0.00725  -0.1289  0.3730  0.8134  -2.3449   0.0000   0.0000   0.0000   0.3209
   8.700   1.5129   0.01217   0.00743  -0.1282  0.3689  0.8145  -2.3739   0.0000   0.0000   0.0000   0.3199
   8.800   1.5178   0.01238   0.00764  -0.1273  0.3639  0.8155  -2.4011   0.0000   0.0000   0.0000   0.3189
   8.900   1.5204   0.01267   0.00791  -0.1261  0.3573  0.8166  -2.4242   0.0000   0.0000   0.0000   0.3177
   9.000   1.5207   0.01307   0.00826  -0.1245  0.3494  0.8175  -2.4435   0.0000   0.0000   0.0000   0.3165
   9.100   1.5189   0.01356   0.00870  -0.1227  0.3407  0.8184  -2.4590   0.0000   0.0000   0.0000   0.3152
   9.200   1.5180   0.01404   0.00914  -0.1210  0.3303  0.8192  -2.4759   0.0000   0.0000   0.0000   0.3140
   9.300   1.5224   0.01433   0.00943  -0.1202  0.3251  0.8205  -2.5038   0.0000   0.0000   0.0000   0.3130
   9.400   1.5261   0.01464   0.00974  -0.1193  0.3205  0.8242  -2.5352   0.0000   0.0000   0.0000   0.3121
   9.500   1.5283   0.01502   0.01012  -0.1182  0.3151  0.8282  -2.5633   0.0000   0.0000   0.0000   0.3111
   9.600   1.5298   0.01546   0.01055  -0.1171  0.3093  0.8322  -2.5899   0.0000   0.0000   0.0000   0.3101
   9.700   1.5298   0.01598   0.01105  -0.1158  0.3030  0.8359  -2.6135   0.0000   0.0000   0.0000   0.3090
   9.800   1.5283   0.01661   0.01166  -0.1143  0.2962  0.8395  -2.6335   0.0000   0.0000   0.0000   0.3079
   9.900   1.5289   0.01715   0.01218  -0.1132  0.2881  0.8426  -2.6582   0.0000   0.0000   0.0000   0.3070
  10.000   1.5330   0.01751   0.01256  -0.1124  0.2837  0.8454  -2.6908   0.0000   0.0000   0.0000   0.3061
  10.100   1.5375   0.01786   0.01292  -0.1118  0.2805  0.8480  -2.7244   0.0000   0.0000   0.0000   0.3053
  10.200   1.5393   0.01836   0.01343  -0.1109  0.2762  0.8508  -2.7522   0.0000   0.0000   0.0000   0.3044
  10.300   1.5396   0.01898   0.01404  -0.1098  0.2706  0.8535  -2.7764   0.0000   0.0000   0.0000   0.3035
  10.400   1.5388   0.01967   0.01469  -0.1086  0.2641  0.8562  -2.7984   0.0000   0.0000   0.0000   0.3025
  10.500   1.5373   0.02042   0.01541  -0.1074  0.2565  0.8587  -2.8184   0.0000   0.0000   0.0000   0.3016
  10.600   1.5358   0.02122   0.01617  -0.1062  0.2477  0.8608  -2.8386   0.0000   0.0000   0.0000   0.3007
  10.700   1.5374   0.02184   0.01680  -0.1054  0.2427  0.8626  -2.8657   0.0000   0.0000   0.0000   0.2999
  10.900   1.5430   0.02287   0.01784  -0.1040  0.2351  0.8718  -2.9263   0.0000   0.0000   0.0000   0.2984
  11.000   1.5446   0.02343   0.01842  -0.1032  0.2305  0.8784  -2.9538   0.0000   0.0000   0.0000   0.2976
  11.100   1.5449   0.02408   0.01906  -0.1022  0.2255  0.8846  -2.9786   0.0000   0.0000   0.0000   0.2967
  11.200   1.5443   0.02480   0.01977  -0.1012  0.2202  0.8910  -3.0035   0.0000   0.0000   0.0000   0.2959
  11.300   1.5412   0.02576   0.02072  -0.1000  0.2147  0.8979  -3.0254   0.0000   0.0000   0.0000   0.2950
  11.400   1.5407   0.02652   0.02149  -0.0991  0.2083  0.9063  -3.0548   0.0000   0.0000   0.0000   0.2942
  11.500   1.5424   0.02699   0.02201  -0.0982  0.2046  0.9233  -3.0911   0.0000   0.0000   0.0000   0.2934
  11.600   1.5457   0.02737   0.02244  -0.0975  0.2025  0.9574  -3.1321   0.0000   0.0000   0.0000   0.2926
  11.800   1.5518   0.02845   0.02353  -0.0964  0.1958  1.0000  -3.2132   0.0000   0.0000   0.0000   0.2913
  11.900   1.5531   0.02917   0.02422  -0.0958  0.1911  1.0000  -3.2486   0.0000   0.0000   0.0000   0.2906
  12.000   1.5529   0.03000   0.02509  -0.0950  0.1858  1.0000  -3.2795   0.0000   0.0000   0.0000   0.2899
  12.100   1.5511   0.03101   0.02606  -0.0942  0.1800  1.0000  -3.3054   0.0000   0.0000   0.0000   0.2892
  12.200   1.5475   0.03222   0.02726  -0.0934  0.1740  1.0000  -3.3260   0.0000   0.0000   0.0000   0.2886
  12.300   1.5491   0.03299   0.02802  -0.0928  0.1686  1.0000  -3.3624   0.0000   0.0000   0.0000   0.2880
  12.400   1.5530   0.03357   0.02861  -0.0925  0.1661  1.0000  -3.4061   0.0000   0.0000   0.0000   0.2874
  12.500   1.5560   0.03421   0.02924  -0.0920  0.1627  1.0000  -3.4477   0.0000   0.0000   0.0000   0.2868
  12.600   1.5581   0.03492   0.02994  -0.0916  0.1586  1.0000  -3.4863   0.0000   0.0000   0.0000   0.2862
  12.700   1.5595   0.03569   0.03068  -0.0910  0.1542  1.0000  -3.5227   0.0000   0.0000   0.0000   0.2855
  12.800   1.5607   0.03650   0.03146  -0.0905  0.1498  1.0000  -3.5586   0.0000   0.0000   0.0000   0.2849
  12.900   1.5618   0.03731   0.03224  -0.0899  0.1449  1.0000  -3.5945   0.0000   0.0000   0.0000   0.2843
  13.000   1.5637   0.03807   0.03298  -0.0895  0.1393  1.0000  -3.6327   0.0000   0.0000   0.0000   0.2838
  13.100   1.5669   0.03874   0.03365  -0.0891  0.1354  1.0000  -3.6750   0.0000   0.0000   0.0000   0.2832
  13.200   1.5709   0.03932   0.03426  -0.0888  0.1340  1.0000  -3.7219   0.0000   0.0000   0.0000   0.2826
  13.300   1.5741   0.04000   0.03494  -0.0885  0.1322  1.0000  -3.7742   0.0000   0.0000   0.0000   0.2821
  13.400   1.5717   0.04128   0.03625  -0.0880  0.1304  1.0000  -3.8047   0.0000   0.0000   0.0000   0.2816
  13.500   1.5724   0.04222   0.03720  -0.0876  0.1279  1.0000  -3.8476   0.0000   0.0000   0.0000   0.2811
  13.600   1.5738   0.04307   0.03804  -0.0872  0.1247  1.0000  -3.9068   0.0000   0.0000   0.0000   0.2806
  13.700   1.5751   0.04392   0.03886  -0.0867  0.1211  1.0000  -3.9668   0.0000   0.0000   0.0000   0.2800
  13.800   1.5763   0.04476   0.03967  -0.0863  0.1172  1.0000  -4.0265   0.0000   0.0000   0.0000   0.2795
  13.900   1.5778   0.04555   0.04044  -0.0859  0.1126  1.0000  -4.0880   0.0000   0.0000   0.0000   0.2790
  14.000   1.5803   0.04628   0.04115  -0.0855  0.1078  1.0000  -4.1545   0.0000   0.0000   0.0000   0.2784
  14.100   1.5841   0.04689   0.04178  -0.0853  0.1051  1.0000  -4.2288   0.0000   0.0000   0.0000   0.2779
  14.200   1.5886   0.04746   0.04236  -0.0851  0.1038  1.0000  -4.3070   0.0000   0.0000   0.0000   0.2774
  14.300   1.5926   0.04808   0.04299  -0.0848  0.1021  1.0000  -4.3836   0.0000   0.0000   0.0000   0.2769
  14.400   1.5960   0.04877   0.04367  -0.0846  0.0999  1.0000  -4.4574   0.0000   0.0000   0.0000   0.2764
  14.500   1.5987   0.04953   0.04443  -0.0843  0.0973  1.0000  -4.5278   0.0000   0.0000   0.0000   0.2760
  14.600   1.6003   0.05041   0.04529  -0.0840  0.0945  1.0000  -4.5928   0.0000   0.0000   0.0000   0.2755
  14.700   1.6012   0.05137   0.04624  -0.0837  0.0916  1.0000  -4.6540   0.0000   0.0000   0.0000   0.2750
  14.800   1.6016   0.05239   0.04725  -0.0833  0.0884  1.0000  -4.7129   0.0000   0.0000   0.0000   0.2746
  14.900   1.6000   0.05367   0.04853  -0.0830  0.0849  1.0000  -4.7608   0.0000   0.0000   0.0000   0.2742
  15.000   1.5955   0.05535   0.05022  -0.0827  0.0821  1.0000  -4.7921   0.0000   0.0000   0.0000   0.2738
  15.100   1.5965   0.05636   0.05124  -0.0824  0.0787  1.0000  -4.8545   0.0000   0.0000   0.0000   0.2734
  15.200   1.6001   0.05709   0.05199  -0.0823  0.0779  1.0000  -4.9323   0.0000   0.0000   0.0000   0.2730
  15.300   1.6037   0.05783   0.05274  -0.0821  0.0766  1.0000  -5.0105   0.0000   0.0000   0.0000   0.2726
  15.400   1.6068   0.05861   0.05352  -0.0820  0.0747  1.0000  -5.0866   0.0000   0.0000   0.0000   0.2721
  15.500   1.6094   0.05945   0.05435  -0.0818  0.0724  1.0000  -5.1599   0.0000   0.0000   0.0000   0.2717
  15.600   1.6114   0.06035   0.05523  -0.0816  0.0698  1.0000  -5.2319   0.0000   0.0000   0.0000   0.2713
  15.700   1.6127   0.06132   0.05619  -0.0814  0.0672  1.0000  -5.3006   0.0000   0.0000   0.0000   0.2709
  15.800   1.6140   0.06230   0.05715  -0.0812  0.0644  1.0000  -5.3698   0.0000   0.0000   0.0000   0.2705
  15.900   1.6158   0.06323   0.05807  -0.0810  0.0613  1.0000  -5.4420   0.0000   0.0000   0.0000   0.2701
  16.000   1.6179   0.06414   0.05897  -0.0809  0.0581  1.0000  -5.5160   0.0000   0.0000   0.0000   0.2697
  16.100   1.6204   0.06501   0.05987  -0.0808  0.0556  1.0000  -5.5924   0.0000   0.0000   0.0000   0.2693
  16.200   1.6240   0.06576   0.06063  -0.0807  0.0551  1.0000  -5.6775   0.0000   0.0000   0.0000   0.2689
  16.300   1.6271   0.06657   0.06146  -0.0806  0.0545  1.0000  -5.7598   0.0000   0.0000   0.0000   0.2685
  16.400   1.6295   0.06746   0.06237  -0.0805  0.0536  1.0000  -5.8384   0.0000   0.0000   0.0000   0.2682
  16.500   1.6312   0.06844   0.06337  -0.0804  0.0526  1.0000  -5.9122   0.0000   0.0000   0.0000   0.2678
  16.600   1.6270   0.07021   0.06517  -0.0804  0.0518  1.0000  -5.9486   0.0000   0.0000   0.0000   0.2676
  16.700   1.6249   0.07172   0.06670  -0.0804  0.0507  1.0000  -5.9986   0.0000   0.0000   0.0000   0.2674
  16.800   1.6255   0.07287   0.06785  -0.0803  0.0492  1.0000  -6.0659   0.0000   0.0000   0.0000   0.2671
  16.900   1.6264   0.07396   0.06894  -0.0803  0.0476  1.0000  -6.1356   0.0000   0.0000   0.0000   0.2668
  17.000   1.6271   0.07506   0.07002  -0.0802  0.0458  1.0000  -6.2045   0.0000   0.0000   0.0000   0.2665
  17.100   1.6279   0.07615   0.07111  -0.0802  0.0438  1.0000  -6.2736   0.0000   0.0000   0.0000   0.2662
  17.200   1.6290   0.07719   0.07215  -0.0801  0.0415  1.0000  -6.3451   0.0000   0.0000   0.0000   0.2659
  17.300   1.6302   0.07820   0.07321  -0.0801  0.0390  1.0000  -6.4169   0.0000   0.0000   0.0000   0.2656
  17.400   1.6313   0.07924   0.07426  -0.0800  0.0368  1.0000  -6.4874   0.0000   0.0000   0.0000   0.2653
  17.500   1.6340   0.08008   0.07513  -0.0801  0.0362  1.0000  -6.5717   0.0000   0.0000   0.0000   0.2650
  17.600   1.6370   0.08091   0.07598  -0.0801  0.0359  1.0000  -6.6580   0.0000   0.0000   0.0000   0.2647
  17.700   1.6394   0.08181   0.07690  -0.0801  0.0355  1.0000  -6.7411   0.0000   0.0000   0.0000   0.2644
  17.800   1.6412   0.08280   0.07791  -0.0802  0.0349  1.0000  -6.8199   0.0000   0.0000   0.0000   0.2641
  17.900   1.6422   0.08390   0.07903  -0.0802  0.0342  1.0000  -6.8935   0.0000   0.0000   0.0000   0.2638
  18.000   1.6418   0.08520   0.08036  -0.0803  0.0334  1.0000  -6.9574   0.0000   0.0000   0.0000   0.2636
  18.100   1.6345   0.08757   0.08277  -0.0806  0.0330  1.0000  -6.9712   0.0000   0.0000   0.0000   0.2638
  18.200   1.6337   0.08897   0.08419  -0.0808  0.0321  1.0000  -7.0324   0.0000   0.0000   0.0000   0.2636
  18.300   1.6338   0.09025   0.08547  -0.0809  0.0310  1.0000  -7.0994   0.0000   0.0000   0.0000   0.2634
  18.400   1.6340   0.09151   0.08672  -0.0811  0.0299  1.0000  -7.1676   0.0000   0.0000   0.0000   0.2633
  18.500   1.6343   0.09275   0.08795  -0.0812  0.0288  1.0000  -7.2362   0.0000   0.0000   0.0000   0.2631
  18.600   1.6345   0.09400   0.08921  -0.0814  0.0275  1.0000  -7.3041   0.0000   0.0000   0.0000   0.2629
  18.700   1.6347   0.09527   0.09047  -0.0815  0.0261  1.0000  -7.3716   0.0000   0.0000   0.0000   0.2627
  18.800   1.6348   0.09654   0.09177  -0.0817  0.0245  1.0000  -7.4382   0.0000   0.0000   0.0000   0.2626
  18.900   1.6344   0.09791   0.09316  -0.0819  0.0231  1.0000  -7.5001   0.0000   0.0000   0.0000   0.2624
  19.000   1.6330   0.09943   0.09471  -0.0821  0.0218  1.0000  -7.5533   0.0000   0.0000   0.0000   0.2624
  19.100   1.6318   0.10093   0.09625  -0.0824  0.0210  1.0000  -7.6092   0.0000   0.0000   0.0000   0.2623
  19.200   1.6299   0.10259   0.09796  -0.0828  0.0210  1.0000  -7.6623   0.0000   0.0000   0.0000   0.2623
  19.300   1.6257   0.10462   0.10004  -0.0833  0.0210  1.0000  -7.6967   0.0000   0.0000   0.0000   0.2625
  19.400   1.6268   0.10581   0.10125  -0.0836  0.0209  1.0000  -7.7740   0.0000   0.0000   0.0000   0.2624
  19.500   1.6288   0.10686   0.10234  -0.0839  0.0207  1.0000  -7.8579   0.0000   0.0000   0.0000   0.2622
  19.600   1.6310   0.10788   0.10339  -0.0842  0.0206  1.0000  -7.9434   0.0000   0.0000   0.0000   0.2620
  19.700   1.6330   0.10891   0.10444  -0.0845  0.0204  1.0000  -8.0286   0.0000   0.0000   0.0000   0.2619
  19.800   1.6348   0.10997   0.10552  -0.0848  0.0201  1.0000  -8.1113   0.0000   0.0000   0.0000   0.2617
  19.900   1.6362   0.11108   0.10665  -0.0851  0.0197  1.0000  -8.1913   0.0000   0.0000   0.0000   0.2616
  20.000   1.6371   0.11225   0.10784  -0.0854  0.0193  1.0000  -8.2677   0.0000   0.0000   0.0000   0.2615
  20.100   1.6376   0.11350   0.10910  -0.0858  0.0188  1.0000  -8.3398   0.0000   0.0000   0.0000   0.2614
  20.200   1.6374   0.11484   0.11046  -0.0862  0.0182  1.0000  -8.4066   0.0000   0.0000   0.0000   0.2614
  20.300   1.6364   0.11631   0.11194  -0.0866  0.0177  1.0000  -8.4665   0.0000   0.0000   0.0000   0.2614
  20.400   1.6340   0.11799   0.11365  -0.0872  0.0172  1.0000  -8.5146   0.0000   0.0000   0.0000   0.2615
  20.500   1.6249   0.12084   0.11655  -0.0882  0.0170  1.0000  -8.5032   0.0000   0.0000   0.0000   0.2622
  20.600   1.6224   0.12255   0.11827  -0.0888  0.0165  1.0000  -8.5490   0.0000   0.0000   0.0000   0.2624
  20.700   1.6210   0.12408   0.11981  -0.0894  0.0158  1.0000  -8.6039   0.0000   0.0000   0.0000   0.2625
  20.800   1.6199   0.12557   0.12130  -0.0899  0.0152  1.0000  -8.6600   0.0000   0.0000   0.0000   0.2625
  20.900   1.6187   0.12705   0.12279  -0.0905  0.0144  1.0000  -8.7157   0.0000   0.0000   0.0000   0.2626
  21.000   1.6172   0.12859   0.12434  -0.0910  0.0136  1.0000  -8.7666   0.0000   0.0000   0.0000   0.2628
  21.100   1.6150   0.13024   0.12603  -0.0917  0.0128  1.0000  -8.8101   0.0000   0.0000   0.0000   0.2630
  21.200   1.6120   0.13205   0.12787  -0.0924  0.0122  1.0000  -8.8445   0.0000   0.0000   0.0000   0.2632
  21.300   1.6053   0.13450   0.13038  -0.0935  0.0119  1.0000  -8.8461   0.0000   0.0000   0.0000   0.2639
  21.400   1.5974   0.13716   0.13311  -0.0947  0.0116  1.0000  -8.8358   0.0000   0.0000   0.0000   0.2646
  21.500   1.5941   0.13902   0.13502  -0.0956  0.0113  1.0000  -8.8655   0.0000   0.0000   0.0000   0.2650
  21.600   1.5917   0.14072   0.13677  -0.0964  0.0109  1.0000  -8.9027   0.0000   0.0000   0.0000   0.2653
  21.700   1.5894   0.14231   0.13841  -0.0972  0.0106  1.0000  -8.9398   0.0000   0.0000   0.0000   0.2656
  21.800   1.5868   0.14388   0.14003  -0.0980  0.0103  1.0000  -8.9734   0.0000   0.0000   0.0000   0.2659
  21.900   1.5837   0.14552   0.14172  -0.0989  0.0100  1.0000  -9.0012   0.0000   0.0000   0.0000   0.2663
  22.000   1.5799   0.14728   0.14355  -0.0999  0.0098  1.0000  -9.0222   0.0000   0.0000   0.0000   0.2668
  22.100   1.5737   0.14956   0.14589  -0.1013  0.0098  1.0000  -9.0230   0.0000   0.0000   0.0000   0.2676
  22.200   1.5700   0.15146   0.14782  -0.1024  0.0098  1.0000  -9.0488   0.0000   0.0000   0.0000   0.2682
  22.300   1.5701   0.15272   0.14911  -0.1032  0.0098  1.0000  -9.1133   0.0000   0.0000   0.0000   0.2684
  22.400   1.5712   0.15382   0.15023  -0.1038  0.0098  1.0000  -9.1890   0.0000   0.0000   0.0000   0.2684
  22.500   1.5726   0.15489   0.15132  -0.1045  0.0098  1.0000  -9.2675   0.0000   0.0000   0.0000   0.2685
  22.600   1.5740   0.15594   0.15239  -0.1051  0.0098  1.0000  -9.3472   0.0000   0.0000   0.0000   0.2685
  22.700   1.5755   0.15700   0.15348  -0.1058  0.0097  1.0000  -9.4270   0.0000   0.0000   0.0000   0.2686
  22.800   1.5768   0.15809   0.15458  -0.1065  0.0097  1.0000  -9.5059   0.0000   0.0000   0.0000   0.2686
  22.900   1.5780   0.15921   0.15573  -0.1072  0.0097  1.0000  -9.5831   0.0000   0.0000   0.0000   0.2687
  23.000   1.5788   0.16039   0.15693  -0.1079  0.0097  1.0000  -9.6574   0.0000   0.0000   0.0000   0.2688
  23.100   1.5793   0.16166   0.15822  -0.1087  0.0096  1.0000  -9.7272   0.0000   0.0000   0.0000   0.2690
  23.200   1.5791   0.16305   0.15964  -0.1095  0.0096  1.0000  -9.7898   0.0000   0.0000   0.0000   0.2692
  23.300   1.5696   0.16627   0.16293  -0.1114  0.0096  1.0000  -9.7469   0.0000   0.0000   0.0000   0.2706
  23.400   1.5669   0.16820   0.16490  -0.1126  0.0096  1.0000  -9.7797   0.0000   0.0000   0.0000   0.2711
  23.500   1.5670   0.16960   0.16633  -0.1134  0.0095  1.0000  -9.8442   0.0000   0.0000   0.0000   0.2714
  23.600   1.5676   0.17091   0.16766  -0.1142  0.0095  1.0000  -9.9143   0.0000   0.0000   0.0000   0.2715
  23.700   1.5683   0.17219   0.16897  -0.1150  0.0094  1.0000  -9.9860   0.0000   0.0000   0.0000   0.2717
  23.800   1.5690   0.17348   0.17028  -0.1158  0.0093  1.0000  -10.0578   0.0000   0.0000   0.0000   0.2718
  23.900   1.5695   0.17479   0.17162  -0.1166  0.0093  1.0000  -10.1282   0.0000   0.0000   0.0000   0.2720
  24.000   1.5699   0.17616   0.17300  -0.1175  0.0092  1.0000  -10.1958   0.0000   0.0000   0.0000   0.2722
  24.100   1.5699   0.17760   0.17451  -0.1183  0.0091  1.0000  -10.2592   0.0000   0.0000   0.0000   0.2724
  24.200   1.5694   0.17916   0.17610  -0.1193  0.0090  1.0000  -10.3160   0.0000   0.0000   0.0000   0.2727
  24.300   1.5680   0.18091   0.17788  -0.1204  0.0089  1.0000  -10.3624   0.0000   0.0000   0.0000   0.2732
  24.400   1.5566   0.18485   0.18190  -0.1227  0.0089  1.0000  -10.2857   0.0000   0.0000   0.0000   0.2749
  24.500   1.5532   0.18714   0.18422  -0.1240  0.0088  1.0000  -10.3042   0.0000   0.0000   0.0000   0.2757
  24.600   1.5520   0.18892   0.18603  -0.1251  0.0086  1.0000  -10.3508   0.0000   0.0000   0.0000   0.2761
  24.700   1.5512   0.19061   0.18775  -0.1261  0.0085  1.0000  -10.4022   0.0000   0.0000   0.0000   0.2765
  24.800   1.5505   0.19230   0.18946  -0.1271  0.0083  1.0000  -10.4540   0.0000   0.0000   0.0000   0.2768
  24.900   1.5497   0.19402   0.19119  -0.1281  0.0082  1.0000  -10.5041   0.0000   0.0000   0.0000   0.2772
  25.000   1.5486   0.19581   0.19300  -0.1292  0.0080  1.0000  -10.5507   0.0000   0.0000   0.0000   0.2776
  25.100   1.5470   0.19771   0.19492  -0.1303  0.0078  1.0000  -10.5911   0.0000   0.0000   0.0000   0.2781
  25.200   1.5448   0.19979   0.19703  -0.1316  0.0076  1.0000  -10.6216   0.0000   0.0000   0.0000   0.2787
  25.300   1.5412   0.20221   0.19948  -0.1330  0.0075  1.0000  -10.6342   0.0000   0.0000   0.0000   0.2795
  25.400   1.5278   0.20715   0.20451  -0.1357  0.0075  1.0000  -10.5131   0.0000   0.0000   0.0000   0.2818
  25.500   1.5246   0.20958   0.20696  -0.1371  0.0073  1.0000  -10.5277   0.0000   0.0000   0.0000   0.2826
  25.600   1.5224   0.21175   0.20915  -0.1384  0.0071  1.0000  -10.5557   0.0000   0.0000   0.0000   0.2832
  25.700   1.5205   0.21388   0.21129  -0.1396  0.0070  1.0000  -10.5867   0.0000   0.0000   0.0000   0.2838
  25.800   1.5185   0.21602   0.21345  -0.1408  0.0068  1.0000  -10.6168   0.0000   0.0000   0.0000   0.2844
  25.900   1.5163   0.21824   0.21568  -0.1421  0.0066  1.0000  -10.6431   0.0000   0.0000   0.0000   0.2851
  26.000   1.5136   0.22060   0.21807  -0.1435  0.0064  1.0000  -10.6619   0.0000   0.0000   0.0000   0.2858
  26.100   1.5100   0.22323   0.22072  -0.1449  0.0062  1.0000  -10.6672   0.0000   0.0000   0.0000   0.2867
  26.200   1.5048   0.22635   0.22388  -0.1466  0.0061  1.0000  -10.6475   0.0000   0.0000   0.0000   0.2878
  26.300   1.4909   0.23204   0.22965  -0.1496  0.0062  1.0000  -10.4976   0.0000   0.0000   0.0000   0.2905
  26.400   1.4875   0.23475   0.23238  -0.1510  0.0060  1.0000  -10.5016   0.0000   0.0000   0.0000   0.2914
  26.500   1.4849   0.23728   0.23492  -0.1524  0.0058  1.0000  -10.5147   0.0000   0.0000   0.0000   0.2922
  26.600   1.4824   0.23977   0.23743  -0.1537  0.0056  1.0000  -10.5298   0.0000   0.0000   0.0000   0.2929
  26.700   1.4798   0.24229   0.23997  -0.1551  0.0055  1.0000  -10.5432   0.0000   0.0000   0.0000   0.2937
  26.800   1.4769   0.24492   0.24263  -0.1565  0.0053  1.0000  -10.5509   0.0000   0.0000   0.0000   0.2945
  26.900   1.4735   0.24777   0.24550  -0.1580  0.0051  1.0000  -10.5482   0.0000   0.0000   0.0000   0.2955
  27.000   1.4690   0.25095   0.24873  -0.1596  0.0050  1.0000  -10.5291   0.0000   0.0000   0.0000   0.2966
  27.100   1.4523   0.25818   0.25605  -0.1629  0.0051  1.0000  -10.3130   0.0000   0.0000   0.0000   0.3001
  27.200   1.4480   0.26142   0.25932  -0.1645  0.0050  1.0000  -10.2934   0.0000   0.0000   0.0000   0.3012
  27.300   1.4449   0.26433   0.26226  -0.1660  0.0048  1.0000  -10.2899   0.0000   0.0000   0.0000   0.3021
  27.400   1.4421   0.26715   0.26511  -0.1674  0.0046  1.0000  -10.2905   0.0000   0.0000   0.0000   0.3030
  27.500   1.4393   0.26997   0.26795  -0.1687  0.0045  1.0000  -10.2912   0.0000   0.0000   0.0000   0.3038
  27.600   1.4365   0.27283   0.27084  -0.1701  0.0043  1.0000  -10.2891   0.0000   0.0000   0.0000   0.3047
  27.700   1.4337   0.27570   0.27375  -0.1715  0.0042  1.0000  -10.2866   0.0000   0.0000   0.0000   0.3056
  27.800   1.4303   0.27881   0.27689  -0.1729  0.0040  1.0000  -10.2722   0.0000   0.0000   0.0000   0.3065
  27.900   1.4255   0.28244   0.28056  -0.1745  0.0039  1.0000  -10.2335   0.0000   0.0000   0.0000   0.3078
  28.000   1.4050   0.29187   0.29011  -0.1783  0.0040  1.0000  -9.9278   0.0000   0.0000   0.0000   0.3123
  28.100   1.4005   0.29553   0.29380  -0.1798  0.0039  1.0000  -9.8901   0.0000   0.0000   0.0000   0.3135
  28.200   1.3966   0.29897   0.29728  -0.1813  0.0037  1.0000  -9.8611   0.0000   0.0000   0.0000   0.3146
  28.300   1.3927   0.30245   0.30080  -0.1827  0.0036  1.0000  -9.8287   0.0000   0.0000   0.0000   0.3157
  28.400   1.3883   0.30607   0.30447  -0.1842  0.0034  1.0000  -9.7874   0.0000   0.0000   0.0000   0.3169
  28.500   1.3829   0.31013   0.30859  -0.1857  0.0033  1.0000  -9.7237   0.0000   0.0000   0.0000   0.3183
  28.600   1.3753   0.31509   0.31362  -0.1876  0.0031  1.0000  -9.6161   0.0000   0.0000   0.0000   0.3202
  28.700   1.3629   0.32198   0.32059  -0.1899  0.0030  1.0000  -9.4228   0.0000   0.0000   0.0000   0.3230
  28.800   1.3386   0.33386   0.33257  -0.1934  0.0032  1.0000  -9.0262   0.0000   0.0000   0.0000   0.3285
  28.900   1.3243   0.34152   0.34032  -0.1956  0.0030  1.0000  -8.7920   0.0000   0.0000   0.0000   0.3317
  29.000   1.2962   0.35408   0.35301  -0.1984  0.0029  1.0000  -8.3216   0.0000   0.0000   0.0000   0.3375


