xflr5 v6.61

 Calculated polar for: EPPLER 420 AIRFOIL

 1 1 Reynolds number fixed          Mach number fixed         

 xtrf =   1.000 (top)        1.000 (bottom)
 Mach =   0.000     Re =     0.160 e 6     Ncrit =   9.000

  alpha     CL        CD       CDp       Cm    Top Xtr Bot Xtr   Cpmin    Chinge    XCp    
 ------- -------- --------- --------- -------- ------- ------- -------- --------- ---------
 -10.000   0.3467   0.10889   0.10396  -0.1593  0.7891  0.0450  -1.0724   0.0000   0.0000   0.0000   0.7457
  -9.900   0.3511   0.10800   0.10304  -0.1598  0.7827  0.0451  -1.0761   0.0000   0.0000   0.0000   0.7406
  -9.800   0.3560   0.10708   0.10206  -0.1604  0.7767  0.0451  -1.0802   0.0000   0.0000   0.0000   0.7352
  -9.700   0.3612   0.10615   0.10107  -0.1611  0.7710  0.0451  -1.0844   0.0000   0.0000   0.0000   0.7299
  -9.600   0.3668   0.10521   0.10006  -0.1619  0.7655  0.0451  -1.0887   0.0000   0.0000   0.0000   0.7245
  -9.500   0.3727   0.10426   0.09904  -0.1628  0.7599  0.0451  -1.0931   0.0000   0.0000   0.0000   0.7191
  -9.400   0.3749   0.10353   0.09833  -0.1627  0.7559  0.0451  -1.0955   0.0000   0.0000   0.0000   0.7157
  -9.300   0.3775   0.10278   0.09758  -0.1627  0.7516  0.0452  -1.0980   0.0000   0.0000   0.0000   0.7122
  -9.200   0.3746   0.09841   0.09327  -0.1631  0.7489  0.0459  -1.1228   0.0000   0.0000   0.0000   0.7168
  -9.100   0.3772   0.09544   0.09028  -0.1630  0.7453  0.0466  -1.1313   0.0000   0.0000   0.0000   0.7132
  -9.000   0.3851   0.09328   0.08809  -0.1628  0.7411  0.0471  -1.1078   0.0000   0.0000   0.0000   0.7029
  -8.900   0.3922   0.09167   0.08645  -0.1626  0.7368  0.0476  -1.1149   0.0000   0.0000   0.0000   0.6939
  -8.800   0.3988   0.09037   0.08510  -0.1625  0.7326  0.0480  -1.1212   0.0000   0.0000   0.0000   0.6862
  -8.700   0.4050   0.08924   0.08392  -0.1625  0.7284  0.0484  -1.1272   0.0000   0.0000   0.0000   0.6792
  -8.600   0.4112   0.08822   0.08284  -0.1626  0.7240  0.0488  -1.1329   0.0000   0.0000   0.0000   0.6728
  -8.500   0.4181   0.08726   0.08182  -0.1630  0.7192  0.0492  -1.1387   0.0000   0.0000   0.0000   0.6667
  -8.400   0.4233   0.08643   0.08097  -0.1632  0.7154  0.0497  -1.1433   0.0000   0.0000   0.0000   0.6615
  -8.300   0.4266   0.08570   0.08025  -0.1629  0.7127  0.0501  -1.1467   0.0000   0.0000   0.0000   0.6574
  -8.200   0.4299   0.08499   0.07956  -0.1626  0.7098  0.0505  -1.1501   0.0000   0.0000   0.0000   0.6534
  -8.100   0.4333   0.08429   0.07887  -0.1624  0.7066  0.0509  -1.1535   0.0000   0.0000   0.0000   0.6495
  -8.000   0.4367   0.08360   0.07819  -0.1623  0.7034  0.0513  -1.1568   0.0000   0.0000   0.0000   0.6457
  -7.900   0.4401   0.08292   0.07747  -0.1622  0.7003  0.0517  -1.1600   0.0000   0.0000   0.0000   0.6421
  -7.800   0.4436   0.08226   0.07679  -0.1621  0.6972  0.0522  -1.1632   0.0000   0.0000   0.0000   0.6385
  -7.700   0.4472   0.08159   0.07612  -0.1620  0.6942  0.0527  -1.1665   0.0000   0.0000   0.0000   0.6350
  -7.600   0.4509   0.08093   0.07544  -0.1621  0.6913  0.0532  -1.1698   0.0000   0.0000   0.0000   0.6316
  -7.500   0.4547   0.08027   0.07477  -0.1621  0.6884  0.0538  -1.1730   0.0000   0.0000   0.0000   0.6282
  -7.400   0.4585   0.07962   0.07409  -0.1622  0.6856  0.0544  -1.1763   0.0000   0.0000   0.0000   0.6249
  -7.300   0.4625   0.07898   0.07342  -0.1623  0.6828  0.0550  -1.1795   0.0000   0.0000   0.0000   0.6217
  -7.200   0.4668   0.07834   0.07274  -0.1626  0.6798  0.0557  -1.1828   0.0000   0.0000   0.0000   0.6185
  -7.100   0.4714   0.07771   0.07208  -0.1629  0.6767  0.0564  -1.1860   0.0000   0.0000   0.0000   0.6154
  -7.000   0.4764   0.07710   0.07144  -0.1634  0.6731  0.0571  -1.1891   0.0000   0.0000   0.0000   0.6123
  -6.900   0.4800   0.07652   0.07086  -0.1636  0.6707  0.0579  -1.1915   0.0000   0.0000   0.0000   0.6096
  -6.800   0.4823   0.07594   0.07031  -0.1634  0.6693  0.0586  -1.1934   0.0000   0.0000   0.0000   0.6072
  -6.700   0.4846   0.07538   0.06977  -0.1632  0.6678  0.0594  -1.1951   0.0000   0.0000   0.0000   0.6049
  -6.600   0.4868   0.07483   0.06925  -0.1630  0.6661  0.0602  -1.1967   0.0000   0.0000   0.0000   0.6026
  -6.500   0.4888   0.07431   0.06874  -0.1629  0.6643  0.0610  -1.1982   0.0000   0.0000   0.0000   0.6005
  -6.400   0.4907   0.07381   0.06827  -0.1627  0.6624  0.0620  -1.1995   0.0000   0.0000   0.0000   0.5985
  -6.300   0.4924   0.07338   0.06785  -0.1625  0.6604  0.0630  -1.2004   0.0000   0.0000   0.0000   0.5967
  -6.200   0.4935   0.07303   0.06752  -0.1624  0.6584  0.0641  -1.2009   0.0000   0.0000   0.0000   0.5952
  -6.100   0.4938   0.07286   0.06737  -0.1622  0.6564  0.0652  -1.2006   0.0000   0.0000   0.0000   0.5942
  -6.000   0.4924   0.07301   0.06754  -0.1618  0.6544  0.0663  -1.1990   0.0000   0.0000   0.0000   0.5942
  -5.900   0.4909   0.07349   0.06804  -0.1619  0.6524  0.0673  -1.1967   0.0000   0.0000   0.0000   0.5950
  -5.800   0.4923   0.07407   0.06864  -0.1631  0.6504  0.0683  -1.1954   0.0000   0.0000   0.0000   0.5961
  -5.700   0.4963   0.07427   0.06884  -0.1643  0.6484  0.0689  -1.1963   0.0000   0.0000   0.0000   0.5954
  -5.600   0.5014   0.07407   0.06864  -0.1651  0.6465  0.0693  -1.1987   0.0000   0.0000   0.0000   0.5932
  -5.500   0.5066   0.07369   0.06826  -0.1659  0.6446  0.0695  -1.2013   0.0000   0.0000   0.0000   0.5909
  -5.400   0.5120   0.07319   0.06776  -0.1667  0.6428  0.0697  -1.2042   0.0000   0.0000   0.0000   0.5886
  -5.300   0.5178   0.07261   0.06716  -0.1675  0.6410  0.0698  -1.2072   0.0000   0.0000   0.0000   0.5861
  -5.200   0.5238   0.07197   0.06650  -0.1684  0.6392  0.0699  -1.2104   0.0000   0.0000   0.0000   0.5837
  -5.100   0.5302   0.07127   0.06578  -0.1693  0.6374  0.0700  -1.2138   0.0000   0.0000   0.0000   0.5812
  -5.000   0.5369   0.07053   0.06503  -0.1703  0.6355  0.0701  -1.2172   0.0000   0.0000   0.0000   0.5787
  -4.900   0.5438   0.06977   0.06424  -0.1714  0.6336  0.0701  -1.2208   0.0000   0.0000   0.0000   0.5762
  -4.800   0.5512   0.06900   0.06344  -0.1725  0.6315  0.0702  -1.2243   0.0000   0.0000   0.0000   0.5736
  -4.700   0.5589   0.06823   0.06265  -0.1737  0.6293  0.0702  -1.2278   0.0000   0.0000   0.0000   0.5711
  -4.600   0.5666   0.06752   0.06193  -0.1750  0.6267  0.0703  -1.2309   0.0000   0.0000   0.0000   0.5687
  -4.500   0.5733   0.06682   0.06123  -0.1759  0.6248  0.0703  -1.2334   0.0000   0.0000   0.0000   0.5664
  -4.400   0.5789   0.06598   0.06040  -0.1765  0.6241  0.0704  -1.2371   0.0000   0.0000   0.0000   0.5641
  -4.300   0.5847   0.06513   0.05956  -0.1771  0.6232  0.0704  -1.2410   0.0000   0.0000   0.0000   0.5619
  -4.200   0.5761   0.06050   0.05501  -0.1778  0.6227  0.0722  -1.2341   0.0000   0.0000   0.0000   0.5675
  -4.100   0.5774   0.05916   0.05370  -0.1773  0.6218  0.0731  -1.2362   0.0000   0.0000   0.0000   0.5657
  -4.000   0.5798   0.05832   0.05289  -0.1762  0.6208  0.0737  -1.2398   0.0000   0.0000   0.0000   0.5622
  -3.900   0.5827   0.05762   0.05221  -0.1751  0.6197  0.0744  -1.2437   0.0000   0.0000   0.0000   0.5586
  -3.800   0.5860   0.05701   0.05162  -0.1741  0.6185  0.0751  -1.2478   0.0000   0.0000   0.0000   0.5549
  -3.700   0.5895   0.05646   0.05109  -0.1731  0.6173  0.0759  -1.2520   0.0000   0.0000   0.0000   0.5511
  -3.600   0.5935   0.05594   0.05059  -0.1723  0.6160  0.0767  -1.2562   0.0000   0.0000   0.0000   0.5475
  -3.500   0.5979   0.05543   0.05010  -0.1717  0.6148  0.0777  -1.2606   0.0000   0.0000   0.0000   0.5440
  -3.400   0.6029   0.05492   0.04960  -0.1713  0.6135  0.0787  -1.2650   0.0000   0.0000   0.0000   0.5408
  -3.300   0.6084   0.05439   0.04908  -0.1712  0.6121  0.0799  -1.2696   0.0000   0.0000   0.0000   0.5377
  -3.200   0.6145   0.05384   0.04854  -0.1713  0.6108  0.0811  -1.2742   0.0000   0.0000   0.0000   0.5348
  -3.100   0.6213   0.05326   0.04797  -0.1717  0.6095  0.0825  -1.2791   0.0000   0.0000   0.0000   0.5321
  -3.000   0.6290   0.05264   0.04735  -0.1724  0.6081  0.0840  -1.2843   0.0000   0.0000   0.0000   0.5295
  -2.900   0.6375   0.05199   0.04669  -0.1733  0.6068  0.0857  -1.2897   0.0000   0.0000   0.0000   0.5270
  -2.800   0.6471   0.05129   0.04598  -0.1746  0.6055  0.0875  -1.2957   0.0000   0.0000   0.0000   0.5246
  -2.700   0.6583   0.05055   0.04522  -0.1763  0.6042  0.0897  -1.3023   0.0000   0.0000   0.0000   0.5223
  -2.600   0.6726   0.04976   0.04440  -0.1789  0.6029  0.0925  -1.3101   0.0000   0.0000   0.0000   0.5202
  -2.500   0.7248   0.04287   0.03725  -0.1965  0.6017  0.0745  -1.3268   0.0000   0.0000   0.0000   0.5248
  -2.400   0.7313   0.04258   0.03695  -0.1950  0.6004  0.0664  -1.3326   0.0000   0.0000   0.0000   0.5202
  -2.300   0.7483   0.04064   0.03494  -0.1983  0.5991  0.0645  -1.3420   0.0000   0.0000   0.0000   0.5182
  -2.200   0.7715   0.03833   0.03252  -0.2031  0.5978  0.0632  -1.3542   0.0000   0.0000   0.0000   0.5162
  -2.100   0.8017   0.03538   0.02937  -0.2097  0.5964  0.0639  -1.3698   0.0000   0.0000   0.0000   0.5142
  -2.000   0.8455   0.03034   0.02384  -0.2201  0.5951  0.0654  -1.5204   0.0000   0.0000   0.0000   0.5127
  -1.900   0.8701   0.02831   0.02145  -0.2241  0.5938  0.0673  -1.5614   0.0000   0.0000   0.0000   0.5096
  -1.800   0.8844   0.02797   0.02096  -0.2249  0.5924  0.0694  -1.5367   0.0000   0.0000   0.0000   0.5061
  -1.700   0.9084   0.02569   0.01822  -0.2289  0.5910  0.0752  -1.5782   0.0000   0.0000   0.0000   0.5035
  -1.600   0.9204   0.02554   0.01804  -0.2292  0.5896  0.0791  -1.5352   0.0000   0.0000   0.0000   0.5003
  -1.500   0.9317   0.02558   0.01806  -0.2292  0.5882  0.0830  -1.4891   0.0000   0.0000   0.0000   0.4971
  -1.400   0.9433   0.02565   0.01805  -0.2293  0.5868  0.0880  -1.4594   0.0000   0.0000   0.0000   0.4940
  -1.300   0.9537   0.02599   0.01838  -0.2292  0.5853  0.0944  -1.4678   0.0000   0.0000   0.0000   0.4909
  -1.200   0.9636   0.02647   0.01883  -0.2288  0.5838  0.0992  -1.4755   0.0000   0.0000   0.0000   0.4879
  -1.100   0.9792   0.02570   0.01782  -0.2304  0.5822  0.1070  -1.4853   0.0000   0.0000   0.0000   0.4855
  -1.000   0.9879   0.02609   0.01825  -0.2302  0.5804  0.1115  -1.4910   0.0000   0.0000   0.0000   0.4830
  -0.900   0.9941   0.02680   0.01901  -0.2295  0.5783  0.1151  -1.4942   0.0000   0.0000   0.0000   0.4807
  -0.800   1.0033   0.02689   0.01911  -0.2292  0.5779  0.1196  -1.5017   0.0000   0.0000   0.0000   0.4780
  -0.700   1.0125   0.02700   0.01920  -0.2288  0.5774  0.1250  -1.5090   0.0000   0.0000   0.0000   0.4754
  -0.600   1.0209   0.02724   0.01946  -0.2283  0.5768  0.1308  -1.5159   0.0000   0.0000   0.0000   0.4728
  -0.500   1.0291   0.02755   0.01977  -0.2277  0.5762  0.1352  -1.5226   0.0000   0.0000   0.0000   0.4702
  -0.400   1.0416   0.02701   0.01910  -0.2283  0.5755  0.1425  -1.5314   0.0000   0.0000   0.0000   0.4680
  -0.300   1.0510   0.02695   0.01904  -0.2282  0.5748  0.1477  -1.5386   0.0000   0.0000   0.0000   0.4656
  -0.200   1.0594   0.02708   0.01920  -0.2277  0.5741  0.1517  -1.5452   0.0000   0.0000   0.0000   0.4633
  -0.100   1.0679   0.02722   0.01936  -0.2273  0.5733  0.1558  -1.5517   0.0000   0.0000   0.0000   0.4610
   0.000   1.0765   0.02734   0.01948  -0.2269  0.5725  0.1600  -1.5583   0.0000   0.0000   0.0000   0.4587
   0.100   1.0852   0.02745   0.01957  -0.2265  0.5716  0.1644  -1.5648   0.0000   0.0000   0.0000   0.4565
   0.200   1.0939   0.02757   0.01967  -0.2261  0.5707  0.1689  -1.5713   0.0000   0.0000   0.0000   0.4543
   0.300   1.1024   0.02772   0.01979  -0.2257  0.5697  0.1730  -1.5776   0.0000   0.0000   0.0000   0.4521
   0.400   1.1106   0.02791   0.01997  -0.2253  0.5687  0.1764  -1.5836   0.0000   0.0000   0.0000   0.4500
   0.500   1.1181   0.02822   0.02028  -0.2246  0.5677  0.1789  -1.5906   0.0000   0.0000   0.0000   0.4478
   0.600   1.1287   0.02786   0.01987  -0.2250  0.5667  0.1889  -1.5996   0.0000   0.0000   0.0000   0.4461
   0.700   1.1359   0.02807   0.02013  -0.2244  0.5656  0.1942  -1.6066   0.0000   0.0000   0.0000   0.4441
   0.800   1.1430   0.02832   0.02042  -0.2238  0.5645  0.1990  -1.6135   0.0000   0.0000   0.0000   0.4421
   0.900   1.1503   0.02855   0.02067  -0.2232  0.5634  0.2038  -1.6205   0.0000   0.0000   0.0000   0.4402
   1.000   1.1579   0.02876   0.02088  -0.2226  0.5623  0.2084  -1.6276   0.0000   0.0000   0.0000   0.4383
   1.100   1.1656   0.02895   0.02107  -0.2221  0.5611  0.2127  -1.6347   0.0000   0.0000   0.0000   0.4364
   1.200   1.1733   0.02915   0.02125  -0.2216  0.5600  0.2168  -1.6418   0.0000   0.0000   0.0000   0.4345
   1.300   1.1810   0.02937   0.02146  -0.2211  0.5589  0.2206  -1.6489   0.0000   0.0000   0.0000   0.4327
   1.400   1.1884   0.02961   0.02169  -0.2206  0.5578  0.2239  -1.6559   0.0000   0.0000   0.0000   0.4308
   1.500   1.1958   0.02988   0.02195  -0.2200  0.5568  0.2263  -1.6627   0.0000   0.0000   0.0000   0.4290
   1.600   1.2052   0.02986   0.02188  -0.2199  0.5557  0.2321  -1.6709   0.0000   0.0000   0.0000   0.4273
   1.700   1.2141   0.02987   0.02189  -0.2198  0.5547  0.2395  -1.6788   0.0000   0.0000   0.0000   0.4257
   1.800   1.2218   0.03007   0.02211  -0.2193  0.5536  0.2449  -1.6860   0.0000   0.0000   0.0000   0.4240
   1.900   1.2292   0.03030   0.02237  -0.2188  0.5526  0.2504  -1.6930   0.0000   0.0000   0.0000   0.4223
   2.000   1.2369   0.03054   0.02262  -0.2183  0.5516  0.2562  -1.7003   0.0000   0.0000   0.0000   0.4206
   2.100   1.2453   0.03073   0.02281  -0.2179  0.5505  0.2621  -1.7083   0.0000   0.0000   0.0000   0.4189
   2.200   1.2543   0.03088   0.02295  -0.2176  0.5495  0.2679  -1.7170   0.0000   0.0000   0.0000   0.4172
   2.300   1.2640   0.03100   0.02304  -0.2174  0.5484  0.2729  -1.7263   0.0000   0.0000   0.0000   0.4155
   2.400   1.2741   0.03110   0.02311  -0.2173  0.5473  0.2769  -1.7360   0.0000   0.0000   0.0000   0.4138
   2.500   1.2846   0.03120   0.02318  -0.2172  0.5462  0.2801  -1.7462   0.0000   0.0000   0.0000   0.4121
   2.600   1.2960   0.03120   0.02313  -0.2173  0.5451  0.2847  -1.7570   0.0000   0.0000   0.0000   0.4105
   2.700   1.3084   0.03106   0.02298  -0.2176  0.5441  0.2945  -1.7685   0.0000   0.0000   0.0000   0.4090
   2.800   1.3198   0.03110   0.02301  -0.2178  0.5431  0.3016  -1.7793   0.0000   0.0000   0.0000   0.4075
   2.900   1.3307   0.03120   0.02312  -0.2178  0.5420  0.3079  -1.7896   0.0000   0.0000   0.0000   0.4060
   3.000   1.3410   0.03138   0.02328  -0.2178  0.5411  0.3140  -1.7992   0.0000   0.0000   0.0000   0.4045
   3.100   1.3505   0.03163   0.02352  -0.2176  0.5401  0.3200  -1.8080   0.0000   0.0000   0.0000   0.4030
   3.200   1.3596   0.03194   0.02383  -0.2174  0.5391  0.3263  -1.8162   0.0000   0.0000   0.0000   0.4016
   3.300   1.3680   0.03233   0.02422  -0.2172  0.5380  0.3322  -1.8235   0.0000   0.0000   0.0000   0.4002
   3.400   1.3751   0.03287   0.02475  -0.2167  0.5368  0.3370  -1.8295   0.0000   0.0000   0.0000   0.3989
   3.500   1.3796   0.03367   0.02556  -0.2159  0.5354  0.3402  -1.8324   0.0000   0.0000   0.0000   0.3977
   3.600   1.3733   0.03549   0.02743  -0.2138  0.5330  0.3413  -1.8234   0.0000   0.0000   0.0000   0.3967
   3.700   1.3601   0.03734   0.02938  -0.2107  0.5313  0.3418  -1.8081   0.0000   0.0000   0.0000   0.3957
   3.800   1.3610   0.03770   0.02977  -0.2093  0.5308  0.3504  -1.8084   0.0000   0.0000   0.0000   0.3944
   3.900   1.3578   0.03822   0.03035  -0.2073  0.5301  0.3560  -1.8051   0.0000   0.0000   0.0000   0.3931
   4.000   1.3519   0.03893   0.03112  -0.2049  0.5294  0.3600  -1.7990   0.0000   0.0000   0.0000   0.3918
   4.100   1.3412   0.03994   0.03220  -0.2020  0.5284  0.3618  -1.7877   0.0000   0.0000   0.0000   0.3907
   4.200   1.3102   0.04213   0.03447  -0.1967  0.5265  0.3545  -1.7584   0.0000   0.0000   0.0000   0.3900
   4.700   1.0737   0.06910   0.06198  -0.1775  0.4955  0.3036  -1.4689   0.0000   0.0000   0.0000   0.4046
   4.800   1.0850   0.06905   0.06194  -0.1774  0.4948  0.3104  -1.4811   0.0000   0.0000   0.0000   0.4025
   4.900   1.0959   0.06908   0.06196  -0.1772  0.4941  0.3170  -1.4927   0.0000   0.0000   0.0000   0.4006
   5.000   1.1060   0.06921   0.06209  -0.1771  0.4935  0.3234  -1.5032   0.0000   0.0000   0.0000   0.3987
   5.100   1.1161   0.06937   0.06224  -0.1769  0.4928  0.3300  -1.5136   0.0000   0.0000   0.0000   0.3969
   5.200   1.1262   0.06953   0.06238  -0.1768  0.4922  0.3360  -1.5241   0.0000   0.0000   0.0000   0.3951
   5.300   1.1362   0.06971   0.06254  -0.1765  0.4916  0.3407  -1.5346   0.0000   0.0000   0.0000   0.3933
   5.400   1.1479   0.06977   0.06261  -0.1766  0.4910  0.3539  -1.5470   0.0000   0.0000   0.0000   0.3916
   5.500   1.1584   0.06989   0.06276  -0.1765  0.4904  0.3661  -1.5595   0.0000   0.0000   0.0000   0.3899
   5.600   1.1683   0.07011   0.06299  -0.1763  0.4897  0.3765  -1.5712   0.0000   0.0000   0.0000   0.3882
   5.700   1.1774   0.07049   0.06337  -0.1760  0.4890  0.3861  -1.5819   0.0000   0.0000   0.0000   0.3866
   5.800   1.1840   0.07137   0.06424  -0.1757  0.4879  0.3945  -1.5891   0.0000   0.0000   0.0000   0.3852
   5.900   0.9904   0.09515   0.08834  -0.1723  0.4630  0.3194  -1.3098   0.0000   0.0000   0.0000   0.4118
   6.000   0.9962   0.09572   0.08891  -0.1722  0.4611  0.3246  -1.3150   0.0000   0.0000   0.0000   0.4104
   6.100   1.0031   0.09618   0.08936  -0.1720  0.4595  0.3301  -1.3218   0.0000   0.0000   0.0000   0.4088
   6.200   1.0105   0.09660   0.08977  -0.1718  0.4580  0.3355  -1.3292   0.0000   0.0000   0.0000   0.4072
   6.300   1.0176   0.09707   0.09023  -0.1716  0.4568  0.3399  -1.3363   0.0000   0.0000   0.0000   0.4056
   6.400   1.0256   0.09753   0.09069  -0.1716  0.4557  0.3494  -1.3438   0.0000   0.0000   0.0000   0.4040
   6.500   1.0340   0.09789   0.09108  -0.1716  0.4547  0.3621  -1.3533   0.0000   0.0000   0.0000   0.4024
   6.600   1.0424   0.09819   0.09140  -0.1714  0.4538  0.3728  -1.3640   0.0000   0.0000   0.0000   0.4006
   6.700   1.0514   0.09844   0.09167  -0.1712  0.4529  0.3833  -1.3754   0.0000   0.0000   0.0000   0.3988
   6.800   1.0608   0.09865   0.09186  -0.1710  0.4521  0.3936  -1.3876   0.0000   0.0000   0.0000   0.3970
   6.900   1.0707   0.09881   0.09200  -0.1709  0.4513  0.4031  -1.4005   0.0000   0.0000   0.0000   0.3951
   7.000   1.0815   0.09889   0.09213  -0.1708  0.4506  0.4271  -1.4144   0.0000   0.0000   0.0000   0.3931
   7.100   1.0927   0.09892   0.09225  -0.1707  0.4499  0.4589  -1.4289   0.0000   0.0000   0.0000   0.3912
   7.200   1.0999   0.09818   0.09220  -0.1698  0.4493  0.9287  -1.4405   0.0000   0.0000   0.0000   0.3891
   7.400   1.1222   0.09823   0.09212  -0.1694  0.4481  1.0000  -1.4700   0.0000   0.0000   0.0000   0.3852
   7.500   1.1319   0.09840   0.09224  -0.1692  0.4474  1.0000  -1.4832   0.0000   0.0000   0.0000   0.3834
   7.600   1.1418   0.09856   0.09236  -0.1689  0.4467  1.0000  -1.4966   0.0000   0.0000   0.0000   0.3817
   7.700   1.1518   0.09872   0.09248  -0.1687  0.4460  1.0000  -1.5103   0.0000   0.0000   0.0000   0.3799
   7.800   1.1619   0.09889   0.09263  -0.1684  0.4453  1.0000  -1.5241   0.0000   0.0000   0.0000   0.3782
   7.900   1.1719   0.09911   0.09282  -0.1681  0.4447  1.0000  -1.5378   0.0000   0.0000   0.0000   0.3765
   8.000   1.1817   0.09942   0.09311  -0.1679  0.4439  1.0000  -1.5511   0.0000   0.0000   0.0000   0.3748
   8.100   1.1907   0.09995   0.09363  -0.1676  0.4431  1.0000  -1.5634   0.0000   0.0000   0.0000   0.3732
   8.200   1.0800   0.11399   0.10799  -0.1681  0.4228  1.0000  -1.3867   0.0000   0.0000   0.0000   0.3888
   8.300   1.0810   0.11508   0.10907  -0.1680  0.4200  1.0000  -1.3877   0.0000   0.0000   0.0000   0.3883
   8.400   1.0841   0.11599   0.10997  -0.1679  0.4179  1.0000  -1.3917   0.0000   0.0000   0.0000   0.3876
   8.500   1.0885   0.11676   0.11073  -0.1678  0.4161  1.0000  -1.3977   0.0000   0.0000   0.0000   0.3866
   8.600   1.0942   0.11739   0.11134  -0.1676  0.4146  1.0000  -1.4057   0.0000   0.0000   0.0000   0.3854
   8.700   1.1007   0.11789   0.11182  -0.1674  0.4132  1.0000  -1.4152   0.0000   0.0000   0.0000   0.3841
   8.800   1.1081   0.11829   0.11221  -0.1673  0.4120  1.0000  -1.4261   0.0000   0.0000   0.0000   0.3827
   8.900   1.1158   0.11862   0.11253  -0.1671  0.4108  1.0000  -1.4376   0.0000   0.0000   0.0000   0.3812
   9.000   1.1240   0.11889   0.11278  -0.1669  0.4097  1.0000  -1.4501   0.0000   0.0000   0.0000   0.3797
   9.100   1.1328   0.11908   0.11295  -0.1666  0.4088  1.0000  -1.4634   0.0000   0.0000   0.0000   0.3781
   9.200   1.1420   0.11922   0.11308  -0.1664  0.4079  1.0000  -1.4776   0.0000   0.0000   0.0000   0.3765
   9.300   1.1516   0.11930   0.11314  -0.1662  0.4070  1.0000  -1.4925   0.0000   0.0000   0.0000   0.3748
   9.400   1.1615   0.11935   0.11317  -0.1659  0.4063  1.0000  -1.5080   0.0000   0.0000   0.0000   0.3730
   9.500   1.1718   0.11935   0.11315  -0.1657  0.4056  1.0000  -1.5240   0.0000   0.0000   0.0000   0.3713
   9.600   1.1823   0.11931   0.11311  -0.1654  0.4049  1.0000  -1.5406   0.0000   0.0000   0.0000   0.3696
   9.700   1.1931   0.11925   0.11303  -0.1652  0.4043  1.0000  -1.5576   0.0000   0.0000   0.0000   0.3678
   9.800   1.2032   0.11925   0.11302  -0.1649  0.4036  1.0000  -1.5736   0.0000   0.0000   0.0000   0.3661
   9.900   1.2129   0.11928   0.11304  -0.1646  0.4029  1.0000  -1.5892   0.0000   0.0000   0.0000   0.3645
  10.000   1.2229   0.11927   0.11302  -0.1643  0.4022  1.0000  -1.6054   0.0000   0.0000   0.0000   0.3629
  10.100   1.2334   0.11919   0.11294  -0.1640  0.4015  1.0000  -1.6226   0.0000   0.0000   0.0000   0.3612
  10.200   1.2442   0.11909   0.11283  -0.1636  0.4008  1.0000  -1.6405   0.0000   0.0000   0.0000   0.3595
  10.300   1.2550   0.11901   0.11275  -0.1633  0.4000  1.0000  -1.6603   0.0000   0.0000   0.0000   0.3578
  10.400   1.2657   0.11905   0.11278  -0.1629  0.3992  1.0000  -1.6798   0.0000   0.0000   0.0000   0.3561
  10.500   1.1721   0.13254   0.12646  -0.1656  0.3781  1.0000  -1.5178   0.0000   0.0000   0.0000   0.3693
  10.600   1.1742   0.13355   0.12748  -0.1656  0.3756  1.0000  -1.5213   0.0000   0.0000   0.0000   0.3689
  10.700   1.1785   0.13426   0.12819  -0.1656  0.3737  1.0000  -1.5289   0.0000   0.0000   0.0000   0.3681
  10.800   1.1842   0.13478   0.12872  -0.1655  0.3720  1.0000  -1.5388   0.0000   0.0000   0.0000   0.3671
  10.900   1.1906   0.13519   0.12912  -0.1653  0.3705  1.0000  -1.5502   0.0000   0.0000   0.0000   0.3659
  11.000   1.1977   0.13548   0.12942  -0.1652  0.3692  1.0000  -1.5631   0.0000   0.0000   0.0000   0.3647
  11.100   1.2055   0.13568   0.12962  -0.1650  0.3680  1.0000  -1.5773   0.0000   0.0000   0.0000   0.3634
  11.200   1.2139   0.13581   0.12975  -0.1648  0.3669  1.0000  -1.5924   0.0000   0.0000   0.0000   0.3620
  11.300   1.2226   0.13587   0.12980  -0.1645  0.3660  1.0000  -1.6084   0.0000   0.0000   0.0000   0.3605
  11.400   1.2318   0.13587   0.12981  -0.1643  0.3651  1.0000  -1.6253   0.0000   0.0000   0.0000   0.3590
  11.500   1.2413   0.13583   0.12976  -0.1640  0.3643  1.0000  -1.6428   0.0000   0.0000   0.0000   0.3575
  11.600   1.2511   0.13574   0.12967  -0.1637  0.3635  1.0000  -1.6609   0.0000   0.0000   0.0000   0.3560
  11.700   1.2609   0.13564   0.12957  -0.1635  0.3628  1.0000  -1.6790   0.0000   0.0000   0.0000   0.3544
  11.800   1.2699   0.13559   0.12953  -0.1632  0.3620  1.0000  -1.6961   0.0000   0.0000   0.0000   0.3530
  11.900   1.2794   0.13548   0.12942  -0.1629  0.3613  1.0000  -1.7140   0.0000   0.0000   0.0000   0.3515
  12.000   1.2893   0.13529   0.12923  -0.1626  0.3605  1.0000  -1.7344   0.0000   0.0000   0.0000   0.3500
  12.100   1.2996   0.13502   0.12897  -0.1622  0.3598  1.0000  -1.7565   0.0000   0.0000   0.0000   0.3484
  12.200   1.3101   0.13471   0.12866  -0.1618  0.3592  1.0000  -1.7792   0.0000   0.0000   0.0000   0.3468
  12.300   1.3208   0.13438   0.12833  -0.1614  0.3585  1.0000  -1.8023   0.0000   0.0000   0.0000   0.3452
  12.400   1.3316   0.13407   0.12802  -0.1610  0.3578  1.0000  -1.8256   0.0000   0.0000   0.0000   0.3436
  12.500   1.3420   0.13384   0.12780  -0.1606  0.3569  1.0000  -1.8485   0.0000   0.0000   0.0000   0.3420
  12.600   1.3506   0.13412   0.12809  -0.1602  0.3557  1.0000  -1.8681   0.0000   0.0000   0.0000   0.3406
  12.700   1.2595   0.14890   0.14301  -0.1652  0.3337  1.0000  -1.6861   0.0000   0.0000   0.0000   0.3539
  12.800   1.2644   0.14946   0.14358  -0.1651  0.3317  1.0000  -1.6966   0.0000   0.0000   0.0000   0.3531
  12.900   1.2703   0.14983   0.14396  -0.1650  0.3301  1.0000  -1.7097   0.0000   0.0000   0.0000   0.3521
  13.000   1.2772   0.15006   0.14420  -0.1649  0.3287  1.0000  -1.7247   0.0000   0.0000   0.0000   0.3511
  13.100   1.2847   0.15019   0.14433  -0.1647  0.3275  1.0000  -1.7412   0.0000   0.0000   0.0000   0.3499
  13.200   1.2927   0.15022   0.14438  -0.1645  0.3264  1.0000  -1.7588   0.0000   0.0000   0.0000   0.3486
  13.300   1.3012   0.15018   0.14434  -0.1643  0.3254  1.0000  -1.7774   0.0000   0.0000   0.0000   0.3473
  13.400   1.3101   0.15008   0.14425  -0.1641  0.3245  1.0000  -1.7970   0.0000   0.0000   0.0000   0.3459
  13.500   1.3185   0.15001   0.14419  -0.1638  0.3235  1.0000  -1.8157   0.0000   0.0000   0.0000   0.3447
  13.600   1.3269   0.14991   0.14410  -0.1636  0.3226  1.0000  -1.8347   0.0000   0.0000   0.0000   0.3434
  13.700   1.3356   0.14976   0.14396  -0.1633  0.3218  1.0000  -1.8555   0.0000   0.0000   0.0000   0.3420
  13.800   1.3446   0.14956   0.14378  -0.1630  0.3210  1.0000  -1.8784   0.0000   0.0000   0.0000   0.3407
  13.900   1.3540   0.14928   0.14351  -0.1627  0.3203  1.0000  -1.9024   0.0000   0.0000   0.0000   0.3393
  14.000   1.3638   0.14892   0.14316  -0.1623  0.3196  1.0000  -1.9275   0.0000   0.0000   0.0000   0.3378
  14.100   1.3739   0.14849   0.14275  -0.1620  0.3189  1.0000  -1.9535   0.0000   0.0000   0.0000   0.3364
  14.200   1.3842   0.14801   0.14228  -0.1616  0.3183  1.0000  -1.9802   0.0000   0.0000   0.0000   0.3348
  14.300   1.3947   0.14750   0.14178  -0.1612  0.3176  1.0000  -2.0073   0.0000   0.0000   0.0000   0.3333
  14.400   1.4051   0.14700   0.14129  -0.1607  0.3169  1.0000  -2.0343   0.0000   0.0000   0.0000   0.3318
  14.500   1.4150   0.14660   0.14090  -0.1603  0.3160  1.0000  -2.0606   0.0000   0.0000   0.0000   0.3304
  14.600   1.3347   0.16130   0.15570  -0.1662  0.2956  1.0000  -1.8772   0.0000   0.0000   0.0000   0.3424
  14.700   1.3381   0.16202   0.15643  -0.1663  0.2933  1.0000  -1.8872   0.0000   0.0000   0.0000   0.3419
  14.800   1.3433   0.16243   0.15686  -0.1664  0.2915  1.0000  -1.9014   0.0000   0.0000   0.0000   0.3411
  14.900   1.3496   0.16265   0.15710  -0.1663  0.2900  1.0000  -1.9184   0.0000   0.0000   0.0000   0.3402
  15.000   1.3567   0.16274   0.15720  -0.1661  0.2887  1.0000  -1.9373   0.0000   0.0000   0.0000   0.3392
  15.100   1.3643   0.16270   0.15718  -0.1660  0.2875  1.0000  -1.9578   0.0000   0.0000   0.0000   0.3380
  15.200   1.3714   0.16273   0.15721  -0.1658  0.2863  1.0000  -1.9772   0.0000   0.0000   0.0000   0.3369
  15.300   1.3790   0.16266   0.15716  -0.1656  0.2852  1.0000  -1.9979   0.0000   0.0000   0.0000   0.3358
  15.400   1.3870   0.16251   0.15703  -0.1654  0.2843  1.0000  -2.0196   0.0000   0.0000   0.0000   0.3346
  15.500   1.3953   0.16230   0.15683  -0.1651  0.2834  1.0000  -2.0444   0.0000   0.0000   0.0000   0.3334
  15.600   1.4039   0.16203   0.15658  -0.1649  0.2826  1.0000  -2.0712   0.0000   0.0000   0.0000   0.3321
  15.700   1.4127   0.16172   0.15628  -0.1646  0.2818  1.0000  -2.0986   0.0000   0.0000   0.0000   0.3309
  15.800   1.4219   0.16132   0.15595  -0.1642  0.2811  1.0000  -2.1272   0.0000   0.0000   0.0000   0.3295
  15.900   1.4316   0.16082   0.15546  -0.1639  0.2804  1.0000  -2.1572   0.0000   0.0000   0.0000   0.3281
  16.000   1.4416   0.16023   0.15489  -0.1635  0.2798  1.0000  -2.1882   0.0000   0.0000   0.0000   0.3267
  16.100   1.4518   0.15959   0.15426  -0.1631  0.2792  1.0000  -2.2201   0.0000   0.0000   0.0000   0.3252
  16.200   1.4622   0.15891   0.15360  -0.1626  0.2785  1.0000  -2.2526   0.0000   0.0000   0.0000   0.3238
  16.300   1.4725   0.15822   0.15293  -0.1622  0.2778  1.0000  -2.2851   0.0000   0.0000   0.0000   0.3223
  16.400   1.4824   0.15761   0.15233  -0.1618  0.2770  1.0000  -2.3167   0.0000   0.0000   0.0000   0.3209
  16.500   1.4899   0.15746   0.15219  -0.1614  0.2756  1.0000  -2.3423   0.0000   0.0000   0.0000   0.3198
  16.600   1.4055   0.17583   0.17064  -0.1690  0.2549  1.0000  -2.1178   0.0000   0.0000   0.0000   0.3326
  16.700   1.4107   0.17623   0.17106  -0.1691  0.2532  1.0000  -2.1356   0.0000   0.0000   0.0000   0.3319
  16.800   1.4164   0.17650   0.17135  -0.1690  0.2516  1.0000  -2.1552   0.0000   0.0000   0.0000   0.3311
  16.900   1.4224   0.17667   0.17154  -0.1690  0.2502  1.0000  -2.1759   0.0000   0.0000   0.0000   0.3302
  17.000   1.4292   0.17668   0.17157  -0.1689  0.2489  1.0000  -2.1989   0.0000   0.0000   0.0000   0.3292
  17.100   1.4365   0.17657   0.17148  -0.1687  0.2478  1.0000  -2.2236   0.0000   0.0000   0.0000   0.3281
  17.200   1.4443   0.17636   0.17128  -0.1685  0.2469  1.0000  -2.2496   0.0000   0.0000   0.0000   0.3270
  17.300   1.4525   0.17606   0.17100  -0.1682  0.2460  1.0000  -2.2769   0.0000   0.0000   0.0000   0.3258
  17.400   1.4609   0.17569   0.17065  -0.1679  0.2452  1.0000  -2.3052   0.0000   0.0000   0.0000   0.3246
  17.500   1.4697   0.17526   0.17024  -0.1676  0.2445  1.0000  -2.3385   0.0000   0.0000   0.0000   0.3233
  17.600   1.4786   0.17479   0.16979  -0.1673  0.2438  1.0000  -2.3726   0.0000   0.0000   0.0000   0.3220
  17.700   1.4879   0.17421   0.16923  -0.1670  0.2432  1.0000  -2.4080   0.0000   0.0000   0.0000   0.3207
  17.800   1.4976   0.17352   0.16856  -0.1666  0.2426  1.0000  -2.4451   0.0000   0.0000   0.0000   0.3193
  17.900   1.5077   0.17275   0.16781  -0.1661  0.2420  1.0000  -2.4835   0.0000   0.0000   0.0000   0.3179
  18.000   1.5181   0.17191   0.16699  -0.1657  0.2414  1.0000  -2.5229   0.0000   0.0000   0.0000   0.3164
  18.100   1.5285   0.17104   0.16614  -0.1652  0.2408  1.0000  -2.5628   0.0000   0.0000   0.0000   0.3150
  18.200   1.5387   0.17020   0.16531  -0.1648  0.2401  1.0000  -2.6023   0.0000   0.0000   0.0000   0.3136
  18.300   1.5481   0.16953   0.16466  -0.1644  0.2391  1.0000  -2.6395   0.0000   0.0000   0.0000   0.3123
  18.400   1.4565   0.19198   0.18717  -0.1734  0.2183  1.0000  -2.3560   0.0000   0.0000   0.0000   0.3263
  18.500   1.4609   0.19245   0.18766  -0.1735  0.2164  1.0000  -2.3767   0.0000   0.0000   0.0000   0.3257
  18.600   1.4664   0.19266   0.18790  -0.1735  0.2148  1.0000  -2.4012   0.0000   0.0000   0.0000   0.3249
  18.700   1.4727   0.19271   0.18797  -0.1735  0.2135  1.0000  -2.4279   0.0000   0.0000   0.0000   0.3239
  18.800   1.4796   0.19259   0.18787  -0.1733  0.2124  1.0000  -2.4571   0.0000   0.0000   0.0000   0.3229
  18.900   1.4871   0.19233   0.18763  -0.1731  0.2114  1.0000  -2.4884   0.0000   0.0000   0.0000   0.3218
  19.000   1.4950   0.19195   0.18727  -0.1729  0.2106  1.0000  -2.5213   0.0000   0.0000   0.0000   0.3206
  19.100   1.5033   0.19147   0.18681  -0.1726  0.2098  1.0000  -2.5557   0.0000   0.0000   0.0000   0.3194
  19.200   1.5120   0.19092   0.18628  -0.1723  0.2091  1.0000  -2.5952   0.0000   0.0000   0.0000   0.3181
  19.300   1.5208   0.19030   0.18569  -0.1719  0.2085  1.0000  -2.6373   0.0000   0.0000   0.0000   0.3169
  19.400   1.5298   0.18964   0.18505  -0.1716  0.2079  1.0000  -2.6802   0.0000   0.0000   0.0000   0.3155
  19.500   1.5390   0.18894   0.18449  -0.1712  0.2073  1.0000  -2.7238   0.0000   0.0000   0.0000   0.3142
  19.600   1.5483   0.18821   0.18379  -0.1709  0.2067  1.0000  -2.7681   0.0000   0.0000   0.0000   0.3129
  19.700   1.5578   0.18743   0.18303  -0.1705  0.2062  1.0000  -2.8134   0.0000   0.0000   0.0000   0.3116
  19.800   1.5681   0.18649   0.18211  -0.1701  0.2056  1.0000  -2.8613   0.0000   0.0000   0.0000   0.3101
  19.900   1.5791   0.18539   0.18103  -0.1696  0.2050  1.0000  -2.9120   0.0000   0.0000   0.0000   0.3086
  20.000   1.5904   0.18422   0.17989  -0.1690  0.2043  1.0000  -2.9639   0.0000   0.0000   0.0000   0.3071
  20.100   1.5994   0.18353   0.17922  -0.1686  0.2030  1.0000  -3.0081   0.0000   0.0000   0.0000   0.3058
  20.200   1.4836   0.21465   0.21026  -0.1809  0.1809  1.0000  -2.5795   0.0000   0.0000   0.0000   0.3240
  20.300   1.4904   0.21441   0.21015  -0.1808  0.1796  1.0000  -2.6160   0.0000   0.0000   0.0000   0.3229
  20.400   1.4983   0.21385   0.20962  -0.1805  0.1785  1.0000  -2.6572   0.0000   0.0000   0.0000   0.3217
  20.500   1.5069   0.21308   0.20888  -0.1802  0.1776  1.0000  -2.7016   0.0000   0.0000   0.0000   0.3203
  20.600   1.5160   0.21222   0.20804  -0.1798  0.1769  1.0000  -2.7477   0.0000   0.0000   0.0000   0.3189
  20.700   1.5251   0.21132   0.20717  -0.1794  0.1762  1.0000  -2.7944   0.0000   0.0000   0.0000   0.3175
  20.800   1.5342   0.21046   0.20633  -0.1791  0.1756  1.0000  -2.8408   0.0000   0.0000   0.0000   0.3161
  20.900   1.5429   0.20969   0.20558  -0.1787  0.1750  1.0000  -2.8860   0.0000   0.0000   0.0000   0.3147
  21.000   1.5519   0.20888   0.20479  -0.1784  0.1744  1.0000  -2.9321   0.0000   0.0000   0.0000   0.3134
  21.100   1.5613   0.20793   0.20387  -0.1780  0.1739  1.0000  -2.9804   0.0000   0.0000   0.0000   0.3120
  21.200   1.5718   0.20677   0.20274  -0.1775  0.1735  1.0000  -3.0391   0.0000   0.0000   0.0000   0.3105
  21.300   1.5826   0.20551   0.20150  -0.1770  0.1731  1.0000  -3.1012   0.0000   0.0000   0.0000   0.3089
  21.400   1.5935   0.20428   0.20030  -0.1764  0.1725  1.0000  -3.1632   0.0000   0.0000   0.0000   0.3073
  21.500   1.6043   0.20308   0.19911  -0.1759  0.1719  1.0000  -3.2252   0.0000   0.0000   0.0000   0.3058
  21.600   1.6149   0.20193   0.19799  -0.1754  0.1711  1.0000  -3.2865   0.0000   0.0000   0.0000   0.3043
  21.700   1.6264   0.20057   0.19664  -0.1748  0.1701  1.0000  -3.3514   0.0000   0.0000   0.0000   0.3027
  22.400   1.5309   0.23831   0.23456  -0.1892  0.1428  1.0000  -3.0235   0.0000   0.0000   0.0000   0.3182
  22.500   1.5415   0.23668   0.23296  -0.1886  0.1424  1.0000  -3.0908   0.0000   0.0000   0.0000   0.3165
  22.600   1.5525   0.23496   0.23127  -0.1880  0.1420  1.0000  -3.1600   0.0000   0.0000   0.0000   0.3147
  22.700   1.5647   0.23296   0.22929  -0.1873  0.1417  1.0000  -3.2345   0.0000   0.0000   0.0000   0.3127
  22.800   1.5771   0.23093   0.22728  -0.1866  0.1414  1.0000  -3.3102   0.0000   0.0000   0.0000   0.3108
  22.900   1.5890   0.22913   0.22550  -0.1859  0.1410  1.0000  -3.3824   0.0000   0.0000   0.0000   0.3089
  23.000   1.6003   0.22754   0.22393  -0.1853  0.1404  1.0000  -3.4516   0.0000   0.0000   0.0000   0.3072
  23.100   1.6117   0.22593   0.22234  -0.1847  0.1397  1.0000  -3.5211   0.0000   0.0000   0.0000   0.3055
  23.200   1.6247   0.22390   0.22032  -0.1839  0.1390  1.0000  -3.5981   0.0000   0.0000   0.0000   0.3036
  23.300   1.6390   0.22157   0.21801  -0.1830  0.1381  1.0000  -3.6932   0.0000   0.0000   0.0000   0.3014
  23.400   1.4639   0.27974   0.27621  -0.2032  0.1167  1.0000  -2.7784   0.0000   0.0000   0.0000   0.3320
  23.500   1.4680   0.28009   0.27659  -0.2033  0.1156  1.0000  -2.8124   0.0000   0.0000   0.0000   0.3312
  23.600   1.4731   0.28003   0.27656  -0.2033  0.1147  1.0000  -2.8529   0.0000   0.0000   0.0000   0.3303
  23.700   1.4790   0.27969   0.27623  -0.2032  0.1139  1.0000  -2.8982   0.0000   0.0000   0.0000   0.3292
  23.800   1.4854   0.27912   0.27569  -0.2030  0.1132  1.0000  -2.9470   0.0000   0.0000   0.0000   0.3280
  23.900   1.4923   0.27839   0.27499  -0.2028  0.1125  1.0000  -2.9986   0.0000   0.0000   0.0000   0.3267
  24.000   1.4994   0.27756   0.27419  -0.2025  0.1119  1.0000  -3.0521   0.0000   0.0000   0.0000   0.3254
  24.100   1.5066   0.27669   0.27334  -0.2023  0.1113  1.0000  -3.1154   0.0000   0.0000   0.0000   0.3240
  24.200   1.5137   0.27585   0.27253  -0.2020  0.1107  1.0000  -3.1790   0.0000   0.0000   0.0000   0.3227
  24.300   1.5206   0.27507   0.27177  -0.2018  0.1100  1.0000  -3.2421   0.0000   0.0000   0.0000   0.3214
  24.400   1.4128   0.31812   0.31483  -0.2135  0.0988  1.0000  -2.5689   0.0000   0.0000   0.0000   0.3424
  24.500   1.4010   0.32436   0.32109  -0.2149  0.0962  1.0000  -2.5113   0.0000   0.0000   0.0000   0.3447
  24.600   1.3964   0.32762   0.32438  -0.2156  0.0941  1.0000  -2.5022   0.0000   0.0000   0.0000   0.3455
  24.700   1.3961   0.32921   0.32600  -0.2159  0.0924  1.0000  -2.5209   0.0000   0.0000   0.0000   0.3454
  24.800   1.3987   0.32971   0.32652  -0.2160  0.0910  1.0000  -2.5584   0.0000   0.0000   0.0000   0.3448
  24.900   1.4034   0.32950   0.32633  -0.2160  0.0899  1.0000  -2.6085   0.0000   0.0000   0.0000   0.3437
  25.000   1.4094   0.32884   0.32570  -0.2159  0.0890  1.0000  -2.6666   0.0000   0.0000   0.0000   0.3424
  25.100   1.4139   0.32864   0.32552  -0.2158  0.0880  1.0000  -2.7167   0.0000   0.0000   0.0000   0.3414
  25.200   1.4180   0.32859   0.32550  -0.2158  0.0872  1.0000  -2.7643   0.0000   0.0000   0.0000   0.3405
  25.300   1.4228   0.32827   0.32520  -0.2158  0.0864  1.0000  -2.8170   0.0000   0.0000   0.0000   0.3394
  25.400   1.4282   0.32774   0.32469  -0.2157  0.0857  1.0000  -2.8737   0.0000   0.0000   0.0000   0.3382
  25.500   1.4338   0.32713   0.32410  -0.2155  0.0850  1.0000  -2.9321   0.0000   0.0000   0.0000   0.3370
  25.600   1.4388   0.32665   0.32365  -0.2154  0.0843  1.0000  -2.9883   0.0000   0.0000   0.0000   0.3359
  25.700   1.4401   0.32724   0.32426  -0.2153  0.0834  1.0000  -3.0249   0.0000   0.0000   0.0000   0.3352


