xflr5 v6.61

 Calculated polar for: FX 61-140 AIRFOIL

 1 1 Reynolds number fixed          Mach number fixed         

 xtrf =   1.000 (top)        1.000 (bottom)
 Mach =   0.000     Re =     0.625 e 6     Ncrit =   9.000

  alpha     CL        CD       CDp       Cm    Top Xtr Bot Xtr   Cpmin    Chinge    XCp    
 ------- -------- --------- --------- -------- ------- ------- -------- --------- ---------
 -10.000  -0.3910   0.09281   0.09079  -0.0401  1.0000  0.0097  -2.5777   0.0000   0.0000   0.0000   0.1332
  -9.900  -0.3920   0.09062   0.08861  -0.0410  1.0000  0.0097  -2.6223   0.0000   0.0000   0.0000   0.1312
  -9.800  -0.3932   0.08828   0.08628  -0.0421  1.0000  0.0097  -2.6730   0.0000   0.0000   0.0000   0.1290
  -9.700  -0.3946   0.08568   0.08369  -0.0433  1.0000  0.0097  -2.7344   0.0000   0.0000   0.0000   0.1262
  -9.600  -0.3963   0.08244   0.08045  -0.0452  1.0000  0.0097  -2.8222   0.0000   0.0000   0.0000   0.1220
  -9.500  -0.3996   0.07922   0.07722  -0.0473  1.0000  0.0097  -2.9111   0.0000   0.0000   0.0000   0.1180
  -9.400  -0.4041   0.07650   0.07448  -0.0490  1.0000  0.0097  -2.9824   0.0000   0.0000   0.0000   0.1152
  -9.300  -0.4093   0.07404   0.07201  -0.0505  1.0000  0.0097  -3.0444   0.0000   0.0000   0.0000   0.1134
  -9.200  -0.4152   0.07182   0.06976  -0.0518  1.0000  0.0097  -3.0989   0.0000   0.0000   0.0000   0.1124
  -9.100  -0.4216   0.06981   0.06774  -0.0528  1.0000  0.0097  -3.1472   0.0000   0.0000   0.0000   0.1122
  -6.800  -0.3822   0.01886   0.01398  -0.0792  0.9646  0.0052  -4.7105   0.0000   0.0000   0.0000   0.0325
  -6.700  -0.3684   0.01805   0.01308  -0.0798  0.9633  0.0051  -4.6521   0.0000   0.0000   0.0000   0.0231
  -6.600  -0.3543   0.01740   0.01235  -0.0805  0.9621  0.0050  -4.5593   0.0000   0.0000   0.0000   0.0122
  -6.500  -0.3461   0.01690   0.01181  -0.0800  0.9567  0.0049  -4.4835   0.0000   0.0000   0.0000   0.0084
  -6.400  -0.3340   0.01633   0.01119  -0.0803  0.9537  0.0049  -4.3907   0.0000   0.0000   0.0000  -0.0010
  -6.300  -0.3210   0.01574   0.01053  -0.0808  0.9513  0.0048  -4.2957   0.0000   0.0000   0.0000  -0.0124
  -6.200  -0.3072   0.01511   0.00985  -0.0815  0.9493  0.0048  -4.2088   0.0000   0.0000   0.0000  -0.0260
  -6.100  -0.2960   0.01452   0.00920  -0.0816  0.9448  0.0048  -4.1393   0.0000   0.0000   0.0000  -0.0368
  -6.000  -0.2832   0.01386   0.00849  -0.0822  0.9404  0.0049  -4.0714   0.0000   0.0000   0.0000  -0.0513
  -5.900  -0.2676   0.01313   0.00768  -0.0834  0.9372  0.0050  -4.0024   0.0000   0.0000   0.0000  -0.0733
  -5.800  -0.2494   0.01236   0.00684  -0.0853  0.9345  0.0053  -3.9322   0.0000   0.0000   0.0000  -0.1040
  -5.700  -0.2315   0.01183   0.00624  -0.0870  0.9305  0.0060  -3.8348   0.0000   0.0000   0.0000  -0.1386
  -5.600  -0.2132   0.01150   0.00588  -0.0887  0.9252  0.0067  -3.7002   0.0000   0.0000   0.0000  -0.1796
  -5.500  -0.1916   0.01121   0.00556  -0.0911  0.9210  0.0079  -3.5516   0.0000   0.0000   0.0000  -0.2400
  -5.400  -0.1684   0.01101   0.00533  -0.0938  0.9169  0.0093  -3.3813   0.0000   0.0000   0.0000  -0.3229
  -5.300  -0.1470   0.01044   0.00473  -0.0964  0.9103  0.0141  -3.2816   0.0000   0.0000   0.0000  -0.4238
  -5.200  -0.1261   0.01030   0.00456  -0.0986  0.9023  0.0165  -3.1053   0.0000   0.0000   0.0000  -0.5520
  -5.100  -0.1058   0.01015   0.00435  -0.1007  0.8933  0.0178  -2.9308   0.0000   0.0000   0.0000  -0.7247
  -5.000  -0.0877   0.00988   0.00402  -0.1024  0.8815  0.0213  -2.7848   0.0000   0.0000   0.0000  -0.9444
  -4.900  -0.0718   0.00978   0.00390  -0.1036  0.8695  0.0245  -2.6277   0.0000   0.0000   0.0000  -1.2240
  -4.800  -0.0577   0.00977   0.00383  -0.1043  0.8561  0.0266  -2.4798   0.0000   0.0000   0.0000  -1.5959
  -4.700  -0.0445   0.00958   0.00361  -0.1050  0.8432  0.0334  -2.3589   0.0000   0.0000   0.0000  -2.1557
  -4.500  -0.0199   0.00928   0.00330  -0.1058  0.8174  0.0571  -2.1549   0.0000   0.0000   0.0000  -5.1568
  -4.300   0.0074   0.00822   0.00278  -0.1084  0.7930  0.2104  -1.9638   0.0000   0.0000   0.0000  15.2239
  -4.200   0.0222   0.00765   0.00252  -0.1101  0.7809  0.3109  -1.8617   0.0000   0.0000   0.0000   5.2818
  -4.100   0.0375   0.00717   0.00232  -0.1116  0.7706  0.3996  -1.7580   0.0000   0.0000   0.0000   3.2763
  -4.000   0.0514   0.00691   0.00222  -0.1126  0.7599  0.4601  -1.6598   0.0000   0.0000   0.0000   2.4734
  -3.900   0.0637   0.00682   0.00214  -0.1131  0.7500  0.4964  -1.5728   0.0000   0.0000   0.0000   2.0494
  -3.800   0.0761   0.00674   0.00212  -0.1134  0.7417  0.5209  -1.4814   0.0000   0.0000   0.0000   1.7608
  -3.700   0.0878   0.00674   0.00210  -0.1136  0.7326  0.5377  -1.3941   0.0000   0.0000   0.0000   1.5611
  -3.500   0.1107   0.00677   0.00211  -0.1138  0.7163  0.5694  -1.2247   0.0000   0.0000   0.0000   1.2900
  -3.400   0.1221   0.00679   0.00215  -0.1138  0.7085  0.5816  -1.1422   0.0000   0.0000   0.0000   1.1925
  -3.300   0.1333   0.00684   0.00215  -0.1138  0.7005  0.5909  -1.0621   0.0000   0.0000   0.0000   1.1129
  -3.100   0.1557   0.00694   0.00218  -0.1138  0.6864  0.6051  -0.9063   0.0000   0.0000   0.0000   0.9880
  -3.000   0.1667   0.00701   0.00227  -0.1137  0.6799  0.6151  -0.8308   0.0000   0.0000   0.0000   0.9384
  -2.900   0.1777   0.00713   0.00234  -0.1136  0.6730  0.6252  -0.7565   0.0000   0.0000   0.0000   0.8947
  -2.800   0.1885   0.00725   0.00241  -0.1134  0.6661  0.6326  -0.6844   0.0000   0.0000   0.0000   0.8567
  -2.700   0.1987   0.00735   0.00251  -0.1131  0.6595  0.6386  -0.6158   0.0000   0.0000   0.0000   0.8237
  -2.600   0.2097   0.00742   0.00257  -0.1130  0.6542  0.6418  -0.6057   0.0000   0.0000   0.0000   0.7928
  -2.500   0.2208   0.00748   0.00261  -0.1130  0.6482  0.6445  -0.6145   0.0000   0.0000   0.0000   0.7651
  -2.400   0.2317   0.00756   0.00264  -0.1129  0.6419  0.6471  -0.6234   0.0000   0.0000   0.0000   0.7402
  -2.300   0.2425   0.00764   0.00267  -0.1128  0.6355  0.6497  -0.6322   0.0000   0.0000   0.0000   0.7177
  -2.200   0.2534   0.00772   0.00270  -0.1127  0.6289  0.6520  -0.6411   0.0000   0.0000   0.0000   0.6970
  -2.100   0.2650   0.00776   0.00271  -0.1128  0.6248  0.6540  -0.6504   0.0000   0.0000   0.0000   0.6776
  -2.000   0.2766   0.00779   0.00269  -0.1129  0.6200  0.6557  -0.6596   0.0000   0.0000   0.0000   0.6598
  -1.900   0.2880   0.00784   0.00270  -0.1130  0.6151  0.6574  -0.6689   0.0000   0.0000   0.0000   0.6436
  -1.800   0.2993   0.00791   0.00272  -0.1130  0.6100  0.6588  -0.6781   0.0000   0.0000   0.0000   0.6286
  -1.700   0.3105   0.00799   0.00274  -0.1130  0.6046  0.6600  -0.6872   0.0000   0.0000   0.0000   0.6148
  -1.500   0.3332   0.00802   0.00271  -0.1132  0.5950  0.6640  -0.7056   0.0000   0.0000   0.0000   0.5900
  -1.400   0.3446   0.00802   0.00271  -0.1132  0.5913  0.6658  -0.7149   0.0000   0.0000   0.0000   0.5788
  -1.300   0.3559   0.00804   0.00272  -0.1133  0.5872  0.6673  -0.7241   0.0000   0.0000   0.0000   0.5682
  -1.200   0.3671   0.00808   0.00274  -0.1133  0.5829  0.6687  -0.7333   0.0000   0.0000   0.0000   0.5584
  -1.100   0.3781   0.00813   0.00276  -0.1132  0.5786  0.6701  -0.7425   0.0000   0.0000   0.0000   0.5491
  -1.000   0.3891   0.00819   0.00279  -0.1132  0.5743  0.6715  -0.7515   0.0000   0.0000   0.0000   0.5404
  -0.900   0.4000   0.00826   0.00282  -0.1131  0.5697  0.6728  -0.7606   0.0000   0.0000   0.0000   0.5322
  -0.800   0.4110   0.00832   0.00286  -0.1131  0.5650  0.6742  -0.7697   0.0000   0.0000   0.0000   0.5244
  -0.700   0.4224   0.00835   0.00289  -0.1132  0.5629  0.6757  -0.7791   0.0000   0.0000   0.0000   0.5170
  -0.600   0.4339   0.00838   0.00292  -0.1132  0.5603  0.6771  -0.7885   0.0000   0.0000   0.0000   0.5099
  -0.500   0.4453   0.00841   0.00294  -0.1133  0.5575  0.6786  -0.7979   0.0000   0.0000   0.0000   0.5032
  -0.400   0.4567   0.00845   0.00296  -0.1133  0.5543  0.6800  -0.8073   0.0000   0.0000   0.0000   0.4969
  -0.300   0.4680   0.00849   0.00298  -0.1134  0.5511  0.6813  -0.8167   0.0000   0.0000   0.0000   0.4908
  -0.200   0.4794   0.00853   0.00300  -0.1135  0.5477  0.6826  -0.8261   0.0000   0.0000   0.0000   0.4851
  -0.100   0.4907   0.00858   0.00302  -0.1135  0.5442  0.6838  -0.8355   0.0000   0.0000   0.0000   0.4797
   0.000   0.5020   0.00863   0.00304  -0.1136  0.5405  0.6850  -0.8449   0.0000   0.0000   0.0000   0.4745
   0.100   0.5133   0.00869   0.00307  -0.1137  0.5364  0.6860  -0.8542   0.0000   0.0000   0.0000   0.4695
   0.200   0.5246   0.00876   0.00310  -0.1138  0.5325  0.6871  -0.8642   0.0000   0.0000   0.0000   0.4648
   0.300   0.5363   0.00878   0.00313  -0.1139  0.5309  0.6882  -0.8748   0.0000   0.0000   0.0000   0.4602
   0.400   0.5480   0.00881   0.00316  -0.1140  0.5290  0.6891  -0.8853   0.0000   0.0000   0.0000   0.4558
   0.600   0.5711   0.00888   0.00322  -0.1142  0.5241  0.6907  -0.9078   0.0000   0.0000   0.0000   0.4475
   0.700   0.5825   0.00893   0.00325  -0.1143  0.5212  0.6913  -0.9192   0.0000   0.0000   0.0000   0.4436
   0.800   0.5943   0.00889   0.00320  -0.1145  0.5182  0.6936  -0.9309   0.0000   0.0000   0.0000   0.4400
   0.900   0.6057   0.00890   0.00319  -0.1146  0.5150  0.6952  -0.9423   0.0000   0.0000   0.0000   0.4365
   1.000   0.6168   0.00893   0.00321  -0.1146  0.5118  0.6966  -0.9535   0.0000   0.0000   0.0000   0.4330
   1.100   0.6277   0.00898   0.00324  -0.1146  0.5084  0.6977  -0.9647   0.0000   0.0000   0.0000   0.4296
   1.200   0.6386   0.00904   0.00328  -0.1146  0.5046  0.6988  -0.9759   0.0000   0.0000   0.0000   0.4264
   1.300   0.6496   0.00912   0.00334  -0.1146  0.5004  0.6998  -0.9870   0.0000   0.0000   0.0000   0.4232
   1.400   0.6610   0.00913   0.00337  -0.1147  0.4989  0.7007  -0.9985   0.0000   0.0000   0.0000   0.4202
   1.500   0.6724   0.00915   0.00339  -0.1148  0.4972  0.7016  -1.0101   0.0000   0.0000   0.0000   0.4173
   1.600   0.6838   0.00916   0.00342  -0.1148  0.4953  0.7026  -1.0217   0.0000   0.0000   0.0000   0.4144
   1.700   0.6952   0.00919   0.00345  -0.1149  0.4931  0.7035  -1.0333   0.0000   0.0000   0.0000   0.4117
   1.800   0.7066   0.00921   0.00348  -0.1150  0.4907  0.7044  -1.0449   0.0000   0.0000   0.0000   0.4090
   1.900   0.7179   0.00925   0.00352  -0.1150  0.4882  0.7054  -1.0565   0.0000   0.0000   0.0000   0.4064
   2.000   0.7292   0.00928   0.00357  -0.1151  0.4858  0.7063  -1.0681   0.0000   0.0000   0.0000   0.4039
   2.100   0.7405   0.00932   0.00360  -0.1152  0.4833  0.7073  -1.0797   0.0000   0.0000   0.0000   0.4015
   2.200   0.7517   0.00937   0.00364  -0.1152  0.4807  0.7083  -1.0913   0.0000   0.0000   0.0000   0.3992
   2.300   0.7628   0.00942   0.00368  -0.1152  0.4780  0.7093  -1.1028   0.0000   0.0000   0.0000   0.3969
   2.400   0.7740   0.00948   0.00372  -0.1153  0.4750  0.7102  -1.1143   0.0000   0.0000   0.0000   0.3947
   2.500   0.7850   0.00955   0.00377  -0.1153  0.4716  0.7112  -1.1258   0.0000   0.0000   0.0000   0.3925
   2.600   0.7962   0.00964   0.00383  -0.1154  0.4679  0.7122  -1.1372   0.0000   0.0000   0.0000   0.3904
   2.700   0.8077   0.00966   0.00387  -0.1155  0.4665  0.7131  -1.1490   0.0000   0.0000   0.0000   0.3884
   2.800   0.8193   0.00968   0.00390  -0.1156  0.4653  0.7140  -1.1610   0.0000   0.0000   0.0000   0.3865
   2.900   0.8309   0.00970   0.00394  -0.1157  0.4638  0.7149  -1.1729   0.0000   0.0000   0.0000   0.3845
   3.000   0.8424   0.00972   0.00397  -0.1159  0.4621  0.7158  -1.1848   0.0000   0.0000   0.0000   0.3827
   3.100   0.8538   0.00974   0.00399  -0.1159  0.4579  0.7168  -1.1970   0.0000   0.0000   0.0000   0.3808
   3.200   0.8646   0.00978   0.00398  -0.1159  0.4497  0.7177  -1.2097   0.0000   0.0000   0.0000   0.3790
   3.300   0.8744   0.00991   0.00401  -0.1157  0.4368  0.7185  -1.2230   0.0000   0.0000   0.0000   0.3771
   3.400   0.8857   0.00992   0.00401  -0.1158  0.4276  0.7192  -1.2377   0.0000   0.0000   0.0000   0.3754
   3.500   0.8961   0.01001   0.00403  -0.1157  0.4147  0.7199  -1.2517   0.0000   0.0000   0.0000   0.3737
   3.600   0.9061   0.01016   0.00408  -0.1155  0.4023  0.7205  -1.2651   0.0000   0.0000   0.0000   0.3720
   3.700   0.9198   0.01006   0.00422  -0.1160  0.4239  0.7209  -1.2805   0.0000   0.0000   0.0000   0.3705
   3.800   0.9302   0.01014   0.00421  -0.1160  0.4109  0.7219  -1.2946   0.0000   0.0000   0.0000   0.3690
   3.900   0.9411   0.01018   0.00420  -0.1161  0.3993  0.7234  -1.3089   0.0000   0.0000   0.0000   0.3675
   4.000   0.9525   0.01020   0.00420  -0.1162  0.3933  0.7246  -1.3235   0.0000   0.0000   0.0000   0.3660
   4.100   0.9635   0.01024   0.00423  -0.1162  0.3864  0.7256  -1.3378   0.0000   0.0000   0.0000   0.3646
   4.200   0.9740   0.01033   0.00427  -0.1162  0.3786  0.7265  -1.3518   0.0000   0.0000   0.0000   0.3631
   4.300   0.9843   0.01043   0.00433  -0.1161  0.3704  0.7274  -1.3656   0.0000   0.0000   0.0000   0.3617
   4.400   0.9954   0.01047   0.00437  -0.1161  0.3654  0.7283  -1.3801   0.0000   0.0000   0.0000   0.3603
   4.500   1.0061   0.01054   0.00443  -0.1161  0.3574  0.7292  -1.3946   0.0000   0.0000   0.0000   0.3589
   4.600   1.0160   0.01068   0.00450  -0.1159  0.3462  0.7301  -1.4329   0.0000   0.0000   0.0000   0.3575
   4.700   1.0261   0.01081   0.00458  -0.1158  0.3352  0.7310  -1.4740   0.0000   0.0000   0.0000   0.3562
   4.800   1.0359   0.01097   0.00466  -0.1157  0.3197  0.7320  -1.5145   0.0000   0.0000   0.0000   0.3548
   4.900   1.0451   0.01119   0.00478  -0.1154  0.3015  0.7329  -1.5538   0.0000   0.0000   0.0000   0.3535
   5.000   1.0535   0.01149   0.00493  -0.1151  0.2778  0.7338  -1.5914   0.0000   0.0000   0.0000   0.3521
   5.100   1.0615   0.01186   0.00512  -0.1147  0.2485  0.7347  -1.6277   0.0000   0.0000   0.0000   0.3508
   5.200   1.0686   0.01232   0.00537  -0.1141  0.2122  0.7356  -1.6945   0.0000   0.0000   0.0000   0.3495
   5.300   1.0738   0.01299   0.00575  -0.1134  0.1659  0.7364  -1.7661   0.0000   0.0000   0.0000   0.3482
   5.400   1.0763   0.01397   0.00634  -0.1122  0.1009  0.7372  -1.8252   0.0000   0.0000   0.0000   0.3468
   5.500   1.0798   0.01482   0.00689  -0.1111  0.0491  0.7380  -1.8899   0.0000   0.0000   0.0000   0.3453
   5.700   1.0933   0.01582   0.00769  -0.1099  0.0040  0.7396  -2.0902   0.0000   0.0000   0.0000   0.3427
   5.800   1.1035   0.01595   0.00783  -0.1098  0.0038  0.7404  -2.2000   0.0000   0.0000   0.0000   0.3415
   5.900   1.1136   0.01608   0.00797  -0.1096  0.0036  0.7412  -2.3078   0.0000   0.0000   0.0000   0.3404
   6.000   1.1237   0.01621   0.00812  -0.1095  0.0035  0.7420  -2.4151   0.0000   0.0000   0.0000   0.3393
   6.100   1.1338   0.01635   0.00827  -0.1094  0.0034  0.7428  -2.5222   0.0000   0.0000   0.0000   0.3382
   6.200   1.1439   0.01648   0.00842  -0.1093  0.0034  0.7436  -2.6295   0.0000   0.0000   0.0000   0.3371
   6.300   1.1540   0.01661   0.00858  -0.1092  0.0033  0.7443  -2.7369   0.0000   0.0000   0.0000   0.3361
   6.400   1.1640   0.01675   0.00874  -0.1091  0.0033  0.7450  -2.8445   0.0000   0.0000   0.0000   0.3350
   6.500   1.1740   0.01689   0.00891  -0.1089  0.0032  0.7457  -2.9519   0.0000   0.0000   0.0000   0.3340
   6.600   1.1839   0.01704   0.00908  -0.1088  0.0032  0.7464  -3.0592   0.0000   0.0000   0.0000   0.3329
   6.700   1.1937   0.01719   0.00926  -0.1086  0.0032  0.7470  -3.1661   0.0000   0.0000   0.0000   0.3319
   6.800   1.2034   0.01735   0.00945  -0.1084  0.0032  0.7476  -3.2725   0.0000   0.0000   0.0000   0.3309
   6.900   1.2129   0.01753   0.00966  -0.1082  0.0032  0.7481  -3.3781   0.0000   0.0000   0.0000   0.3299
   7.000   1.2223   0.01771   0.00987  -0.1080  0.0032  0.7487  -3.4824   0.0000   0.0000   0.0000   0.3289
   7.100   1.2315   0.01791   0.01010  -0.1077  0.0032  0.7492  -3.5856   0.0000   0.0000   0.0000   0.3278
   7.200   1.2406   0.01811   0.01034  -0.1074  0.0032  0.7497  -3.6877   0.0000   0.0000   0.0000   0.3268
   7.300   1.2496   0.01832   0.01058  -0.1071  0.0033  0.7504  -3.7895   0.0000   0.0000   0.0000   0.3258
   7.400   1.2590   0.01851   0.01081  -0.1069  0.0033  0.7520  -3.8922   0.0000   0.0000   0.0000   0.3249
   7.500   1.2677   0.01874   0.01108  -0.1065  0.0033  0.7533  -3.9914   0.0000   0.0000   0.0000   0.3239
   7.600   1.2761   0.01897   0.01140  -0.1061  0.0033  0.7544  -4.0852   0.0000   0.0000   0.0000   0.3229
   7.700   1.2842   0.01924   0.01171  -0.1057  0.0034  0.7554  -4.1796   0.0000   0.0000   0.0000   0.3218
   7.800   1.2918   0.01953   0.01206  -0.1051  0.0034  0.7563  -4.2720   0.0000   0.0000   0.0000   0.3208
   7.900   1.2991   0.01985   0.01243  -0.1045  0.0035  0.7571  -4.3617   0.0000   0.0000   0.0000   0.3197
   8.000   1.3059   0.02020   0.01283  -0.1039  0.0035  0.7579  -4.4484   0.0000   0.0000   0.0000   0.3187
   8.100   1.3124   0.02056   0.01326  -0.1031  0.0036  0.7587  -4.5318   0.0000   0.0000   0.0000   0.3176
   8.200   1.3183   0.02096   0.01372  -0.1023  0.0036  0.7594  -4.6114   0.0000   0.0000   0.0000   0.3165
   8.300   1.3236   0.02139   0.01421  -0.1014  0.0037  0.7602  -4.6863   0.0000   0.0000   0.0000   0.3153
   8.400   1.3282   0.02185   0.01473  -0.1004  0.0038  0.7609  -4.7563   0.0000   0.0000   0.0000   0.3142
   8.500   1.3321   0.02234   0.01529  -0.0993  0.0038  0.7617  -4.8209   0.0000   0.0000   0.0000   0.3130
   8.600   1.3351   0.02287   0.01589  -0.0980  0.0039  0.7625  -4.8796   0.0000   0.0000   0.0000   0.3117
   8.700   1.3363   0.02339   0.01647  -0.0965  0.0039  0.7633  -4.9286   0.0000   0.0000   0.0000   0.3104
   8.800   1.3362   0.02394   0.01709  -0.0947  0.0040  0.7641  -4.9705   0.0000   0.0000   0.0000   0.3089
   8.900   1.3359   0.02456   0.01777  -0.0930  0.0040  0.7650  -5.0086   0.0000   0.0000   0.0000   0.3075
   9.000   1.3349   0.02523   0.01851  -0.0913  0.0041  0.7659  -5.0410   0.0000   0.0000   0.0000   0.3061
   9.100   1.3331   0.02598   0.01932  -0.0894  0.0042  0.7669  -5.0669   0.0000   0.0000   0.0000   0.3047
   9.200   1.3304   0.02679   0.02020  -0.0876  0.0042  0.7678  -5.0853   0.0000   0.0000   0.0000   0.3033
   9.300   1.3268   0.02771   0.02119  -0.0858  0.0043  0.7688  -5.0945   0.0000   0.0000   0.0000   0.3019
   9.400   1.3218   0.02877   0.02232  -0.0839  0.0043  0.7696  -5.0895   0.0000   0.0000   0.0000   0.3006
   9.500   1.3135   0.03015   0.02377  -0.0817  0.0044  0.7704  -5.0475   0.0000   0.0000   0.0000   0.2992
   9.600   1.3155   0.03079   0.02446  -0.0809  0.0045  0.7713  -5.1115   0.0000   0.0000   0.0000   0.2982
   9.700   1.3217   0.03111   0.02480  -0.0805  0.0046  0.7720  -5.2202   0.0000   0.0000   0.0000   0.2975
   9.800   1.3274   0.03148   0.02518  -0.0800  0.0047  0.7727  -5.3250   0.0000   0.0000   0.0000   0.2967
   9.900   1.3328   0.03189   0.02561  -0.0796  0.0048  0.7734  -5.4255   0.0000   0.0000   0.0000   0.2960
  10.000   1.3375   0.03236   0.02611  -0.0791  0.0049  0.7740  -5.5190   0.0000   0.0000   0.0000   0.2953
  10.100   1.3414   0.03291   0.02670  -0.0786  0.0051  0.7746  -5.6031   0.0000   0.0000   0.0000   0.2945
  10.200   1.3443   0.03358   0.02740  -0.0780  0.0053  0.7752  -5.6725   0.0000   0.0000   0.0000   0.2938
  10.300   1.3455   0.03442   0.02830  -0.0772  0.0055  0.7757  -5.7133   0.0000   0.0000   0.0000   0.2930
  10.400   1.3429   0.03567   0.02965  -0.0760  0.0060  0.7762  -5.6818   0.0000   0.0000   0.0000   0.2920
  10.500   1.3362   0.03762   0.03172  -0.0740  0.0068  0.7765  -5.5389   0.0000   0.0000   0.0000   0.2907
  10.600   1.3348   0.03998   0.03421  -0.0717  0.0083  0.7767  -5.3629   0.0000   0.0000   0.0000   0.2888
  17.500   1.0534   0.23555   0.23379  -0.1501  0.0134  0.8115  -2.5682   0.0000   0.0000   0.0000   0.3690
  17.600   1.0547   0.23799   0.23624  -0.1513  0.0131  0.8123  -2.5527   0.0000   0.0000   0.0000   0.3698
  17.700   1.0561   0.24038   0.23862  -0.1524  0.0129  0.8131  -2.5405   0.0000   0.0000   0.0000   0.3705
  17.800   1.0575   0.24270   0.24095  -0.1536  0.0127  0.8139  -2.5316   0.0000   0.0000   0.0000   0.3712
  17.900   1.0591   0.24498   0.24323  -0.1546  0.0125  0.8147  -2.5257   0.0000   0.0000   0.0000   0.3719
  18.000   1.0607   0.24720   0.24546  -0.1557  0.0123  0.8156  -2.5228   0.0000   0.0000   0.0000   0.3725
  18.100   1.0624   0.24937   0.24764  -0.1567  0.0121  0.8164  -2.5229   0.0000   0.0000   0.0000   0.3731
  18.200   1.0642   0.25150   0.24977  -0.1577  0.0120  0.8173  -2.5260   0.0000   0.0000   0.0000   0.3736
  18.300   1.0661   0.25358   0.25185  -0.1587  0.0118  0.8182  -2.5321   0.0000   0.0000   0.0000   0.3740
  18.400   1.0680   0.25560   0.25388  -0.1596  0.0117  0.8191  -2.5414   0.0000   0.0000   0.0000   0.3745
  18.500   1.0700   0.25758   0.25586  -0.1605  0.0115  0.8201  -2.5537   0.0000   0.0000   0.0000   0.3749
  18.600   1.0721   0.25951   0.25779  -0.1614  0.0114  0.8210  -2.5693   0.0000   0.0000   0.0000   0.3752
  18.700   1.0742   0.26138   0.25967  -0.1622  0.0112  0.8220  -2.5881   0.0000   0.0000   0.0000   0.3755
  18.800   1.0763   0.26326   0.26156  -0.1631  0.0111  0.8230  -2.6075   0.0000   0.0000   0.0000   0.3758
  18.900   1.0784   0.26510   0.26340  -0.1639  0.0110  0.8240  -2.6298   0.0000   0.0000   0.0000   0.3761
  19.000   1.0805   0.26690   0.26520  -0.1647  0.0109  0.8249  -2.6549   0.0000   0.0000   0.0000   0.3763
  19.100   1.0827   0.26869   0.26701  -0.1655  0.0108  0.8259  -2.6808   0.0000   0.0000   0.0000   0.3765
  19.200   1.0848   0.27044   0.26877  -0.1662  0.0107  0.8268  -2.7095   0.0000   0.0000   0.0000   0.3767
  19.300   1.0868   0.27228   0.27062  -0.1669  0.0105  0.8278  -2.7350   0.0000   0.0000   0.0000   0.3769
  19.400   1.0880   0.27447   0.27280  -0.1678  0.0104  0.8286  -2.7433   0.0000   0.0000   0.0000   0.3774
  19.500   1.0780   0.28295   0.28124  -0.1700  0.0097  0.8282  -2.4268   0.0000   0.0000   0.0000   0.3809
  20.000   1.0867   0.29574   0.29406  -0.1750  0.0097  0.8337  -2.3411   0.0000   0.0000   0.0000   0.3834
  20.100   1.0884   0.29827   0.29661  -0.1760  0.0097  0.8350  -2.3258   0.0000   0.0000   0.0000   0.3839
  20.200   1.0902   0.30080   0.29914  -0.1769  0.0096  0.8362  -2.3111   0.0000   0.0000   0.0000   0.3844
  20.300   1.0919   0.30331   0.30167  -0.1779  0.0096  0.8375  -2.2968   0.0000   0.0000   0.0000   0.3849
  20.400   1.0937   0.30581   0.30417  -0.1789  0.0096  0.8388  -2.2831   0.0000   0.0000   0.0000   0.3853
  20.500   1.0955   0.30828   0.30665  -0.1799  0.0096  0.8402  -2.2705   0.0000   0.0000   0.0000   0.3858
  20.600   1.0974   0.31073   0.30911  -0.1808  0.0096  0.8416  -2.2589   0.0000   0.0000   0.0000   0.3862
  20.700   1.0993   0.31315   0.31153  -0.1818  0.0095  0.8431  -2.2487   0.0000   0.0000   0.0000   0.3866
  20.800   1.1013   0.31551   0.31390  -0.1828  0.0095  0.8446  -2.2402   0.0000   0.0000   0.0000   0.3871
  20.900   1.1035   0.31780   0.31620  -0.1838  0.0094  0.8461  -2.2339   0.0000   0.0000   0.0000   0.3875
  21.000   1.1060   0.32002   0.31842  -0.1848  0.0092  0.8478  -2.2286   0.0000   0.0000   0.0000   0.3878
  21.100   1.1080   0.32269   0.32110  -0.1861  0.0089  0.8493  -2.1948   0.0000   0.0000   0.0000   0.3886
  21.200   1.1098   0.32552   0.32393  -0.1873  0.0086  0.8508  -2.1567   0.0000   0.0000   0.0000   0.3893
  21.300   1.1116   0.32824   0.32666  -0.1884  0.0083  0.8522  -2.1293   0.0000   0.0000   0.0000   0.3898
  21.600   1.1161   0.33595   0.33441  -0.1911  0.0075  0.8580  -2.0891   0.0000   0.0000   0.0000   0.3910
  21.700   1.1175   0.33844   0.33690  -0.1919  0.0073  0.8602  -2.0829   0.0000   0.0000   0.0000   0.3913
  21.800   1.1189   0.34090   0.33938  -0.1927  0.0071  0.8626  -2.0788   0.0000   0.0000   0.0000   0.3917
  21.900   1.1202   0.34333   0.34182  -0.1935  0.0069  0.8652  -2.0767   0.0000   0.0000   0.0000   0.3920
  22.000   1.1214   0.34575   0.34425  -0.1943  0.0067  0.8680  -2.0762   0.0000   0.0000   0.0000   0.3923
  22.100   1.1226   0.34814   0.34666  -0.1951  0.0066  0.8710  -2.0773   0.0000   0.0000   0.0000   0.3926
  22.200   1.1237   0.35052   0.34905  -0.1958  0.0064  0.8740  -2.0798   0.0000   0.0000   0.0000   0.3929
  23.900   1.1250   0.38411   0.38284  -0.2022  0.0049  1.0000  -2.3257   0.0000   0.0000   0.0000   0.3949
  24.000   1.1237   0.38602   0.38476  -0.2023  0.0048  1.0000  -2.3509   0.0000   0.0000   0.0000   0.3950
  24.100   1.1214   0.38812   0.38686  -0.2023  0.0048  1.0000  -2.3610   0.0000   0.0000   0.0000   0.3952
  24.200   1.1168   0.39047   0.38922  -0.2020  0.0047  1.0000  -2.3467   0.0000   0.0000   0.0000   0.3956
  24.300   0.9088   0.34636   0.34506  -0.1690  0.0052  0.8466  -1.5444   0.0000   0.0000   0.0000   0.4053
  24.400   0.9058   0.34608   0.34479  -0.1688  0.0051  0.8472  -1.5493   0.0000   0.0000   0.0000   0.4056
  24.500   0.9031   0.34583   0.34455  -0.1686  0.0051  0.8479  -1.5561   0.0000   0.0000   0.0000   0.4058
  24.600   0.9005   0.34559   0.34431  -0.1685  0.0050  0.8486  -1.5647   0.0000   0.0000   0.0000   0.4061
  24.700   0.8981   0.34537   0.34410  -0.1683  0.0049  0.8493  -1.5753   0.0000   0.0000   0.0000   0.4063
  24.800   0.8958   0.34511   0.34385  -0.1682  0.0049  0.8501  -1.5873   0.0000   0.0000   0.0000   0.4065
  24.900   0.8936   0.34484   0.34359  -0.1681  0.0048  0.8509  -1.6009   0.0000   0.0000   0.0000   0.4067
  25.000   0.8914   0.34452   0.34328  -0.1679  0.0048  0.8517  -1.6158   0.0000   0.0000   0.0000   0.4068
  25.100   0.8888   0.34421   0.34298  -0.1677  0.0047  0.8524  -1.6224   0.0000   0.0000   0.0000   0.4070


