xflr5 v6.61

 Calculated polar for: FX 60-100 (126) AIRFOIL

 1 1 Reynolds number fixed          Mach number fixed         

 xtrf =   1.000 (top)        1.000 (bottom)
 Mach =   0.000     Re =     0.719 e 6     Ncrit =   9.000

  alpha     CL        CD       CDp       Cm    Top Xtr Bot Xtr   Cpmin    Chinge    XCp    
 ------- -------- --------- --------- -------- ------- ------- -------- --------- ---------
 -10.000  -0.3115   0.10763   0.10548  -0.0270  1.0000  0.0095  -1.5206   0.0000   0.0000   0.0000   0.1544
  -9.900  -0.3113   0.10636   0.10421  -0.0271  1.0000  0.0095  -1.5320   0.0000   0.0000   0.0000   0.1540
  -9.800  -0.3099   0.10493   0.10279  -0.0276  0.9999  0.0095  -1.5437   0.0000   0.0000   0.0000   0.1522
  -9.700  -0.3058   0.10314   0.10100  -0.0289  0.9996  0.0096  -1.5558   0.0000   0.0000   0.0000   0.1466
  -9.600  -0.3018   0.10136   0.09922  -0.0302  0.9993  0.0096  -1.5686   0.0000   0.0000   0.0000   0.1410
  -9.500  -0.2979   0.09957   0.09744  -0.0315  0.9990  0.0096  -1.5820   0.0000   0.0000   0.0000   0.1351
  -9.400  -0.2940   0.09778   0.09564  -0.0329  0.9987  0.0096  -1.5962   0.0000   0.0000   0.0000   0.1290
  -9.300  -0.2901   0.09599   0.09386  -0.0343  0.9983  0.0096  -1.6111   0.0000   0.0000   0.0000   0.1227
  -9.200  -0.2863   0.09421   0.09208  -0.0357  0.9979  0.0096  -1.6267   0.0000   0.0000   0.0000   0.1163
  -9.100  -0.2827   0.09244   0.09030  -0.0371  0.9974  0.0096  -1.6433   0.0000   0.0000   0.0000   0.1098
  -9.000  -0.2792   0.09065   0.08851  -0.0385  0.9970  0.0097  -1.6607   0.0000   0.0000   0.0000   0.1031
  -8.900  -0.2758   0.08883   0.08670  -0.0399  0.9965  0.0097  -1.6791   0.0000   0.0000   0.0000   0.0963
  -8.800  -0.2724   0.08699   0.08486  -0.0413  0.9959  0.0097  -1.6986   0.0000   0.0000   0.0000   0.0891
  -8.700  -0.2690   0.08512   0.08299  -0.0428  0.9953  0.0097  -1.7193   0.0000   0.0000   0.0000   0.0816
  -8.600  -0.2656   0.08324   0.08111  -0.0444  0.9947  0.0097  -1.7413   0.0000   0.0000   0.0000   0.0737
  -8.500  -0.2624   0.08132   0.07920  -0.0460  0.9940  0.0097  -1.7647   0.0000   0.0000   0.0000   0.0655
  -8.400  -0.2591   0.07938   0.07726  -0.0476  0.9932  0.0097  -1.7898   0.0000   0.0000   0.0000   0.0570
  -8.300  -0.2560   0.07740   0.07528  -0.0493  0.9923  0.0097  -1.8166   0.0000   0.0000   0.0000   0.0480
  -8.200  -0.2530   0.07539   0.07327  -0.0511  0.9913  0.0097  -1.8455   0.0000   0.0000   0.0000   0.0387
  -8.100  -0.2501   0.07334   0.07122  -0.0529  0.9902  0.0098  -1.8767   0.0000   0.0000   0.0000   0.0289
  -8.000  -0.2473   0.07124   0.06913  -0.0549  0.9890  0.0098  -1.9106   0.0000   0.0000   0.0000   0.0187
  -7.900  -0.2446   0.06909   0.06697  -0.0569  0.9876  0.0098  -1.9477   0.0000   0.0000   0.0000   0.0079
  -7.800  -0.2421   0.06683   0.06472  -0.0590  0.9861  0.0098  -1.9890   0.0000   0.0000   0.0000  -0.0034
  -7.700  -0.2398   0.06442   0.06231  -0.0614  0.9843  0.0098  -2.0359   0.0000   0.0000   0.0000  -0.0154
  -7.600  -0.2377   0.06177   0.05966  -0.0639  0.9822  0.0098  -2.0919   0.0000   0.0000   0.0000  -0.0286
  -7.500  -0.2358   0.05858   0.05646  -0.0671  0.9799  0.0098  -2.1693   0.0000   0.0000   0.0000  -0.0442
  -7.400  -0.2348   0.05522   0.05307  -0.0706  0.9772  0.0098  -2.2553   0.0000   0.0000   0.0000  -0.0606
  -7.300  -0.2353   0.05249   0.05031  -0.0740  0.9738  0.0098  -2.3194   0.0000   0.0000   0.0000  -0.0740
  -7.200  -0.2377   0.05000   0.04778  -0.0775  0.9695  0.0098  -2.3771   0.0000   0.0000   0.0000  -0.0852
  -7.100  -0.2378   0.04718   0.04491  -0.0825  0.9655  0.0098  -2.4333   0.0000   0.0000   0.0000  -0.1058
  -7.000  -0.2343   0.04404   0.04166  -0.0891  0.9624  0.0098  -2.4891   0.0000   0.0000   0.0000  -0.1390
  -6.900  -0.2291   0.04139   0.03889  -0.0936  0.9601  0.0098  -2.5273   0.0000   0.0000   0.0000  -0.1672
  -6.800  -0.2225   0.03892   0.03629  -0.0972  0.9581  0.0098  -2.5553   0.0000   0.0000   0.0000  -0.1959
  -6.700  -0.2147   0.03660   0.03383  -0.1003  0.9557  0.0098  -2.5747   0.0000   0.0000   0.0000  -0.2265
  -6.600  -0.2200   0.02803   0.02470  -0.1067  0.9475  0.0106  -3.0186   0.0000   0.0000   0.0000  -0.2443
  -6.500  -0.2196   0.02331   0.01959  -0.1084  0.9448  0.0122  -3.2033   0.0000   0.0000   0.0000  -0.2530
  -6.400  -0.2112   0.02235   0.01857  -0.1089  0.9427  0.0133  -3.1126   0.0000   0.0000   0.0000  -0.2749
  -6.300  -0.2018   0.02203   0.01823  -0.1092  0.9404  0.0144  -2.9780   0.0000   0.0000   0.0000  -0.3006
  -6.200  -0.1922   0.02186   0.01805  -0.1095  0.9377  0.0156  -2.8377   0.0000   0.0000   0.0000  -0.3296
  -6.100  -0.1823   0.02177   0.01797  -0.1097  0.9348  0.0171  -2.6962   0.0000   0.0000   0.0000  -0.3618
  -6.000  -0.1721   0.02170   0.01791  -0.1099  0.9316  0.0190  -2.5615   0.0000   0.0000   0.0000  -0.3988
  -5.900  -0.1611   0.02185   0.01807  -0.1100  0.9283  0.0217  -2.4251   0.0000   0.0000   0.0000  -0.4431
  -5.700  -0.1412   0.01984   0.01587  -0.1116  0.9205  0.0318  -2.2358   0.0000   0.0000   0.0000  -0.5518
  -5.000  -0.0548   0.01066   0.00555  -0.1120  0.8937  0.0199  -2.1699   0.0000   0.0000   0.0000  -1.8208
  -4.900  -0.0410   0.00944   0.00400  -0.1122  0.8921  0.0160  -2.1871   0.0000   0.0000   0.0000  -2.5209
  -4.800  -0.0289   0.00910   0.00354  -0.1123  0.8901  0.0146  -2.1000   0.0000   0.0000   0.0000  -3.6798
  -4.700  -0.0170   0.00885   0.00319  -0.1125  0.8878  0.0137  -2.0038   0.0000   0.0000   0.0000  -6.4270
  -4.600  -0.0052   0.00864   0.00288  -0.1126  0.8851  0.0132  -1.9167   0.0000   0.0000   0.0000  -21.5690
  -4.500   0.0065   0.00845   0.00257  -0.1126  0.8815  0.0131  -1.8323   0.0000   0.0000   0.0000  17.6902
  -4.400   0.0188   0.00826   0.00220  -0.1125  0.8773  0.0161  -1.7767   0.0000   0.0000   0.0000   6.3015
  -4.300   0.0303   0.00799   0.00216  -0.1127  0.8722  0.0327  -1.6859   0.0000   0.0000   0.0000   4.0093
  -4.200   0.0411   0.00784   0.00207  -0.1128  0.8657  0.0467  -1.5767   0.0000   0.0000   0.0000   3.0199
  -4.100   0.0517   0.00781   0.00201  -0.1128  0.8579  0.0493  -1.4689   0.0000   0.0000   0.0000   2.4515
  -4.000   0.0621   0.00779   0.00194  -0.1127  0.8487  0.0505  -1.3631   0.0000   0.0000   0.0000   2.0805
  -3.900   0.0724   0.00780   0.00190  -0.1126  0.8373  0.0511  -1.2653   0.0000   0.0000   0.0000   1.8175
  -3.800   0.0830   0.00782   0.00188  -0.1126  0.8242  0.0514  -1.2166   0.0000   0.0000   0.0000   1.6168
  -3.700   0.0940   0.00785   0.00190  -0.1127  0.8118  0.0516  -1.1676   0.0000   0.0000   0.0000   1.4584
  -3.600   0.1049   0.00788   0.00194  -0.1128  0.8038  0.0517  -1.1192   0.0000   0.0000   0.0000   1.3328
  -3.500   0.1158   0.00785   0.00191  -0.1129  0.8028  0.0525  -1.0751   0.0000   0.0000   0.0000   1.2314
  -3.400   0.1270   0.00774   0.00176  -0.1130  0.8015  0.0551  -1.0383   0.0000   0.0000   0.0000   1.1455
  -3.300   0.1384   0.00760   0.00160  -0.1131  0.7996  0.0667  -1.0062   0.0000   0.0000   0.0000   1.0726
  -3.200   0.1496   0.00747   0.00156  -0.1133  0.7973  0.0794  -0.9670   0.0000   0.0000   0.0000   1.0123
  -3.100   0.1612   0.00707   0.00144  -0.1139  0.7942  0.1333  -0.9287   0.0000   0.0000   0.0000   0.9608
  -3.000   0.1728   0.00668   0.00131  -0.1145  0.7903  0.2112  -0.8908   0.0000   0.0000   0.0000   0.9163
  -2.900   0.1839   0.00648   0.00125  -0.1148  0.7852  0.2458  -0.8528   0.0000   0.0000   0.0000   0.8774
  -2.800   0.1949   0.00638   0.00120  -0.1149  0.7784  0.2659  -0.8153   0.0000   0.0000   0.0000   0.8426
  -2.700   0.2058   0.00620   0.00117  -0.1151  0.7694  0.2930  -0.7783   0.0000   0.0000   0.0000   0.8120
  -2.600   0.2166   0.00613   0.00119  -0.1152  0.7582  0.3531  -0.7416   0.0000   0.0000   0.0000   0.7843
  -2.500   0.2271   0.00606   0.00126  -0.1153  0.7461  0.4137  -0.7076   0.0000   0.0000   0.0000   0.7598
  -2.400   0.2375   0.00609   0.00125  -0.1152  0.7331  0.4242  -0.6816   0.0000   0.0000   0.0000   0.7370
  -2.300   0.2480   0.00613   0.00124  -0.1151  0.7183  0.4299  -0.6558   0.0000   0.0000   0.0000   0.7161
  -2.200   0.2586   0.00617   0.00122  -0.1151  0.7005  0.4340  -0.6300   0.0000   0.0000   0.0000   0.6968
  -2.100   0.2695   0.00619   0.00122  -0.1152  0.6894  0.4372  -0.6039   0.0000   0.0000   0.0000   0.6787
  -2.000   0.2805   0.00621   0.00121  -0.1152  0.6842  0.4399  -0.5779   0.0000   0.0000   0.0000   0.6621
  -1.900   0.2914   0.00624   0.00121  -0.1152  0.6767  0.4419  -0.5521   0.0000   0.0000   0.0000   0.6467
  -1.800   0.3020   0.00626   0.00122  -0.1153  0.6666  0.4516  -0.5267   0.0000   0.0000   0.0000   0.6326
  -1.700   0.3124   0.00631   0.00126  -0.1152  0.6546  0.4595  -0.5017   0.0000   0.0000   0.0000   0.6195
  -1.600   0.3226   0.00640   0.00128  -0.1151  0.6413  0.4658  -0.5056   0.0000   0.0000   0.0000   0.6073
  -1.500   0.3327   0.00651   0.00131  -0.1149  0.6259  0.4712  -0.5124   0.0000   0.0000   0.0000   0.5960
  -1.400   0.3429   0.00661   0.00133  -0.1148  0.6077  0.4758  -0.5204   0.0000   0.0000   0.0000   0.5852
  -1.300   0.3537   0.00667   0.00136  -0.1148  0.5960  0.4798  -0.5287   0.0000   0.0000   0.0000   0.5749
  -1.200   0.3644   0.00674   0.00144  -0.1148  0.5921  0.4859  -0.5371   0.0000   0.0000   0.0000   0.5652
  -1.100   0.3753   0.00679   0.00146  -0.1148  0.5878  0.4882  -0.5455   0.0000   0.0000   0.0000   0.5560
  -1.000   0.3864   0.00680   0.00144  -0.1149  0.5838  0.4884  -0.5540   0.0000   0.0000   0.0000   0.5474
  -0.900   0.3975   0.00680   0.00141  -0.1151  0.5802  0.4882  -0.5625   0.0000   0.0000   0.0000   0.5393
  -0.800   0.4086   0.00681   0.00139  -0.1152  0.5760  0.4876  -0.5710   0.0000   0.0000   0.0000   0.5316
  -0.700   0.4196   0.00683   0.00137  -0.1153  0.5709  0.4871  -0.5803   0.0000   0.0000   0.0000   0.5244
  -0.600   0.4305   0.00686   0.00136  -0.1153  0.5651  0.4869  -0.5903   0.0000   0.0000   0.0000   0.5175
  -0.500   0.4413   0.00690   0.00135  -0.1154  0.5588  0.4868  -0.6002   0.0000   0.0000   0.0000   0.5110
  -0.400   0.4521   0.00695   0.00135  -0.1154  0.5524  0.4869  -0.6102   0.0000   0.0000   0.0000   0.5047
  -0.300   0.4629   0.00699   0.00134  -0.1155  0.5465  0.4870  -0.6233   0.0000   0.0000   0.0000   0.4988
  -0.200   0.4738   0.00703   0.00134  -0.1155  0.5415  0.4870  -0.6383   0.0000   0.0000   0.0000   0.4931
  -0.100   0.4847   0.00705   0.00133  -0.1156  0.5373  0.4867  -0.6533   0.0000   0.0000   0.0000   0.4877
   0.000   0.4957   0.00707   0.00133  -0.1157  0.5331  0.4861  -0.6684   0.0000   0.0000   0.0000   0.4825
   0.100   0.5067   0.00709   0.00133  -0.1158  0.5288  0.4856  -0.6836   0.0000   0.0000   0.0000   0.4775
   0.200   0.5177   0.00711   0.00133  -0.1158  0.5244  0.4851  -0.6988   0.0000   0.0000   0.0000   0.4728
   0.300   0.5288   0.00713   0.00133  -0.1159  0.5200  0.4848  -0.7141   0.0000   0.0000   0.0000   0.4682
   0.400   0.5398   0.00715   0.00135  -0.1160  0.5158  0.4857  -0.7295   0.0000   0.0000   0.0000   0.4638
   0.500   0.5521   0.00707   0.00140  -0.1163  0.5399  0.4901  -0.7461   0.0000   0.0000   0.0000   0.4594
   0.600   0.5636   0.00706   0.00141  -0.1164  0.5441  0.4909  -0.7620   0.0000   0.0000   0.0000   0.4553
   0.700   0.5750   0.00705   0.00143  -0.1166  0.5472  0.4915  -0.7779   0.0000   0.0000   0.0000   0.4514
   0.800   0.5863   0.00704   0.00145  -0.1167  0.5494  0.4922  -0.7938   0.0000   0.0000   0.0000   0.4476
   0.900   0.5976   0.00705   0.00147  -0.1168  0.5503  0.4929  -0.8097   0.0000   0.0000   0.0000   0.4440
   1.000   0.6087   0.00707   0.00149  -0.1169  0.5502  0.4936  -0.8256   0.0000   0.0000   0.0000   0.4404
   1.100   0.6198   0.00709   0.00152  -0.1169  0.5494  0.4943  -0.8414   0.0000   0.0000   0.0000   0.4371
   1.200   0.6309   0.00711   0.00155  -0.1170  0.5490  0.4950  -0.8574   0.0000   0.0000   0.0000   0.4338
   1.300   0.6421   0.00713   0.00158  -0.1171  0.5492  0.4957  -0.8734   0.0000   0.0000   0.0000   0.4306
   1.400   0.6533   0.00715   0.00162  -0.1172  0.5502  0.4964  -0.8895   0.0000   0.0000   0.0000   0.4275
   1.500   0.6646   0.00716   0.00166  -0.1173  0.5528  0.4970  -0.9057   0.0000   0.0000   0.0000   0.4246
   1.600   0.6760   0.00716   0.00171  -0.1174  0.5564  0.4976  -0.9221   0.0000   0.0000   0.0000   0.4217
   1.700   0.6875   0.00716   0.00177  -0.1176  0.5605  0.4982  -0.9386   0.0000   0.0000   0.0000   0.4189
   1.800   0.6989   0.00716   0.00183  -0.1177  0.5643  0.4987  -0.9550   0.0000   0.0000   0.0000   0.4162
   1.900   0.7102   0.00718   0.00190  -0.1178  0.5670  0.4992  -0.9714   0.0000   0.0000   0.0000   0.4136
   2.000   0.7213   0.00722   0.00197  -0.1178  0.5679  0.4996  -0.9877   0.0000   0.0000   0.0000   0.4110
   2.100   0.7321   0.00727   0.00205  -0.1178  0.5655  0.4999  -1.0039   0.0000   0.0000   0.0000   0.4085
   2.200   0.7427   0.00733   0.00208  -0.1178  0.5609  0.5018  -1.0200   0.0000   0.0000   0.0000   0.4061
   2.300   0.7535   0.00735   0.00206  -0.1178  0.5559  0.5055  -1.0361   0.0000   0.0000   0.0000   0.4038
   2.400   0.7642   0.00739   0.00206  -0.1178  0.5505  0.5097  -1.0522   0.0000   0.0000   0.0000   0.4015
   2.500   0.7748   0.00743   0.00206  -0.1178  0.5445  0.5143  -1.0683   0.0000   0.0000   0.0000   0.3993
   2.600   0.7854   0.00747   0.00207  -0.1178  0.5379  0.5192  -1.0844   0.0000   0.0000   0.0000   0.3972
   2.700   0.7960   0.00751   0.00209  -0.1178  0.5308  0.5242  -1.1005   0.0000   0.0000   0.0000   0.3951
   2.800   0.8067   0.00755   0.00212  -0.1178  0.5236  0.5292  -1.1167   0.0000   0.0000   0.0000   0.3931
   2.900   0.8174   0.00759   0.00215  -0.1178  0.5168  0.5339  -1.1330   0.0000   0.0000   0.0000   0.3911
   3.000   0.8282   0.00763   0.00220  -0.1178  0.5103  0.5382  -1.1494   0.0000   0.0000   0.0000   0.3891
   3.100   0.8390   0.00768   0.00224  -0.1178  0.5042  0.5418  -1.1658   0.0000   0.0000   0.0000   0.3872
   3.200   0.8499   0.00771   0.00229  -0.1179  0.4998  0.5447  -1.1824   0.0000   0.0000   0.0000   0.3854
   3.300   0.8610   0.00770   0.00231  -0.1179  0.4989  0.5472  -1.1998   0.0000   0.0000   0.0000   0.3836
   3.400   0.8720   0.00770   0.00234  -0.1180  0.4974  0.5491  -1.2406   0.0000   0.0000   0.0000   0.3818
   3.500   0.8830   0.00771   0.00236  -0.1180  0.4949  0.5504  -1.2816   0.0000   0.0000   0.0000   0.3800
   3.600   0.8939   0.00774   0.00239  -0.1180  0.4909  0.5510  -1.3227   0.0000   0.0000   0.0000   0.3783
   3.700   0.9045   0.00779   0.00242  -0.1180  0.4839  0.5514  -1.3639   0.0000   0.0000   0.0000   0.3766
   3.800   0.9141   0.00792   0.00246  -0.1178  0.4683  0.5518  -1.4038   0.0000   0.0000   0.0000   0.3749
   3.900   0.9213   0.00826   0.00254  -0.1171  0.4348  0.5522  -1.4391   0.0000   0.0000   0.0000   0.3731
   4.000   0.9288   0.00861   0.00264  -0.1166  0.3929  0.5526  -1.4755   0.0000   0.0000   0.0000   0.3715
   4.100   0.9367   0.00895   0.00271  -0.1162  0.3230  0.5530  -1.5125   0.0000   0.0000   0.0000   0.3699
   4.200   0.9454   0.00921   0.00283  -0.1159  0.2908  0.5533  -1.5517   0.0000   0.0000   0.0000   0.3684
   4.300   0.9520   0.00970   0.00306  -0.1154  0.2635  0.5537  -1.5866   0.0000   0.0000   0.0000   0.3668
   4.400   0.9608   0.00994   0.00318  -0.1151  0.2467  0.5540  -1.6265   0.0000   0.0000   0.0000   0.3653
   4.500   0.9700   0.01014   0.00328  -0.1149  0.2349  0.5544  -1.6676   0.0000   0.0000   0.0000   0.3639
   4.600   0.9780   0.01045   0.00344  -0.1145  0.2170  0.5547  -1.7067   0.0000   0.0000   0.0000   0.3624
   4.700   0.9872   0.01068   0.00356  -0.1143  0.1958  0.5550  -1.7484   0.0000   0.0000   0.0000   0.3610
   4.800   0.9970   0.01081   0.00365  -0.1141  0.1878  0.5553  -1.7922   0.0000   0.0000   0.0000   0.3596
   4.900   1.0064   0.01099   0.00375  -0.1140  0.1775  0.5555  -1.8356   0.0000   0.0000   0.0000   0.3583
   5.000   1.0154   0.01121   0.00388  -0.1137  0.1655  0.5558  -1.8787   0.0000   0.0000   0.0000   0.3569
   5.100   1.0249   0.01138   0.00399  -0.1135  0.1512  0.5561  -1.9232   0.0000   0.0000   0.0000   0.3556
   5.200   1.0350   0.01149   0.00407  -0.1134  0.1445  0.5563  -1.9697   0.0000   0.0000   0.0000   0.3543
   5.300   1.0449   0.01159   0.00416  -0.1133  0.1405  0.5566  -2.0168   0.0000   0.0000   0.0000   0.3530
   5.500   1.0601   0.01230   0.00455  -0.1124  0.0959  0.5571  -2.1015   0.0000   0.0000   0.0000   0.3504
   5.600   1.0671   0.01272   0.00477  -0.1118  0.0781  0.5573  -2.1430   0.0000   0.0000   0.0000   0.3491
   5.700   1.0745   0.01308   0.00502  -0.1113  0.0589  0.5575  -2.1867   0.0000   0.0000   0.0000   0.3478
   5.900   1.0894   0.01379   0.00549  -0.1103  0.0247  0.5579  -2.3284   0.0000   0.0000   0.0000   0.3452
   6.000   1.0986   0.01395   0.00561  -0.1100  0.0223  0.5582  -2.4415   0.0000   0.0000   0.0000   0.3440
   6.100   1.1074   0.01416   0.00573  -0.1097  0.0197  0.5584  -2.5531   0.0000   0.0000   0.0000   0.3428
   6.200   1.1167   0.01431   0.00582  -0.1094  0.0157  0.5586  -2.6647   0.0000   0.0000   0.0000   0.3416
   6.300   1.1259   0.01458   0.00624  -0.1087  0.0100  0.5588  -2.7067   0.0000   0.0000   0.0000   0.3400
   6.700   1.1557   0.01607   0.00823  -0.1054  0.0102  0.5596  -3.0225   0.0000   0.0000   0.0000   0.3342
   6.800   1.1633   0.01639   0.00860  -0.1047  0.0107  0.5598  -3.1106   0.0000   0.0000   0.0000   0.3328
   6.900   1.1712   0.01667   0.00891  -0.1040  0.0113  0.5600  -3.2028   0.0000   0.0000   0.0000   0.3315
   7.000   1.1792   0.01693   0.00920  -0.1033  0.0121  0.5602  -3.2972   0.0000   0.0000   0.0000   0.3302
   7.100   1.1870   0.01720   0.00950  -0.1026  0.0131  0.5604  -3.3896   0.0000   0.0000   0.0000   0.3289
   7.200   1.1938   0.01755   0.00992  -0.1017  0.0144  0.5606  -3.4704   0.0000   0.0000   0.0000   0.3276
   7.300   1.1978   0.01819   0.01072  -0.1001  0.0167  0.5607  -3.4988   0.0000   0.0000   0.0000   0.3258
   7.400   1.1947   0.02003   0.01294  -0.0963  0.0221  0.5609  -3.3519   0.0000   0.0000   0.0000   0.3228
  17.300   0.9637   0.22455   0.22186  -0.1256  0.0134  0.6570  -2.1694   0.0000   0.0000   0.0000   0.3619
  17.400   0.9658   0.22644   0.22380  -0.1263  0.0132  0.6755  -2.1851   0.0000   0.0000   0.0000   0.3622
  17.500   0.9682   0.22821   0.22565  -0.1270  0.0129  0.7213  -2.2086   0.0000   0.0000   0.0000   0.3625
  17.600   0.9669   0.22859   0.22645  -0.1264  0.0127  1.0000  -2.2284   0.0000   0.0000   0.0000   0.3619
  17.700   0.9696   0.23024   0.22809  -0.1270  0.0124  1.0000  -2.2690   0.0000   0.0000   0.0000   0.3619
  17.800   0.9718   0.23198   0.22983  -0.1277  0.0121  1.0000  -2.3036   0.0000   0.0000   0.0000   0.3622
  17.900   0.9739   0.23381   0.23165  -0.1284  0.0117  1.0000  -2.3378   0.0000   0.0000   0.0000   0.3624
  18.000   0.9753   0.23602   0.23385  -0.1292  0.0112  1.0000  -2.3573   0.0000   0.0000   0.0000   0.3629
  19.400   0.9911   0.27859   0.27642  -0.1442  0.0096  1.0000  -1.7873   0.0000   0.0000   0.0000   0.3744
  19.500   0.9932   0.28112   0.27895  -0.1451  0.0096  1.0000  -1.7778   0.0000   0.0000   0.0000   0.3749
  19.600   0.9953   0.28366   0.28149  -0.1460  0.0096  1.0000  -1.7685   0.0000   0.0000   0.0000   0.3753
  19.700   0.9974   0.28623   0.28406  -0.1469  0.0096  1.0000  -1.7593   0.0000   0.0000   0.0000   0.3758
  19.800   0.9996   0.28882   0.28664  -0.1478  0.0096  1.0000  -1.7502   0.0000   0.0000   0.0000   0.3762
  19.900   1.0017   0.29143   0.28926  -0.1488  0.0095  1.0000  -1.7412   0.0000   0.0000   0.0000   0.3767
  20.000   1.0038   0.29406   0.29189  -0.1497  0.0095  1.0000  -1.7322   0.0000   0.0000   0.0000   0.3772
  20.100   1.0060   0.29673   0.29456  -0.1507  0.0095  1.0000  -1.7233   0.0000   0.0000   0.0000   0.3776
  20.200   1.0081   0.29942   0.29725  -0.1516  0.0095  1.0000  -1.7145   0.0000   0.0000   0.0000   0.3781
  20.300   1.0103   0.30216   0.29999  -0.1526  0.0095  1.0000  -1.7058   0.0000   0.0000   0.0000   0.3786
  20.400   1.0124   0.30492   0.30276  -0.1536  0.0094  1.0000  -1.6969   0.0000   0.0000   0.0000   0.3791
  20.500   1.0146   0.30774   0.30557  -0.1546  0.0094  1.0000  -1.6881   0.0000   0.0000   0.0000   0.3796
  20.600   1.0167   0.31060   0.30843  -0.1556  0.0094  1.0000  -1.6792   0.0000   0.0000   0.0000   0.3801
  20.700   1.0188   0.31352   0.31136  -0.1566  0.0094  1.0000  -1.6702   0.0000   0.0000   0.0000   0.3807
  20.800   1.0210   0.31651   0.31435  -0.1577  0.0094  1.0000  -1.6612   0.0000   0.0000   0.0000   0.3812
  20.900   1.0232   0.31957   0.31742  -0.1588  0.0093  1.0000  -1.6521   0.0000   0.0000   0.0000   0.3818
  21.000   1.0253   0.32274   0.32059  -0.1599  0.0093  1.0000  -1.6427   0.0000   0.0000   0.0000   0.3824
  21.100   1.0275   0.32604   0.32389  -0.1611  0.0093  1.0000  -1.6330   0.0000   0.0000   0.0000   0.3831
  21.200   1.0296   0.32950   0.32735  -0.1623  0.0093  1.0000  -1.6228   0.0000   0.0000   0.0000   0.3838
  21.300   1.0318   0.33320   0.33107  -0.1637  0.0092  1.0000  -1.6114   0.0000   0.0000   0.0000   0.3846
  21.400   1.0339   0.33732   0.33520  -0.1653  0.0092  1.0000  -1.5980   0.0000   0.0000   0.0000   0.3857
  21.500   1.0360   0.34254   0.34043  -0.1673  0.0092  1.0000  -1.5798   0.0000   0.0000   0.0000   0.3872
  23.800   0.9740   0.36389   0.36259  -0.2209  0.0076  0.7748  -0.7219   0.0000   0.0000   0.0000   0.4512
  23.900   0.9742   0.36492   0.36363  -0.2212  0.0076  0.7791  -0.7186   0.0000   0.0000   0.0000   0.4513
  24.000   0.9744   0.36596   0.36468  -0.2216  0.0075  0.7826  -0.7154   0.0000   0.0000   0.0000   0.4514
  24.100   0.9746   0.36702   0.36573  -0.2219  0.0075  0.7854  -0.7121   0.0000   0.0000   0.0000   0.4515
  24.200   0.9748   0.36807   0.36679  -0.2222  0.0075  0.7878  -0.7089   0.0000   0.0000   0.0000   0.4516
  24.300   0.9750   0.36914   0.36786  -0.2226  0.0074  0.7899  -0.7058   0.0000   0.0000   0.0000   0.4517
  24.400   0.9752   0.37021   0.36893  -0.2229  0.0074  0.7916  -0.7027   0.0000   0.0000   0.0000   0.4519
  24.500   0.9754   0.37128   0.37001  -0.2233  0.0074  0.7931  -0.6996   0.0000   0.0000   0.0000   0.4520
  24.600   0.9756   0.37235   0.37109  -0.2236  0.0074  0.7944  -0.6966   0.0000   0.0000   0.0000   0.4521
  24.700   0.9758   0.37343   0.37217  -0.2240  0.0073  0.7956  -0.6936   0.0000   0.0000   0.0000   0.4522
  24.800   0.9760   0.37451   0.37325  -0.2244  0.0073  0.7966  -0.6907   0.0000   0.0000   0.0000   0.4523
  24.900   0.9762   0.37559   0.37433  -0.2247  0.0073  0.7974  -0.6878   0.0000   0.0000   0.0000   0.4525
  25.000   0.9764   0.37667   0.37542  -0.2251  0.0073  0.7982  -0.6850   0.0000   0.0000   0.0000   0.4526
  25.100   0.9766   0.37776   0.37651  -0.2254  0.0072  0.7989  -0.6822   0.0000   0.0000   0.0000   0.4527
  25.200   0.9767   0.37884   0.37759  -0.2258  0.0072  0.7995  -0.6795   0.0000   0.0000   0.0000   0.4528
  25.300   0.9769   0.37993   0.37868  -0.2261  0.0072  0.8000  -0.6768   0.0000   0.0000   0.0000   0.4529
  25.400   0.9771   0.38102   0.37977  -0.2265  0.0071  0.8004  -0.6742   0.0000   0.0000   0.0000   0.4530
  25.500   0.9772   0.38210   0.38086  -0.2268  0.0071  0.8009  -0.6716   0.0000   0.0000   0.0000   0.4531
  25.600   0.9773   0.38319   0.38195  -0.2272  0.0071  0.8013  -0.6691   0.0000   0.0000   0.0000   0.4533
  25.700   0.9775   0.38427   0.38304  -0.2275  0.0071  0.8017  -0.6666   0.0000   0.0000   0.0000   0.4534
  25.800   0.9776   0.38536   0.38413  -0.2278  0.0071  0.8020  -0.6641   0.0000   0.0000   0.0000   0.4535
  25.900   0.9777   0.38643   0.38521  -0.2281  0.0070  0.8024  -0.6617   0.0000   0.0000   0.0000   0.4536
  26.000   0.9777   0.38751   0.38629  -0.2285  0.0070  0.8027  -0.6594   0.0000   0.0000   0.0000   0.4537
  26.100   0.9778   0.38858   0.38737  -0.2288  0.0070  0.8030  -0.6571   0.0000   0.0000   0.0000   0.4538
  26.200   0.9778   0.38966   0.38844  -0.2291  0.0070  0.8032  -0.6548   0.0000   0.0000   0.0000   0.4538
  26.300   0.9779   0.39073   0.38952  -0.2294  0.0069  0.8034  -0.6526   0.0000   0.0000   0.0000   0.4539
  26.400   0.9779   0.39180   0.39060  -0.2297  0.0069  0.8035  -0.6504   0.0000   0.0000   0.0000   0.4540
  26.500   0.9779   0.39287   0.39167  -0.2300  0.0069  0.8037  -0.6483   0.0000   0.0000   0.0000   0.4541
  26.600   0.9779   0.39394   0.39274  -0.2303  0.0069  0.8038  -0.6461   0.0000   0.0000   0.0000   0.4542
  26.700   0.9779   0.39500   0.39381  -0.2306  0.0068  0.8040  -0.6441   0.0000   0.0000   0.0000   0.4543
  26.800   0.9779   0.39607   0.39488  -0.2309  0.0068  0.8050  -0.6420   0.0000   0.0000   0.0000   0.4544
  26.900   0.9779   0.39714   0.39594  -0.2312  0.0068  0.8066  -0.6406   0.0000   0.0000   0.0000   0.4544
  27.000   0.9778   0.39819   0.39700  -0.2315  0.0068  0.8083  -0.6393   0.0000   0.0000   0.0000   0.4545
  27.100   0.9777   0.39923   0.39804  -0.2318  0.0068  0.8099  -0.6379   0.0000   0.0000   0.0000   0.4546
  27.200   0.9776   0.40027   0.39908  -0.2320  0.0067  0.8116  -0.6366   0.0000   0.0000   0.0000   0.4547
  27.300   0.9775   0.40129   0.40010  -0.2323  0.0067  0.8132  -0.6353   0.0000   0.0000   0.0000   0.4547
  27.400   0.9773   0.40230   0.40111  -0.2325  0.0067  0.8149  -0.6341   0.0000   0.0000   0.0000   0.4548
  27.500   0.9771   0.40330   0.40211  -0.2327  0.0067  0.8165  -0.6329   0.0000   0.0000   0.0000   0.4548
  27.600   0.9769   0.40429   0.40310  -0.2329  0.0067  0.8180  -0.6317   0.0000   0.0000   0.0000   0.4548
  27.700   0.9766   0.40526   0.40408  -0.2331  0.0067  0.8196  -0.6306   0.0000   0.0000   0.0000   0.4549
  27.800   0.9762   0.40617   0.40502  -0.2332  0.0066  0.8221  -0.6280   0.0000   0.0000   0.0000   0.4548
  27.900   0.9760   0.40715   0.40600  -0.2334  0.0066  0.8234  -0.6261   0.0000   0.0000   0.0000   0.4549
  28.000   0.9757   0.40813   0.40698  -0.2336  0.0066  0.8247  -0.6247   0.0000   0.0000   0.0000   0.4549
  28.100   0.9754   0.40911   0.40796  -0.2338  0.0066  0.8259  -0.6234   0.0000   0.0000   0.0000   0.4549
  28.200   0.9751   0.41009   0.40894  -0.2340  0.0066  0.8271  -0.6222   0.0000   0.0000   0.0000   0.4550
  28.300   0.9749   0.41106   0.40992  -0.2342  0.0065  0.8283  -0.6210   0.0000   0.0000   0.0000   0.4550
  28.400   0.9746   0.41204   0.41090  -0.2344  0.0065  0.8295  -0.6198   0.0000   0.0000   0.0000   0.4550
  28.500   0.9743   0.41303   0.41188  -0.2346  0.0065  0.8306  -0.6187   0.0000   0.0000   0.0000   0.4551
  28.600   0.9740   0.41401   0.41287  -0.2348  0.0065  0.8316  -0.6176   0.0000   0.0000   0.0000   0.4551
  28.700   0.9738   0.41500   0.41386  -0.2350  0.0065  0.8326  -0.6165   0.0000   0.0000   0.0000   0.4551
  28.800   0.9735   0.41599   0.41486  -0.2353  0.0065  0.8337  -0.6154   0.0000   0.0000   0.0000   0.4552
  28.900   0.9732   0.41698   0.41585  -0.2355  0.0064  0.8347  -0.6143   0.0000   0.0000   0.0000   0.4552
  29.000   0.9729   0.41797   0.41684  -0.2357  0.0064  0.8358  -0.6133   0.0000   0.0000   0.0000   0.4553
  29.100   0.9726   0.41896   0.41784  -0.2359  0.0064  0.8368  -0.6122   0.0000   0.0000   0.0000   0.4553
  29.200   0.9723   0.41996   0.41883  -0.2361  0.0064  0.8378  -0.6112   0.0000   0.0000   0.0000   0.4553
  29.300   0.9720   0.42095   0.41983  -0.2364  0.0064  0.8388  -0.6102   0.0000   0.0000   0.0000   0.4554
  29.400   0.9717   0.42194   0.42082  -0.2366  0.0064  0.8398  -0.6092   0.0000   0.0000   0.0000   0.4554
  29.500   0.9714   0.42294   0.42182  -0.2368  0.0063  0.8408  -0.6082   0.0000   0.0000   0.0000   0.4555
  29.600   0.9711   0.42393   0.42282  -0.2370  0.0063  0.8418  -0.6072   0.0000   0.0000   0.0000   0.4555
  29.700   0.9708   0.42493   0.42382  -0.2373  0.0063  0.8427  -0.6062   0.0000   0.0000   0.0000   0.4556
  29.800   0.9704   0.42593   0.42482  -0.2375  0.0063  0.8437  -0.6052   0.0000   0.0000   0.0000   0.4556
  29.900   0.9701   0.42693   0.42582  -0.2377  0.0063  0.8447  -0.6043   0.0000   0.0000   0.0000   0.4557
  30.000   0.9698   0.42793   0.42682  -0.2380  0.0063  0.8457  -0.6033   0.0000   0.0000   0.0000   0.4557


