xflr5 v6.61

 Calculated polar for: FX 60-100 AIRFOIL

 1 1 Reynolds number fixed          Mach number fixed         

 xtrf =   1.000 (top)        1.000 (bottom)
 Mach =   0.000     Re =     0.160 e 6     Ncrit =   9.000

  alpha     CL        CD       CDp       Cm    Top Xtr Bot Xtr   Cpmin    Chinge    XCp    
 ------- -------- --------- --------- -------- ------- ------- -------- --------- ---------
 -10.000  -0.3720   0.11247   0.10834  -0.0286  1.0000  0.0444  -1.5803   0.0000   0.0000   0.0000   0.1646
  -9.900  -0.3703   0.11113   0.10702  -0.0291  1.0000  0.0452  -1.5864   0.0000   0.0000   0.0000   0.1629
  -9.800  -0.3688   0.10978   0.10569  -0.0297  1.0000  0.0459  -1.5959   0.0000   0.0000   0.0000   0.1610
  -9.700  -0.3675   0.10842   0.10434  -0.0304  1.0000  0.0467  -1.6091   0.0000   0.0000   0.0000   0.1590
  -9.600  -0.3666   0.10704   0.10297  -0.0311  1.0000  0.0475  -1.6270   0.0000   0.0000   0.0000   0.1568
  -9.500  -0.3661   0.10566   0.10161  -0.0320  1.0000  0.0484  -1.6523   0.0000   0.0000   0.0000   0.1542
  -9.400  -0.3665   0.10428   0.10025  -0.0333  1.0000  0.0494  -1.6901   0.0000   0.0000   0.0000   0.1510
  -9.300  -0.3683   0.10296   0.09896  -0.0352  1.0000  0.0503  -1.7483   0.0000   0.0000   0.0000   0.1465
  -9.200  -0.3706   0.10177   0.09781  -0.0373  1.0000  0.0509  -1.8152   0.0000   0.0000   0.0000   0.1413
  -9.100  -0.3729   0.10054   0.09662  -0.0392  1.0000  0.0512  -1.8720   0.0000   0.0000   0.0000   0.1371
  -9.000  -0.3740   0.09932   0.09542  -0.0405  1.0000  0.0514  -1.9123   0.0000   0.0000   0.0000   0.1339
  -8.900  -0.3750   0.09804   0.09416  -0.0416  1.0000  0.0516  -1.9473   0.0000   0.0000   0.0000   0.1314
  -8.800  -0.3763   0.09670   0.09286  -0.0426  1.0000  0.0517  -1.9813   0.0000   0.0000   0.0000   0.1293
  -8.700  -0.3781   0.09535   0.09153  -0.0434  1.0000  0.0517  -2.0149   0.0000   0.0000   0.0000   0.1277
  -8.600  -0.3759   0.09155   0.08776  -0.0409  1.0000  0.0532  -1.9654   0.0000   0.0000   0.0000   0.1339
  -8.500  -0.3684   0.09078   0.08699  -0.0389  1.0000  0.0543  -1.8793   0.0000   0.0000   0.0000   0.1370
  -8.400  -0.3640   0.08999   0.08620  -0.0380  1.0000  0.0553  -1.8341   0.0000   0.0000   0.0000   0.1383
  -8.300  -0.3615   0.08909   0.08531  -0.0375  1.0000  0.0563  -1.8111   0.0000   0.0000   0.0000   0.1389
  -8.200  -0.3602   0.08817   0.08442  -0.0372  1.0000  0.0574  -1.7968   0.0000   0.0000   0.0000   0.1394
  -8.100  -0.3594   0.08734   0.08361  -0.0370  1.0000  0.0593  -1.7838   0.0000   0.0000   0.0000   0.1400
  -8.000  -0.3609   0.08640   0.08270  -0.0370  1.0000  0.0610  -1.7900   0.0000   0.0000   0.0000   0.1405
  -7.900  -0.3641   0.08541   0.08175  -0.0371  1.0000  0.0624  -1.8102   0.0000   0.0000   0.0000   0.1413
  -7.800  -0.3688   0.08447   0.08085  -0.0371  1.0000  0.0634  -1.8378   0.0000   0.0000   0.0000   0.1428
  -7.700  -0.3750   0.08363   0.08006  -0.0368  1.0000  0.0640  -1.8669   0.0000   0.0000   0.0000   0.1456
  -7.600  -0.3822   0.08293   0.07940  -0.0360  1.0000  0.0643  -1.8939   0.0000   0.0000   0.0000   0.1496
  -7.500  -0.3901   0.08231   0.07883  -0.0350  1.0000  0.0645  -1.9181   0.0000   0.0000   0.0000   0.1544
  -7.400  -0.3981   0.08168   0.07825  -0.0340  1.0000  0.0646  -1.9420   0.0000   0.0000   0.0000   0.1590
  -7.300  -0.4051   0.08084   0.07745  -0.0336  1.0000  0.0649  -1.9718   0.0000   0.0000   0.0000   0.1614
  -7.200  -0.4117   0.07985   0.07650  -0.0337  1.0000  0.0652  -2.0056   0.0000   0.0000   0.0000   0.1627
  -7.100  -0.4178   0.07870   0.07538  -0.0343  1.0000  0.0654  -2.0435   0.0000   0.0000   0.0000   0.1626
  -7.000  -0.4232   0.07730   0.07400  -0.0356  1.0000  0.0657  -2.0877   0.0000   0.0000   0.0000   0.1608
  -6.900  -0.4279   0.07547   0.07220  -0.0378  1.0000  0.0659  -2.1412   0.0000   0.0000   0.0000   0.1566
  -6.800  -0.4317   0.07287   0.06960  -0.0417  1.0000  0.0661  -2.2122   0.0000   0.0000   0.0000   0.1485
  -6.700  -0.4346   0.07033   0.06697  -0.0469  1.0000  0.0666  -2.2984   0.0000   0.0000   0.0000   0.1373
  -6.600  -0.4358   0.06867   0.06521  -0.0498  1.0000  0.0669  -2.3512   0.0000   0.0000   0.0000   0.1311
  -6.500  -0.4357   0.06709   0.06353  -0.0519  1.0000  0.0670  -2.3896   0.0000   0.0000   0.0000   0.1262
  -6.300  -0.4361   0.06986   0.06673  -0.0328  1.0000  0.0742  -2.0336   0.0000   0.0000   0.0000   0.1704
  -5.700  -0.4059   0.05371   0.05031  -0.0558  0.9974  0.0893  -2.1861   0.0000   0.0000   0.0000   0.1084
  -5.600  -0.3933   0.05273   0.04933  -0.0566  0.9960  0.0915  -2.1193   0.0000   0.0000   0.0000   0.1018
  -5.100  -0.2831   0.03143   0.02589  -0.0822  0.9908  0.0490  -2.5497   0.0000   0.0000   0.0000  -0.0466
  -5.000  -0.2603   0.02855   0.02229  -0.0842  0.9905  0.0391  -2.6677   0.0000   0.0000   0.0000  -0.0804
  -4.900  -0.2457   0.02770   0.02141  -0.0849  0.9892  0.0373  -2.5957   0.0000   0.0000   0.0000  -0.1026
  -4.800  -0.2296   0.02576   0.01928  -0.0865  0.9887  0.0359  -2.5611   0.0000   0.0000   0.0000  -0.1341
  -4.700  -0.2131   0.02441   0.01774  -0.0877  0.9878  0.0348  -2.5106   0.0000   0.0000   0.0000  -0.1697
  -4.600  -0.1962   0.02327   0.01642  -0.0889  0.9869  0.0337  -2.4934   0.0000   0.0000   0.0000  -0.2116
  -4.500  -0.1792   0.02227   0.01526  -0.0900  0.9859  0.0329  -2.4760   0.0000   0.0000   0.0000  -0.2616
  -4.400  -0.1619   0.02139   0.01424  -0.0911  0.9849  0.0321  -2.4539   0.0000   0.0000   0.0000  -0.3228
  -4.300  -0.1444   0.02060   0.01334  -0.0923  0.9839  0.0316  -2.4262   0.0000   0.0000   0.0000  -0.4000
  -4.200  -0.1266   0.01990   0.01256  -0.0935  0.9830  0.0313  -2.3908   0.0000   0.0000   0.0000  -0.5005
  -4.100  -0.1114   0.01932   0.01193  -0.0942  0.9808  0.0312  -2.3539   0.0000   0.0000   0.0000  -0.6088
  -4.000  -0.0952   0.01877   0.01135  -0.0952  0.9790  0.0313  -2.3116   0.0000   0.0000   0.0000  -0.7656
  -3.900  -0.0781   0.01827   0.01081  -0.0964  0.9773  0.0315  -2.2654   0.0000   0.0000   0.0000  -1.0017
  -3.800  -0.0605   0.01780   0.01032  -0.0977  0.9759  0.0320  -2.2167   0.0000   0.0000   0.0000  -1.3874
  -3.700  -0.0424   0.01738   0.00986  -0.0991  0.9747  0.0329  -2.1678   0.0000   0.0000   0.0000  -2.1163
  -3.600  -0.0242   0.01701   0.00943  -0.1006  0.9736  0.0342  -2.1225   0.0000   0.0000   0.0000  -3.9575
  -3.500  -0.0097   0.01668   0.00896  -0.1013  0.9714  0.0362  -2.1068   0.0000   0.0000   0.0000  -10.3623
  -3.400   0.0057   0.01640   0.00860  -0.1022  0.9692  0.0387  -2.0802   0.0000   0.0000   0.0000  18.2754
  -3.300   0.0239   0.01579   0.00798  -0.1037  0.9680  0.0517  -2.0986   0.0000   0.0000   0.0000   4.6368
  -3.200   0.0465   0.01404   0.00752  -0.1073  0.9691  0.3267  -2.1506   0.0000   0.0000   0.0000   2.5825
  -3.100   0.0613   0.01405   0.00775  -0.1082  0.9668  0.4010  -2.0649   0.0000   0.0000   0.0000   2.0312
  -3.000   0.0766   0.01419   0.00797  -0.1090  0.9647  0.4392  -1.9642   0.0000   0.0000   0.0000   1.6857
  -2.900   0.0926   0.01435   0.00816  -0.1098  0.9630  0.4631  -1.8560   0.0000   0.0000   0.0000   1.4469
  -2.800   0.1069   0.01438   0.00818  -0.1104  0.9607  0.4728  -1.7557   0.0000   0.0000   0.0000   1.2915
  -2.700   0.1184   0.01440   0.00821  -0.1105  0.9571  0.4803  -1.6660   0.0000   0.0000   0.0000   1.1904
  -2.600   0.1332   0.01444   0.00820  -0.1112  0.9543  0.4889  -1.5634   0.0000   0.0000   0.0000   1.0908
  -2.500   0.1500   0.01447   0.00815  -0.1122  0.9520  0.4981  -1.4535   0.0000   0.0000   0.0000   1.0036
  -2.400   0.1672   0.01443   0.00813  -0.1133  0.9502  0.5065  -1.3421   0.0000   0.0000   0.0000   0.9323
  -2.300   0.1852   0.01444   0.00814  -0.1145  0.9486  0.5156  -1.2282   0.0000   0.0000   0.0000   0.8723
  -2.200   0.1945   0.01448   0.00817  -0.1141  0.9436  0.5232  -1.1503   0.0000   0.0000   0.0000   0.8403
  -2.100   0.2095   0.01452   0.00814  -0.1148  0.9404  0.5320  -1.0518   0.0000   0.0000   0.0000   0.8012
  -2.000   0.2252   0.01446   0.00812  -0.1156  0.9381  0.5396  -0.9508   0.0000   0.0000   0.0000   0.7660
  -1.900   0.2417   0.01445   0.00812  -0.1165  0.9362  0.5477  -0.8468   0.0000   0.0000   0.0000   0.7343
  -1.800   0.2589   0.01446   0.00805  -0.1176  0.9348  0.5566  -0.7160   0.0000   0.0000   0.0000   0.7061
  -1.700   0.2768   0.01448   0.00800  -0.1188  0.9335  0.5650  -0.6186   0.0000   0.0000   0.0000   0.6811
  -1.600   0.2858   0.01445   0.00802  -0.1184  0.9292  0.5710  -0.5523   0.0000   0.0000   0.0000   0.6656
  -1.500   0.2976   0.01444   0.00804  -0.1184  0.9254  0.5778  -0.4857   0.0000   0.0000   0.0000   0.6490
  -1.400   0.3121   0.01442   0.00802  -0.1188  0.9226  0.5859  -0.4957   0.0000   0.0000   0.0000   0.6319
  -1.300   0.3281   0.01440   0.00796  -0.1196  0.9203  0.5943  -0.5065   0.0000   0.0000   0.0000   0.6155
  -1.200   0.3443   0.01429   0.00786  -0.1204  0.9184  0.6013  -0.5175   0.0000   0.0000   0.0000   0.6005
  -1.100   0.3603   0.01418   0.00777  -0.1211  0.9167  0.6074  -0.5284   0.0000   0.0000   0.0000   0.5867
  -1.000   0.3705   0.01417   0.00778  -0.1208  0.9123  0.6129  -0.5361   0.0000   0.0000   0.0000   0.5765
  -0.900   0.3812   0.01415   0.00776  -0.1206  0.9076  0.6187  -0.5440   0.0000   0.0000   0.0000   0.5667
  -0.800   0.3949   0.01410   0.00768  -0.1210  0.9044  0.6250  -0.5537   0.0000   0.0000   0.0000   0.5565
  -0.700   0.4096   0.01401   0.00757  -0.1215  0.9018  0.6307  -0.5650   0.0000   0.0000   0.0000   0.5466
  -0.600   0.4238   0.01386   0.00746  -0.1218  0.8995  0.6361  -0.5768   0.0000   0.0000   0.0000   0.5373
  -0.500   0.4385   0.01374   0.00735  -0.1222  0.8975  0.6418  -0.5889   0.0000   0.0000   0.0000   0.5285
  -0.400   0.4475   0.01374   0.00737  -0.1217  0.8922  0.6472  -0.5975   0.0000   0.0000   0.0000   0.5216
  -0.300   0.4582   0.01370   0.00733  -0.1215  0.8874  0.6529  -0.6071   0.0000   0.0000   0.0000   0.5146
  -0.200   0.4713   0.01362   0.00723  -0.1217  0.8837  0.6586  -0.6182   0.0000   0.0000   0.0000   0.5076
  -0.100   0.4845   0.01348   0.00710  -0.1218  0.8807  0.6636  -0.6296   0.0000   0.0000   0.0000   0.5007
   0.000   0.4976   0.01333   0.00698  -0.1219  0.8781  0.6688  -0.6409   0.0000   0.0000   0.0000   0.4941
   0.100   0.5104   0.01323   0.00690  -0.1219  0.8753  0.6747  -0.6521   0.0000   0.0000   0.0000   0.4879
   0.200   0.5183   0.01326   0.00695  -0.1212  0.8688  0.6807  -0.6600   0.0000   0.0000   0.0000   0.4829
   0.300   0.5295   0.01322   0.00690  -0.1211  0.8642  0.6874  -0.6716   0.0000   0.0000   0.0000   0.4775
   0.400   0.5414   0.01312   0.00682  -0.1210  0.8605  0.6935  -0.6843   0.0000   0.0000   0.0000   0.4722
   0.500   0.5532   0.01299   0.00672  -0.1208  0.8573  0.6995  -0.6970   0.0000   0.0000   0.0000   0.4670
   0.600   0.5656   0.01287   0.00661  -0.1206  0.8544  0.7060  -0.7124   0.0000   0.0000   0.0000   0.4619
   0.700   0.5748   0.01286   0.00664  -0.1202  0.8484  0.7126  -0.7292   0.0000   0.0000   0.0000   0.4576
   0.800   0.5851   0.01282   0.00660  -0.1199  0.8425  0.7195  -0.7471   0.0000   0.0000   0.0000   0.4532
   0.900   0.5960   0.01270   0.00650  -0.1195  0.8377  0.7255  -0.7659   0.0000   0.0000   0.0000   0.4488
   1.000   0.6074   0.01256   0.00640  -0.1192  0.8337  0.7318  -0.7852   0.0000   0.0000   0.0000   0.4444
   1.100   0.6193   0.01244   0.00627  -0.1189  0.8301  0.7390  -0.8053   0.0000   0.0000   0.0000   0.4402
   1.200   0.6284   0.01243   0.00629  -0.1185  0.8227  0.7465  -0.8222   0.0000   0.0000   0.0000   0.4366
   1.300   0.6384   0.01234   0.00622  -0.1180  0.8160  0.7535  -0.8404   0.0000   0.0000   0.0000   0.4328
   1.400   0.6488   0.01218   0.00609  -0.1175  0.8104  0.7609  -0.8593   0.0000   0.0000   0.0000   0.4289
   1.500   0.6601   0.01204   0.00594  -0.1170  0.8055  0.7694  -0.8792   0.0000   0.0000   0.0000   0.4250
   1.600   0.6697   0.01200   0.00592  -0.1166  0.7977  0.7784  -0.8970   0.0000   0.0000   0.0000   0.4218
   1.700   0.6786   0.01188   0.00585  -0.1159  0.7900  0.7871  -0.9146   0.0000   0.0000   0.0000   0.4183
   1.800   0.6889   0.01175   0.00572  -0.1153  0.7834  0.7979  -0.9336   0.0000   0.0000   0.0000   0.4148
   2.000   0.7077   0.01155   0.00557  -0.1140  0.7688  0.8225  -0.9700   0.0000   0.0000   0.0000   0.4084
   2.100   0.7162   0.01143   0.00550  -0.1132  0.7608  0.8384  -0.9875   0.0000   0.0000   0.0000   0.4052
   2.200   0.7246   0.01127   0.00536  -0.1122  0.7543  0.8597  -1.0050   0.0000   0.0000   0.0000   0.4019
   2.300   0.7317   0.01109   0.00524  -0.1109  0.7483  0.8961  -1.0213   0.0000   0.0000   0.0000   0.3986
   2.400   0.7431   0.01098   0.00519  -0.1109  0.7396  1.0000  -1.0436   0.0000   0.0000   0.0000   0.3962
   2.500   0.7558   0.01100   0.00517  -0.1112  0.7320  1.0000  -1.0716   0.0000   0.0000   0.0000   0.3940
   2.600   0.7685   0.01100   0.00517  -0.1115  0.7255  1.0000  -1.0999   0.0000   0.0000   0.0000   0.3918
   2.700   0.7808   0.01104   0.00515  -0.1116  0.7188  1.0000  -1.1278   0.0000   0.0000   0.0000   0.3896
   2.800   0.7920   0.01108   0.00520  -0.1117  0.7097  1.0000  -1.1543   0.0000   0.0000   0.0000   0.3876
   2.900   0.8035   0.01111   0.00518  -0.1116  0.7011  1.0000  -1.1815   0.0000   0.0000   0.0000   0.3854
   3.000   0.8151   0.01114   0.00513  -0.1116  0.6933  1.0000  -1.2094   0.0000   0.0000   0.0000   0.3832
   3.100   0.8261   0.01120   0.00517  -0.1115  0.6840  1.0000  -1.2361   0.0000   0.0000   0.0000   0.3812
   3.200   0.8369   0.01124   0.00518  -0.1114  0.6740  1.0000  -1.2631   0.0000   0.0000   0.0000   0.3792
   3.300   0.8480   0.01129   0.00515  -0.1112  0.6647  1.0000  -1.2906   0.0000   0.0000   0.0000   0.3772
   3.400   0.8588   0.01136   0.00518  -0.1110  0.6552  1.0000  -1.3238   0.0000   0.0000   0.0000   0.3752
   3.500   0.8694   0.01143   0.00524  -0.1109  0.6448  1.0000  -1.3621   0.0000   0.0000   0.0000   0.3734
   3.600   0.8802   0.01151   0.00525  -0.1107  0.6351  1.0000  -1.4011   0.0000   0.0000   0.0000   0.3715
   3.700   0.8909   0.01160   0.00528  -0.1105  0.6260  1.0000  -1.4404   0.0000   0.0000   0.0000   0.3697
   3.800   0.9014   0.01168   0.00536  -0.1103  0.6158  1.0000  -1.4793   0.0000   0.0000   0.0000   0.3679
   3.900   0.9119   0.01178   0.00541  -0.1101  0.6059  1.0000  -1.5187   0.0000   0.0000   0.0000   0.3662
   4.000   0.9225   0.01190   0.00544  -0.1099  0.5970  1.0000  -1.5586   0.0000   0.0000   0.0000   0.3645
   4.100   0.9330   0.01199   0.00555  -0.1098  0.5872  1.0000  -1.5981   0.0000   0.0000   0.0000   0.3629
   4.200   0.9434   0.01209   0.00563  -0.1096  0.5772  1.0000  -1.6384   0.0000   0.0000   0.0000   0.3613
   4.300   0.9536   0.01224   0.00579  -0.1093  0.5674  1.0000  -1.6871   0.0000   0.0000   0.0000   0.3596
   4.400   0.9640   0.01235   0.00591  -0.1091  0.5575  1.0000  -1.7350   0.0000   0.0000   0.0000   0.3581
   4.500   0.9742   0.01247   0.00601  -0.1089  0.5468  1.0000  -1.7829   0.0000   0.0000   0.0000   0.3566
   4.600   0.9842   0.01262   0.00609  -0.1086  0.5366  1.0000  -1.8308   0.0000   0.0000   0.0000   0.3550
   4.700   0.9944   0.01275   0.00621  -0.1084  0.5267  1.0000  -1.8792   0.0000   0.0000   0.0000   0.3536
   4.800   1.0046   0.01287   0.00634  -0.1082  0.5157  1.0000  -1.9276   0.0000   0.0000   0.0000   0.3522
   4.900   1.0144   0.01303   0.00644  -0.1079  0.5048  1.0000  -1.9759   0.0000   0.0000   0.0000   0.3507
   5.000   1.0244   0.01318   0.00657  -0.1077  0.4945  1.0000  -2.0246   0.0000   0.0000   0.0000   0.3493
   5.100   1.0344   0.01331   0.00670  -0.1074  0.4830  1.0000  -2.0735   0.0000   0.0000   0.0000   0.3480
   5.200   1.0439   0.01350   0.00682  -0.1071  0.4716  1.0000  -2.1218   0.0000   0.0000   0.0000   0.3466
   5.300   1.0538   0.01365   0.00696  -0.1068  0.4604  1.0000  -2.1709   0.0000   0.0000   0.0000   0.3453
   5.400   1.0635   0.01380   0.00711  -0.1066  0.4474  1.0000  -2.2199   0.0000   0.0000   0.0000   0.3440
   5.500   1.0725   0.01403   0.00725  -0.1062  0.4347  1.0000  -2.2677   0.0000   0.0000   0.0000   0.3427
   5.600   1.0823   0.01417   0.00741  -0.1059  0.4210  1.0000  -2.3172   0.0000   0.0000   0.0000   0.3414
   5.700   1.0909   0.01442   0.00756  -0.1055  0.4057  1.0000  -2.3645   0.0000   0.0000   0.0000   0.3401
   5.800   1.1001   0.01461   0.00773  -0.1051  0.3891  1.0000  -2.4131   0.0000   0.0000   0.0000   0.3389
   6.000   1.1169   0.01513   0.00809  -0.1043  0.3519  1.0000  -2.5071   0.0000   0.0000   0.0000   0.3364
   6.100   1.1249   0.01544   0.00836  -0.1038  0.3336  1.0000  -2.5522   0.0000   0.0000   0.0000   0.3352
   6.200   1.1329   0.01575   0.00857  -0.1033  0.3121  1.0000  -2.5974   0.0000   0.0000   0.0000   0.3340
   6.300   1.1408   0.01609   0.00881  -0.1029  0.2916  1.0000  -2.6428   0.0000   0.0000   0.0000   0.3329
   6.400   1.1483   0.01646   0.00908  -0.1024  0.2719  1.0000  -2.6872   0.0000   0.0000   0.0000   0.3317
   6.600   1.1635   0.01725   0.00966  -0.1014  0.2335  1.0000  -2.7755   0.0000   0.0000   0.0000   0.3295
   6.700   1.1707   0.01768   0.00999  -0.1009  0.2174  1.0000  -2.8182   0.0000   0.0000   0.0000   0.3284
   6.800   1.1783   0.01809   0.01032  -0.1004  0.2010  1.0000  -2.8618   0.0000   0.0000   0.0000   0.3273
   6.900   1.1858   0.01852   0.01067  -0.0999  0.1872  1.0000  -2.9048   0.0000   0.0000   0.0000   0.3262
   7.000   1.1923   0.01903   0.01104  -0.0994  0.1738  1.0000  -2.9808   0.0000   0.0000   0.0000   0.3252
   7.100   1.2005   0.01937   0.01135  -0.0990  0.1608  1.0000  -3.0657   0.0000   0.0000   0.0000   0.3241
   7.200   1.2072   0.01984   0.01170  -0.0985  0.1479  1.0000  -3.1461   0.0000   0.0000   0.0000   0.3232
   7.300   1.2155   0.02016   0.01197  -0.0982  0.1368  1.0000  -3.2357   0.0000   0.0000   0.0000   0.3222
   7.400   1.2217   0.02067   0.01232  -0.0977  0.1260  1.0000  -3.3169   0.0000   0.0000   0.0000   0.3213
   7.500   1.2309   0.02088   0.01255  -0.0975  0.1162  1.0000  -3.4141   0.0000   0.0000   0.0000   0.3203
   7.600   1.2386   0.02124   0.01283  -0.0971  0.1065  1.0000  -3.5279   0.0000   0.0000   0.0000   0.3194
   7.700   1.2466   0.02157   0.01312  -0.0968  0.0994  1.0000  -3.6479   0.0000   0.0000   0.0000   0.3185
   7.800   1.2546   0.02189   0.01341  -0.0964  0.0939  1.0000  -3.7692   0.0000   0.0000   0.0000   0.3176
   7.900   1.2620   0.02228   0.01375  -0.0960  0.0896  1.0000  -3.8854   0.0000   0.0000   0.0000   0.3167
   8.000   1.2684   0.02275   0.01418  -0.0954  0.0853  1.0000  -3.9946   0.0000   0.0000   0.0000   0.3157
   8.100   1.2770   0.02301   0.01449  -0.0950  0.0824  1.0000  -4.1189   0.0000   0.0000   0.0000   0.3148
   8.200   1.2857   0.02325   0.01479  -0.0947  0.0792  1.0000  -4.2456   0.0000   0.0000   0.0000   0.3139
   8.300   1.2937   0.02356   0.01521  -0.0942  0.0762  1.0000  -4.3767   0.0000   0.0000   0.0000   0.3129
   8.400   1.3016   0.02387   0.01555  -0.0938  0.0730  1.0000  -4.5022   0.0000   0.0000   0.0000   0.3120
   8.500   1.3089   0.02422   0.01590  -0.0934  0.0700  1.0000  -4.6237   0.0000   0.0000   0.0000   0.3111
   8.600   1.3154   0.02465   0.01632  -0.0928  0.0673  1.0000  -4.7382   0.0000   0.0000   0.0000   0.3102
   8.700   1.3233   0.02494   0.01664  -0.0924  0.0653  1.0000  -4.8615   0.0000   0.0000   0.0000   0.3093
   8.800   1.3316   0.02518   0.01692  -0.0920  0.0625  1.0000  -4.9907   0.0000   0.0000   0.0000   0.3085
   8.900   1.3395   0.02545   0.01713  -0.0917  0.0582  1.0000  -5.1210   0.0000   0.0000   0.0000   0.3077
   9.000   1.3453   0.02590   0.01749  -0.0912  0.0533  1.0000  -5.2341   0.0000   0.0000   0.0000   0.3069
   9.100   1.3529   0.02619   0.01781  -0.0908  0.0504  1.0000  -5.3539   0.0000   0.0000   0.0000   0.3060
   9.200   1.3615   0.02639   0.01809  -0.0904  0.0478  1.0000  -5.4778   0.0000   0.0000   0.0000   0.3052
   9.300   1.3695   0.02665   0.01841  -0.0900  0.0445  1.0000  -5.5947   0.0000   0.0000   0.0000   0.3044
   9.400   1.3766   0.02698   0.01877  -0.0895  0.0409  1.0000  -5.7023   0.0000   0.0000   0.0000   0.3035
   9.500   1.3826   0.02742   0.01921  -0.0889  0.0376  1.0000  -5.7978   0.0000   0.0000   0.0000   0.3026
   9.600   1.3893   0.02779   0.01963  -0.0883  0.0338  1.0000  -5.8919   0.0000   0.0000   0.0000   0.3017
   9.700   1.3938   0.02837   0.02012  -0.0876  0.0282  1.0000  -5.9754   0.0000   0.0000   0.0000   0.3008
   9.800   1.3982   0.02891   0.02070  -0.0867  0.0241  1.0000  -6.0467   0.0000   0.0000   0.0000   0.2998
   9.900   1.4014   0.02952   0.02132  -0.0857  0.0199  1.0000  -6.1109   0.0000   0.0000   0.0000   0.2988
  10.000   1.4029   0.03029   0.02206  -0.0845  0.0170  1.0000  -6.1641   0.0000   0.0000   0.0000   0.2978
  10.100   1.4059   0.03091   0.02275  -0.0834  0.0153  1.0000  -6.2242   0.0000   0.0000   0.0000   0.2967
  10.200   1.4085   0.03156   0.02346  -0.0824  0.0140  1.0000  -6.2847   0.0000   0.0000   0.0000   0.2957
  10.300   1.4108   0.03224   0.02419  -0.0813  0.0130  1.0000  -6.3458   0.0000   0.0000   0.0000   0.2947
  10.400   1.4127   0.03294   0.02494  -0.0803  0.0123  1.0000  -6.4072   0.0000   0.0000   0.0000   0.2938
  10.500   1.4142   0.03368   0.02572  -0.0792  0.0117  1.0000  -6.4667   0.0000   0.0000   0.0000   0.2928
  10.600   1.4153   0.03447   0.02657  -0.0781  0.0112  1.0000  -6.5221   0.0000   0.0000   0.0000   0.2918
  10.700   1.4157   0.03532   0.02749  -0.0771  0.0108  1.0000  -6.5710   0.0000   0.0000   0.0000   0.2909
  10.800   1.4153   0.03622   0.02848  -0.0759  0.0105  1.0000  -6.6134   0.0000   0.0000   0.0000   0.2900
  10.900   1.4144   0.03720   0.02954  -0.0749  0.0103  1.0000  -6.6500   0.0000   0.0000   0.0000   0.2891
  11.000   1.4128   0.03824   0.03068  -0.0738  0.0101  1.0000  -6.6817   0.0000   0.0000   0.0000   0.2882
  11.100   1.4108   0.03935   0.03188  -0.0727  0.0099  1.0000  -6.7091   0.0000   0.0000   0.0000   0.2874
  11.200   1.4084   0.04052   0.03315  -0.0718  0.0098  1.0000  -6.7329   0.0000   0.0000   0.0000   0.2866
  11.300   1.4071   0.04159   0.03433  -0.0709  0.0097  1.0000  -6.7630   0.0000   0.0000   0.0000   0.2859
  11.400   1.4059   0.04268   0.03550  -0.0701  0.0096  1.0000  -6.7995   0.0000   0.0000   0.0000   0.2852
  11.500   1.4046   0.04380   0.03672  -0.0693  0.0095  1.0000  -6.8361   0.0000   0.0000   0.0000   0.2845
  11.600   1.4032   0.04497   0.03797  -0.0686  0.0095  1.0000  -6.8721   0.0000   0.0000   0.0000   0.2839
  11.700   1.4016   0.04619   0.03927  -0.0680  0.0094  1.0000  -6.9062   0.0000   0.0000   0.0000   0.2834
  11.800   1.3999   0.04744   0.04062  -0.0674  0.0094  1.0000  -6.9391   0.0000   0.0000   0.0000   0.2828
  11.900   1.3979   0.04875   0.04201  -0.0669  0.0094  1.0000  -6.9700   0.0000   0.0000   0.0000   0.2823
  12.000   1.3959   0.05009   0.04344  -0.0664  0.0093  1.0000  -6.9995   0.0000   0.0000   0.0000   0.2819
  12.100   1.3937   0.05148   0.04492  -0.0660  0.0093  1.0000  -7.0271   0.0000   0.0000   0.0000   0.2815
  12.200   1.3913   0.05292   0.04644  -0.0656  0.0093  1.0000  -7.0523   0.0000   0.0000   0.0000   0.2811
  12.300   1.3887   0.05438   0.04800  -0.0653  0.0093  1.0000  -7.0757   0.0000   0.0000   0.0000   0.2808
  12.400   1.3858   0.05590   0.04961  -0.0650  0.0092  1.0000  -7.0961   0.0000   0.0000   0.0000   0.2805
  12.500   1.3828   0.05747   0.05126  -0.0647  0.0092  1.0000  -7.1151   0.0000   0.0000   0.0000   0.2802
  12.600   1.3798   0.05909   0.05297  -0.0646  0.0092  1.0000  -7.1324   0.0000   0.0000   0.0000   0.2801
  12.700   1.3765   0.06077   0.05474  -0.0645  0.0092  1.0000  -7.1473   0.0000   0.0000   0.0000   0.2799
  12.800   1.3732   0.06249   0.05656  -0.0644  0.0092  1.0000  -7.1608   0.0000   0.0000   0.0000   0.2798
  12.900   1.3696   0.06429   0.05844  -0.0645  0.0092  1.0000  -7.1710   0.0000   0.0000   0.0000   0.2798
  13.000   1.3659   0.06614   0.06038  -0.0646  0.0092  1.0000  -7.1790   0.0000   0.0000   0.0000   0.2798
  13.100   1.3619   0.06805   0.06239  -0.0648  0.0092  1.0000  -7.1842   0.0000   0.0000   0.0000   0.2799
  13.200   1.3576   0.07004   0.06447  -0.0651  0.0092  1.0000  -7.1860   0.0000   0.0000   0.0000   0.2801
  13.300   1.3532   0.07207   0.06660  -0.0655  0.0092  1.0000  -7.1857   0.0000   0.0000   0.0000   0.2804
  13.400   1.3485   0.07419   0.06882  -0.0659  0.0092  1.0000  -7.1816   0.0000   0.0000   0.0000   0.2807
  13.500   1.3436   0.07636   0.07108  -0.0665  0.0092  1.0000  -7.1754   0.0000   0.0000   0.0000   0.2811
  13.600   1.3384   0.07862   0.07343  -0.0671  0.0092  1.0000  -7.1655   0.0000   0.0000   0.0000   0.2816
  13.700   1.3331   0.08094   0.07584  -0.0679  0.0092  1.0000  -7.1528   0.0000   0.0000   0.0000   0.2822
  13.800   1.3274   0.08333   0.07833  -0.0687  0.0092  1.0000  -7.1366   0.0000   0.0000   0.0000   0.2828
  13.900   1.3214   0.08579   0.08088  -0.0696  0.0092  1.0000  -7.1169   0.0000   0.0000   0.0000   0.2836
  14.000   1.3154   0.08833   0.08351  -0.0706  0.0092  1.0000  -7.0948   0.0000   0.0000   0.0000   0.2844
  14.100   1.3091   0.09098   0.08625  -0.0718  0.0092  1.0000  -7.0688   0.0000   0.0000   0.0000   0.2854
  14.200   1.3029   0.09370   0.08906  -0.0730  0.0092  1.0000  -7.0406   0.0000   0.0000   0.0000   0.2864
  14.300   1.2964   0.09655   0.09199  -0.0744  0.0093  1.0000  -7.0081   0.0000   0.0000   0.0000   0.2876
  14.400   1.2899   0.09944   0.09498  -0.0758  0.0093  1.0000  -6.9738   0.0000   0.0000   0.0000   0.2889
  14.500   1.2832   0.10247   0.09809  -0.0775  0.0093  1.0000  -6.9345   0.0000   0.0000   0.0000   0.2903
  14.600   1.2765   0.10555   0.10126  -0.0791  0.0093  1.0000  -6.8930   0.0000   0.0000   0.0000   0.2917
  14.700   1.2696   0.10877   0.10456  -0.0809  0.0093  1.0000  -6.8462   0.0000   0.0000   0.0000   0.2934
  14.800   1.2627   0.11203   0.10790  -0.0828  0.0094  1.0000  -6.7972   0.0000   0.0000   0.0000   0.2950
  14.900   1.2555   0.11543   0.11138  -0.0848  0.0094  1.0000  -6.7422   0.0000   0.0000   0.0000   0.2969
  15.000   1.2484   0.11889   0.11491  -0.0869  0.0094  1.0000  -6.6842   0.0000   0.0000   0.0000   0.2988
  15.100   1.2411   0.12248   0.11858  -0.0891  0.0094  1.0000  -6.6201   0.0000   0.0000   0.0000   0.3008
  15.200   1.2337   0.12613   0.12230  -0.0913  0.0094  1.0000  -6.5523   0.0000   0.0000   0.0000   0.3030
  15.300   1.2262   0.12992   0.12616  -0.0937  0.0095  1.0000  -6.4776   0.0000   0.0000   0.0000   0.3052
  15.400   1.2186   0.13381   0.13012  -0.0961  0.0095  1.0000  -6.3969   0.0000   0.0000   0.0000   0.3076
  15.500   1.2109   0.13779   0.13417  -0.0986  0.0095  1.0000  -6.3100   0.0000   0.0000   0.0000   0.3101
  15.600   1.2029   0.14193   0.13837  -0.1013  0.0096  1.0000  -6.2144   0.0000   0.0000   0.0000   0.3127
  15.700   1.1949   0.14618   0.14268  -0.1039  0.0096  1.0000  -6.1110   0.0000   0.0000   0.0000   0.3155
  15.800   1.1866   0.15061   0.14717  -0.1067  0.0097  1.0000  -5.9957   0.0000   0.0000   0.0000   0.3184
  15.900   1.1781   0.15517   0.15178  -0.1095  0.0097  1.0000  -5.8702   0.0000   0.0000   0.0000   0.3214
  16.000   1.1694   0.15993   0.15658  -0.1124  0.0097  1.0000  -5.7306   0.0000   0.0000   0.0000   0.3245
  16.100   1.1637   0.16394   0.16067  -0.1148  0.0098  1.0000  -5.6373   0.0000   0.0000   0.0000   0.3271
  16.200   1.1587   0.16775   0.16452  -0.1171  0.0099  1.0000  -5.5471   0.0000   0.0000   0.0000   0.3295
  16.300   1.1532   0.17177   0.16858  -0.1196  0.0100  1.0000  -5.4401   0.0000   0.0000   0.0000   0.3320
  16.400   1.1473   0.17610   0.17293  -0.1221  0.0101  1.0000  -5.3118   0.0000   0.0000   0.0000   0.3348
  16.500   1.1406   0.18083   0.17765  -0.1248  0.0103  1.0000  -5.1559   0.0000   0.0000   0.0000   0.3379
  16.600   1.0831   0.20880   0.20557  -0.1374  0.0128  1.0000  -3.4006   0.0000   0.0000   0.0000   0.3570
  16.700   1.0804   0.21294   0.20969  -0.1392  0.0131  1.0000  -3.2552   0.0000   0.0000   0.0000   0.3590
  16.800   1.0789   0.21657   0.21330  -0.1407  0.0133  1.0000  -3.1438   0.0000   0.0000   0.0000   0.3606
  16.900   1.0781   0.21991   0.21662  -0.1422  0.0136  1.0000  -3.0522   0.0000   0.0000   0.0000   0.3620
  17.000   1.0777   0.22304   0.21974  -0.1435  0.0138  1.0000  -2.9744   0.0000   0.0000   0.0000   0.3632
  17.100   1.0777   0.22601   0.22271  -0.1447  0.0140  1.0000  -2.9072   0.0000   0.0000   0.0000   0.3643
  17.200   1.0780   0.22887   0.22556  -0.1459  0.0143  1.0000  -2.8484   0.0000   0.0000   0.0000   0.3652
  17.300   1.0785   0.23161   0.22829  -0.1470  0.0145  1.0000  -2.7970   0.0000   0.0000   0.0000   0.3661
  17.400   1.0792   0.23426   0.23094  -0.1481  0.0147  1.0000  -2.7521   0.0000   0.0000   0.0000   0.3669
  17.500   1.0801   0.23683   0.23350  -0.1491  0.0150  1.0000  -2.7132   0.0000   0.0000   0.0000   0.3676
  17.600   1.0811   0.23932   0.23599  -0.1500  0.0152  1.0000  -2.6797   0.0000   0.0000   0.0000   0.3683
  17.700   1.0822   0.24174   0.23841  -0.1510  0.0155  1.0000  -2.6516   0.0000   0.0000   0.0000   0.3688
  17.800   1.0834   0.24409   0.24076  -0.1518  0.0158  1.0000  -2.6287   0.0000   0.0000   0.0000   0.3693
  17.900   1.0846   0.24638   0.24305  -0.1526  0.0160  1.0000  -2.6110   0.0000   0.0000   0.0000   0.3698
  18.000   1.0858   0.24862   0.24528  -0.1533  0.0164  1.0000  -2.5990   0.0000   0.0000   0.0000   0.3701
  18.100   1.0868   0.25078   0.24744  -0.1538  0.0168  1.0000  -2.5974   0.0000   0.0000   0.0000   0.3702
  18.800   1.0933   0.27452   0.27119  -0.1624  0.0289  1.0000  -2.0045   0.0000   0.0000   0.0000   0.3768
  18.900   1.0950   0.27675   0.27342  -0.1632  0.0289  1.0000  -1.9958   0.0000   0.0000   0.0000   0.3772
  19.000   1.0967   0.27895   0.27562  -0.1639  0.0288  1.0000  -1.9896   0.0000   0.0000   0.0000   0.3775
  19.100   1.0985   0.28112   0.27780  -0.1647  0.0287  1.0000  -1.9855   0.0000   0.0000   0.0000   0.3778
  19.200   1.1003   0.28328   0.27996  -0.1654  0.0286  1.0000  -1.9835   0.0000   0.0000   0.0000   0.3780
  19.300   1.1021   0.28541   0.28209  -0.1661  0.0285  1.0000  -1.9835   0.0000   0.0000   0.0000   0.3782
  19.400   1.1040   0.28753   0.28422  -0.1667  0.0284  1.0000  -1.9857   0.0000   0.0000   0.0000   0.3784
  19.500   1.1059   0.28964   0.28633  -0.1673  0.0283  1.0000  -1.9901   0.0000   0.0000   0.0000   0.3785
  19.600   1.1078   0.29174   0.28843  -0.1678  0.0281  1.0000  -1.9969   0.0000   0.0000   0.0000   0.3785
  19.700   1.1098   0.29384   0.29054  -0.1683  0.0280  1.0000  -2.0064   0.0000   0.0000   0.0000   0.3785
  19.800   1.1119   0.29595   0.29265  -0.1687  0.0279  1.0000  -2.0189   0.0000   0.0000   0.0000   0.3784
  19.900   1.1141   0.29810   0.29481  -0.1690  0.0277  1.0000  -2.0348   0.0000   0.0000   0.0000   0.3781
  20.000   1.1165   0.30032   0.29704  -0.1692  0.0275  1.0000  -2.0554   0.0000   0.0000   0.0000   0.3778
  20.100   1.1192   0.30269   0.29942  -0.1691  0.0274  1.0000  -2.0819   0.0000   0.0000   0.0000   0.3772
  20.200   1.1217   0.30543   0.30217  -0.1689  0.0272  1.0000  -2.1096   0.0000   0.0000   0.0000   0.3765
  20.300   1.1203   0.31151   0.30822  -0.1687  0.0267  1.0000  -2.0785   0.0000   0.0000   0.0000   0.3764
  20.400   1.1216   0.31390   0.31062  -0.1694  0.0266  1.0000  -2.0676   0.0000   0.0000   0.0000   0.3767
  20.500   1.1229   0.31629   0.31300  -0.1702  0.0266  1.0000  -2.0566   0.0000   0.0000   0.0000   0.3771
  20.600   1.1241   0.31866   0.31538  -0.1710  0.0266  1.0000  -2.0457   0.0000   0.0000   0.0000   0.3775
  20.700   1.1253   0.32102   0.31774  -0.1718  0.0266  1.0000  -2.0346   0.0000   0.0000   0.0000   0.3778
  20.800   1.1265   0.32337   0.32009  -0.1726  0.0266  1.0000  -2.0235   0.0000   0.0000   0.0000   0.3782
  20.900   1.1276   0.32570   0.32243  -0.1734  0.0266  1.0000  -2.0124   0.0000   0.0000   0.0000   0.3786
  21.000   1.1286   0.32802   0.32475  -0.1742  0.0265  1.0000  -2.0011   0.0000   0.0000   0.0000   0.3790
  21.100   1.1296   0.33032   0.32705  -0.1749  0.0265  1.0000  -1.9898   0.0000   0.0000   0.0000   0.3794
  21.200   1.1306   0.33261   0.32934  -0.1757  0.0265  1.0000  -1.9782   0.0000   0.0000   0.0000   0.3798
  21.300   1.1315   0.33487   0.33161  -0.1765  0.0265  1.0000  -1.9664   0.0000   0.0000   0.0000   0.3802
  21.400   1.1320   0.33711   0.33385  -0.1774  0.0264  1.0000  -1.9499   0.0000   0.0000   0.0000   0.3807
  21.500   1.1325   0.33931   0.33605  -0.1783  0.0264  1.0000  -1.9328   0.0000   0.0000   0.0000   0.3813
  21.600   1.1328   0.34148   0.33823  -0.1792  0.0264  1.0000  -1.9145   0.0000   0.0000   0.0000   0.3819
  21.700   1.1328   0.34361   0.34035  -0.1802  0.0263  1.0000  -1.8932   0.0000   0.0000   0.0000   0.3826
  21.800   1.1327   0.34571   0.34245  -0.1812  0.0263  1.0000  -1.8705   0.0000   0.0000   0.0000   0.3834
  21.900   1.1326   0.34780   0.34454  -0.1823  0.0262  1.0000  -1.8469   0.0000   0.0000   0.0000   0.3842
  22.000   1.1325   0.34987   0.34665  -0.1834  0.0261  1.0000  -1.8205   0.0000   0.0000   0.0000   0.3850
  22.100   1.1324   0.35194   0.34873  -0.1845  0.0260  1.0000  -1.7938   0.0000   0.0000   0.0000   0.3858
  22.200   1.1324   0.35403   0.35082  -0.1856  0.0259  1.0000  -1.7655   0.0000   0.0000   0.0000   0.3866
  22.300   1.1325   0.35617   0.35295  -0.1867  0.0257  1.0000  -1.7361   0.0000   0.0000   0.0000   0.3875
  22.400   1.1327   0.35838   0.35517  -0.1878  0.0254  1.0000  -1.7077   0.0000   0.0000   0.0000   0.3882
  22.500   1.1330   0.36067   0.35746  -0.1887  0.0250  1.0000  -1.6840   0.0000   0.0000   0.0000   0.3889
  22.600   1.1331   0.36299   0.35979  -0.1894  0.0246  1.0000  -1.6656   0.0000   0.0000   0.0000   0.3893
  22.700   1.1330   0.36531   0.36212  -0.1900  0.0243  1.0000  -1.6511   0.0000   0.0000   0.0000   0.3897
  22.800   1.1326   0.36761   0.36443  -0.1905  0.0239  1.0000  -1.6390   0.0000   0.0000   0.0000   0.3900
  22.900   1.1321   0.36990   0.36672  -0.1910  0.0236  1.0000  -1.6284   0.0000   0.0000   0.0000   0.3903
  23.000   1.1312   0.37216   0.36899  -0.1913  0.0233  1.0000  -1.6188   0.0000   0.0000   0.0000   0.3906
  23.100   1.1300   0.37438   0.37122  -0.1916  0.0230  1.0000  -1.6095   0.0000   0.0000   0.0000   0.3909
  23.200   1.1284   0.37656   0.37341  -0.1918  0.0227  1.0000  -1.6003   0.0000   0.0000   0.0000   0.3911
  23.300   1.1262   0.37867   0.37553  -0.1919  0.0224  1.0000  -1.5906   0.0000   0.0000   0.0000   0.3914
  23.400   1.1231   0.38070   0.37757  -0.1918  0.0221  1.0000  -1.5800   0.0000   0.0000   0.0000   0.3916
  23.500   1.1187   0.38258   0.37946  -0.1915  0.0219  1.0000  -1.5670   0.0000   0.0000   0.0000   0.3919
  23.600   1.1111   0.38409   0.38099  -0.1906  0.0217  1.0000  -1.5478   0.0000   0.0000   0.0000   0.3922
  23.800   0.9334   0.34320   0.34039  -0.1609  0.0231  1.0000  -1.1790   0.0000   0.0000   0.0000   0.3954
  23.900   0.9294   0.34293   0.34014  -0.1606  0.0228  1.0000  -1.1658   0.0000   0.0000   0.0000   0.3957
  24.000   0.9257   0.34272   0.33994  -0.1603  0.0225  1.0000  -1.1538   0.0000   0.0000   0.0000   0.3960
  24.100   0.9222   0.34255   0.33978  -0.1601  0.0222  1.0000  -1.1429   0.0000   0.0000   0.0000   0.3963
  24.200   0.9190   0.34241   0.33965  -0.1599  0.0220  1.0000  -1.1328   0.0000   0.0000   0.0000   0.3966
  24.300   0.9159   0.34230   0.33955  -0.1597  0.0217  1.0000  -1.1236   0.0000   0.0000   0.0000   0.3968
  24.400   0.9130   0.34221   0.33948  -0.1595  0.0215  1.0000  -1.1152   0.0000   0.0000   0.0000   0.3971
  24.500   0.9103   0.34215   0.33943  -0.1594  0.0212  1.0000  -1.1076   0.0000   0.0000   0.0000   0.3973
  24.600   0.9078   0.34211   0.33940  -0.1592  0.0210  1.0000  -1.1007   0.0000   0.0000   0.0000   0.3976
  24.700   0.9054   0.34209   0.33939  -0.1591  0.0207  1.0000  -1.0946   0.0000   0.0000   0.0000   0.3978
  24.800   0.9031   0.34208   0.33939  -0.1591  0.0205  1.0000  -1.0891   0.0000   0.0000   0.0000   0.3980
  24.900   0.9009   0.34207   0.33939  -0.1590  0.0203  1.0000  -1.0844   0.0000   0.0000   0.0000   0.3982
  25.000   0.8988   0.34208   0.33941  -0.1589  0.0201  1.0000  -1.0804   0.0000   0.0000   0.0000   0.3984
  25.100   0.8968   0.34209   0.33944  -0.1589  0.0199  1.0000  -1.0771   0.0000   0.0000   0.0000   0.3986
  25.200   0.8949   0.34212   0.33948  -0.1588  0.0196  1.0000  -1.0747   0.0000   0.0000   0.0000   0.3988
  25.300   0.8931   0.34214   0.33951  -0.1588  0.0194  1.0000  -1.0730   0.0000   0.0000   0.0000   0.3990
  25.400   0.8914   0.34216   0.33955  -0.1587  0.0192  1.0000  -1.0722   0.0000   0.0000   0.0000   0.3991
  25.500   0.8897   0.34218   0.33958  -0.1587  0.0191  1.0000  -1.0723   0.0000   0.0000   0.0000   0.3993
  25.600   0.8880   0.34219   0.33960  -0.1586  0.0189  1.0000  -1.0733   0.0000   0.0000   0.0000   0.3994
  25.700   0.8865   0.34222   0.33964  -0.1586  0.0187  1.0000  -1.0755   0.0000   0.0000   0.0000   0.3995
  25.800   0.8850   0.34221   0.33964  -0.1585  0.0185  1.0000  -1.0788   0.0000   0.0000   0.0000   0.3995
  25.900   0.8835   0.34218   0.33962  -0.1585  0.0184  1.0000  -1.0833   0.0000   0.0000   0.0000   0.3996
  26.000   0.8820   0.34214   0.33959  -0.1583  0.0182  1.0000  -1.0893   0.0000   0.0000   0.0000   0.3996
  26.100   0.8805   0.34207   0.33953  -0.1582  0.0180  1.0000  -1.0969   0.0000   0.0000   0.0000   0.3995
  26.200   0.8791   0.34199   0.33946  -0.1580  0.0179  1.0000  -1.1065   0.0000   0.0000   0.0000   0.3994
  26.300   0.8777   0.34191   0.33940  -0.1577  0.0177  1.0000  -1.1186   0.0000   0.0000   0.0000   0.3992
  26.400   0.8765   0.34192   0.33942  -0.1572  0.0176  1.0000  -1.1346   0.0000   0.0000   0.0000   0.3988
  26.500   0.8756   0.34235   0.33987  -0.1565  0.0174  1.0000  -1.1575   0.0000   0.0000   0.0000   0.3979
  28.400   0.8538   0.34842   0.34610  -0.1608  0.0168  1.0000  -0.9482   0.0000   0.0000   0.0000   0.4043
  28.500   0.8531   0.34884   0.34653  -0.1612  0.0168  1.0000  -0.9368   0.0000   0.0000   0.0000   0.4048
  28.600   0.8525   0.34929   0.34698  -0.1616  0.0168  1.0000  -0.9254   0.0000   0.0000   0.0000   0.4052
  28.700   0.8520   0.34978   0.34748  -0.1620  0.0167  1.0000  -0.9141   0.0000   0.0000   0.0000   0.4056
  28.800   0.8515   0.35030   0.34801  -0.1624  0.0167  1.0000  -0.9028   0.0000   0.0000   0.0000   0.4060
  28.900   0.8512   0.35085   0.34857  -0.1628  0.0166  1.0000  -0.8916   0.0000   0.0000   0.0000   0.4064
  29.000   0.8508   0.35144   0.34916  -0.1633  0.0165  1.0000  -0.8807   0.0000   0.0000   0.0000   0.4067
  29.100   0.8506   0.35204   0.34978  -0.1637  0.0164  1.0000  -0.8701   0.0000   0.0000   0.0000   0.4071
  29.200   0.8503   0.35265   0.35039  -0.1641  0.0163  1.0000  -0.8600   0.0000   0.0000   0.0000   0.4074
  29.300   0.8501   0.35325   0.35100  -0.1644  0.0162  1.0000  -0.8504   0.0000   0.0000   0.0000   0.4077
  29.400   0.8499   0.35387   0.35162  -0.1648  0.0160  1.0000  -0.8417   0.0000   0.0000   0.0000   0.4079
  29.500   0.8496   0.35444   0.35220  -0.1651  0.0159  1.0000  -0.8347   0.0000   0.0000   0.0000   0.4082
  29.600   0.8493   0.35498   0.35276  -0.1655  0.0157  1.0000  -0.8357   0.0000   0.0000   0.0000   0.4084
  29.700   0.8489   0.35546   0.35325  -0.1658  0.0155  1.0000  -0.8371   0.0000   0.0000   0.0000   0.4087
  29.800   0.8486   0.35597   0.35376  -0.1660  0.0153  1.0000  -0.8391   0.0000   0.0000   0.0000   0.4089
  29.900   0.8482   0.35645   0.35426  -0.1663  0.0152  1.0000  -0.8414   0.0000   0.0000   0.0000   0.4091
  30.000   0.8478   0.35693   0.35474  -0.1666  0.0150  1.0000  -0.8440   0.0000   0.0000   0.0000   0.4093


