xflr5 v6.61

 Calculated polar for: FX 61-140 AIRFOIL

 1 1 Reynolds number fixed          Mach number fixed         

 xtrf =   1.000 (top)        1.000 (bottom)
 Mach =   0.000     Re =     0.563 e 6     Ncrit =   9.000

  alpha     CL        CD       CDp       Cm    Top Xtr Bot Xtr   Cpmin    Chinge    XCp    
 ------- -------- --------- --------- -------- ------- ------- -------- --------- ---------
 -10.000  -0.4200   0.08710   0.08502  -0.0430  1.0000  0.0106  -2.9640   0.0000   0.0000   0.0000   0.1339
  -9.900  -0.4225   0.08460   0.08253  -0.0442  1.0000  0.0106  -3.0215   0.0000   0.0000   0.0000   0.1317
  -9.800  -0.4256   0.08159   0.07954  -0.0459  1.0000  0.0106  -3.1027   0.0000   0.0000   0.0000   0.1286
  -9.700  -0.4305   0.07720   0.07513  -0.0490  1.0000  0.0106  -3.2525   0.0000   0.0000   0.0000   0.1228
  -9.600  -0.4368   0.07376   0.07167  -0.0513  1.0000  0.0105  -3.3668   0.0000   0.0000   0.0000   0.1194
  -9.500  -0.4438   0.07092   0.06881  -0.0531  1.0000  0.0105  -3.4578   0.0000   0.0000   0.0000   0.1176
  -9.400  -0.4510   0.06849   0.06635  -0.0544  1.0000  0.0105  -3.5327   0.0000   0.0000   0.0000   0.1168
  -9.300  -0.4586   0.06639   0.06422  -0.0554  1.0000  0.0105  -3.5954   0.0000   0.0000   0.0000   0.1170
  -9.200  -0.4662   0.06454   0.06235  -0.0560  1.0000  0.0104  -3.6488   0.0000   0.0000   0.0000   0.1180
  -9.100  -0.4741   0.06290   0.06068  -0.0563  1.0000  0.0104  -3.6953   0.0000   0.0000   0.0000   0.1197
  -9.000  -0.4822   0.06144   0.05920  -0.0563  1.0000  0.0104  -3.7366   0.0000   0.0000   0.0000   0.1220
  -8.900  -0.4907   0.06016   0.05789  -0.0560  1.0000  0.0104  -3.7732   0.0000   0.0000   0.0000   0.1250
  -8.800  -0.4996   0.05906   0.05678  -0.0553  1.0000  0.0104  -3.8063   0.0000   0.0000   0.0000   0.1287
  -8.700  -0.5091   0.05816   0.05585  -0.0542  1.0000  0.0104  -3.8365   0.0000   0.0000   0.0000   0.1332
  -8.600  -0.5194   0.05747   0.05516  -0.0527  1.0000  0.0104  -3.8639   0.0000   0.0000   0.0000   0.1386
  -8.500  -0.5303   0.05696   0.05464  -0.0509  1.0000  0.0103  -3.8888   0.0000   0.0000   0.0000   0.1444
  -8.400  -0.5381   0.05587   0.05352  -0.0504  0.9998  0.0104  -3.9145   0.0000   0.0000   0.0000   0.1469
  -8.300  -0.5319   0.05263   0.05017  -0.0556  0.9974  0.0105  -3.9341   0.0000   0.0000   0.0000   0.1362
  -8.200  -0.5254   0.05007   0.04751  -0.0593  0.9955  0.0106  -3.9282   0.0000   0.0000   0.0000   0.1280
  -8.100  -0.5188   0.04793   0.04527  -0.0619  0.9932  0.0107  -3.9073   0.0000   0.0000   0.0000   0.1216
  -8.000  -0.5106   0.04593   0.04317  -0.0644  0.9914  0.0109  -3.8741   0.0000   0.0000   0.0000   0.1148
  -7.900  -0.5011   0.04427   0.04144  -0.0665  0.9900  0.0110  -3.8136   0.0000   0.0000   0.0000   0.1082
  -7.800  -0.4927   0.04274   0.03983  -0.0681  0.9875  0.0111  -3.7575   0.0000   0.0000   0.0000   0.1027
  -7.700  -0.4827   0.04119   0.03820  -0.0698  0.9856  0.0113  -3.6980   0.0000   0.0000   0.0000   0.0962
  -7.600  -0.4718   0.03965   0.03656  -0.0717  0.9842  0.0115  -3.6379   0.0000   0.0000   0.0000   0.0889
  -7.500  -0.4601   0.03811   0.03493  -0.0736  0.9831  0.0116  -3.5790   0.0000   0.0000   0.0000   0.0809
  -7.400  -0.4521   0.03679   0.03352  -0.0743  0.9797  0.0118  -3.5340   0.0000   0.0000   0.0000   0.0765
  -7.300  -0.4415   0.03537   0.03199  -0.0755  0.9774  0.0120  -3.4853   0.0000   0.0000   0.0000   0.0697
  -7.200  -0.4296   0.03391   0.03042  -0.0769  0.9757  0.0122  -3.4384   0.0000   0.0000   0.0000   0.0617
  -7.100  -0.4169   0.03241   0.02880  -0.0784  0.9744  0.0124  -3.3963   0.0000   0.0000   0.0000   0.0526
  -6.800  -0.3850   0.02458   0.02021  -0.0794  0.9660  0.0079  -3.8834   0.0000   0.0000   0.0000   0.0341
  -6.700  -0.3731   0.02162   0.01693  -0.0798  0.9644  0.0068  -4.0915   0.0000   0.0000   0.0000   0.0260
  -6.600  -0.3621   0.01842   0.01335  -0.0794  0.9632  0.0057  -4.4351   0.0000   0.0000   0.0000   0.0206
  -6.500  -0.3488   0.01722   0.01201  -0.0797  0.9621  0.0055  -4.4508   0.0000   0.0000   0.0000   0.0111
  -6.400  -0.3406   0.01655   0.01127  -0.0791  0.9569  0.0054  -4.4077   0.0000   0.0000   0.0000   0.0073
  -6.300  -0.3285   0.01589   0.01053  -0.0794  0.9540  0.0054  -4.3451   0.0000   0.0000   0.0000  -0.0023
  -6.200  -0.3153   0.01525   0.00984  -0.0800  0.9516  0.0054  -4.2706   0.0000   0.0000   0.0000  -0.0143
  -6.100  -0.3013   0.01463   0.00917  -0.0807  0.9496  0.0054  -4.1882   0.0000   0.0000   0.0000  -0.0289
  -6.000  -0.2890   0.01410   0.00858  -0.0811  0.9458  0.0055  -4.1080   0.0000   0.0000   0.0000  -0.0418
  -5.900  -0.2766   0.01359   0.00804  -0.0816  0.9409  0.0056  -4.0232   0.0000   0.0000   0.0000  -0.0563
  -5.800  -0.2611   0.01310   0.00751  -0.0828  0.9376  0.0059  -3.9193   0.0000   0.0000   0.0000  -0.0785
  -5.700  -0.2439   0.01273   0.00708  -0.0842  0.9349  0.0064  -3.7934   0.0000   0.0000   0.0000  -0.1074
  -5.600  -0.2263   0.01233   0.00664  -0.0858  0.9315  0.0070  -3.6773   0.0000   0.0000   0.0000  -0.1416
  -5.500  -0.2096   0.01198   0.00626  -0.0871  0.9260  0.0079  -3.5682   0.0000   0.0000   0.0000  -0.1790
  -5.300  -0.1659   0.01104   0.00524  -0.0922  0.9180  0.0121  -3.3268   0.0000   0.0000   0.0000  -0.3218
  -5.200  -0.1448   0.01081   0.00500  -0.0945  0.9127  0.0162  -3.1746   0.0000   0.0000   0.0000  -0.4202
  -5.100  -0.1246   0.01062   0.00476  -0.0966  0.9053  0.0179  -3.0091   0.0000   0.0000   0.0000  -0.5448
  -5.000  -0.1024   0.01028   0.00438  -0.0993  0.8979  0.0221  -2.8389   0.0000   0.0000   0.0000  -0.7422
  -4.900  -0.0846   0.01018   0.00427  -0.1008  0.8876  0.0253  -2.6673   0.0000   0.0000   0.0000  -0.9697
  -4.700  -0.0511   0.00985   0.00389  -0.1036  0.8641  0.0354  -2.3715   0.0000   0.0000   0.0000  -1.8174
  -4.600  -0.0362   0.00971   0.00368  -0.1045  0.8517  0.0421  -2.2520   0.0000   0.0000   0.0000  -2.6901
  -4.500  -0.0227   0.00942   0.00345  -0.1053  0.8385  0.0641  -2.1646   0.0000   0.0000   0.0000  -4.4756
  -4.400  -0.0079   0.00881   0.00314  -0.1069  0.8262  0.1468  -2.0674   0.0000   0.0000   0.0000  -13.5015
  -4.300   0.0078   0.00806   0.00281  -0.1090  0.8133  0.2634  -1.9635   0.0000   0.0000   0.0000  14.4891
  -4.200   0.0238   0.00747   0.00255  -0.1109  0.8015  0.3712  -1.8563   0.0000   0.0000   0.0000   4.9802
  -4.100   0.0387   0.00709   0.00240  -0.1123  0.7895  0.4465  -1.7532   0.0000   0.0000   0.0000   3.1944
  -3.900   0.0637   0.00689   0.00229  -0.1132  0.7678  0.5190  -1.5724   0.0000   0.0000   0.0000   2.0514
  -3.800   0.0752   0.00690   0.00227  -0.1133  0.7573  0.5373  -1.4842   0.0000   0.0000   0.0000   1.7764
  -3.700   0.0866   0.00691   0.00229  -0.1133  0.7483  0.5569  -1.3976   0.0000   0.0000   0.0000   1.5757
  -3.600   0.0982   0.00692   0.00230  -0.1134  0.7397  0.5714  -1.3118   0.0000   0.0000   0.0000   1.4200
  -3.500   0.1092   0.00697   0.00234  -0.1134  0.7306  0.5838  -1.2290   0.0000   0.0000   0.0000   1.3004
  -3.400   0.1202   0.00704   0.00234  -0.1133  0.7220  0.5927  -1.1482   0.0000   0.0000   0.0000   1.2035
  -3.300   0.1318   0.00708   0.00233  -0.1134  0.7148  0.5989  -1.0669   0.0000   0.0000   0.0000   1.1201
  -3.200   0.1427   0.00713   0.00238  -0.1133  0.7070  0.6061  -0.9889   0.0000   0.0000   0.0000   1.0523
  -3.100   0.1533   0.00722   0.00246  -0.1131  0.6991  0.6149  -0.9131   0.0000   0.0000   0.0000   0.9951
  -2.900   0.1751   0.00747   0.00262  -0.1128  0.6854  0.6334  -0.7636   0.0000   0.0000   0.0000   0.9001
  -2.800   0.1850   0.00760   0.00277  -0.1124  0.6789  0.6400  -0.6937   0.0000   0.0000   0.0000   0.8624
  -2.700   0.1954   0.00772   0.00286  -0.1121  0.6721  0.6439  -0.6241   0.0000   0.0000   0.0000   0.8281
  -2.600   0.2060   0.00782   0.00290  -0.1119  0.6652  0.6467  -0.6038   0.0000   0.0000   0.0000   0.7973
  -2.500   0.2169   0.00790   0.00294  -0.1118  0.6589  0.6494  -0.6123   0.0000   0.0000   0.0000   0.7692
  -2.400   0.2281   0.00796   0.00297  -0.1118  0.6536  0.6521  -0.6213   0.0000   0.0000   0.0000   0.7432
  -2.300   0.2394   0.00802   0.00299  -0.1118  0.6475  0.6545  -0.6304   0.0000   0.0000   0.0000   0.7198
  -2.200   0.2506   0.00809   0.00300  -0.1118  0.6413  0.6564  -0.6395   0.0000   0.0000   0.0000   0.6986
  -2.100   0.2617   0.00816   0.00301  -0.1118  0.6349  0.6580  -0.6485   0.0000   0.0000   0.0000   0.6793
  -2.000   0.2730   0.00824   0.00303  -0.1119  0.6287  0.6594  -0.6575   0.0000   0.0000   0.0000   0.6615
  -1.900   0.2847   0.00829   0.00302  -0.1120  0.6246  0.6606  -0.6669   0.0000   0.0000   0.0000   0.6448
  -1.800   0.2961   0.00826   0.00298  -0.1121  0.6200  0.6632  -0.6761   0.0000   0.0000   0.0000   0.6296
  -1.700   0.3071   0.00828   0.00298  -0.1120  0.6152  0.6654  -0.6851   0.0000   0.0000   0.0000   0.6157
  -1.600   0.3180   0.00832   0.00299  -0.1120  0.6102  0.6671  -0.6941   0.0000   0.0000   0.0000   0.6028
  -1.500   0.3288   0.00838   0.00302  -0.1119  0.6050  0.6685  -0.7030   0.0000   0.0000   0.0000   0.5907
  -1.300   0.3508   0.00849   0.00307  -0.1118  0.5954  0.6711  -0.7211   0.0000   0.0000   0.0000   0.5688
  -1.200   0.3620   0.00852   0.00310  -0.1118  0.5919  0.6726  -0.7303   0.0000   0.0000   0.0000   0.5587
  -1.100   0.3732   0.00856   0.00312  -0.1118  0.5879  0.6740  -0.7395   0.0000   0.0000   0.0000   0.5493
  -1.000   0.3843   0.00861   0.00315  -0.1118  0.5838  0.6755  -0.7487   0.0000   0.0000   0.0000   0.5404
  -0.900   0.3954   0.00866   0.00317  -0.1118  0.5796  0.6769  -0.7578   0.0000   0.0000   0.0000   0.5321
  -0.800   0.4065   0.00872   0.00320  -0.1118  0.5755  0.6785  -0.7670   0.0000   0.0000   0.0000   0.5242
  -0.700   0.4175   0.00878   0.00322  -0.1118  0.5713  0.6800  -0.7761   0.0000   0.0000   0.0000   0.5168
  -0.500   0.4401   0.00889   0.00328  -0.1119  0.5638  0.6830  -0.7947   0.0000   0.0000   0.0000   0.5030
  -0.400   0.4518   0.00892   0.00330  -0.1120  0.5614  0.6844  -0.8042   0.0000   0.0000   0.0000   0.4966
  -0.300   0.4634   0.00894   0.00331  -0.1121  0.5586  0.6857  -0.8137   0.0000   0.0000   0.0000   0.4905
  -0.200   0.4750   0.00897   0.00333  -0.1122  0.5555  0.6868  -0.8233   0.0000   0.0000   0.0000   0.4847
  -0.100   0.4866   0.00901   0.00334  -0.1124  0.5523  0.6879  -0.8328   0.0000   0.0000   0.0000   0.4792
   0.000   0.4981   0.00905   0.00336  -0.1125  0.5491  0.6888  -0.8423   0.0000   0.0000   0.0000   0.4740
   0.100   0.5096   0.00910   0.00338  -0.1126  0.5458  0.6897  -0.8518   0.0000   0.0000   0.0000   0.4690
   0.200   0.5209   0.00916   0.00341  -0.1127  0.5423  0.6905  -0.8619   0.0000   0.0000   0.0000   0.4642
   0.300   0.5321   0.00924   0.00345  -0.1127  0.5386  0.6912  -0.8721   0.0000   0.0000   0.0000   0.4596
   0.400   0.5436   0.00924   0.00342  -0.1129  0.5344  0.6932  -0.8825   0.0000   0.0000   0.0000   0.4554
   0.500   0.5551   0.00923   0.00341  -0.1130  0.5318  0.6949  -0.8932   0.0000   0.0000   0.0000   0.4512
   0.600   0.5665   0.00923   0.00343  -0.1131  0.5300  0.6962  -0.9045   0.0000   0.0000   0.0000   0.4471
   0.700   0.5778   0.00924   0.00345  -0.1131  0.5278  0.6974  -0.9158   0.0000   0.0000   0.0000   0.4432
   0.800   0.5889   0.00927   0.00348  -0.1131  0.5253  0.6986  -0.9270   0.0000   0.0000   0.0000   0.4393
   0.900   0.6000   0.00930   0.00352  -0.1131  0.5224  0.6997  -0.9383   0.0000   0.0000   0.0000   0.4357
   1.000   0.6111   0.00934   0.00355  -0.1131  0.5195  0.7008  -0.9495   0.0000   0.0000   0.0000   0.4322
   1.100   0.6221   0.00938   0.00358  -0.1131  0.5165  0.7019  -0.9608   0.0000   0.0000   0.0000   0.4287
   1.200   0.6331   0.00943   0.00362  -0.1131  0.5135  0.7030  -0.9720   0.0000   0.0000   0.0000   0.4255
   1.300   0.6441   0.00948   0.00365  -0.1131  0.5104  0.7041  -0.9832   0.0000   0.0000   0.0000   0.4223
   1.400   0.6551   0.00955   0.00369  -0.1131  0.5070  0.7051  -0.9945   0.0000   0.0000   0.0000   0.4193
   1.500   0.6661   0.00962   0.00374  -0.1131  0.5030  0.7061  -1.0056   0.0000   0.0000   0.0000   0.4163
   1.600   0.6774   0.00969   0.00379  -0.1131  0.4996  0.7071  -1.0170   0.0000   0.0000   0.0000   0.4135
   1.700   0.6889   0.00970   0.00382  -0.1132  0.4981  0.7081  -1.0287   0.0000   0.0000   0.0000   0.4108
   1.800   0.7004   0.00971   0.00384  -0.1133  0.4963  0.7092  -1.0404   0.0000   0.0000   0.0000   0.4081
   1.900   0.7120   0.00973   0.00387  -0.1135  0.4942  0.7102  -1.0521   0.0000   0.0000   0.0000   0.4056
   2.000   0.7235   0.00975   0.00392  -0.1136  0.4920  0.7112  -1.0638   0.0000   0.0000   0.0000   0.4031
   2.100   0.7350   0.00978   0.00395  -0.1137  0.4897  0.7122  -1.0755   0.0000   0.0000   0.0000   0.4007
   2.200   0.7464   0.00981   0.00398  -0.1138  0.4873  0.7132  -1.0872   0.0000   0.0000   0.0000   0.3984
   2.300   0.7578   0.00985   0.00401  -0.1139  0.4848  0.7142  -1.0989   0.0000   0.0000   0.0000   0.3961
   2.400   0.7692   0.00990   0.00404  -0.1140  0.4823  0.7152  -1.1106   0.0000   0.0000   0.0000   0.3939
   2.500   0.7805   0.00995   0.00408  -0.1141  0.4797  0.7161  -1.1223   0.0000   0.0000   0.0000   0.3918
   2.600   0.7918   0.01000   0.00412  -0.1141  0.4770  0.7170  -1.1339   0.0000   0.0000   0.0000   0.3897
   2.700   0.8030   0.01007   0.00417  -0.1142  0.4739  0.7178  -1.1454   0.0000   0.0000   0.0000   0.3877
   2.800   0.8141   0.01016   0.00423  -0.1143  0.4704  0.7185  -1.1569   0.0000   0.0000   0.0000   0.3857
   2.900   0.8254   0.01025   0.00430  -0.1144  0.4671  0.7193  -1.1685   0.0000   0.0000   0.0000   0.3838
   3.000   0.8369   0.01027   0.00434  -0.1145  0.4660  0.7199  -1.1804   0.0000   0.0000   0.0000   0.3819
   3.100   0.8484   0.01030   0.00439  -0.1146  0.4647  0.7206  -1.1923   0.0000   0.0000   0.0000   0.3801
   3.200   0.8598   0.01032   0.00442  -0.1146  0.4621  0.7211  -1.2050   0.0000   0.0000   0.0000   0.3783
   3.300   0.8716   0.01024   0.00433  -0.1149  0.4557  0.7230  -1.2199   0.0000   0.0000   0.0000   0.3766
   3.400   0.8821   0.01025   0.00428  -0.1148  0.4455  0.7245  -1.2340   0.0000   0.0000   0.0000   0.3749
   3.500   0.8921   0.01033   0.00429  -0.1147  0.4332  0.7256  -1.2476   0.0000   0.0000   0.0000   0.3731
   3.600   0.9031   0.01033   0.00427  -0.1147  0.4229  0.7266  -1.2622   0.0000   0.0000   0.0000   0.3715
   3.700   0.9151   0.01040   0.00447  -0.1149  0.4387  0.7275  -1.2758   0.0000   0.0000   0.0000   0.3699
   3.800   0.9260   0.01041   0.00448  -0.1149  0.4306  0.7284  -1.2902   0.0000   0.0000   0.0000   0.3683
   3.900   0.9365   0.01043   0.00446  -0.1148  0.4184  0.7292  -1.3046   0.0000   0.0000   0.0000   0.3667
   4.000   0.9459   0.01058   0.00450  -0.1145  0.4034  0.7301  -1.3179   0.0000   0.0000   0.0000   0.3651
   4.100   0.9570   0.01061   0.00453  -0.1146  0.3977  0.7309  -1.3324   0.0000   0.0000   0.0000   0.3636
   4.200   0.9680   0.01065   0.00457  -0.1146  0.3919  0.7317  -1.3467   0.0000   0.0000   0.0000   0.3622
   4.300   0.9787   0.01072   0.00462  -0.1145  0.3849  0.7326  -1.3609   0.0000   0.0000   0.0000   0.3608
   4.400   0.9890   0.01082   0.00467  -0.1144  0.3772  0.7335  -1.3747   0.0000   0.0000   0.0000   0.3593
   4.500   0.9993   0.01092   0.00474  -0.1143  0.3697  0.7344  -1.3886   0.0000   0.0000   0.0000   0.3579
   4.600   1.0102   0.01098   0.00480  -0.1144  0.3639  0.7354  -1.4220   0.0000   0.0000   0.0000   0.3566
   4.700   1.0207   0.01107   0.00485  -0.1143  0.3546  0.7365  -1.4639   0.0000   0.0000   0.0000   0.3553
   4.800   1.0304   0.01124   0.00493  -0.1141  0.3422  0.7375  -1.5042   0.0000   0.0000   0.0000   0.3539
   4.900   1.0407   0.01135   0.00501  -0.1140  0.3309  0.7386  -1.5458   0.0000   0.0000   0.0000   0.3526
   5.000   1.0499   0.01157   0.00511  -0.1138  0.3123  0.7396  -1.5851   0.0000   0.0000   0.0000   0.3513
   5.100   1.0593   0.01178   0.00522  -0.1136  0.2937  0.7405  -1.6246   0.0000   0.0000   0.0000   0.3501
   5.200   1.0680   0.01208   0.00538  -0.1133  0.2704  0.7414  -1.6928   0.0000   0.0000   0.0000   0.3488
   5.300   1.0756   0.01248   0.00559  -0.1129  0.2390  0.7423  -1.7745   0.0000   0.0000   0.0000   0.3475
   5.400   1.0816   0.01308   0.00592  -0.1123  0.1966  0.7431  -1.8510   0.0000   0.0000   0.0000   0.3463
   5.500   1.0854   0.01391   0.00640  -0.1113  0.1397  0.7439  -1.9185   0.0000   0.0000   0.0000   0.3449
   5.600   1.0856   0.01512   0.00718  -0.1098  0.0642  0.7446  -1.9900   0.0000   0.0000   0.0000   0.3434
   5.700   1.0889   0.01599   0.00778  -0.1087  0.0179  0.7454  -2.0640   0.0000   0.0000   0.0000   0.3420
   5.800   1.0969   0.01635   0.00809  -0.1083  0.0043  0.7461  -2.1599   0.0000   0.0000   0.0000   0.3408
   5.900   1.1070   0.01649   0.00824  -0.1082  0.0042  0.7467  -2.2681   0.0000   0.0000   0.0000   0.3396
   6.000   1.1171   0.01663   0.00839  -0.1081  0.0040  0.7474  -2.3754   0.0000   0.0000   0.0000   0.3385
   6.100   1.1272   0.01677   0.00855  -0.1079  0.0038  0.7480  -2.4824   0.0000   0.0000   0.0000   0.3374
   6.200   1.1372   0.01691   0.00870  -0.1078  0.0037  0.7485  -2.5891   0.0000   0.0000   0.0000   0.3364
   6.300   1.1473   0.01705   0.00886  -0.1077  0.0036  0.7490  -2.6957   0.0000   0.0000   0.0000   0.3353
   6.400   1.1572   0.01719   0.00903  -0.1076  0.0036  0.7495  -2.8021   0.0000   0.0000   0.0000   0.3343
   6.500   1.1671   0.01734   0.00920  -0.1074  0.0035  0.7499  -2.9080   0.0000   0.0000   0.0000   0.3332
   6.600   1.1773   0.01746   0.00935  -0.1074  0.0035  0.7509  -3.0157   0.0000   0.0000   0.0000   0.3323
   6.700   1.1875   0.01759   0.00951  -0.1073  0.0035  0.7521  -3.1228   0.0000   0.0000   0.0000   0.3313
   6.800   1.1972   0.01773   0.00969  -0.1072  0.0034  0.7532  -3.2282   0.0000   0.0000   0.0000   0.3303
   6.900   1.2068   0.01789   0.00988  -0.1070  0.0034  0.7541  -3.3324   0.0000   0.0000   0.0000   0.3293
   7.000   1.2161   0.01806   0.01008  -0.1067  0.0034  0.7551  -3.4355   0.0000   0.0000   0.0000   0.3283
   7.100   1.2252   0.01825   0.01030  -0.1064  0.0034  0.7561  -3.5376   0.0000   0.0000   0.0000   0.3272
   7.200   1.2341   0.01844   0.01054  -0.1061  0.0034  0.7570  -3.6388   0.0000   0.0000   0.0000   0.3262
   7.300   1.2428   0.01865   0.01080  -0.1057  0.0034  0.7580  -3.7389   0.0000   0.0000   0.0000   0.3252
   7.400   1.2513   0.01888   0.01107  -0.1053  0.0035  0.7590  -3.8377   0.0000   0.0000   0.0000   0.3241
   7.500   1.2596   0.01913   0.01136  -0.1048  0.0035  0.7599  -3.9352   0.0000   0.0000   0.0000   0.3231
   7.600   1.2677   0.01938   0.01167  -0.1044  0.0035  0.7609  -4.0314   0.0000   0.0000   0.0000   0.3220
   7.700   1.2757   0.01964   0.01201  -0.1039  0.0035  0.7618  -4.1220   0.0000   0.0000   0.0000   0.3210
   7.800   1.2832   0.01994   0.01236  -0.1033  0.0036  0.7626  -4.2143   0.0000   0.0000   0.0000   0.3200
   7.900   1.2904   0.02026   0.01273  -0.1027  0.0036  0.7635  -4.3048   0.0000   0.0000   0.0000   0.3189
   8.000   1.2973   0.02060   0.01313  -0.1021  0.0036  0.7643  -4.3928   0.0000   0.0000   0.0000   0.3178
   8.100   1.3037   0.02097   0.01356  -0.1014  0.0037  0.7651  -4.4773   0.0000   0.0000   0.0000   0.3168
   8.200   1.3096   0.02137   0.01401  -0.1006  0.0037  0.7659  -4.5583   0.0000   0.0000   0.0000   0.3157
   8.300   1.3150   0.02179   0.01449  -0.0997  0.0038  0.7667  -4.6353   0.0000   0.0000   0.0000   0.3145
   8.400   1.3197   0.02224   0.01500  -0.0987  0.0038  0.7675  -4.7080   0.0000   0.0000   0.0000   0.3134
   8.500   1.3238   0.02272   0.01554  -0.0977  0.0039  0.7683  -4.7758   0.0000   0.0000   0.0000   0.3122
   8.600   1.3268   0.02322   0.01611  -0.0964  0.0039  0.7691  -4.8372   0.0000   0.0000   0.0000   0.3110
   8.700   1.3279   0.02372   0.01667  -0.0949  0.0039  0.7700  -4.8890   0.0000   0.0000   0.0000   0.3096
   8.800   1.3285   0.02426   0.01727  -0.0933  0.0040  0.7708  -4.9366   0.0000   0.0000   0.0000   0.3082
   8.900   1.3288   0.02486   0.01793  -0.0917  0.0040  0.7716  -4.9808   0.0000   0.0000   0.0000   0.3069
   9.000   1.3286   0.02551   0.01864  -0.0901  0.0041  0.7725  -5.0207   0.0000   0.0000   0.0000   0.3055
   9.100   1.3276   0.02621   0.01940  -0.0884  0.0041  0.7734  -5.0553   0.0000   0.0000   0.0000   0.3042
   9.200   1.3260   0.02697   0.02023  -0.0868  0.0042  0.7742  -5.0845   0.0000   0.0000   0.0000   0.3029
   9.300   1.3237   0.02781   0.02113  -0.0851  0.0042  0.7750  -5.1080   0.0000   0.0000   0.0000   0.3016
   9.400   1.3207   0.02873   0.02211  -0.0835  0.0043  0.7757  -5.1242   0.0000   0.0000   0.0000   0.3003
   9.500   1.3167   0.02975   0.02320  -0.0818  0.0043  0.7763  -5.1315   0.0000   0.0000   0.0000   0.2991
   9.600   1.3116   0.03093   0.02444  -0.0802  0.0043  0.7769  -5.1245   0.0000   0.0000   0.0000   0.2979
   9.700   1.3049   0.03235   0.02594  -0.0785  0.0044  0.7773  -5.0951   0.0000   0.0000   0.0000   0.2968
   9.800   1.3098   0.03280   0.02642  -0.0781  0.0045  0.7777  -5.1919   0.0000   0.0000   0.0000   0.2961
   9.900   1.3149   0.03326   0.02690  -0.0778  0.0046  0.7787  -5.2900   0.0000   0.0000   0.0000   0.2954
  10.000   1.3199   0.03374   0.02741  -0.0774  0.0047  0.7798  -5.3861   0.0000   0.0000   0.0000   0.2948
  10.100   1.3243   0.03427   0.02797  -0.0770  0.0048  0.7808  -5.4779   0.0000   0.0000   0.0000   0.2941
  10.200   1.3283   0.03484   0.02858  -0.0766  0.0049  0.7817  -5.5651   0.0000   0.0000   0.0000   0.2935
  10.300   1.3316   0.03547   0.02925  -0.0762  0.0050  0.7826  -5.6458   0.0000   0.0000   0.0000   0.2928
  10.400   1.3345   0.03617   0.02999  -0.0757  0.0051  0.7835  -5.7189   0.0000   0.0000   0.0000   0.2922
  10.500   1.3366   0.03697   0.03084  -0.0752  0.0053  0.7843  -5.7800   0.0000   0.0000   0.0000   0.2915
  10.600   1.3377   0.03791   0.03184  -0.0746  0.0055  0.7851  -5.8188   0.0000   0.0000   0.0000   0.2908
  10.700   1.3365   0.03915   0.03317  -0.0737  0.0059  0.7858  -5.8010   0.0000   0.0000   0.0000   0.2900
  10.800   1.3325   0.04095   0.03510  -0.0719  0.0067  0.7863  -5.6761   0.0000   0.0000   0.0000   0.2887
  10.900   1.3335   0.04304   0.03733  -0.0696  0.0080  0.7865  -5.5179   0.0000   0.0000   0.0000   0.2868
  16.100   1.0506   0.18724   0.18539  -0.1245  0.0171  0.8119  -3.3700   0.0000   0.0000   0.0000   0.3457
  16.200   1.0460   0.19207   0.19024  -0.1274  0.0171  0.8123  -3.2617   0.0000   0.0000   0.0000   0.3490
  16.300   1.0423   0.19683   0.19502  -0.1300  0.0171  0.8126  -3.1520   0.0000   0.0000   0.0000   0.3520
  16.400   1.0395   0.20156   0.19975  -0.1325  0.0171  0.8130  -3.0403   0.0000   0.0000   0.0000   0.3547
  16.500   1.0378   0.20600   0.20420  -0.1346  0.0171  0.8135  -2.9367   0.0000   0.0000   0.0000   0.3570
  16.600   1.0372   0.20971   0.20791  -0.1364  0.0170  0.8140  -2.8636   0.0000   0.0000   0.0000   0.3587
  16.700   1.0374   0.21306   0.21126  -0.1380  0.0170  0.8146  -2.8065   0.0000   0.0000   0.0000   0.3602
  16.800   1.0379   0.21618   0.21438  -0.1395  0.0169  0.8152  -2.7594   0.0000   0.0000   0.0000   0.3616
  16.900   1.0390   0.21911   0.21731  -0.1410  0.0169  0.8159  -2.7213   0.0000   0.0000   0.0000   0.3627
  17.000   1.0410   0.22179   0.22000  -0.1424  0.0167  0.8167  -2.6948   0.0000   0.0000   0.0000   0.3637
  17.100   1.0441   0.22422   0.22242  -0.1437  0.0163  0.8175  -2.6803   0.0000   0.0000   0.0000   0.3645
  17.200   1.0467   0.22680   0.22501  -0.1450  0.0159  0.8182  -2.6558   0.0000   0.0000   0.0000   0.3653
  17.300   1.0481   0.22973   0.22793  -0.1465  0.0154  0.8189  -2.6139   0.0000   0.0000   0.0000   0.3664
  17.400   1.0492   0.23265   0.23086  -0.1479  0.0150  0.8196  -2.5721   0.0000   0.0000   0.0000   0.3675
  17.500   1.0503   0.23544   0.23365  -0.1492  0.0147  0.8204  -2.5376   0.0000   0.0000   0.0000   0.3685
  17.600   1.0515   0.23812   0.23633  -0.1505  0.0144  0.8211  -2.5087   0.0000   0.0000   0.0000   0.3695
  17.700   1.0527   0.24072   0.23893  -0.1517  0.0141  0.8219  -2.4844   0.0000   0.0000   0.0000   0.3703
  17.800   1.0540   0.24327   0.24148  -0.1529  0.0138  0.8226  -2.4631   0.0000   0.0000   0.0000   0.3712
  17.900   1.0554   0.24576   0.24397  -0.1541  0.0136  0.8234  -2.4452   0.0000   0.0000   0.0000   0.3720
  18.000   1.0569   0.24819   0.24640  -0.1552  0.0133  0.8242  -2.4305   0.0000   0.0000   0.0000   0.3727
  18.100   1.0584   0.25057   0.24878  -0.1564  0.0131  0.8250  -2.4187   0.0000   0.0000   0.0000   0.3734
  18.200   1.0600   0.25291   0.25112  -0.1574  0.0129  0.8258  -2.4096   0.0000   0.0000   0.0000   0.3740
  18.300   1.0617   0.25520   0.25341  -0.1585  0.0127  0.8266  -2.4032   0.0000   0.0000   0.0000   0.3746
  18.400   1.0635   0.25745   0.25567  -0.1595  0.0125  0.8274  -2.3992   0.0000   0.0000   0.0000   0.3752
  18.500   1.0653   0.25966   0.25788  -0.1605  0.0123  0.8281  -2.3980   0.0000   0.0000   0.0000   0.3757
  18.600   1.0671   0.26183   0.26005  -0.1615  0.0122  0.8289  -2.3993   0.0000   0.0000   0.0000   0.3762
  18.700   1.0690   0.26396   0.26218  -0.1625  0.0120  0.8296  -2.4032   0.0000   0.0000   0.0000   0.3767
  19.600   1.0881   0.28147   0.27979  -0.1700  0.0108  0.8412  -2.5517   0.0000   0.0000   0.0000   0.3792
  19.700   1.0902   0.28328   0.28161  -0.1708  0.0107  0.8426  -2.5789   0.0000   0.0000   0.0000   0.3794
  19.800   1.0924   0.28507   0.28340  -0.1715  0.0106  0.8441  -2.6084   0.0000   0.0000   0.0000   0.3795
  19.900   1.0943   0.28696   0.28530  -0.1722  0.0104  0.8455  -2.6340   0.0000   0.0000   0.0000   0.3796
  20.000   1.0953   0.28928   0.28763  -0.1730  0.0103  0.8468  -2.6387   0.0000   0.0000   0.0000   0.3801
  20.100   1.0869   0.29736   0.29568  -0.1748  0.0097  0.8464  -2.3574   0.0000   0.0000   0.0000   0.3830
  20.200   1.0886   0.29992   0.29825  -0.1757  0.0097  0.8477  -2.3413   0.0000   0.0000   0.0000   0.3835
  20.300   1.0902   0.30248   0.30081  -0.1767  0.0097  0.8491  -2.3257   0.0000   0.0000   0.0000   0.3839
  20.400   1.0919   0.30503   0.30336  -0.1776  0.0097  0.8504  -2.3106   0.0000   0.0000   0.0000   0.3844
  20.500   1.0935   0.30758   0.30592  -0.1786  0.0097  0.8517  -2.2959   0.0000   0.0000   0.0000   0.3849
  20.600   1.0952   0.31013   0.30847  -0.1795  0.0097  0.8530  -2.2816   0.0000   0.0000   0.0000   0.3853
  21.400   1.1078   0.33019   0.32862  -0.1868  0.0096  0.8690  -2.1826   0.0000   0.0000   0.0000   0.3886
  21.500   1.1095   0.33263   0.33106  -0.1877  0.0095  0.8715  -2.1725   0.0000   0.0000   0.0000   0.3890
  21.600   1.1111   0.33502   0.33347  -0.1886  0.0095  0.8742  -2.1634   0.0000   0.0000   0.0000   0.3894
  24.300   0.9046   0.34737   0.34603  -0.1682  0.0061  0.8567  -1.3660   0.0000   0.0000   0.0000   0.4056
  24.400   0.9016   0.34725   0.34592  -0.1681  0.0060  0.8573  -1.3595   0.0000   0.0000   0.0000   0.4060
  24.500   0.8988   0.34716   0.34584  -0.1680  0.0059  0.8580  -1.3541   0.0000   0.0000   0.0000   0.4063
  24.600   0.8962   0.34710   0.34579  -0.1679  0.0059  0.8588  -1.3500   0.0000   0.0000   0.0000   0.4067
  24.700   0.8937   0.34706   0.34576  -0.1678  0.0058  0.8597  -1.3469   0.0000   0.0000   0.0000   0.4070
  24.800   0.8914   0.34704   0.34575  -0.1678  0.0057  0.8606  -1.3450   0.0000   0.0000   0.0000   0.4074
  24.900   0.8892   0.34703   0.34576  -0.1678  0.0056  0.8616  -1.3443   0.0000   0.0000   0.0000   0.4077
  25.000   0.8872   0.34704   0.34577  -0.1678  0.0055  0.8626  -1.3447   0.0000   0.0000   0.0000   0.4080
  25.100   0.8853   0.34705   0.34580  -0.1678  0.0054  0.8638  -1.3462   0.0000   0.0000   0.0000   0.4083
  25.200   0.8834   0.34707   0.34583  -0.1678  0.0054  0.8650  -1.3488   0.0000   0.0000   0.0000   0.4086
  25.300   0.8817   0.34710   0.34586  -0.1678  0.0053  0.8663  -1.3526   0.0000   0.0000   0.0000   0.4088
  25.400   0.8801   0.34712   0.34590  -0.1678  0.0052  0.8676  -1.3576   0.0000   0.0000   0.0000   0.4091
  25.500   0.8785   0.34713   0.34592  -0.1679  0.0052  0.8690  -1.3636   0.0000   0.0000   0.0000   0.4093
  25.600   0.8770   0.34715   0.34594  -0.1679  0.0051  0.8705  -1.3709   0.0000   0.0000   0.0000   0.4096
  25.700   0.8755   0.34716   0.34596  -0.1680  0.0050  0.8720  -1.3794   0.0000   0.0000   0.0000   0.4098
  25.800   0.8741   0.34717   0.34599  -0.1681  0.0050  0.8735  -1.3889   0.0000   0.0000   0.0000   0.4100
  25.900   0.8728   0.34715   0.34598  -0.1681  0.0049  0.8750  -1.3997   0.0000   0.0000   0.0000   0.4102


