xflr5 v6.61

 Calculated polar for: FX 60-100 (126) AIRFOIL

 1 1 Reynolds number fixed          Mach number fixed         

 xtrf =   1.000 (top)        1.000 (bottom)
 Mach =   0.000     Re =     0.688 e 6     Ncrit =   9.000

  alpha     CL        CD       CDp       Cm    Top Xtr Bot Xtr   Cpmin    Chinge    XCp    
 ------- -------- --------- --------- -------- ------- ------- -------- --------- ---------
 -10.000  -0.3110   0.10761   0.10541  -0.0272  1.0000  0.0096  -1.5263   0.0000   0.0000   0.0000   0.1535
  -9.900  -0.3108   0.10634   0.10415  -0.0273  1.0000  0.0096  -1.5378   0.0000   0.0000   0.0000   0.1531
  -9.800  -0.3106   0.10507   0.10289  -0.0274  1.0000  0.0096  -1.5497   0.0000   0.0000   0.0000   0.1528
  -9.700  -0.3098   0.10371   0.10153  -0.0278  0.9999  0.0096  -1.5620   0.0000   0.0000   0.0000   0.1516
  -9.600  -0.3058   0.10192   0.09974  -0.0291  0.9997  0.0096  -1.5749   0.0000   0.0000   0.0000   0.1461
  -9.500  -0.3018   0.10012   0.09795  -0.0304  0.9994  0.0096  -1.5884   0.0000   0.0000   0.0000   0.1403
  -9.400  -0.2979   0.09832   0.09614  -0.0318  0.9990  0.0096  -1.6027   0.0000   0.0000   0.0000   0.1343
  -9.300  -0.2940   0.09652   0.09434  -0.0332  0.9986  0.0096  -1.6177   0.0000   0.0000   0.0000   0.1281
  -9.200  -0.2902   0.09473   0.09255  -0.0346  0.9982  0.0097  -1.6335   0.0000   0.0000   0.0000   0.1218
  -9.100  -0.2865   0.09294   0.09076  -0.0360  0.9978  0.0097  -1.6502   0.0000   0.0000   0.0000   0.1153
  -9.000  -0.2829   0.09114   0.08897  -0.0374  0.9974  0.0097  -1.6678   0.0000   0.0000   0.0000   0.1087
  -8.900  -0.2794   0.08931   0.08714  -0.0388  0.9969  0.0097  -1.6864   0.0000   0.0000   0.0000   0.1019
  -8.800  -0.2760   0.08746   0.08529  -0.0403  0.9963  0.0097  -1.7060   0.0000   0.0000   0.0000   0.0949
  -8.700  -0.2726   0.08559   0.08342  -0.0418  0.9957  0.0097  -1.7269   0.0000   0.0000   0.0000   0.0875
  -8.600  -0.2692   0.08369   0.08152  -0.0434  0.9951  0.0097  -1.7491   0.0000   0.0000   0.0000   0.0797
  -8.500  -0.2659   0.08177   0.07960  -0.0450  0.9944  0.0097  -1.7728   0.0000   0.0000   0.0000   0.0717
  -8.400  -0.2626   0.07981   0.07765  -0.0466  0.9936  0.0097  -1.7981   0.0000   0.0000   0.0000   0.0632
  -8.300  -0.2595   0.07783   0.07567  -0.0484  0.9927  0.0098  -1.8252   0.0000   0.0000   0.0000   0.0544
  -8.200  -0.2564   0.07580   0.07364  -0.0501  0.9917  0.0098  -1.8543   0.0000   0.0000   0.0000   0.0451
  -8.100  -0.2534   0.07374   0.07158  -0.0520  0.9906  0.0098  -1.8858   0.0000   0.0000   0.0000   0.0355
  -8.000  -0.2506   0.07163   0.06947  -0.0539  0.9894  0.0098  -1.9201   0.0000   0.0000   0.0000   0.0254
  -7.900  -0.2479   0.06946   0.06730  -0.0560  0.9881  0.0098  -1.9576   0.0000   0.0000   0.0000   0.0147
  -7.800  -0.2453   0.06719   0.06504  -0.0582  0.9865  0.0098  -1.9993   0.0000   0.0000   0.0000   0.0035
  -7.700  -0.2429   0.06476   0.06260  -0.0605  0.9847  0.0098  -2.0470   0.0000   0.0000   0.0000  -0.0085
  -7.600  -0.2407   0.06208   0.05993  -0.0631  0.9827  0.0098  -2.1040   0.0000   0.0000   0.0000  -0.0216
  -7.500  -0.2387   0.05883   0.05667  -0.0663  0.9804  0.0098  -2.1840   0.0000   0.0000   0.0000  -0.0373
  -7.400  -0.2377   0.05556   0.05336  -0.0698  0.9776  0.0098  -2.2668   0.0000   0.0000   0.0000  -0.0533
  -7.300  -0.2381   0.05284   0.05061  -0.0731  0.9742  0.0098  -2.3300   0.0000   0.0000   0.0000  -0.0666
  -7.200  -0.2404   0.05037   0.04811  -0.0767  0.9699  0.0098  -2.3868   0.0000   0.0000   0.0000  -0.0780
  -7.100  -0.2405   0.04756   0.04525  -0.0816  0.9658  0.0098  -2.4422   0.0000   0.0000   0.0000  -0.0982
  -6.700  -0.2299   0.03059   0.02740  -0.1045  0.9530  0.0105  -3.0004   0.0000   0.0000   0.0000  -0.2134
  -6.600  -0.2278   0.02485   0.02121  -0.1081  0.9473  0.0121  -3.2316   0.0000   0.0000   0.0000  -0.2336
  -6.500  -0.2201   0.02378   0.02007  -0.1086  0.9459  0.0132  -3.1504   0.0000   0.0000   0.0000  -0.2525
  -6.400  -0.2112   0.02338   0.01964  -0.1089  0.9441  0.0142  -3.0224   0.0000   0.0000   0.0000  -0.2750
  -6.300  -0.2019   0.02314   0.01939  -0.1092  0.9421  0.0153  -2.8863   0.0000   0.0000   0.0000  -0.3004
  -6.200  -0.1923   0.02300   0.01925  -0.1094  0.9397  0.0166  -2.7482   0.0000   0.0000   0.0000  -0.3287
  -6.100  -0.1824   0.02287   0.01912  -0.1096  0.9370  0.0184  -2.6161   0.0000   0.0000   0.0000  -0.3608
  -5.800  -0.1515   0.02112   0.01711  -0.1110  0.9268  0.0293  -2.3194   0.0000   0.0000   0.0000  -0.4933
  -5.700  -0.1427   0.02113   0.01726  -0.1117  0.9232  0.0344  -2.1433   0.0000   0.0000   0.0000  -0.5434
  -5.600  -0.1326   0.02227   0.01860  -0.1117  0.9197  0.0408  -1.9476   0.0000   0.0000   0.0000  -0.6029
  -5.000  -0.0540   0.01053   0.00531  -0.1121  0.8950  0.0191  -2.1936   0.0000   0.0000   0.0000  -1.8518
  -4.900  -0.0406   0.00954   0.00404  -0.1123  0.8937  0.0160  -2.1855   0.0000   0.0000   0.0000  -2.5476
  -4.800  -0.0286   0.00920   0.00358  -0.1124  0.8920  0.0147  -2.0981   0.0000   0.0000   0.0000  -3.7279
  -4.700  -0.0167   0.00895   0.00323  -0.1126  0.8901  0.0139  -2.0042   0.0000   0.0000   0.0000  -6.5574
  -4.600  -0.0049   0.00874   0.00291  -0.1127  0.8878  0.0135  -1.9174   0.0000   0.0000   0.0000  -23.0933
  -4.500   0.0069   0.00856   0.00261  -0.1127  0.8851  0.0135  -1.8332   0.0000   0.0000   0.0000  16.6665
  -4.400   0.0194   0.00834   0.00226  -0.1126  0.8820  0.0199  -1.7857   0.0000   0.0000   0.0000   6.1039
  -4.300   0.0308   0.00804   0.00221  -0.1130  0.8779  0.0398  -1.6828   0.0000   0.0000   0.0000   3.9526
  -4.200   0.0416   0.00795   0.00215  -0.1130  0.8727  0.0476  -1.5733   0.0000   0.0000   0.0000   2.9889
  -4.100   0.0523   0.00791   0.00209  -0.1130  0.8665  0.0498  -1.4649   0.0000   0.0000   0.0000   2.4289
  -4.000   0.0629   0.00789   0.00204  -0.1130  0.8591  0.0508  -1.3582   0.0000   0.0000   0.0000   2.0621
  -3.900   0.0733   0.00789   0.00199  -0.1129  0.8505  0.0512  -1.2625   0.0000   0.0000   0.0000   1.8035
  -3.800   0.0835   0.00791   0.00198  -0.1128  0.8400  0.0515  -1.2139   0.0000   0.0000   0.0000   1.6109
  -3.700   0.0940   0.00795   0.00199  -0.1128  0.8275  0.0517  -1.1653   0.0000   0.0000   0.0000   1.4587
  -3.500   0.1163   0.00793   0.00191  -0.1131  0.8043  0.0539  -1.0772   0.0000   0.0000   0.0000   1.2289
  -3.400   0.1275   0.00781   0.00175  -0.1132  0.8031  0.0576  -1.0413   0.0000   0.0000   0.0000   1.1434
  -3.300   0.1388   0.00768   0.00165  -0.1133  0.8019  0.0718  -1.0066   0.0000   0.0000   0.0000   1.0717
  -3.200   0.1499   0.00755   0.00161  -0.1135  0.8003  0.0828  -0.9666   0.0000   0.0000   0.0000   1.0118
  -3.100   0.1616   0.00705   0.00145  -0.1142  0.7981  0.1617  -0.9288   0.0000   0.0000   0.0000   0.9607
  -3.000   0.1732   0.00664   0.00133  -0.1148  0.7953  0.2331  -0.8906   0.0000   0.0000   0.0000   0.9165
  -2.900   0.1842   0.00654   0.00129  -0.1149  0.7917  0.2499  -0.8526   0.0000   0.0000   0.0000   0.8773
  -2.800   0.1953   0.00636   0.00125  -0.1152  0.7869  0.2794  -0.8149   0.0000   0.0000   0.0000   0.8427
  -2.700   0.2063   0.00623   0.00124  -0.1154  0.7808  0.3049  -0.7776   0.0000   0.0000   0.0000   0.8119
  -2.500   0.2277   0.00609   0.00134  -0.1155  0.7622  0.4192  -0.7066   0.0000   0.0000   0.0000   0.7594
  -2.400   0.2382   0.00612   0.00133  -0.1154  0.7497  0.4270  -0.6806   0.0000   0.0000   0.0000   0.7365
  -2.300   0.2486   0.00617   0.00130  -0.1153  0.7355  0.4319  -0.6549   0.0000   0.0000   0.0000   0.7156
  -2.200   0.2590   0.00622   0.00128  -0.1152  0.7198  0.4355  -0.6293   0.0000   0.0000   0.0000   0.6965
  -2.100   0.2695   0.00627   0.00127  -0.1152  0.7016  0.4384  -0.6038   0.0000   0.0000   0.0000   0.6788
  -2.000   0.2804   0.00629   0.00126  -0.1152  0.6897  0.4408  -0.5778   0.0000   0.0000   0.0000   0.6622
  -1.900   0.2914   0.00630   0.00126  -0.1153  0.6848  0.4455  -0.5520   0.0000   0.0000   0.0000   0.6468
  -1.800   0.3022   0.00630   0.00129  -0.1153  0.6780  0.4554  -0.5264   0.0000   0.0000   0.0000   0.6326
  -1.700   0.3129   0.00634   0.00132  -0.1153  0.6691  0.4624  -0.5010   0.0000   0.0000   0.0000   0.6193
  -1.600   0.3233   0.00640   0.00135  -0.1152  0.6582  0.4682  -0.5059   0.0000   0.0000   0.0000   0.6070
  -1.500   0.3336   0.00650   0.00138  -0.1151  0.6454  0.4732  -0.5129   0.0000   0.0000   0.0000   0.5956
  -1.400   0.3436   0.00662   0.00140  -0.1149  0.6301  0.4775  -0.5208   0.0000   0.0000   0.0000   0.5849
  -1.300   0.3537   0.00673   0.00142  -0.1148  0.6117  0.4815  -0.5288   0.0000   0.0000   0.0000   0.5749
  -1.200   0.3641   0.00684   0.00151  -0.1147  0.5968  0.4872  -0.5370   0.0000   0.0000   0.0000   0.5652
  -1.100   0.3750   0.00688   0.00153  -0.1147  0.5932  0.4895  -0.5454   0.0000   0.0000   0.0000   0.5560
  -1.000   0.3861   0.00690   0.00152  -0.1148  0.5896  0.4900  -0.5539   0.0000   0.0000   0.0000   0.5474
  -0.900   0.3973   0.00690   0.00149  -0.1150  0.5864  0.4901  -0.5624   0.0000   0.0000   0.0000   0.5392
  -0.800   0.4084   0.00690   0.00147  -0.1151  0.5832  0.4899  -0.5710   0.0000   0.0000   0.0000   0.5315
  -0.700   0.4195   0.00692   0.00145  -0.1152  0.5793  0.4898  -0.5802   0.0000   0.0000   0.0000   0.5243
  -0.600   0.4305   0.00694   0.00143  -0.1153  0.5745  0.4898  -0.5903   0.0000   0.0000   0.0000   0.5174
  -0.500   0.4414   0.00697   0.00142  -0.1153  0.5690  0.4898  -0.6003   0.0000   0.0000   0.0000   0.5108
  -0.400   0.4523   0.00700   0.00141  -0.1154  0.5631  0.4896  -0.6103   0.0000   0.0000   0.0000   0.5046
  -0.300   0.4631   0.00703   0.00141  -0.1155  0.5572  0.4893  -0.6234   0.0000   0.0000   0.0000   0.4987
  -0.200   0.4740   0.00707   0.00140  -0.1155  0.5518  0.4889  -0.6383   0.0000   0.0000   0.0000   0.4930
  -0.100   0.4849   0.00709   0.00139  -0.1156  0.5475  0.4884  -0.6533   0.0000   0.0000   0.0000   0.4876
   0.000   0.4958   0.00712   0.00138  -0.1157  0.5436  0.4879  -0.6684   0.0000   0.0000   0.0000   0.4824
   0.100   0.5068   0.00714   0.00137  -0.1157  0.5395  0.4874  -0.6836   0.0000   0.0000   0.0000   0.4775
   0.200   0.5178   0.00717   0.00137  -0.1158  0.5354  0.4870  -0.6988   0.0000   0.0000   0.0000   0.4727
   0.300   0.5287   0.00719   0.00138  -0.1159  0.5312  0.4868  -0.7140   0.0000   0.0000   0.0000   0.4681
   0.400   0.5397   0.00722   0.00139  -0.1159  0.5269  0.4876  -0.7293   0.0000   0.0000   0.0000   0.4637
   0.500   0.5522   0.00713   0.00145  -0.1163  0.5490  0.4916  -0.7461   0.0000   0.0000   0.0000   0.4593
   0.600   0.5637   0.00711   0.00147  -0.1164  0.5526  0.4923  -0.7620   0.0000   0.0000   0.0000   0.4552
   0.700   0.5751   0.00710   0.00149  -0.1165  0.5553  0.4930  -0.7779   0.0000   0.0000   0.0000   0.4513
   0.800   0.5864   0.00710   0.00151  -0.1167  0.5572  0.4937  -0.7938   0.0000   0.0000   0.0000   0.4475
   0.900   0.5976   0.00711   0.00154  -0.1168  0.5581  0.4945  -0.8096   0.0000   0.0000   0.0000   0.4439
   1.000   0.6088   0.00713   0.00157  -0.1168  0.5580  0.4952  -0.8255   0.0000   0.0000   0.0000   0.4404
   1.100   0.6198   0.00716   0.00160  -0.1169  0.5571  0.4959  -0.8413   0.0000   0.0000   0.0000   0.4370
   1.200   0.6309   0.00719   0.00164  -0.1170  0.5563  0.4965  -0.8572   0.0000   0.0000   0.0000   0.4337
   1.300   0.6420   0.00721   0.00168  -0.1170  0.5570  0.4971  -0.8732   0.0000   0.0000   0.0000   0.4305
   1.400   0.6533   0.00722   0.00173  -0.1171  0.5592  0.4977  -0.8894   0.0000   0.0000   0.0000   0.4274
   1.500   0.6647   0.00723   0.00178  -0.1173  0.5623  0.4983  -0.9057   0.0000   0.0000   0.0000   0.4245
   1.600   0.6761   0.00724   0.00184  -0.1174  0.5658  0.4988  -0.9220   0.0000   0.0000   0.0000   0.4216
   1.700   0.6874   0.00726   0.00191  -0.1175  0.5692  0.4992  -0.9383   0.0000   0.0000   0.0000   0.4188
   1.800   0.6986   0.00728   0.00198  -0.1176  0.5720  0.4996  -0.9547   0.0000   0.0000   0.0000   0.4161
   1.900   0.7098   0.00731   0.00206  -0.1176  0.5736  0.5000  -0.9709   0.0000   0.0000   0.0000   0.4135
   2.000   0.7209   0.00732   0.00208  -0.1177  0.5733  0.5022  -0.9873   0.0000   0.0000   0.0000   0.4109
   2.100   0.7319   0.00733   0.00207  -0.1178  0.5700  0.5056  -1.0035   0.0000   0.0000   0.0000   0.4085
   2.200   0.7428   0.00735   0.00207  -0.1178  0.5657  0.5093  -1.0197   0.0000   0.0000   0.0000   0.4061
   2.300   0.7536   0.00738   0.00207  -0.1178  0.5611  0.5136  -1.0359   0.0000   0.0000   0.0000   0.4038
   2.400   0.7643   0.00741   0.00207  -0.1178  0.5561  0.5182  -1.0520   0.0000   0.0000   0.0000   0.4016
   2.500   0.7749   0.00746   0.00208  -0.1178  0.5507  0.5231  -1.0681   0.0000   0.0000   0.0000   0.3994
   2.600   0.7854   0.00750   0.00210  -0.1178  0.5446  0.5282  -1.0841   0.0000   0.0000   0.0000   0.3972
   2.700   0.7959   0.00755   0.00213  -0.1178  0.5380  0.5332  -1.1002   0.0000   0.0000   0.0000   0.3951
   2.800   0.8065   0.00760   0.00216  -0.1177  0.5307  0.5380  -1.1163   0.0000   0.0000   0.0000   0.3930
   2.900   0.8171   0.00764   0.00220  -0.1177  0.5233  0.5423  -1.1325   0.0000   0.0000   0.0000   0.3910
   3.000   0.8278   0.00769   0.00225  -0.1177  0.5164  0.5459  -1.1488   0.0000   0.0000   0.0000   0.3891
   3.100   0.8385   0.00774   0.00229  -0.1177  0.5098  0.5486  -1.1652   0.0000   0.0000   0.0000   0.3872
   3.200   0.8493   0.00779   0.00234  -0.1177  0.5035  0.5509  -1.1816   0.0000   0.0000   0.0000   0.3853
   3.300   0.8603   0.00782   0.00238  -0.1178  0.4997  0.5526  -1.1983   0.0000   0.0000   0.0000   0.3835
   3.400   0.8713   0.00781   0.00241  -0.1178  0.4985  0.5537  -1.2390   0.0000   0.0000   0.0000   0.3817
   3.500   0.8824   0.00782   0.00243  -0.1179  0.4967  0.5543  -1.2801   0.0000   0.0000   0.0000   0.3800
   3.600   0.8933   0.00784   0.00245  -0.1179  0.4937  0.5547  -1.3215   0.0000   0.0000   0.0000   0.3783
   3.700   0.9041   0.00787   0.00248  -0.1179  0.4886  0.5552  -1.3629   0.0000   0.0000   0.0000   0.3766
   3.800   0.9145   0.00794   0.00252  -0.1178  0.4794  0.5556  -1.4042   0.0000   0.0000   0.0000   0.3749
   4.000   0.9297   0.00855   0.00267  -0.1167  0.4135  0.5563  -1.4771   0.0000   0.0000   0.0000   0.3715
   4.100   0.9366   0.00897   0.00276  -0.1161  0.3545  0.5567  -1.5125   0.0000   0.0000   0.0000   0.3699
   4.200   0.9457   0.00918   0.00284  -0.1159  0.3019  0.5571  -1.5524   0.0000   0.0000   0.0000   0.3683
   4.300   0.9529   0.00960   0.00303  -0.1154  0.2748  0.5574  -1.5888   0.0000   0.0000   0.0000   0.3668
   4.400   0.9604   0.00999   0.00322  -0.1150  0.2513  0.5578  -1.6258   0.0000   0.0000   0.0000   0.3652
   4.500   0.9698   0.01015   0.00331  -0.1148  0.2415  0.5581  -1.6676   0.0000   0.0000   0.0000   0.3638
   4.600   0.9784   0.01041   0.00343  -0.1145  0.2263  0.5584  -1.7079   0.0000   0.0000   0.0000   0.3623
   4.700   0.9866   0.01072   0.00360  -0.1141  0.2059  0.5587  -1.7476   0.0000   0.0000   0.0000   0.3609
   4.800   0.9963   0.01087   0.00369  -0.1140  0.1921  0.5590  -1.7912   0.0000   0.0000   0.0000   0.3595
   4.900   1.0059   0.01103   0.00379  -0.1138  0.1830  0.5593  -1.8350   0.0000   0.0000   0.0000   0.3582
   5.000   1.0150   0.01124   0.00390  -0.1136  0.1717  0.5596  -1.8785   0.0000   0.0000   0.0000   0.3568
   5.100   1.0241   0.01145   0.00403  -0.1134  0.1584  0.5599  -1.9221   0.0000   0.0000   0.0000   0.3555
   5.200   1.0339   0.01158   0.00413  -0.1132  0.1459  0.5601  -1.9680   0.0000   0.0000   0.0000   0.3542
   5.300   1.0439   0.01168   0.00421  -0.1131  0.1426  0.5604  -2.0153   0.0000   0.0000   0.0000   0.3529
   5.400   1.0537   0.01181   0.00431  -0.1129  0.1367  0.5607  -2.0626   0.0000   0.0000   0.0000   0.3517
   5.500   1.0608   0.01221   0.00451  -0.1124  0.1124  0.5609  -2.1044   0.0000   0.0000   0.0000   0.3504
   5.600   1.0666   0.01276   0.00481  -0.1117  0.0839  0.5611  -2.1428   0.0000   0.0000   0.0000   0.3490
   5.700   1.0746   0.01305   0.00499  -0.1113  0.0686  0.5614  -2.1882   0.0000   0.0000   0.0000   0.3478
   5.800   1.0824   0.01337   0.00521  -0.1108  0.0481  0.5616  -2.2342   0.0000   0.0000   0.0000   0.3465
   5.900   1.0883   0.01389   0.00555  -0.1101  0.0256  0.5618  -2.3204   0.0000   0.0000   0.0000   0.3452
   6.000   1.0974   0.01405   0.00567  -0.1098  0.0231  0.5620  -2.4335   0.0000   0.0000   0.0000   0.3439
   6.100   1.1062   0.01425   0.00580  -0.1095  0.0205  0.5623  -2.5450   0.0000   0.0000   0.0000   0.3427
   6.200   1.1153   0.01443   0.00590  -0.1091  0.0169  0.5625  -2.6557   0.0000   0.0000   0.0000   0.3415
   6.300   1.1247   0.01466   0.00622  -0.1085  0.0106  0.5627  -2.7107   0.0000   0.0000   0.0000   0.3400
   6.400   1.1329   0.01499   0.00674  -0.1078  0.0099  0.5630  -2.7700   0.0000   0.0000   0.0000   0.3385
   6.500   1.1405   0.01536   0.00725  -0.1070  0.0098  0.5632  -2.8520   0.0000   0.0000   0.0000   0.3370
   6.600   1.1477   0.01575   0.00775  -0.1061  0.0100  0.5634  -2.9368   0.0000   0.0000   0.0000   0.3356
   6.700   1.1549   0.01612   0.00820  -0.1053  0.0103  0.5636  -3.0206   0.0000   0.0000   0.0000   0.3342
   6.800   1.1623   0.01646   0.00860  -0.1045  0.0108  0.5638  -3.1072   0.0000   0.0000   0.0000   0.3328
   6.900   1.1699   0.01676   0.00894  -0.1038  0.0113  0.5640  -3.1972   0.0000   0.0000   0.0000   0.3315
   7.000   1.1777   0.01703   0.00925  -0.1031  0.0120  0.5642  -3.2895   0.0000   0.0000   0.0000   0.3302
   7.100   1.1854   0.01731   0.00956  -0.1024  0.0129  0.5645  -3.3807   0.0000   0.0000   0.0000   0.3289
   7.200   1.1923   0.01766   0.00996  -0.1015  0.0141  0.5647  -3.4639   0.0000   0.0000   0.0000   0.3275
   7.300   1.1973   0.01818   0.01060  -0.1002  0.0158  0.5649  -3.5174   0.0000   0.0000   0.0000   0.3259
   7.400   1.1965   0.01946   0.01220  -0.0971  0.0198  0.5650  -3.4310   0.0000   0.0000   0.0000   0.3233
  17.200   0.9566   0.22189   0.21975  -0.1238  0.0142  1.0000  -2.0857   0.0000   0.0000   0.0000   0.3613
  17.300   0.9584   0.22400   0.22185  -0.1246  0.0141  1.0000  -2.0840   0.0000   0.0000   0.0000   0.3618
  17.400   0.9602   0.22606   0.22390  -0.1255  0.0139  1.0000  -2.0870   0.0000   0.0000   0.0000   0.3622
  17.500   0.9622   0.22805   0.22588  -0.1262  0.0137  1.0000  -2.0956   0.0000   0.0000   0.0000   0.3626
  17.600   0.9644   0.22998   0.22780  -0.1270  0.0135  1.0000  -2.1108   0.0000   0.0000   0.0000   0.3630
  17.700   0.9668   0.23182   0.22963  -0.1277  0.0132  1.0000  -2.1341   0.0000   0.0000   0.0000   0.3632
  17.800   0.9695   0.23356   0.23137  -0.1283  0.0129  1.0000  -2.1671   0.0000   0.0000   0.0000   0.3633
  17.900   0.9723   0.23520   0.23300  -0.1289  0.0126  1.0000  -2.2101   0.0000   0.0000   0.0000   0.3633
  18.000   0.9751   0.23679   0.23459  -0.1295  0.0122  1.0000  -2.2599   0.0000   0.0000   0.0000   0.3633
  18.100   0.9773   0.23857   0.23636  -0.1301  0.0118  1.0000  -2.2987   0.0000   0.0000   0.0000   0.3635
  18.200   0.9790   0.24066   0.23845  -0.1309  0.0113  1.0000  -2.3282   0.0000   0.0000   0.0000   0.3639
  20.300   1.0103   0.30232   0.30010  -0.1525  0.0095  1.0000  -1.7121   0.0000   0.0000   0.0000   0.3785
  20.400   1.0125   0.30510   0.30288  -0.1535  0.0095  1.0000  -1.7031   0.0000   0.0000   0.0000   0.3790
  20.500   1.0146   0.30792   0.30571  -0.1545  0.0094  1.0000  -1.6941   0.0000   0.0000   0.0000   0.3795
  20.600   1.0167   0.31079   0.30858  -0.1555  0.0094  1.0000  -1.6849   0.0000   0.0000   0.0000   0.3801
  20.700   1.0189   0.31372   0.31151  -0.1566  0.0094  1.0000  -1.6758   0.0000   0.0000   0.0000   0.3806
  20.800   1.0210   0.31672   0.31451  -0.1576  0.0094  1.0000  -1.6665   0.0000   0.0000   0.0000   0.3812
  20.900   1.0231   0.31980   0.31760  -0.1587  0.0094  1.0000  -1.6571   0.0000   0.0000   0.0000   0.3818
  21.000   1.0253   0.32298   0.32078  -0.1599  0.0093  1.0000  -1.6474   0.0000   0.0000   0.0000   0.3824
  21.100   1.0274   0.32630   0.32410  -0.1611  0.0093  1.0000  -1.6374   0.0000   0.0000   0.0000   0.3831
  21.200   1.0296   0.32979   0.32760  -0.1623  0.0093  1.0000  -1.6269   0.0000   0.0000   0.0000   0.3838
  21.300   1.0317   0.33354   0.33136  -0.1637  0.0093  1.0000  -1.6153   0.0000   0.0000   0.0000   0.3847
  21.400   1.0338   0.33776   0.33559  -0.1653  0.0092  1.0000  -1.6015   0.0000   0.0000   0.0000   0.3857
  21.500   1.0360   0.34341   0.34126  -0.1676  0.0092  1.0000  -1.5810   0.0000   0.0000   0.0000   0.3874
  24.900   0.9757   0.37547   0.37419  -0.2245  0.0073  0.8002  -0.6885   0.0000   0.0000   0.0000   0.4524
  25.000   0.9759   0.37656   0.37528  -0.2249  0.0073  0.8007  -0.6856   0.0000   0.0000   0.0000   0.4525
  25.100   0.9761   0.37764   0.37637  -0.2252  0.0073  0.8011  -0.6829   0.0000   0.0000   0.0000   0.4526
  25.200   0.9763   0.37873   0.37746  -0.2256  0.0073  0.8016  -0.6801   0.0000   0.0000   0.0000   0.4527
  25.300   0.9765   0.37981   0.37855  -0.2259  0.0072  0.8019  -0.6774   0.0000   0.0000   0.0000   0.4528
  25.400   0.9766   0.38089   0.37963  -0.2263  0.0072  0.8023  -0.6748   0.0000   0.0000   0.0000   0.4529
  25.500   0.9768   0.38197   0.38072  -0.2266  0.0072  0.8025  -0.6722   0.0000   0.0000   0.0000   0.4531
  25.600   0.9769   0.38305   0.38180  -0.2269  0.0072  0.8028  -0.6696   0.0000   0.0000   0.0000   0.4532
  25.700   0.9770   0.38413   0.38288  -0.2273  0.0071  0.8031  -0.6672   0.0000   0.0000   0.0000   0.4533
  25.800   0.9771   0.38520   0.38396  -0.2276  0.0071  0.8033  -0.6647   0.0000   0.0000   0.0000   0.4534
  25.900   0.9771   0.38627   0.38503  -0.2279  0.0071  0.8036  -0.6623   0.0000   0.0000   0.0000   0.4535
  26.000   0.9772   0.38734   0.38610  -0.2282  0.0071  0.8038  -0.6600   0.0000   0.0000   0.0000   0.4535
  26.100   0.9772   0.38840   0.38717  -0.2285  0.0070  0.8039  -0.6577   0.0000   0.0000   0.0000   0.4536
  26.200   0.9773   0.38947   0.38824  -0.2288  0.0070  0.8047  -0.6555   0.0000   0.0000   0.0000   0.4537
  26.300   0.9773   0.39052   0.38929  -0.2291  0.0070  0.8064  -0.6533   0.0000   0.0000   0.0000   0.4538
  26.400   0.9773   0.39157   0.39034  -0.2294  0.0070  0.8081  -0.6511   0.0000   0.0000   0.0000   0.4539
  26.500   0.9772   0.39261   0.39138  -0.2297  0.0069  0.8099  -0.6491   0.0000   0.0000   0.0000   0.4539
  26.600   0.9772   0.39363   0.39241  -0.2299  0.0069  0.8116  -0.6471   0.0000   0.0000   0.0000   0.4540
  26.700   0.9771   0.39465   0.39342  -0.2302  0.0069  0.8133  -0.6451   0.0000   0.0000   0.0000   0.4541
  26.800   0.9769   0.39566   0.39443  -0.2304  0.0069  0.8150  -0.6432   0.0000   0.0000   0.0000   0.4541
  26.900   0.9768   0.39665   0.39543  -0.2306  0.0069  0.8167  -0.6413   0.0000   0.0000   0.0000   0.4541
  27.000   0.9766   0.39764   0.39642  -0.2308  0.0068  0.8183  -0.6395   0.0000   0.0000   0.0000   0.4542
  27.100   0.9764   0.39862   0.39740  -0.2310  0.0068  0.8198  -0.6381   0.0000   0.0000   0.0000   0.4542
  27.200   0.9762   0.39960   0.39838  -0.2312  0.0068  0.8213  -0.6369   0.0000   0.0000   0.0000   0.4542
  27.300   0.9760   0.40058   0.39936  -0.2314  0.0068  0.8228  -0.6357   0.0000   0.0000   0.0000   0.4543
  27.400   0.9757   0.40155   0.40033  -0.2316  0.0068  0.8242  -0.6345   0.0000   0.0000   0.0000   0.4543
  27.500   0.9755   0.40252   0.40131  -0.2318  0.0067  0.8256  -0.6333   0.0000   0.0000   0.0000   0.4543
  27.600   0.9752   0.40349   0.40228  -0.2320  0.0067  0.8269  -0.6322   0.0000   0.0000   0.0000   0.4543
  27.700   0.9750   0.40446   0.40325  -0.2322  0.0067  0.8283  -0.6310   0.0000   0.0000   0.0000   0.4544
  27.800   0.9747   0.40543   0.40422  -0.2324  0.0067  0.8297  -0.6299   0.0000   0.0000   0.0000   0.4544
  27.900   0.9743   0.40635   0.40517  -0.2325  0.0067  0.8317  -0.6269   0.0000   0.0000   0.0000   0.4544
  28.000   0.9741   0.40734   0.40616  -0.2327  0.0066  0.8328  -0.6253   0.0000   0.0000   0.0000   0.4544
  28.100   0.9739   0.40834   0.40716  -0.2329  0.0066  0.8339  -0.6239   0.0000   0.0000   0.0000   0.4545
  28.200   0.9736   0.40933   0.40816  -0.2332  0.0066  0.8349  -0.6225   0.0000   0.0000   0.0000   0.4545
  28.300   0.9734   0.41033   0.40915  -0.2334  0.0066  0.8360  -0.6213   0.0000   0.0000   0.0000   0.4545
  28.400   0.9732   0.41132   0.41015  -0.2336  0.0066  0.8370  -0.6201   0.0000   0.0000   0.0000   0.4546
  28.500   0.9729   0.41232   0.41115  -0.2338  0.0066  0.8380  -0.6189   0.0000   0.0000   0.0000   0.4546
  28.600   0.9727   0.41332   0.41215  -0.2341  0.0065  0.8390  -0.6177   0.0000   0.0000   0.0000   0.4547
  28.700   0.9724   0.41431   0.41315  -0.2343  0.0065  0.8400  -0.6166   0.0000   0.0000   0.0000   0.4547
  28.800   0.9722   0.41531   0.41415  -0.2345  0.0065  0.8410  -0.6155   0.0000   0.0000   0.0000   0.4548
  28.900   0.9719   0.41631   0.41515  -0.2347  0.0065  0.8421  -0.6144   0.0000   0.0000   0.0000   0.4548
  29.000   0.9717   0.41731   0.41616  -0.2350  0.0065  0.8431  -0.6133   0.0000   0.0000   0.0000   0.4549
  29.100   0.9714   0.41832   0.41716  -0.2352  0.0065  0.8440  -0.6123   0.0000   0.0000   0.0000   0.4549
  29.200   0.9711   0.41932   0.41816  -0.2354  0.0064  0.8450  -0.6112   0.0000   0.0000   0.0000   0.4550
  29.300   0.9708   0.42032   0.41917  -0.2357  0.0064  0.8460  -0.6102   0.0000   0.0000   0.0000   0.4550
  29.400   0.9706   0.42133   0.42018  -0.2359  0.0064  0.8470  -0.6091   0.0000   0.0000   0.0000   0.4551
  29.500   0.9703   0.42233   0.42119  -0.2362  0.0064  0.8480  -0.6081   0.0000   0.0000   0.0000   0.4551
  29.600   0.9700   0.42334   0.42220  -0.2364  0.0064  0.8490  -0.6071   0.0000   0.0000   0.0000   0.4552
  29.700   0.9697   0.42435   0.42321  -0.2367  0.0064  0.8499  -0.6061   0.0000   0.0000   0.0000   0.4553
  29.800   0.9694   0.42536   0.42422  -0.2369  0.0064  0.8509  -0.6051   0.0000   0.0000   0.0000   0.4553
  29.900   0.9691   0.42637   0.42523  -0.2371  0.0063  0.8518  -0.6041   0.0000   0.0000   0.0000   0.4554
  30.000   0.9688   0.42738   0.42624  -0.2374  0.0063  0.8528  -0.6032   0.0000   0.0000   0.0000   0.4554


