xflr5 v6.61

 Calculated polar for: FX 60-100 AIRFOIL

 1 1 Reynolds number fixed          Mach number fixed         

 xtrf =   1.000 (top)        1.000 (bottom)
 Mach =   0.000     Re =     0.500 e 6     Ncrit =   9.000

  alpha     CL        CD       CDp       Cm    Top Xtr Bot Xtr   Cpmin    Chinge    XCp    
 ------- -------- --------- --------- -------- ------- ------- -------- --------- ---------
 -10.000  -0.3809   0.10373   0.10139  -0.0310  1.0000  0.0110  -2.1540   0.0000   0.0000   0.0000   0.1597
  -9.900  -0.3791   0.10243   0.10009  -0.0314  1.0000  0.0111  -2.1451   0.0000   0.0000   0.0000   0.1581
  -9.800  -0.3773   0.10115   0.09882  -0.0319  1.0000  0.0112  -2.1354   0.0000   0.0000   0.0000   0.1565
  -9.700  -0.3755   0.09986   0.09753  -0.0324  1.0000  0.0113  -2.1279   0.0000   0.0000   0.0000   0.1549
  -9.600  -0.3739   0.09856   0.09625  -0.0329  1.0000  0.0114  -2.1219   0.0000   0.0000   0.0000   0.1533
  -9.500  -0.3721   0.09735   0.09501  -0.0333  1.0000  0.0115  -2.1109   0.0000   0.0000   0.0000   0.1518
  -9.400  -0.3707   0.09600   0.09367  -0.0338  1.0000  0.0116  -2.1114   0.0000   0.0000   0.0000   0.1501
  -9.300  -0.3694   0.09462   0.09230  -0.0344  1.0000  0.0118  -2.1140   0.0000   0.0000   0.0000   0.1483
  -9.200  -0.3682   0.09322   0.09092  -0.0350  1.0000  0.0119  -2.1186   0.0000   0.0000   0.0000   0.1466
  -9.100  -0.3672   0.09182   0.08952  -0.0355  1.0000  0.0120  -2.1253   0.0000   0.0000   0.0000   0.1448
  -9.000  -0.3663   0.09040   0.08812  -0.0361  1.0000  0.0121  -2.1343   0.0000   0.0000   0.0000   0.1432
  -8.900  -0.3657   0.08898   0.08670  -0.0366  1.0000  0.0122  -2.1453   0.0000   0.0000   0.0000   0.1416
  -8.800  -0.3653   0.08755   0.08529  -0.0372  1.0000  0.0123  -2.1585   0.0000   0.0000   0.0000   0.1401
  -8.700  -0.3652   0.08613   0.08388  -0.0377  1.0000  0.0125  -2.1738   0.0000   0.0000   0.0000   0.1388
  -8.600  -0.3654   0.08470   0.08247  -0.0381  1.0000  0.0126  -2.1912   0.0000   0.0000   0.0000   0.1377
  -8.500  -0.3660   0.08329   0.08108  -0.0385  1.0000  0.0127  -2.2107   0.0000   0.0000   0.0000   0.1369
  -8.400  -0.3672   0.08190   0.07971  -0.0388  1.0000  0.0128  -2.2322   0.0000   0.0000   0.0000   0.1365
  -8.300  -0.3691   0.08056   0.07839  -0.0390  1.0000  0.0129  -2.2558   0.0000   0.0000   0.0000   0.1367
  -8.200  -0.3718   0.07929   0.07714  -0.0390  1.0000  0.0129  -2.2812   0.0000   0.0000   0.0000   0.1376
  -8.100  -0.3759   0.07816   0.07604  -0.0386  1.0000  0.0130  -2.3082   0.0000   0.0000   0.0000   0.1398
  -8.000  -0.3821   0.07729   0.07519  -0.0377  1.0000  0.0130  -2.3361   0.0000   0.0000   0.0000   0.1442
  -7.900  -0.3909   0.07674   0.07468  -0.0360  1.0000  0.0130  -2.3643   0.0000   0.0000   0.0000   0.1509
  -7.800  -0.4019   0.07647   0.07444  -0.0338  1.0000  0.0129  -2.3927   0.0000   0.0000   0.0000   0.1593
  -7.700  -0.3989   0.07427   0.07225  -0.0363  0.9985  0.0131  -2.4285   0.0000   0.0000   0.0000   0.1524
  -7.600  -0.3922   0.07142   0.06940  -0.0403  0.9962  0.0132  -2.4736   0.0000   0.0000   0.0000   0.1405
  -7.500  -0.3834   0.06797   0.06596  -0.0455  0.9936  0.0134  -2.5320   0.0000   0.0000   0.0000   0.1245
  -7.400  -0.3730   0.06379   0.06178  -0.0522  0.9913  0.0136  -2.6151   0.0000   0.0000   0.0000   0.1032
  -7.300  -0.3619   0.05786   0.05584  -0.0616  0.9882  0.0136  -2.7655   0.0000   0.0000   0.0000   0.0725
  -7.200  -0.3408   0.04566   0.04341  -0.0847  0.9838  0.0132  -3.1251   0.0000   0.0000   0.0000  -0.0062
  -7.100  -0.3277   0.04167   0.03923  -0.0914  0.9808  0.0135  -3.2021   0.0000   0.0000   0.0000  -0.0368
  -7.000  -0.3144   0.03854   0.03592  -0.0962  0.9783  0.0139  -3.2489   0.0000   0.0000   0.0000  -0.0640
  -6.900  -0.2996   0.03588   0.03303  -0.1001  0.9767  0.0147  -3.2852   0.0000   0.0000   0.0000  -0.0926
  -6.800  -0.2837   0.03397   0.03094  -0.1029  0.9757  0.0158  -3.2968   0.0000   0.0000   0.0000  -0.1215
  -6.700  -0.2635   0.03584   0.03265  -0.1032  0.9752  0.0172  -3.1424   0.0000   0.0000   0.0000  -0.1509
  -6.600  -0.2532   0.02775   0.02408  -0.1108  0.9735  0.0191  -3.4080   0.0000   0.0000   0.0000  -0.1974
  -6.500  -0.2433   0.02722   0.02357  -0.1113  0.9708  0.0198  -3.2916   0.0000   0.0000   0.0000  -0.2172
  -6.400  -0.2314   0.02676   0.02311  -0.1121  0.9690  0.0209  -3.1712   0.0000   0.0000   0.0000  -0.2447
  -6.300  -0.2181   0.02621   0.02248  -0.1131  0.9674  0.0227  -3.0731   0.0000   0.0000   0.0000  -0.2792
  -6.200  -0.1999   0.02983   0.02605  -0.1121  0.9663  0.0266  -2.8384   0.0000   0.0000   0.0000  -0.3217
  -6.100  -0.1898   0.02390   0.01975  -0.1163  0.9644  0.0290  -2.9441   0.0000   0.0000   0.0000  -0.3741
  -6.000  -0.1770   0.02327   0.01917  -0.1171  0.9632  0.0300  -2.8181   0.0000   0.0000   0.0000  -0.4239
  -5.900  -0.1636   0.02273   0.01861  -0.1180  0.9622  0.0312  -2.6999   0.0000   0.0000   0.0000  -0.4839
  -5.800  -0.1535   0.02227   0.01811  -0.1181  0.9590  0.0324  -2.6076   0.0000   0.0000   0.0000  -0.5325
  -5.700  -0.1419   0.02212   0.01791  -0.1182  0.9565  0.0347  -2.5007   0.0000   0.0000   0.0000  -0.5970
  -5.600  -0.1290   0.02141   0.01692  -0.1192  0.9543  0.0402  -2.4242   0.0000   0.0000   0.0000  -0.6899
  -5.500  -0.1179   0.02048   0.01605  -0.1198  0.9526  0.0421  -2.3163   0.0000   0.0000   0.0000  -0.7830
  -5.400  -0.1060   0.02004   0.01563  -0.1203  0.9511  0.0439  -2.2061   0.0000   0.0000   0.0000  -0.9026
  -5.200  -0.0744   0.01494   0.00966  -0.1194  0.9485  0.0183  -2.5770   0.0000   0.0000   0.0000  -1.3796
  -5.100  -0.0640   0.01494   0.00963  -0.1191  0.9455  0.0178  -2.5035   0.0000   0.0000   0.0000  -1.6394
  -5.000  -0.0529   0.01495   0.00964  -0.1190  0.9428  0.0175  -2.4208   0.0000   0.0000   0.0000  -2.0316
  -4.900  -0.0419   0.01380   0.00844  -0.1190  0.9404  0.0165  -2.4329   0.0000   0.0000   0.0000  -2.6300
  -4.800  -0.0304   0.01311   0.00769  -0.1191  0.9382  0.0161  -2.4085   0.0000   0.0000   0.0000  -3.7225
  -4.700  -0.0187   0.01255   0.00709  -0.1192  0.9362  0.0157  -2.3741   0.0000   0.0000   0.0000  -6.2127
  -4.600  -0.0068   0.01208   0.00657  -0.1193  0.9343  0.0154  -2.3344   0.0000   0.0000   0.0000  -17.4273
  -4.500   0.0049   0.01167   0.00611  -0.1194  0.9323  0.0151  -2.2913   0.0000   0.0000   0.0000  25.0649
  -4.400   0.0157   0.01132   0.00572  -0.1193  0.9292  0.0149  -2.2473   0.0000   0.0000   0.0000   7.9382
  -4.300   0.0270   0.01100   0.00535  -0.1194  0.9263  0.0147  -2.2002   0.0000   0.0000   0.0000   4.7300
  -4.200   0.0385   0.01070   0.00500  -0.1194  0.9235  0.0146  -2.1510   0.0000   0.0000   0.0000   3.3913
  -4.100   0.0502   0.01040   0.00461  -0.1195  0.9209  0.0145  -2.1106   0.0000   0.0000   0.0000   2.6593
  -4.000   0.0619   0.01015   0.00431  -0.1195  0.9186  0.0144  -2.0559   0.0000   0.0000   0.0000   2.2027
  -3.900   0.0738   0.00994   0.00404  -0.1196  0.9165  0.0144  -1.9994   0.0000   0.0000   0.0000   1.8883
  -3.800   0.0852   0.00976   0.00381  -0.1196  0.9138  0.0145  -1.9433   0.0000   0.0000   0.0000   1.6682
  -3.700   0.0965   0.00959   0.00360  -0.1196  0.9108  0.0146  -1.8870   0.0000   0.0000   0.0000   1.5017
  -3.600   0.1079   0.00944   0.00341  -0.1196  0.9079  0.0148  -1.8305   0.0000   0.0000   0.0000   1.3690
  -3.500   0.1194   0.00931   0.00322  -0.1196  0.9051  0.0151  -1.7747   0.0000   0.0000   0.0000   1.2612
  -3.400   0.1308   0.00918   0.00304  -0.1195  0.9023  0.0155  -1.7208   0.0000   0.0000   0.0000   1.1722
  -3.300   0.1423   0.00907   0.00287  -0.1194  0.8996  0.0163  -1.6702   0.0000   0.0000   0.0000   1.0968
  -3.200   0.1540   0.00895   0.00269  -0.1194  0.8970  0.0184  -1.6404   0.0000   0.0000   0.0000   1.0318
  -3.100   0.1664   0.00829   0.00237  -0.1200  0.8939  0.1100  -1.6706   0.0000   0.0000   0.0000   0.9767
  -3.000   0.1779   0.00794   0.00226  -0.1203  0.8906  0.1689  -1.5974   0.0000   0.0000   0.0000   0.9315
  -2.900   0.1893   0.00770   0.00217  -0.1205  0.8873  0.2161  -1.5136   0.0000   0.0000   0.0000   0.8914
  -2.800   0.2006   0.00747   0.00211  -0.1207  0.8843  0.2682  -1.4266   0.0000   0.0000   0.0000   0.8558
  -2.700   0.2119   0.00733   0.00207  -0.1208  0.8814  0.3068  -1.3388   0.0000   0.0000   0.0000   0.8237
  -2.600   0.2232   0.00723   0.00204  -0.1208  0.8786  0.3317  -1.2509   0.0000   0.0000   0.0000   0.7945
  -2.500   0.2345   0.00715   0.00203  -0.1208  0.8755  0.3625  -1.1634   0.0000   0.0000   0.0000   0.7682
  -2.400   0.2455   0.00708   0.00203  -0.1208  0.8717  0.3839  -1.0778   0.0000   0.0000   0.0000   0.7447
  -2.300   0.2565   0.00704   0.00202  -0.1207  0.8676  0.3998  -0.9930   0.0000   0.0000   0.0000   0.7230
  -2.200   0.2675   0.00701   0.00200  -0.1206  0.8635  0.4108  -0.9088   0.0000   0.0000   0.0000   0.7029
  -2.100   0.2786   0.00698   0.00197  -0.1205  0.8595  0.4182  -0.8236   0.0000   0.0000   0.0000   0.6844
  -2.000   0.2898   0.00702   0.00183  -0.1203  0.8557  0.4025  -0.7255   0.0000   0.0000   0.0000   0.6669
  -1.900   0.3009   0.00697   0.00185  -0.1203  0.8520  0.4229  -0.6486   0.0000   0.0000   0.0000   0.6512
  -1.800   0.3120   0.00697   0.00184  -0.1202  0.8478  0.4340  -0.5734   0.0000   0.0000   0.0000   0.6365
  -1.700   0.3230   0.00693   0.00183  -0.1201  0.8433  0.4425  -0.5051   0.0000   0.0000   0.0000   0.6229
  -1.600   0.3341   0.00691   0.00180  -0.1200  0.8386  0.4481  -0.5134   0.0000   0.0000   0.0000   0.6101
  -1.500   0.3451   0.00691   0.00177  -0.1198  0.8339  0.4533  -0.5217   0.0000   0.0000   0.0000   0.5981
  -1.400   0.3561   0.00692   0.00174  -0.1197  0.8293  0.4582  -0.5301   0.0000   0.0000   0.0000   0.5868
  -1.300   0.3673   0.00690   0.00173  -0.1196  0.8244  0.4626  -0.5384   0.0000   0.0000   0.0000   0.5763
  -1.200   0.3784   0.00690   0.00171  -0.1196  0.8192  0.4663  -0.5468   0.0000   0.0000   0.0000   0.5663
  -1.100   0.3895   0.00689   0.00168  -0.1195  0.8139  0.4712  -0.5551   0.0000   0.0000   0.0000   0.5569
  -1.000   0.4005   0.00688   0.00166  -0.1193  0.8087  0.4768  -0.5635   0.0000   0.0000   0.0000   0.5481
  -0.900   0.4115   0.00689   0.00165  -0.1192  0.8037  0.4826  -0.5719   0.0000   0.0000   0.0000   0.5397
  -0.800   0.4227   0.00687   0.00165  -0.1192  0.7985  0.4885  -0.5807   0.0000   0.0000   0.0000   0.5318
  -0.700   0.4338   0.00688   0.00165  -0.1191  0.7929  0.4941  -0.5907   0.0000   0.0000   0.0000   0.5243
  -0.600   0.4449   0.00689   0.00163  -0.1190  0.7873  0.4987  -0.6006   0.0000   0.0000   0.0000   0.5171
  -0.500   0.4559   0.00690   0.00162  -0.1189  0.7820  0.5044  -0.6106   0.0000   0.0000   0.0000   0.5103
  -0.400   0.4670   0.00690   0.00162  -0.1188  0.7770  0.5106  -0.6206   0.0000   0.0000   0.0000   0.5038
  -0.300   0.4782   0.00689   0.00163  -0.1188  0.7718  0.5163  -0.6307   0.0000   0.0000   0.0000   0.4977
  -0.200   0.4894   0.00689   0.00164  -0.1187  0.7659  0.5213  -0.6407   0.0000   0.0000   0.0000   0.4918
  -0.100   0.5005   0.00691   0.00163  -0.1186  0.7598  0.5258  -0.6508   0.0000   0.0000   0.0000   0.4862
   0.000   0.5115   0.00694   0.00162  -0.1185  0.7540  0.5298  -0.6608   0.0000   0.0000   0.0000   0.4807
   0.200   0.5337   0.00695   0.00163  -0.1184  0.7421  0.5393  -0.6822   0.0000   0.0000   0.0000   0.4707
   0.300   0.5447   0.00696   0.00165  -0.1183  0.7344  0.5450  -0.6942   0.0000   0.0000   0.0000   0.4659
   0.400   0.5555   0.00699   0.00165  -0.1182  0.7261  0.5508  -0.7067   0.0000   0.0000   0.0000   0.4613
   0.500   0.5664   0.00703   0.00166  -0.1181  0.7182  0.5566  -0.7252   0.0000   0.0000   0.0000   0.4569
   0.600   0.5774   0.00706   0.00167  -0.1180  0.7092  0.5621  -0.7440   0.0000   0.0000   0.0000   0.4527
   0.700   0.5882   0.00710   0.00168  -0.1178  0.6992  0.5675  -0.7626   0.0000   0.0000   0.0000   0.4486
   0.800   0.5988   0.00714   0.00170  -0.1177  0.6900  0.5746  -0.7811   0.0000   0.0000   0.0000   0.4447
   0.900   0.6098   0.00716   0.00173  -0.1176  0.6812  0.5811  -0.8000   0.0000   0.0000   0.0000   0.4410
   1.000   0.6206   0.00720   0.00176  -0.1175  0.6719  0.5873  -0.8189   0.0000   0.0000   0.0000   0.4373
   1.100   0.6313   0.00727   0.00177  -0.1173  0.6633  0.5929  -0.8377   0.0000   0.0000   0.0000   0.4338
   1.200   0.6423   0.00732   0.00180  -0.1173  0.6558  0.5974  -0.8569   0.0000   0.0000   0.0000   0.4304
   1.300   0.6533   0.00733   0.00182  -0.1172  0.6468  0.6039  -0.8761   0.0000   0.0000   0.0000   0.4272
   1.400   0.6640   0.00738   0.00185  -0.1171  0.6367  0.6097  -0.8952   0.0000   0.0000   0.0000   0.4240
   1.500   0.6746   0.00744   0.00188  -0.1169  0.6275  0.6153  -0.9142   0.0000   0.0000   0.0000   0.4209
   1.600   0.6856   0.00748   0.00191  -0.1169  0.6189  0.6206  -0.9337   0.0000   0.0000   0.0000   0.4180
   1.700   0.6964   0.00754   0.00194  -0.1168  0.6096  0.6254  -0.9531   0.0000   0.0000   0.0000   0.4151
   1.900   0.7179   0.00766   0.00201  -0.1166  0.5925  0.6356  -0.9919   0.0000   0.0000   0.0000   0.4096
   2.000   0.7288   0.00769   0.00205  -0.1165  0.5837  0.6416  -1.0116   0.0000   0.0000   0.0000   0.4070
   2.100   0.7395   0.00776   0.00209  -0.1164  0.5741  0.6476  -1.0311   0.0000   0.0000   0.0000   0.4044
   2.200   0.7500   0.00785   0.00214  -0.1162  0.5648  0.6536  -1.0506   0.0000   0.0000   0.0000   0.4020
   2.300   0.7610   0.00789   0.00218  -0.1162  0.5573  0.6591  -1.0706   0.0000   0.0000   0.0000   0.3996
   2.400   0.7718   0.00794   0.00226  -0.1161  0.5486  0.6654  -1.0955   0.0000   0.0000   0.0000   0.3972
   2.500   0.7823   0.00801   0.00231  -0.1160  0.5393  0.6721  -1.1213   0.0000   0.0000   0.0000   0.3949
   2.600   0.7928   0.00808   0.00237  -0.1159  0.5308  0.6789  -1.1474   0.0000   0.0000   0.0000   0.3927
   2.700   0.8038   0.00812   0.00241  -0.1158  0.5226  0.6855  -1.1741   0.0000   0.0000   0.0000   0.3906
   2.800   0.8146   0.00820   0.00246  -0.1157  0.5129  0.6918  -1.2007   0.0000   0.0000   0.0000   0.3885
   2.900   0.8249   0.00827   0.00252  -0.1156  0.5030  0.6995  -1.2269   0.0000   0.0000   0.0000   0.3864
   3.000   0.8356   0.00832   0.00258  -0.1155  0.4950  0.7079  -1.2536   0.0000   0.0000   0.0000   0.3844
   3.100   0.8464   0.00838   0.00264  -0.1154  0.4864  0.7168  -1.2806   0.0000   0.0000   0.0000   0.3825
   3.200   0.8568   0.00845   0.00270  -0.1153  0.4770  0.7262  -1.3073   0.0000   0.0000   0.0000   0.3806
   3.300   0.8670   0.00854   0.00277  -0.1151  0.4675  0.7375  -1.3338   0.0000   0.0000   0.0000   0.3787
   3.400   0.8779   0.00857   0.00283  -0.1150  0.4600  0.7493  -1.3689   0.0000   0.0000   0.0000   0.3768
   3.500   0.8882   0.00861   0.00290  -0.1148  0.4495  0.7629  -1.4071   0.0000   0.0000   0.0000   0.3750
   3.700   0.9081   0.00874   0.00304  -0.1144  0.4286  0.8009  -1.4829   0.0000   0.0000   0.0000   0.3715
   3.900   0.9211   0.00858   0.00311  -0.1121  0.4105  0.9339  -1.5549   0.0000   0.0000   0.0000   0.3671
   4.000   0.9324   0.00869   0.00317  -0.1122  0.4001  1.0000  -1.6043   0.0000   0.0000   0.0000   0.3656
   4.100   0.9433   0.00879   0.00324  -0.1122  0.3898  1.0000  -1.6532   0.0000   0.0000   0.0000   0.3641
   4.200   0.9536   0.00895   0.00338  -0.1121  0.3765  1.0000  -1.7020   0.0000   0.0000   0.0000   0.3626
   4.300   0.9641   0.00909   0.00347  -0.1120  0.3655  1.0000  -1.7511   0.0000   0.0000   0.0000   0.3611
   4.400   0.9746   0.00923   0.00356  -0.1119  0.3543  1.0000  -1.8006   0.0000   0.0000   0.0000   0.3597
   4.500   0.9845   0.00943   0.00367  -0.1118  0.3395  1.0000  -1.8488   0.0000   0.0000   0.0000   0.3582
   4.600   0.9949   0.00958   0.00377  -0.1117  0.3241  1.0000  -1.8988   0.0000   0.0000   0.0000   0.3569
   4.700   1.0044   0.00983   0.00390  -0.1115  0.3031  1.0000  -1.9468   0.0000   0.0000   0.0000   0.3555
   4.800   1.0139   0.01008   0.00404  -0.1113  0.2842  1.0000  -1.9952   0.0000   0.0000   0.0000   0.3541
   4.900   1.0240   0.01027   0.00416  -0.1112  0.2679  1.0000  -2.0453   0.0000   0.0000   0.0000   0.3528
   5.000   1.0334   0.01054   0.00431  -0.1110  0.2470  1.0000  -2.0939   0.0000   0.0000   0.0000   0.3515
   5.100   1.0431   0.01077   0.00445  -0.1108  0.2319  1.0000  -2.1438   0.0000   0.0000   0.0000   0.3503
   5.200   1.0530   0.01098   0.00459  -0.1106  0.2180  1.0000  -2.1941   0.0000   0.0000   0.0000   0.3490
   5.300   1.0620   0.01130   0.00477  -0.1104  0.1939  1.0000  -2.2427   0.0000   0.0000   0.0000   0.3478
   5.400   1.0708   0.01165   0.00497  -0.1101  0.1734  1.0000  -2.2911   0.0000   0.0000   0.0000   0.3466
   5.500   1.0799   0.01196   0.00515  -0.1099  0.1503  1.0000  -2.3405   0.0000   0.0000   0.0000   0.3454
   5.600   1.0885   0.01232   0.00537  -0.1096  0.1326  1.0000  -2.3890   0.0000   0.0000   0.0000   0.3442
   5.700   1.0981   0.01256   0.00553  -0.1095  0.1201  1.0000  -2.4403   0.0000   0.0000   0.0000   0.3431
   5.800   1.1070   0.01289   0.00574  -0.1092  0.1022  1.0000  -2.4904   0.0000   0.0000   0.0000   0.3419
   5.900   1.1164   0.01314   0.00591  -0.1090  0.0939  1.0000  -2.5419   0.0000   0.0000   0.0000   0.3408
   6.000   1.1261   0.01336   0.00608  -0.1088  0.0877  1.0000  -2.5943   0.0000   0.0000   0.0000   0.3397
   6.100   1.1362   0.01350   0.00624  -0.1087  0.0821  1.0000  -2.6470   0.0000   0.0000   0.0000   0.3386
   6.200   1.1465   0.01363   0.00637  -0.1086  0.0777  1.0000  -2.7013   0.0000   0.0000   0.0000   0.3375
   6.400   1.1655   0.01409   0.00672  -0.1082  0.0637  1.0000  -2.8072   0.0000   0.0000   0.0000   0.3354
   6.500   1.1751   0.01430   0.00688  -0.1080  0.0603  1.0000  -2.8606   0.0000   0.0000   0.0000   0.3343
   6.600   1.1848   0.01450   0.00704  -0.1078  0.0568  1.0000  -2.9141   0.0000   0.0000   0.0000   0.3333
   6.700   1.1946   0.01468   0.00721  -0.1076  0.0533  1.0000  -2.9678   0.0000   0.0000   0.0000   0.3323
   6.800   1.2047   0.01482   0.00735  -0.1075  0.0513  1.0000  -3.0227   0.0000   0.0000   0.0000   0.3313
   6.900   1.2148   0.01495   0.00750  -0.1073  0.0500  1.0000  -3.0907   0.0000   0.0000   0.0000   0.3303
   7.000   1.2248   0.01509   0.00765  -0.1072  0.0475  1.0000  -3.2191   0.0000   0.0000   0.0000   0.3293
   7.100   1.2343   0.01529   0.00783  -0.1070  0.0428  1.0000  -3.3455   0.0000   0.0000   0.0000   0.3283
   7.200   1.2431   0.01558   0.00806  -0.1067  0.0368  1.0000  -3.4671   0.0000   0.0000   0.0000   0.3273
   7.300   1.2522   0.01583   0.00826  -0.1064  0.0325  1.0000  -3.5902   0.0000   0.0000   0.0000   0.3264
   7.400   1.2610   0.01612   0.00849  -0.1061  0.0278  1.0000  -3.7099   0.0000   0.0000   0.0000   0.3254
   7.500   1.2696   0.01642   0.00874  -0.1058  0.0219  1.0000  -3.8279   0.0000   0.0000   0.0000   0.3245
   7.600   1.2776   0.01679   0.00905  -0.1054  0.0154  1.0000  -3.9394   0.0000   0.0000   0.0000   0.3235
   7.700   1.2853   0.01721   0.00943  -0.1049  0.0083  1.0000  -4.0458   0.0000   0.0000   0.0000   0.3225
   7.800   1.2937   0.01753   0.00973  -0.1045  0.0059  1.0000  -4.1546   0.0000   0.0000   0.0000   0.3215
   7.900   1.3030   0.01774   0.00996  -0.1042  0.0047  1.0000  -4.2659   0.0000   0.0000   0.0000   0.3206
   8.000   1.3124   0.01793   0.01020  -0.1040  0.0044  1.0000  -4.3925   0.0000   0.0000   0.0000   0.3197
   8.100   1.3216   0.01814   0.01043  -0.1037  0.0042  1.0000  -4.5167   0.0000   0.0000   0.0000   0.3187
   8.200   1.3306   0.01836   0.01069  -0.1034  0.0041  1.0000  -4.6359   0.0000   0.0000   0.0000   0.3178
   8.300   1.3396   0.01860   0.01095  -0.1030  0.0040  1.0000  -4.7546   0.0000   0.0000   0.0000   0.3169
   8.400   1.3484   0.01884   0.01123  -0.1027  0.0039  1.0000  -4.8734   0.0000   0.0000   0.0000   0.3160
   8.500   1.3571   0.01909   0.01152  -0.1023  0.0038  1.0000  -4.9921   0.0000   0.0000   0.0000   0.3151
   8.600   1.3657   0.01935   0.01182  -0.1019  0.0037  1.0000  -5.1108   0.0000   0.0000   0.0000   0.3142
   8.700   1.3742   0.01963   0.01213  -0.1015  0.0037  1.0000  -5.2295   0.0000   0.0000   0.0000   0.3133
   8.800   1.3825   0.01991   0.01246  -0.1011  0.0036  1.0000  -5.3480   0.0000   0.0000   0.0000   0.3124
   8.900   1.3907   0.02020   0.01279  -0.1006  0.0036  1.0000  -5.4662   0.0000   0.0000   0.0000   0.3115
   9.000   1.3987   0.02050   0.01315  -0.1002  0.0036  1.0000  -5.5837   0.0000   0.0000   0.0000   0.3106
   9.100   1.4066   0.02082   0.01351  -0.0997  0.0036  1.0000  -5.7006   0.0000   0.0000   0.0000   0.3097
   9.200   1.4143   0.02115   0.01389  -0.0992  0.0035  1.0000  -5.8166   0.0000   0.0000   0.0000   0.3088
   9.300   1.4217   0.02149   0.01429  -0.0986  0.0035  1.0000  -5.9314   0.0000   0.0000   0.0000   0.3079
   9.400   1.4289   0.02186   0.01471  -0.0980  0.0035  1.0000  -6.0449   0.0000   0.0000   0.0000   0.3070
   9.500   1.4359   0.02223   0.01514  -0.0974  0.0035  1.0000  -6.1569   0.0000   0.0000   0.0000   0.3061
   9.600   1.4427   0.02263   0.01559  -0.0968  0.0035  1.0000  -6.2669   0.0000   0.0000   0.0000   0.3051
   9.700   1.4491   0.02304   0.01607  -0.0961  0.0035  1.0000  -6.3748   0.0000   0.0000   0.0000   0.3042
   9.800   1.4551   0.02348   0.01656  -0.0954  0.0035  1.0000  -6.4800   0.0000   0.0000   0.0000   0.3033
   9.900   1.4607   0.02394   0.01709  -0.0946  0.0036  1.0000  -6.5820   0.0000   0.0000   0.0000   0.3023
  10.000   1.4659   0.02442   0.01763  -0.0938  0.0036  1.0000  -6.6817   0.0000   0.0000   0.0000   0.3014
  10.100   1.4707   0.02492   0.01820  -0.0929  0.0036  1.0000  -6.7792   0.0000   0.0000   0.0000   0.3004
  10.200   1.4744   0.02543   0.01878  -0.0918  0.0036  1.0000  -6.8697   0.0000   0.0000   0.0000   0.2994
  10.300   1.4775   0.02597   0.01938  -0.0907  0.0036  1.0000  -6.9551   0.0000   0.0000   0.0000   0.2983
  10.400   1.4801   0.02652   0.02000  -0.0895  0.0036  1.0000  -7.0361   0.0000   0.0000   0.0000   0.2973
  10.500   1.4818   0.02714   0.02072  -0.0882  0.0036  1.0000  -7.1143   0.0000   0.0000   0.0000   0.2962
  10.600   1.4833   0.02777   0.02142  -0.0869  0.0037  1.0000  -7.1873   0.0000   0.0000   0.0000   0.2951
  10.700   1.4845   0.02843   0.02215  -0.0856  0.0037  1.0000  -7.2562   0.0000   0.0000   0.0000   0.2940
  10.800   1.4852   0.02913   0.02292  -0.0844  0.0037  1.0000  -7.3213   0.0000   0.0000   0.0000   0.2930
  10.900   1.4857   0.02986   0.02373  -0.0831  0.0037  1.0000  -7.3835   0.0000   0.0000   0.0000   0.2920
  11.000   1.4859   0.03065   0.02459  -0.0819  0.0038  1.0000  -7.4427   0.0000   0.0000   0.0000   0.2910
  11.100   1.4857   0.03147   0.02548  -0.0807  0.0038  1.0000  -7.4978   0.0000   0.0000   0.0000   0.2900
  11.200   1.4852   0.03233   0.02642  -0.0795  0.0038  1.0000  -7.5503   0.0000   0.0000   0.0000   0.2891
  11.300   1.4845   0.03324   0.02741  -0.0783  0.0038  1.0000  -7.6000   0.0000   0.0000   0.0000   0.2882
  11.400   1.4837   0.03421   0.02846  -0.0772  0.0039  1.0000  -7.6470   0.0000   0.0000   0.0000   0.2873
  11.500   1.4825   0.03522   0.02955  -0.0762  0.0039  1.0000  -7.6906   0.0000   0.0000   0.0000   0.2865
  11.600   1.4811   0.03629   0.03070  -0.0752  0.0039  1.0000  -7.7310   0.0000   0.0000   0.0000   0.2856
  11.700   1.4792   0.03740   0.03190  -0.0742  0.0040  1.0000  -7.7669   0.0000   0.0000   0.0000   0.2849
  11.800   1.4770   0.03857   0.03315  -0.0732  0.0040  1.0000  -7.7994   0.0000   0.0000   0.0000   0.2841
  11.900   1.4745   0.03981   0.03448  -0.0723  0.0040  1.0000  -7.8281   0.0000   0.0000   0.0000   0.2834
  12.000   1.4718   0.04111   0.03586  -0.0715  0.0040  1.0000  -7.8537   0.0000   0.0000   0.0000   0.2828
  12.100   1.4687   0.04248   0.03733  -0.0707  0.0041  1.0000  -7.8747   0.0000   0.0000   0.0000   0.2822
  12.200   1.4655   0.04392   0.03886  -0.0700  0.0041  1.0000  -7.8922   0.0000   0.0000   0.0000   0.2816
  12.300   1.4617   0.04544   0.04047  -0.0693  0.0041  1.0000  -7.9043   0.0000   0.0000   0.0000   0.2811
  12.400   1.4576   0.04704   0.04216  -0.0688  0.0041  1.0000  -7.9121   0.0000   0.0000   0.0000   0.2807
  12.500   1.4529   0.04873   0.04395  -0.0683  0.0042  1.0000  -7.9141   0.0000   0.0000   0.0000   0.2803
  12.600   1.4479   0.05050   0.04582  -0.0678  0.0042  1.0000  -7.9107   0.0000   0.0000   0.0000   0.2800
  12.700   1.4421   0.05235   0.04776  -0.0675  0.0042  1.0000  -7.9008   0.0000   0.0000   0.0000   0.2798
  12.800   1.4359   0.05430   0.04982  -0.0672  0.0043  1.0000  -7.8846   0.0000   0.0000   0.0000   0.2796
  12.900   1.4291   0.05640   0.05202  -0.0671  0.0043  1.0000  -7.8612   0.0000   0.0000   0.0000   0.2795
  13.000   1.4217   0.05865   0.05437  -0.0670  0.0043  1.0000  -7.8289   0.0000   0.0000   0.0000   0.2796
  13.100   1.4134   0.06109   0.05692  -0.0672  0.0043  1.0000  -7.7850   0.0000   0.0000   0.0000   0.2798
  13.200   1.4037   0.06382   0.05976  -0.0675  0.0044  1.0000  -7.7192   0.0000   0.0000   0.0000   0.2801
  13.500   1.3835   0.07098   0.06720  -0.0689  0.0045  1.0000  -7.6406   0.0000   0.0000   0.0000   0.2813
  13.600   1.3821   0.07262   0.06888  -0.0694  0.0045  1.0000  -7.6887   0.0000   0.0000   0.0000   0.2815
  13.700   1.3802   0.07437   0.07068  -0.0700  0.0046  1.0000  -7.7304   0.0000   0.0000   0.0000   0.2818
  13.800   1.3780   0.07620   0.07256  -0.0707  0.0046  1.0000  -7.7682   0.0000   0.0000   0.0000   0.2822
  13.900   1.3759   0.07804   0.07445  -0.0714  0.0046  1.0000  -7.8062   0.0000   0.0000   0.0000   0.2826
  14.000   1.3730   0.08007   0.07653  -0.0722  0.0047  1.0000  -7.8338   0.0000   0.0000   0.0000   0.2831
  14.100   1.3704   0.08207   0.07858  -0.0730  0.0047  1.0000  -7.8635   0.0000   0.0000   0.0000   0.2836
  14.200   1.3672   0.08420   0.08077  -0.0740  0.0047  1.0000  -7.8851   0.0000   0.0000   0.0000   0.2842
  14.300   1.3633   0.08643   0.08306  -0.0750  0.0048  1.0000  -7.8990   0.0000   0.0000   0.0000   0.2849
  14.400   1.3596   0.08867   0.08536  -0.0760  0.0048  1.0000  -7.9126   0.0000   0.0000   0.0000   0.2856
  14.500   1.3550   0.09115   0.08790  -0.0772  0.0048  1.0000  -7.9143   0.0000   0.0000   0.0000   0.2865
  14.600   1.3510   0.09356   0.09036  -0.0783  0.0049  1.0000  -7.9208   0.0000   0.0000   0.0000   0.2874
  14.700   1.3461   0.09620   0.09306  -0.0797  0.0049  1.0000  -7.9155   0.0000   0.0000   0.0000   0.2884
  14.800   1.3413   0.09887   0.09579  -0.0811  0.0049  1.0000  -7.9085   0.0000   0.0000   0.0000   0.2894
  14.900   1.3362   0.10165   0.09863  -0.0826  0.0049  1.0000  -7.8962   0.0000   0.0000   0.0000   0.2906
  15.000   1.3307   0.10459   0.10163  -0.0842  0.0049  1.0000  -7.8759   0.0000   0.0000   0.0000   0.2919
  15.100   1.3256   0.10747   0.10457  -0.0857  0.0050  1.0000  -7.8579   0.0000   0.0000   0.0000   0.2931
  15.200   1.3194   0.11067   0.10783  -0.0875  0.0050  1.0000  -7.8237   0.0000   0.0000   0.0000   0.2947
  15.300   1.3137   0.11375   0.11097  -0.0893  0.0050  1.0000  -7.7945   0.0000   0.0000   0.0000   0.2961
  15.400   1.3070   0.11717   0.11445  -0.0913  0.0050  1.0000  -7.7471   0.0000   0.0000   0.0000   0.2978
  15.500   1.3011   0.12041   0.11775  -0.0932  0.0050  1.0000  -7.7083   0.0000   0.0000   0.0000   0.2994
  15.600   1.2940   0.12401   0.12141  -0.0953  0.0050  1.0000  -7.6500   0.0000   0.0000   0.0000   0.3014
  15.700   1.2875   0.12748   0.12494  -0.0974  0.0050  1.0000  -7.5966   0.0000   0.0000   0.0000   0.3032
  15.800   1.2799   0.13133   0.12885  -0.0997  0.0050  1.0000  -7.5224   0.0000   0.0000   0.0000   0.3053
  15.900   1.2732   0.13495   0.13253  -0.1019  0.0050  1.0000  -7.4583   0.0000   0.0000   0.0000   0.3073
  16.000   1.2652   0.13900   0.13663  -0.1043  0.0050  1.0000  -7.3699   0.0000   0.0000   0.0000   0.3097
  16.100   1.2579   0.14291   0.14059  -0.1067  0.0050  1.0000  -7.2869   0.0000   0.0000   0.0000   0.3119
  16.200   1.2492   0.14729   0.14504  -0.1094  0.0049  1.0000  -7.1755   0.0000   0.0000   0.0000   0.3146
  16.300   1.2416   0.15139   0.14919  -0.1119  0.0049  1.0000  -7.0762   0.0000   0.0000   0.0000   0.3171
  16.400   1.2323   0.15610   0.15396  -0.1147  0.0049  1.0000  -6.9404   0.0000   0.0000   0.0000   0.3200
  16.500   1.2224   0.16108   0.15900  -0.1178  0.0049  1.0000  -6.7849   0.0000   0.0000   0.0000   0.3233
  16.600   1.2137   0.16577   0.16373  -0.1206  0.0048  1.0000  -6.6419   0.0000   0.0000   0.0000   0.3262
  16.700   1.2026   0.17129   0.16931  -0.1239  0.0048  1.0000  -6.4385   0.0000   0.0000   0.0000   0.3300
  16.800   1.1908   0.17703   0.17511  -0.1275  0.0047  1.0000  -6.2021   0.0000   0.0000   0.0000   0.3341
  16.900   1.1815   0.18216   0.18028  -0.1306  0.0047  1.0000  -6.0004   0.0000   0.0000   0.0000   0.3377
  17.000   1.1692   0.18859   0.18675  -0.1344  0.0047  1.0000  -5.7130   0.0000   0.0000   0.0000   0.3422
  17.100   1.1592   0.19454   0.19273  -0.1376  0.0047  1.0000  -5.4570   0.0000   0.0000   0.0000   0.3461
  17.200   1.1526   0.19942   0.19763  -0.1402  0.0047  1.0000  -5.2710   0.0000   0.0000   0.0000   0.3491
  17.300   1.1463   0.20442   0.20265  -0.1427  0.0047  1.0000  -5.0749   0.0000   0.0000   0.0000   0.3520
  17.400   1.1413   0.20906   0.20727  -0.1449  0.0047  1.0000  -4.8988   0.0000   0.0000   0.0000   0.3546
  17.500   1.1392   0.21256   0.21077  -0.1466  0.0048  1.0000  -4.8016   0.0000   0.0000   0.0000   0.3562
  17.600   1.1375   0.21595   0.21416  -0.1481  0.0049  1.0000  -4.7102   0.0000   0.0000   0.0000   0.3577
  17.700   1.1351   0.21980   0.21802  -0.1498  0.0050  1.0000  -4.5811   0.0000   0.0000   0.0000   0.3595
  17.800   1.1312   0.22464   0.22285  -0.1518  0.0052  1.0000  -4.3678   0.0000   0.0000   0.0000   0.3617
  18.500   1.1032   0.26801   0.26612  -0.1658  0.0153  1.0000  -2.1372   0.0000   0.0000   0.0000   0.3787
  18.600   1.1048   0.27050   0.26861  -0.1669  0.0148  1.0000  -2.1129   0.0000   0.0000   0.0000   0.3794
  18.700   1.1065   0.27285   0.27097  -0.1678  0.0143  1.0000  -2.0977   0.0000   0.0000   0.0000   0.3799
  18.800   1.1082   0.27514   0.27326  -0.1688  0.0140  1.0000  -2.0875   0.0000   0.0000   0.0000   0.3804
  18.900   1.1100   0.27738   0.27550  -0.1697  0.0137  1.0000  -2.0806   0.0000   0.0000   0.0000   0.3808
  19.000   1.1117   0.27958   0.27770  -0.1705  0.0134  1.0000  -2.0764   0.0000   0.0000   0.0000   0.3812
  19.100   1.1135   0.28175   0.27987  -0.1714  0.0131  1.0000  -2.0744   0.0000   0.0000   0.0000   0.3815
  19.200   1.1153   0.28390   0.28202  -0.1722  0.0129  1.0000  -2.0744   0.0000   0.0000   0.0000   0.3819
  19.300   1.1171   0.28601   0.28413  -0.1730  0.0126  1.0000  -2.0763   0.0000   0.0000   0.0000   0.3822
  19.400   1.1189   0.28810   0.28622  -0.1738  0.0124  1.0000  -2.0801   0.0000   0.0000   0.0000   0.3825
  19.500   1.1207   0.29017   0.28829  -0.1746  0.0122  1.0000  -2.0856   0.0000   0.0000   0.0000   0.3827
  19.600   1.1225   0.29221   0.29034  -0.1754  0.0120  1.0000  -2.0930   0.0000   0.0000   0.0000   0.3830
  19.700   1.1244   0.29422   0.29235  -0.1761  0.0118  1.0000  -2.1023   0.0000   0.0000   0.0000   0.3832
  19.800   1.1262   0.29621   0.29434  -0.1768  0.0117  1.0000  -2.1135   0.0000   0.0000   0.0000   0.3834
  19.900   1.1280   0.29818   0.29631  -0.1775  0.0115  1.0000  -2.1267   0.0000   0.0000   0.0000   0.3836
  20.000   1.1299   0.30011   0.29825  -0.1782  0.0114  1.0000  -2.1419   0.0000   0.0000   0.0000   0.3837
  20.100   1.1317   0.30202   0.30016  -0.1789  0.0112  1.0000  -2.1592   0.0000   0.0000   0.0000   0.3838
  20.200   1.1335   0.30391   0.30205  -0.1795  0.0111  1.0000  -2.1787   0.0000   0.0000   0.0000   0.3839
  20.300   1.1354   0.30576   0.30390  -0.1801  0.0110  1.0000  -2.2004   0.0000   0.0000   0.0000   0.3840
  20.400   1.1372   0.30759   0.30573  -0.1807  0.0109  1.0000  -2.2247   0.0000   0.0000   0.0000   0.3840
  20.500   1.1391   0.30939   0.30754  -0.1812  0.0107  1.0000  -2.2515   0.0000   0.0000   0.0000   0.3840
  20.600   1.1410   0.31116   0.30932  -0.1817  0.0106  1.0000  -2.2810   0.0000   0.0000   0.0000   0.3840
  20.700   1.1428   0.31292   0.31108  -0.1821  0.0105  1.0000  -2.3136   0.0000   0.0000   0.0000   0.3839
  20.800   1.1446   0.31472   0.31288  -0.1825  0.0104  1.0000  -2.3467   0.0000   0.0000   0.0000   0.3838
  20.900   1.1460   0.31673   0.31490  -0.1829  0.0103  1.0000  -2.3711   0.0000   0.0000   0.0000   0.3837
  21.200   1.1414   0.32893   0.32708  -0.1853  0.0097  1.0000  -2.1417   0.0000   0.0000   0.0000   0.3862
  21.300   1.1424   0.33139   0.32954  -0.1861  0.0097  1.0000  -2.1297   0.0000   0.0000   0.0000   0.3865
  21.400   1.1435   0.33384   0.33199  -0.1868  0.0097  1.0000  -2.1179   0.0000   0.0000   0.0000   0.3868
  21.500   1.1445   0.33628   0.33444  -0.1875  0.0097  1.0000  -2.1062   0.0000   0.0000   0.0000   0.3871
  21.600   1.1455   0.33873   0.33690  -0.1882  0.0097  1.0000  -2.0948   0.0000   0.0000   0.0000   0.3875
  21.700   1.1464   0.34117   0.33935  -0.1889  0.0097  1.0000  -2.0834   0.0000   0.0000   0.0000   0.3878
  21.800   1.1472   0.34360   0.34178  -0.1896  0.0097  1.0000  -2.0720   0.0000   0.0000   0.0000   0.3881
  21.900   1.1480   0.34603   0.34421  -0.1903  0.0097  1.0000  -2.0608   0.0000   0.0000   0.0000   0.3884
  22.000   1.1488   0.34845   0.34663  -0.1910  0.0096  1.0000  -2.0497   0.0000   0.0000   0.0000   0.3887
  22.100   1.1495   0.35086   0.34905  -0.1917  0.0096  1.0000  -2.0386   0.0000   0.0000   0.0000   0.3890
  22.200   1.1501   0.35325   0.35145  -0.1923  0.0096  1.0000  -2.0273   0.0000   0.0000   0.0000   0.3893
  22.300   1.1506   0.35564   0.35383  -0.1930  0.0096  1.0000  -2.0162   0.0000   0.0000   0.0000   0.3897
  22.400   1.1511   0.35801   0.35621  -0.1936  0.0096  1.0000  -2.0052   0.0000   0.0000   0.0000   0.3900
  22.500   1.1516   0.36036   0.35856  -0.1943  0.0095  1.0000  -1.9942   0.0000   0.0000   0.0000   0.3903
  22.600   1.1520   0.36269   0.36090  -0.1949  0.0095  1.0000  -1.9823   0.0000   0.0000   0.0000   0.3906
  22.700   1.1524   0.36501   0.36322  -0.1956  0.0094  1.0000  -1.9696   0.0000   0.0000   0.0000   0.3910
  22.800   1.1525   0.36745   0.36566  -0.1964  0.0093  1.0000  -1.9454   0.0000   0.0000   0.0000   0.3915
  22.900   1.1528   0.36993   0.36814  -0.1973  0.0092  1.0000  -1.9166   0.0000   0.0000   0.0000   0.3921
  23.000   1.1531   0.37248   0.37069  -0.1981  0.0090  1.0000  -1.8845   0.0000   0.0000   0.0000   0.3926
  23.100   1.1531   0.37506   0.37328  -0.1987  0.0088  1.0000  -1.8544   0.0000   0.0000   0.0000   0.3930
  23.200   1.1526   0.37759   0.37582  -0.1992  0.0086  1.0000  -1.8301   0.0000   0.0000   0.0000   0.3933
  23.300   1.1517   0.38006   0.37829  -0.1995  0.0084  1.0000  -1.8104   0.0000   0.0000   0.0000   0.3936
  23.400   1.1502   0.38246   0.38069  -0.1998  0.0082  1.0000  -1.7932   0.0000   0.0000   0.0000   0.3939
  23.500   1.1482   0.38481   0.38305  -0.2000  0.0080  1.0000  -1.7774   0.0000   0.0000   0.0000   0.3942
  23.600   1.1455   0.38706   0.38531  -0.2000  0.0079  1.0000  -1.7615   0.0000   0.0000   0.0000   0.3945
  23.700   1.1416   0.38919   0.38745  -0.1998  0.0078  1.0000  -1.7443   0.0000   0.0000   0.0000   0.3948
  23.800   1.1353   0.39108   0.38935  -0.1992  0.0076  1.0000  -1.7227   0.0000   0.0000   0.0000   0.3951
  24.300   0.9258   0.34298   0.34146  -0.1653  0.0080  1.0000  -1.2394   0.0000   0.0000   0.0000   0.4005
  24.400   0.9229   0.34293   0.34142  -0.1651  0.0079  1.0000  -1.2256   0.0000   0.0000   0.0000   0.4008
  24.500   0.9201   0.34295   0.34145  -0.1650  0.0077  1.0000  -1.2133   0.0000   0.0000   0.0000   0.4011
  24.600   0.9175   0.34296   0.34146  -0.1649  0.0076  1.0000  -1.2018   0.0000   0.0000   0.0000   0.4014
  24.700   0.9151   0.34299   0.34150  -0.1648  0.0075  1.0000  -1.1912   0.0000   0.0000   0.0000   0.4016
  24.800   0.9127   0.34304   0.34155  -0.1648  0.0073  1.0000  -1.1814   0.0000   0.0000   0.0000   0.4019
  24.900   0.9105   0.34310   0.34162  -0.1647  0.0072  1.0000  -1.1723   0.0000   0.0000   0.0000   0.4022
  25.000   0.9083   0.34318   0.34171  -0.1647  0.0071  1.0000  -1.1638   0.0000   0.0000   0.0000   0.4024
  25.100   0.9063   0.34327   0.34181  -0.1647  0.0070  1.0000  -1.1559   0.0000   0.0000   0.0000   0.4027
  25.200   0.9043   0.34338   0.34192  -0.1647  0.0069  1.0000  -1.1485   0.0000   0.0000   0.0000   0.4029
  25.300   0.9025   0.34350   0.34204  -0.1647  0.0068  1.0000  -1.1416   0.0000   0.0000   0.0000   0.4032
  25.400   0.9007   0.34363   0.34218  -0.1647  0.0067  1.0000  -1.1352   0.0000   0.0000   0.0000   0.4034
  25.500   0.8990   0.34377   0.34233  -0.1647  0.0066  1.0000  -1.1293   0.0000   0.0000   0.0000   0.4037
  25.600   0.8973   0.34392   0.34248  -0.1648  0.0065  1.0000  -1.1238   0.0000   0.0000   0.0000   0.4039
  25.700   0.8958   0.34408   0.34265  -0.1648  0.0064  1.0000  -1.1187   0.0000   0.0000   0.0000   0.4041
  25.800   0.8942   0.34425   0.34283  -0.1649  0.0063  1.0000  -1.1140   0.0000   0.0000   0.0000   0.4043
  25.900   0.8928   0.34443   0.34301  -0.1650  0.0063  1.0000  -1.1097   0.0000   0.0000   0.0000   0.4046
  26.000   0.8914   0.34462   0.34320  -0.1650  0.0062  1.0000  -1.1058   0.0000   0.0000   0.0000   0.4048
  26.100   0.8900   0.34481   0.34340  -0.1651  0.0061  1.0000  -1.1024   0.0000   0.0000   0.0000   0.4050
  26.200   0.8887   0.34501   0.34361  -0.1652  0.0060  1.0000  -1.0992   0.0000   0.0000   0.0000   0.4052
  26.300   0.8875   0.34522   0.34382  -0.1653  0.0060  1.0000  -1.0965   0.0000   0.0000   0.0000   0.4054
  26.400   0.8863   0.34543   0.34404  -0.1654  0.0059  1.0000  -1.0942   0.0000   0.0000   0.0000   0.4056
  26.500   0.8851   0.34564   0.34425  -0.1656  0.0058  1.0000  -1.0922   0.0000   0.0000   0.0000   0.4058
  26.600   0.8840   0.34586   0.34448  -0.1657  0.0058  1.0000  -1.0906   0.0000   0.0000   0.0000   0.4061
  26.700   0.8828   0.34606   0.34468  -0.1658  0.0057  1.0000  -1.0899   0.0000   0.0000   0.0000   0.4063
  26.800   0.8818   0.34629   0.34492  -0.1660  0.0056  1.0000  -1.0920   0.0000   0.0000   0.0000   0.4064
  26.900   0.8809   0.34650   0.34514  -0.1661  0.0055  1.0000  -1.0946   0.0000   0.0000   0.0000   0.4066
  27.000   0.8799   0.34671   0.34535  -0.1662  0.0055  1.0000  -1.0980   0.0000   0.0000   0.0000   0.4068
  27.100   0.8790   0.34691   0.34556  -0.1664  0.0054  1.0000  -1.1021   0.0000   0.0000   0.0000   0.4070
  27.200   0.8781   0.34711   0.34577  -0.1665  0.0053  1.0000  -1.1069   0.0000   0.0000   0.0000   0.4071
  27.300   0.8772   0.34731   0.34597  -0.1667  0.0052  1.0000  -1.1124   0.0000   0.0000   0.0000   0.4073
  27.400   0.8763   0.34750   0.34616  -0.1668  0.0052  1.0000  -1.1187   0.0000   0.0000   0.0000   0.4075
  27.500   0.8755   0.34769   0.34638  -0.1670  0.0051  1.0000  -1.1253   0.0000   0.0000   0.0000   0.4076
  27.600   0.8746   0.34785   0.34654  -0.1671  0.0051  1.0000  -1.1330   0.0000   0.0000   0.0000   0.4077
  27.700   0.8738   0.34801   0.34671  -0.1673  0.0050  1.0000  -1.1415   0.0000   0.0000   0.0000   0.4079
  27.800   0.8730   0.34817   0.34688  -0.1674  0.0050  1.0000  -1.1509   0.0000   0.0000   0.0000   0.4080
  27.900   0.8721   0.34829   0.34700  -0.1675  0.0049  1.0000  -1.1609   0.0000   0.0000   0.0000   0.4081
  28.000   0.8712   0.34839   0.34711  -0.1677  0.0049  1.0000  -1.1715   0.0000   0.0000   0.0000   0.4082
  28.100   0.8703   0.34846   0.34718  -0.1677  0.0048  1.0000  -1.1825   0.0000   0.0000   0.0000   0.4083
  28.200   0.8694   0.34849   0.34722  -0.1678  0.0048  1.0000  -1.1936   0.0000   0.0000   0.0000   0.4083
  28.300   0.8683   0.34848   0.34721  -0.1678  0.0047  1.0000  -1.2040   0.0000   0.0000   0.0000   0.4084
  28.400   0.8668   0.34840   0.34714  -0.1677  0.0046  1.0000  -1.2077   0.0000   0.0000   0.0000   0.4084


