xflr5 v6.61

 Calculated polar for: FX 60-100 AIRFOIL

 1 1 Reynolds number fixed          Mach number fixed         

 xtrf =   1.000 (top)        1.000 (bottom)
 Mach =   0.000     Re =     0.100 e 6     Ncrit =   9.000

  alpha     CL        CD       CDp       Cm    Top Xtr Bot Xtr   Cpmin    Chinge    XCp    
 ------- -------- --------- --------- -------- ------- ------- -------- --------- ---------
 -10.000  -0.3871   0.11877   0.11367  -0.0312  1.0000  0.0833  -1.6099   0.0000   0.0000   0.0000   0.1616
  -9.900  -0.3908   0.11823   0.11317  -0.0330  1.0000  0.0837  -1.6567   0.0000   0.0000   0.0000   0.1578
  -9.800  -0.3940   0.11762   0.11259  -0.0347  1.0000  0.0840  -1.6996   0.0000   0.0000   0.0000   0.1542
  -9.700  -0.3762   0.11270   0.10765  -0.0302  1.0000  0.0881  -1.5706   0.0000   0.0000   0.0000   0.1618
  -9.600  -0.3684   0.11139   0.10633  -0.0291  1.0000  0.0907  -1.5243   0.0000   0.0000   0.0000   0.1629
  -9.500  -0.3652   0.11018   0.10514  -0.0291  1.0000  0.0925  -1.5149   0.0000   0.0000   0.0000   0.1622
  -9.400  -0.3631   0.10900   0.10397  -0.0294  1.0000  0.0942  -1.5147   0.0000   0.0000   0.0000   0.1610
  -9.300  -0.3620   0.10785   0.10284  -0.0299  1.0000  0.0960  -1.5208   0.0000   0.0000   0.0000   0.1595
  -9.200  -0.3620   0.10678   0.10180  -0.0306  1.0000  0.0980  -1.5351   0.0000   0.0000   0.0000   0.1576
  -9.100  -0.3644   0.10597   0.10102  -0.0320  1.0000  0.1000  -1.5653   0.0000   0.0000   0.0000   0.1547
  -9.000  -0.3712   0.10574   0.10084  -0.0342  1.0000  0.1017  -1.6223   0.0000   0.0000   0.0000   0.1504
  -8.900  -0.3791   0.10567   0.10084  -0.0365  1.0000  0.1026  -1.6819   0.0000   0.0000   0.0000   0.1467
  -8.800  -0.3856   0.10536   0.10058  -0.0381  1.0000  0.1030  -1.7288   0.0000   0.0000   0.0000   0.1444
  -8.700  -0.3920   0.10486   0.10015  -0.0392  1.0000  0.1032  -1.7689   0.0000   0.0000   0.0000   0.1434
  -8.600  -0.3987   0.10430   0.09964  -0.0399  1.0000  0.1033  -1.8051   0.0000   0.0000   0.0000   0.1435
  -8.500  -0.3773   0.09830   0.09359  -0.0369  1.0000  0.1056  -1.7105   0.0000   0.0000   0.0000   0.1454
  -8.400  -0.3649   0.09649   0.09176  -0.0349  1.0000  0.1075  -1.6371   0.0000   0.0000   0.0000   0.1475
  -8.300  -0.3588   0.09527   0.09053  -0.0339  1.0000  0.1092  -1.6002   0.0000   0.0000   0.0000   0.1484
  -8.200  -0.3554   0.09418   0.08946  -0.0335  1.0000  0.1109  -1.5792   0.0000   0.0000   0.0000   0.1489
  -8.100  -0.3537   0.09316   0.08846  -0.0333  1.0000  0.1127  -1.5683   0.0000   0.0000   0.0000   0.1491
  -8.000  -0.3535   0.09218   0.08751  -0.0332  1.0000  0.1146  -1.5655   0.0000   0.0000   0.0000   0.1494
  -7.900  -0.3550   0.09127   0.08664  -0.0332  1.0000  0.1165  -1.5711   0.0000   0.0000   0.0000   0.1498
  -7.800  -0.3588   0.09050   0.08592  -0.0334  1.0000  0.1185  -1.5872   0.0000   0.0000   0.0000   0.1506
  -7.700  -0.3665   0.09005   0.08552  -0.0336  1.0000  0.1204  -1.6197   0.0000   0.0000   0.0000   0.1522
  -7.600  -0.3789   0.09004   0.08560  -0.0335  1.0000  0.1217  -1.6667   0.0000   0.0000   0.0000   0.1557
  -7.500  -0.3932   0.09017   0.08582  -0.0335  1.0000  0.1226  -1.7185   0.0000   0.0000   0.0000   0.1594
  -7.400  -0.4070   0.09014   0.08587  -0.0357  1.0000  0.1234  -1.7898   0.0000   0.0000   0.0000   0.1571
  -7.300  -0.4184   0.08949   0.08527  -0.0392  1.0000  0.1239  -1.8632   0.0000   0.0000   0.0000   0.1514
  -7.200  -0.4278   0.08811   0.08390  -0.0437  1.0000  0.1242  -1.9411   0.0000   0.0000   0.0000   0.1432
  -7.000  -0.4077   0.08379   0.07963  -0.0309  1.0000  0.1276  -1.7399   0.0000   0.0000   0.0000   0.1693
  -6.900  -0.4029   0.08286   0.07871  -0.0288  1.0000  0.1291  -1.6938   0.0000   0.0000   0.0000   0.1735
  -6.800  -0.4013   0.08204   0.07790  -0.0275  1.0000  0.1304  -1.6672   0.0000   0.0000   0.0000   0.1767
  -6.700  -0.4016   0.08126   0.07714  -0.0265  1.0000  0.1318  -1.6516   0.0000   0.0000   0.0000   0.1793
  -6.600  -0.4030   0.08048   0.07639  -0.0257  1.0000  0.1332  -1.6429   0.0000   0.0000   0.0000   0.1816
  -6.500  -0.4051   0.07968   0.07562  -0.0252  1.0000  0.1348  -1.6393   0.0000   0.0000   0.0000   0.1833
  -6.200  -0.4293   0.07395   0.06992  -0.0427  1.0000  0.1478  -1.8920   0.0000   0.0000   0.0000   0.1467
  -6.100  -0.4275   0.07280   0.06884  -0.0394  1.0000  0.1486  -1.8450   0.0000   0.0000   0.0000   0.1540
  -6.000  -0.4258   0.07197   0.06805  -0.0365  1.0000  0.1495  -1.8030   0.0000   0.0000   0.0000   0.1604
  -5.900  -0.4237   0.07129   0.06739  -0.0340  1.0000  0.1504  -1.7625   0.0000   0.0000   0.0000   0.1661
  -5.800  -0.4217   0.07057   0.06669  -0.0320  1.0000  0.1515  -1.7278   0.0000   0.0000   0.0000   0.1705
  -5.700  -0.4197   0.06978   0.06593  -0.0306  1.0000  0.1529  -1.6986   0.0000   0.0000   0.0000   0.1735
  -5.600  -0.4177   0.06892   0.06508  -0.0297  1.0000  0.1545  -1.6741   0.0000   0.0000   0.0000   0.1754
  -5.500  -0.4155   0.06795   0.06411  -0.0294  1.0000  0.1565  -1.6549   0.0000   0.0000   0.0000   0.1758
  -5.400  -0.4129   0.06675   0.06293  -0.0300  1.0000  0.1593  -1.6435   0.0000   0.0000   0.0000   0.1739
  -5.200  -0.3442   0.03936   0.03358  -0.0705  1.0000  0.0650  -2.4998   0.0000   0.0000   0.0000   0.0402
  -5.100  -0.3323   0.03679   0.03090  -0.0721  1.0000  0.0616  -2.4908   0.0000   0.0000   0.0000   0.0279
  -5.000  -0.3077   0.03334   0.02650  -0.0756  1.0000  0.0528  -2.6206   0.0000   0.0000   0.0000  -0.0012
  -4.900  -0.2980   0.03382   0.02685  -0.0749  1.0000  0.0518  -2.5565   0.0000   0.0000   0.0000  -0.0071
  -4.800  -0.2845   0.03128   0.02420  -0.0763  1.0000  0.0505  -2.5311   0.0000   0.0000   0.0000  -0.0242
  -4.700  -0.2709   0.02971   0.02247  -0.0774  1.0000  0.0495  -2.4911   0.0000   0.0000   0.0000  -0.0419
  -4.600  -0.2571   0.02842   0.02100  -0.0783  1.0000  0.0486  -2.4686   0.0000   0.0000   0.0000  -0.0608
  -4.500  -0.2435   0.02729   0.01970  -0.0790  1.0000  0.0478  -2.4571   0.0000   0.0000   0.0000  -0.0811
  -4.400  -0.2301   0.02629   0.01853  -0.0796  1.0000  0.0471  -2.4446   0.0000   0.0000   0.0000  -0.1027
  -4.300  -0.2170   0.02540   0.01748  -0.0800  1.0000  0.0466  -2.4304   0.0000   0.0000   0.0000  -0.1259
  -4.200  -0.2042   0.02460   0.01655  -0.0804  1.0000  0.0462  -2.4143   0.0000   0.0000   0.0000  -0.1508
  -4.100  -0.1918   0.02388   0.01573  -0.0806  1.0000  0.0460  -2.3958   0.0000   0.0000   0.0000  -0.1779
  -4.000  -0.1797   0.02323   0.01501  -0.0808  1.0000  0.0460  -2.3750   0.0000   0.0000   0.0000  -0.2077
  -3.900  -0.1678   0.02265   0.01436  -0.0810  1.0000  0.0462  -2.3523   0.0000   0.0000   0.0000  -0.2410
  -3.800  -0.1560   0.02212   0.01379  -0.0811  1.0000  0.0466  -2.3281   0.0000   0.0000   0.0000  -0.2788
  -3.700  -0.1442   0.02164   0.01327  -0.0813  1.0000  0.0472  -2.3032   0.0000   0.0000   0.0000  -0.3227
  -3.600  -0.1324   0.02120   0.01281  -0.0814  1.0000  0.0480  -2.2782   0.0000   0.0000   0.0000  -0.3746
  -3.500  -0.1206   0.02080   0.01239  -0.0816  1.0000  0.0492  -2.2542   0.0000   0.0000   0.0000  -0.4375
  -3.400  -0.1086   0.02045   0.01201  -0.0819  1.0000  0.0506  -2.2321   0.0000   0.0000   0.0000  -0.5150
  -3.300  -0.0952   0.01997   0.01151  -0.0825  1.0000  0.0529  -2.2165   0.0000   0.0000   0.0000  -0.6285
  -3.200  -0.0811   0.01948   0.01102  -0.0834  1.0000  0.0577  -2.1957   0.0000   0.0000   0.0000  -0.7919
  -3.100  -0.0435   0.01667   0.00970  -0.0896  1.0000  0.3497  -2.3741   0.0000   0.0000   0.0000  -1.8327
  -3.000  -0.0349   0.01689   0.01007  -0.0891  1.0000  0.4144  -2.3368   0.0000   0.0000   0.0000  -2.3320
  -2.900  -0.0276   0.01721   0.01046  -0.0884  1.0000  0.4490  -2.2772   0.0000   0.0000   0.0000  -2.9851
  -2.800  -0.0211   0.01759   0.01089  -0.0875  1.0000  0.4762  -2.2116   0.0000   0.0000   0.0000  -3.9430
  -2.700  -0.0138   0.01790   0.01119  -0.0869  1.0000  0.4951  -2.1419   0.0000   0.0000   0.0000  -6.1221
  -2.600  -0.0055   0.01805   0.01132  -0.0865  1.0000  0.5058  -2.0690   0.0000   0.0000   0.0000  -15.6755
  -2.500   0.0022   0.01821   0.01150  -0.0859  1.0000  0.5150  -1.9965   0.0000   0.0000   0.0000  39.6909
  -2.400   0.0180   0.01845   0.01164  -0.0869  0.9976  0.5295  -1.8911   0.0000   0.0000   0.0000   5.1167
  -2.300   0.0337   0.01862   0.01181  -0.0878  0.9951  0.5408  -1.7836   0.0000   0.0000   0.0000   2.8748
  -2.200   0.0494   0.01881   0.01200  -0.0886  0.9921  0.5522  -1.6768   0.0000   0.0000   0.0000   2.0593
  -2.100   0.0676   0.01901   0.01207  -0.0902  0.9893  0.5652  -1.5632   0.0000   0.0000   0.0000   1.5950
  -2.000   0.0823   0.01909   0.01220  -0.0908  0.9858  0.5740  -1.4606   0.0000   0.0000   0.0000   1.3610
  -1.900   0.1000   0.01926   0.01236  -0.0919  0.9831  0.5857  -1.3478   0.0000   0.0000   0.0000   1.1755
  -1.800   0.1164   0.01942   0.01242  -0.0931  0.9787  0.5979  -1.2443   0.0000   0.0000   0.0000   1.0554
  -1.700   0.1323   0.01946   0.01252  -0.0939  0.9754  0.6070  -1.1405   0.0000   0.0000   0.0000   0.9638
  -1.600   0.1486   0.01957   0.01263  -0.0948  0.9718  0.6177  -1.0379   0.0000   0.0000   0.0000   0.8916
  -1.500   0.1650   0.01968   0.01265  -0.0960  0.9674  0.6285  -0.9385   0.0000   0.0000   0.0000   0.8349
  -1.400   0.1814   0.01966   0.01266  -0.0969  0.9642  0.6362  -0.8373   0.0000   0.0000   0.0000   0.7870
  -1.300   0.1990   0.01970   0.01269  -0.0981  0.9616  0.6441  -0.7240   0.0000   0.0000   0.0000   0.7453
  -1.200   0.2108   0.01974   0.01263  -0.0984  0.9565  0.6516  -0.6284   0.0000   0.0000   0.0000   0.7186
  -1.100   0.2282   0.01982   0.01263  -0.0998  0.9530  0.6607  -0.5375   0.0000   0.0000   0.0000   0.6889
  -1.000   0.2442   0.01977   0.01262  -0.1007  0.9504  0.6676  -0.4621   0.0000   0.0000   0.0000   0.6634
  -0.900   0.2600   0.01980   0.01265  -0.1016  0.9475  0.6751  -0.4723   0.0000   0.0000   0.0000   0.6414
  -0.800   0.2707   0.01984   0.01268  -0.1016  0.9422  0.6824  -0.4796   0.0000   0.0000   0.0000   0.6261
  -0.700   0.2879   0.01987   0.01266  -0.1030  0.9385  0.6908  -0.4903   0.0000   0.0000   0.0000   0.6081
  -0.600   0.3049   0.01979   0.01261  -0.1040  0.9354  0.6974  -0.5015   0.0000   0.0000   0.0000   0.5912
  -0.500   0.3241   0.01975   0.01257  -0.1054  0.9329  0.7048  -0.5141   0.0000   0.0000   0.0000   0.5752
  -0.400   0.3320   0.01977   0.01259  -0.1049  0.9260  0.7113  -0.5213   0.0000   0.0000   0.0000   0.5658
  -0.300   0.3493   0.01973   0.01252  -0.1061  0.9217  0.7188  -0.5342   0.0000   0.0000   0.0000   0.5535
  -0.200   0.3678   0.01962   0.01242  -0.1073  0.9186  0.7256  -0.5482   0.0000   0.0000   0.0000   0.5415
  -0.100   0.3873   0.01951   0.01233  -0.1087  0.9162  0.7332  -0.5628   0.0000   0.0000   0.0000   0.5301
   0.000   0.3939   0.01954   0.01238  -0.1079  0.9090  0.7405  -0.5694   0.0000   0.0000   0.0000   0.5233
   0.100   0.4096   0.01952   0.01234  -0.1088  0.9047  0.7497  -0.5816   0.0000   0.0000   0.0000   0.5148
   0.200   0.4253   0.01939   0.01226  -0.1094  0.9016  0.7576  -0.5941   0.0000   0.0000   0.0000   0.5063
   0.300   0.4430   0.01929   0.01219  -0.1104  0.8992  0.7670  -0.6078   0.0000   0.0000   0.0000   0.4983
   0.400   0.4632   0.01919   0.01208  -0.1120  0.8972  0.7770  -0.6230   0.0000   0.0000   0.0000   0.4907
   0.500   0.4673   0.01924   0.01217  -0.1107  0.8896  0.7837  -0.6286   0.0000   0.0000   0.0000   0.4857
   0.600   0.4809   0.01913   0.01209  -0.1110  0.8850  0.7922  -0.6420   0.0000   0.0000   0.0000   0.4794
   0.700   0.4978   0.01899   0.01195  -0.1118  0.8815  0.8021  -0.6578   0.0000   0.0000   0.0000   0.4732
   0.800   0.5142   0.01877   0.01178  -0.1124  0.8787  0.8108  -0.6735   0.0000   0.0000   0.0000   0.4671
   0.900   0.5313   0.01855   0.01158  -0.1131  0.8764  0.8212  -0.6929   0.0000   0.0000   0.0000   0.4612
   1.000   0.5361   0.01862   0.01169  -0.1120  0.8681  0.8313  -0.7028   0.0000   0.0000   0.0000   0.4572
   1.100   0.5469   0.01845   0.01158  -0.1116  0.8630  0.8425  -0.7210   0.0000   0.0000   0.0000   0.4522
   1.200   0.5608   0.01823   0.01139  -0.1116  0.8593  0.8561  -0.7424   0.0000   0.0000   0.0000   0.4472
   1.300   0.5740   0.01795   0.01118  -0.1114  0.8563  0.8721  -0.7634   0.0000   0.0000   0.0000   0.4421
   1.400   0.5872   0.01765   0.01094  -0.1112  0.8539  0.8935  -0.7846   0.0000   0.0000   0.0000   0.4372
   1.500   0.5907   0.01764   0.01103  -0.1098  0.8448  0.9380  -0.7955   0.0000   0.0000   0.0000   0.4337
   1.600   0.6080   0.01752   0.01091  -0.1111  0.8394  1.0000  -0.8199   0.0000   0.0000   0.0000   0.4304
   1.700   0.6272   0.01737   0.01073  -0.1125  0.8357  1.0000  -0.8463   0.0000   0.0000   0.0000   0.4270
   1.800   0.6465   0.01718   0.01051  -0.1138  0.8325  1.0000  -0.8734   0.0000   0.0000   0.0000   0.4236
   1.900   0.6655   0.01699   0.01029  -0.1149  0.8298  1.0000  -0.9005   0.0000   0.0000   0.0000   0.4202
   2.000   0.6729   0.01721   0.01050  -0.1147  0.8201  1.0000  -0.9151   0.0000   0.0000   0.0000   0.4178
   2.100   0.6871   0.01714   0.01041  -0.1151  0.8145  1.0000  -0.9375   0.0000   0.0000   0.0000   0.4148
   2.200   0.7028   0.01697   0.01022  -0.1156  0.8102  1.0000  -0.9618   0.0000   0.0000   0.0000   0.4117
   2.300   0.7190   0.01675   0.00997  -0.1160  0.8064  1.0000  -0.9870   0.0000   0.0000   0.0000   0.4085
   2.400   0.7301   0.01677   0.00998  -0.1159  0.7993  1.0000  -1.0064   0.0000   0.0000   0.0000   0.4058
   2.500   0.7407   0.01675   0.00995  -0.1156  0.7911  1.0000  -1.0303   0.0000   0.0000   0.0000   0.4030
   2.600   0.7543   0.01655   0.00973  -0.1155  0.7851  1.0000  -1.0600   0.0000   0.0000   0.0000   0.4000
   2.700   0.7691   0.01628   0.00950  -0.1155  0.7802  1.0000  -1.0920   0.0000   0.0000   0.0000   0.3970
   2.800   0.7797   0.01626   0.00947  -0.1152  0.7723  1.0000  -1.1178   0.0000   0.0000   0.0000   0.3944
   2.900   0.7898   0.01622   0.00943  -0.1147  0.7633  1.0000  -1.1431   0.0000   0.0000   0.0000   0.3918
   3.000   0.8027   0.01603   0.00921  -0.1145  0.7566  1.0000  -1.1729   0.0000   0.0000   0.0000   0.3891
   3.100   0.8165   0.01581   0.00894  -0.1143  0.7511  1.0000  -1.2043   0.0000   0.0000   0.0000   0.3864
   3.200   0.8254   0.01589   0.00904  -0.1139  0.7415  1.0000  -1.2281   0.0000   0.0000   0.0000   0.3842
   3.300   0.8363   0.01584   0.00898  -0.1135  0.7331  1.0000  -1.2553   0.0000   0.0000   0.0000   0.3819
   3.400   0.8488   0.01571   0.00881  -0.1133  0.7262  1.0000  -1.2864   0.0000   0.0000   0.0000   0.3795
   3.500   0.8612   0.01562   0.00868  -0.1130  0.7196  1.0000  -1.3284   0.0000   0.0000   0.0000   0.3772
   3.600   0.8702   0.01571   0.00880  -0.1126  0.7093  1.0000  -1.3631   0.0000   0.0000   0.0000   0.3753
   3.700   0.8813   0.01566   0.00874  -0.1123  0.7007  1.0000  -1.4031   0.0000   0.0000   0.0000   0.3731
   3.800   0.8936   0.01558   0.00860  -0.1120  0.6937  1.0000  -1.4459   0.0000   0.0000   0.0000   0.3710
   3.900   0.9037   0.01564   0.00867  -0.1117  0.6846  1.0000  -1.4840   0.0000   0.0000   0.0000   0.3691
   4.000   0.9139   0.01568   0.00871  -0.1113  0.6747  1.0000  -1.5225   0.0000   0.0000   0.0000   0.3672
   4.100   0.9253   0.01564   0.00863  -0.1109  0.6661  1.0000  -1.5644   0.0000   0.0000   0.0000   0.3652
   4.200   0.9364   0.01566   0.00860  -0.1106  0.6570  1.0000  -1.6058   0.0000   0.0000   0.0000   0.3634
   4.300   0.9458   0.01573   0.00870  -0.1101  0.6454  1.0000  -1.6435   0.0000   0.0000   0.0000   0.3616
   4.400   0.9566   0.01572   0.00876  -0.1097  0.6349  1.0000  -1.6855   0.0000   0.0000   0.0000   0.3597
   4.500   0.9672   0.01578   0.00878  -0.1093  0.6247  1.0000  -1.7321   0.0000   0.0000   0.0000   0.3580
   4.600   0.9766   0.01586   0.00889  -0.1089  0.6127  1.0000  -1.7778   0.0000   0.0000   0.0000   0.3563
   4.700   0.9873   0.01590   0.00886  -0.1085  0.6020  1.0000  -1.8274   0.0000   0.0000   0.0000   0.3546
   4.800   0.9973   0.01601   0.00894  -0.1081  0.5907  1.0000  -1.8750   0.0000   0.0000   0.0000   0.3529
   4.900   1.0067   0.01610   0.00905  -0.1076  0.5782  1.0000  -1.9216   0.0000   0.0000   0.0000   0.3514
   5.000   1.0172   0.01620   0.00905  -0.1072  0.5674  1.0000  -1.9716   0.0000   0.0000   0.0000   0.3497
   5.100   1.0267   0.01634   0.00922  -0.1068  0.5557  1.0000  -2.0183   0.0000   0.0000   0.0000   0.3483
   5.200   1.0364   0.01647   0.00934  -0.1064  0.5440  1.0000  -2.0660   0.0000   0.0000   0.0000   0.3468
   5.300   1.0467   0.01662   0.00939  -0.1060  0.5334  1.0000  -2.1162   0.0000   0.0000   0.0000   0.3453
   5.400   1.0558   0.01677   0.00961  -0.1056  0.5205  1.0000  -2.1622   0.0000   0.0000   0.0000   0.3439
   5.500   1.0652   0.01692   0.00973  -0.1052  0.5078  1.0000  -2.2102   0.0000   0.0000   0.0000   0.3425
   5.600   1.0747   0.01710   0.00986  -0.1047  0.4956  1.0000  -2.2585   0.0000   0.0000   0.0000   0.3411
   5.700   1.0837   0.01726   0.01005  -0.1043  0.4814  1.0000  -2.3053   0.0000   0.0000   0.0000   0.3398
   5.800   1.0928   0.01748   0.01015  -0.1037  0.4684  1.0000  -2.3534   0.0000   0.0000   0.0000   0.3383
   5.900   1.1015   0.01765   0.01038  -0.1033  0.4526  1.0000  -2.3994   0.0000   0.0000   0.0000   0.3371
   6.000   1.1100   0.01789   0.01051  -0.1027  0.4369  1.0000  -2.4459   0.0000   0.0000   0.0000   0.3357
   6.100   1.1183   0.01810   0.01073  -0.1021  0.4195  1.0000  -2.4913   0.0000   0.0000   0.0000   0.3344
   6.200   1.1261   0.01840   0.01097  -0.1015  0.4030  1.0000  -2.5351   0.0000   0.0000   0.0000   0.3330
   6.300   1.1340   0.01864   0.01123  -0.1009  0.3829  1.0000  -2.5785   0.0000   0.0000   0.0000   0.3318
   6.400   1.1412   0.01898   0.01147  -0.1002  0.3629  1.0000  -2.6208   0.0000   0.0000   0.0000   0.3305
   6.500   1.1477   0.01939   0.01171  -0.0994  0.3417  1.0000  -2.6616   0.0000   0.0000   0.0000   0.3291
   6.600   1.1545   0.01977   0.01203  -0.0987  0.3179  1.0000  -2.7020   0.0000   0.0000   0.0000   0.3279
   6.700   1.1607   0.02024   0.01236  -0.0980  0.2957  1.0000  -2.7411   0.0000   0.0000   0.0000   0.3267
   6.800   1.1663   0.02079   0.01271  -0.0972  0.2753  1.0000  -2.7786   0.0000   0.0000   0.0000   0.3255
   6.900   1.1725   0.02128   0.01311  -0.0965  0.2546  1.0000  -2.8284   0.0000   0.0000   0.0000   0.3243
   7.000   1.1791   0.02180   0.01354  -0.0958  0.2369  1.0000  -2.8999   0.0000   0.0000   0.0000   0.3232
   7.200   1.1919   0.02292   0.01447  -0.0945  0.2075  1.0000  -3.0427   0.0000   0.0000   0.0000   0.3209
   7.400   1.2051   0.02411   0.01550  -0.0932  0.1851  1.0000  -3.1869   0.0000   0.0000   0.0000   0.3187
   7.500   1.2115   0.02472   0.01601  -0.0926  0.1760  1.0000  -3.2598   0.0000   0.0000   0.0000   0.3177
   7.600   1.2184   0.02549   0.01669  -0.0920  0.1675  1.0000  -3.3316   0.0000   0.0000   0.0000   0.3166
   7.700   1.2264   0.02596   0.01723  -0.0915  0.1597  1.0000  -3.4089   0.0000   0.0000   0.0000   0.3156
   7.800   1.2336   0.02652   0.01775  -0.0909  0.1529  1.0000  -3.4868   0.0000   0.0000   0.0000   0.3145
   7.900   1.2409   0.02752   0.01856  -0.0905  0.1463  1.0000  -3.5629   0.0000   0.0000   0.0000   0.3136
   8.000   1.2491   0.02795   0.01912  -0.0899  0.1412  1.0000  -3.6428   0.0000   0.0000   0.0000   0.3126
   8.100   1.2570   0.02844   0.01966  -0.0895  0.1359  1.0000  -3.7410   0.0000   0.0000   0.0000   0.3116
   8.200   1.2640   0.02893   0.02011  -0.0890  0.1306  1.0000  -3.8505   0.0000   0.0000   0.0000   0.3107
   8.300   1.2718   0.03004   0.02100  -0.0887  0.1240  1.0000  -3.9624   0.0000   0.0000   0.0000   0.3100
   8.400   1.2777   0.03013   0.02128  -0.0880  0.1195  1.0000  -4.0677   0.0000   0.0000   0.0000   0.3089
   8.500   1.2835   0.03032   0.02153  -0.0874  0.1137  1.0000  -4.1783   0.0000   0.0000   0.0000   0.3080
   8.600   1.2899   0.03075   0.02202  -0.0869  0.1093  1.0000  -4.2998   0.0000   0.0000   0.0000   0.3071
   8.700   1.2951   0.03147   0.02261  -0.0864  0.1040  1.0000  -4.4124   0.0000   0.0000   0.0000   0.3063
   8.800   1.3008   0.03167   0.02293  -0.0857  0.0997  1.0000  -4.5236   0.0000   0.0000   0.0000   0.3054
   8.900   1.3061   0.03182   0.02316  -0.0851  0.0950  1.0000  -4.6387   0.0000   0.0000   0.0000   0.3045
   9.000   1.3109   0.03202   0.02336  -0.0845  0.0906  1.0000  -4.7542   0.0000   0.0000   0.0000   0.3037
   9.100   1.3150   0.03254   0.02379  -0.0839  0.0866  1.0000  -4.8624   0.0000   0.0000   0.0000   0.3028
   9.200   1.3208   0.03317   0.02441  -0.0833  0.0832  1.0000  -4.9703   0.0000   0.0000   0.0000   0.3020
   9.300   1.3274   0.03347   0.02486  -0.0828  0.0807  1.0000  -5.0828   0.0000   0.0000   0.0000   0.3011
   9.400   1.3341   0.03393   0.02541  -0.0822  0.0785  1.0000  -5.1924   0.0000   0.0000   0.0000   0.3002
   9.500   1.3404   0.03439   0.02595  -0.0816  0.0763  1.0000  -5.3000   0.0000   0.0000   0.0000   0.2994
   9.600   1.3459   0.03478   0.02640  -0.0810  0.0738  1.0000  -5.4064   0.0000   0.0000   0.0000   0.2985
   9.700   1.3496   0.03508   0.02672  -0.0802  0.0710  1.0000  -5.5102   0.0000   0.0000   0.0000   0.2976
   9.800   1.3511   0.03557   0.02717  -0.0793  0.0680  1.0000  -5.6006   0.0000   0.0000   0.0000   0.2967
   9.900   1.3548   0.03588   0.02756  -0.0785  0.0648  1.0000  -5.7002   0.0000   0.0000   0.0000   0.2958
  10.000   1.3592   0.03608   0.02786  -0.0778  0.0613  1.0000  -5.8048   0.0000   0.0000   0.0000   0.2950
  10.100   1.3631   0.03648   0.02833  -0.0771  0.0587  1.0000  -5.8983   0.0000   0.0000   0.0000   0.2941
  10.200   1.3659   0.03697   0.02885  -0.0763  0.0563  1.0000  -5.9831   0.0000   0.0000   0.0000   0.2932
  10.300   1.3670   0.03768   0.02955  -0.0753  0.0539  1.0000  -6.0507   0.0000   0.0000   0.0000   0.2924
  10.400   1.3673   0.03868   0.03053  -0.0743  0.0513  1.0000  -6.0987   0.0000   0.0000   0.0000   0.2914
  10.500   1.3722   0.03903   0.03110  -0.0737  0.0470  1.0000  -6.1767   0.0000   0.0000   0.0000   0.2906
  10.600   1.3744   0.03958   0.03173  -0.0729  0.0422  1.0000  -6.2393   0.0000   0.0000   0.0000   0.2898
  10.700   1.3729   0.04050   0.03265  -0.0720  0.0390  1.0000  -6.2788   0.0000   0.0000   0.0000   0.2891
  10.800   1.3728   0.04156   0.03380  -0.0710  0.0350  1.0000  -6.2882   0.0000   0.0000   0.0000   0.2882
  10.900   1.3726   0.04254   0.03484  -0.0701  0.0312  1.0000  -6.3063   0.0000   0.0000   0.0000   0.2874
  11.000   1.3709   0.04361   0.03591  -0.0693  0.0288  1.0000  -6.3327   0.0000   0.0000   0.0000   0.2867
  11.100   1.3661   0.04506   0.03734  -0.0683  0.0273  1.0000  -6.3323   0.0000   0.0000   0.0000   0.2860
  11.200   1.3633   0.04646   0.03881  -0.0674  0.0259  1.0000  -6.3261   0.0000   0.0000   0.0000   0.2852
  11.300   1.3629   0.04768   0.04016  -0.0665  0.0245  1.0000  -6.3346   0.0000   0.0000   0.0000   0.2845
  11.400   1.3619   0.04894   0.04152  -0.0658  0.0234  1.0000  -6.3467   0.0000   0.0000   0.0000   0.2838
  11.500   1.3609   0.05020   0.04287  -0.0651  0.0225  1.0000  -6.3637   0.0000   0.0000   0.0000   0.2832
  11.600   1.3598   0.05147   0.04422  -0.0645  0.0217  1.0000  -6.3848   0.0000   0.0000   0.0000   0.2826
  11.700   1.3585   0.05276   0.04559  -0.0640  0.0210  1.0000  -6.4084   0.0000   0.0000   0.0000   0.2821
  11.800   1.3570   0.05407   0.04697  -0.0635  0.0204  1.0000  -6.4338   0.0000   0.0000   0.0000   0.2816
  11.900   1.3553   0.05541   0.04838  -0.0631  0.0199  1.0000  -6.4595   0.0000   0.0000   0.0000   0.2812
  12.000   1.3532   0.05680   0.04983  -0.0628  0.0195  1.0000  -6.4843   0.0000   0.0000   0.0000   0.2809
  12.100   1.3503   0.05828   0.05144  -0.0625  0.0190  1.0000  -6.4952   0.0000   0.0000   0.0000   0.2806
  12.200   1.3473   0.05982   0.05305  -0.0622  0.0187  1.0000  -6.5101   0.0000   0.0000   0.0000   0.2803
  12.300   1.3438   0.06147   0.05476  -0.0620  0.0184  1.0000  -6.5205   0.0000   0.0000   0.0000   0.2801
  12.400   1.3402   0.06319   0.05656  -0.0619  0.0182  1.0000  -6.5266   0.0000   0.0000   0.0000   0.2800
  12.500   1.3362   0.06501   0.05846  -0.0618  0.0179  1.0000  -6.5272   0.0000   0.0000   0.0000   0.2798
  12.600   1.3320   0.06692   0.06046  -0.0617  0.0177  1.0000  -6.5224   0.0000   0.0000   0.0000   0.2798
  12.700   1.3275   0.06892   0.06255  -0.0617  0.0176  1.0000  -6.5130   0.0000   0.0000   0.0000   0.2798
  12.800   1.3225   0.07101   0.06474  -0.0618  0.0174  1.0000  -6.4988   0.0000   0.0000   0.0000   0.2798
  12.900   1.3173   0.07317   0.06701  -0.0619  0.0173  1.0000  -6.4812   0.0000   0.0000   0.0000   0.2800
  13.000   1.3119   0.07540   0.06934  -0.0622  0.0172  1.0000  -6.4606   0.0000   0.0000   0.0000   0.2802
  13.100   1.3065   0.07763   0.07164  -0.0626  0.0172  1.0000  -6.4416   0.0000   0.0000   0.0000   0.2805
  13.200   1.3017   0.07979   0.07390  -0.0631  0.0171  1.0000  -6.4295   0.0000   0.0000   0.0000   0.2809
  13.300   1.2964   0.08204   0.07626  -0.0638  0.0171  1.0000  -6.4133   0.0000   0.0000   0.0000   0.2815
  13.400   1.2908   0.08435   0.07868  -0.0645  0.0171  1.0000  -6.3940   0.0000   0.0000   0.0000   0.2821
  13.500   1.2847   0.08675   0.08118  -0.0653  0.0171  1.0000  -6.3707   0.0000   0.0000   0.0000   0.2828
  13.600   1.2785   0.08923   0.08376  -0.0663  0.0170  1.0000  -6.3445   0.0000   0.0000   0.0000   0.2836
  13.700   1.2719   0.09181   0.08644  -0.0673  0.0170  1.0000  -6.3147   0.0000   0.0000   0.0000   0.2846
  13.800   1.2653   0.09449   0.08921  -0.0685  0.0171  1.0000  -6.2822   0.0000   0.0000   0.0000   0.2856
  13.900   1.2585   0.09728   0.09209  -0.0699  0.0171  1.0000  -6.2460   0.0000   0.0000   0.0000   0.2868
  14.000   1.2516   0.10016   0.09507  -0.0713  0.0171  1.0000  -6.2068   0.0000   0.0000   0.0000   0.2881
  14.100   1.2444   0.10317   0.09816  -0.0729  0.0171  1.0000  -6.1633   0.0000   0.0000   0.0000   0.2896
  14.200   1.2372   0.10626   0.10134  -0.0746  0.0171  1.0000  -6.1168   0.0000   0.0000   0.0000   0.2912
  14.300   1.2298   0.10948   0.10464  -0.0765  0.0172  1.0000  -6.0657   0.0000   0.0000   0.0000   0.2929
  14.500   1.2172   0.11575   0.11112  -0.0804  0.0173  1.0000  -5.9814   0.0000   0.0000   0.0000   0.2965
  14.600   1.2109   0.11901   0.11447  -0.0825  0.0174  1.0000  -5.9344   0.0000   0.0000   0.0000   0.2984
  14.700   1.2045   0.12241   0.11795  -0.0847  0.0174  1.0000  -5.8825   0.0000   0.0000   0.0000   0.3005
  14.800   1.1979   0.12597   0.12159  -0.0870  0.0176  1.0000  -5.8237   0.0000   0.0000   0.0000   0.3027
  14.900   1.1909   0.12977   0.12546  -0.0896  0.0177  1.0000  -5.7541   0.0000   0.0000   0.0000   0.3052
  15.000   1.1824   0.13415   0.12995  -0.0925  0.0180  1.0000  -5.6594   0.0000   0.0000   0.0000   0.3082
  15.100   1.1176   0.15764   0.15373  -0.1075  0.0223  1.0000  -4.6037   0.0000   0.0000   0.0000   0.3272
  15.200   1.1018   0.16533   0.16142  -0.1117  0.0235  1.0000  -4.3142   0.0000   0.0000   0.0000   0.3326
  15.300   1.0926   0.17083   0.16689  -0.1146  0.0241  1.0000  -4.1235   0.0000   0.0000   0.0000   0.3361
  15.400   1.0858   0.17554   0.17158  -0.1170  0.0245  1.0000  -3.9641   0.0000   0.0000   0.0000   0.3391
  15.500   1.0807   0.17977   0.17578  -0.1192  0.0248  1.0000  -3.8262   0.0000   0.0000   0.0000   0.3416
  15.600   1.0766   0.18369   0.17968  -0.1211  0.0249  1.0000  -3.7045   0.0000   0.0000   0.0000   0.3439
  15.700   1.0733   0.18740   0.18336  -0.1230  0.0251  1.0000  -3.5949   0.0000   0.0000   0.0000   0.3459
  15.800   1.0707   0.19093   0.18688  -0.1247  0.0251  1.0000  -3.4950   0.0000   0.0000   0.0000   0.3478
  15.900   1.0687   0.19432   0.19025  -0.1263  0.0252  1.0000  -3.4035   0.0000   0.0000   0.0000   0.3495
  16.000   1.0671   0.19759   0.19351  -0.1279  0.0252  1.0000  -3.3193   0.0000   0.0000   0.0000   0.3511
  16.100   1.0659   0.20075   0.19665  -0.1294  0.0252  1.0000  -3.2419   0.0000   0.0000   0.0000   0.3525
  16.200   1.0651   0.20382   0.19970  -0.1308  0.0253  1.0000  -3.1706   0.0000   0.0000   0.0000   0.3539
  16.300   1.0646   0.20678   0.20265  -0.1321  0.0253  1.0000  -3.1052   0.0000   0.0000   0.0000   0.3551
  16.400   1.0644   0.20967   0.20553  -0.1334  0.0254  1.0000  -3.0450   0.0000   0.0000   0.0000   0.3562
  16.500   1.0644   0.21248   0.20833  -0.1346  0.0254  1.0000  -2.9900   0.0000   0.0000   0.0000   0.3573
  16.600   1.0647   0.21522   0.21105  -0.1357  0.0255  1.0000  -2.9398   0.0000   0.0000   0.0000   0.3583
  16.700   1.0651   0.21789   0.21371  -0.1368  0.0256  1.0000  -2.8942   0.0000   0.0000   0.0000   0.3591
  16.800   1.0657   0.22049   0.21631  -0.1379  0.0257  1.0000  -2.8533   0.0000   0.0000   0.0000   0.3599
  16.900   1.0664   0.22303   0.21885  -0.1389  0.0258  1.0000  -2.8171   0.0000   0.0000   0.0000   0.3606
  17.000   1.0674   0.22551   0.22132  -0.1398  0.0260  1.0000  -2.7857   0.0000   0.0000   0.0000   0.3613
  17.100   1.0684   0.22793   0.22374  -0.1406  0.0261  1.0000  -2.7600   0.0000   0.0000   0.0000   0.3618
  17.200   1.0696   0.23028   0.22609  -0.1412  0.0264  1.0000  -2.7423   0.0000   0.0000   0.0000   0.3621
  17.500   1.0726   0.24398   0.23982  -0.1451  0.0394  1.0000  -2.3233   0.0000   0.0000   0.0000   0.3654
  17.600   1.0699   0.24687   0.24265  -0.1471  0.0369  1.0000  -2.2726   0.0000   0.0000   0.0000   0.3676
  18.200   1.0855   0.26823   0.26406  -0.1490  0.0514  1.0000  -2.1016   0.0000   0.0000   0.0000   0.3667
  18.300   1.0867   0.27048   0.26631  -0.1501  0.0513  1.0000  -2.0818   0.0000   0.0000   0.0000   0.3675
  18.400   1.0878   0.27269   0.26851  -0.1512  0.0513  1.0000  -2.0613   0.0000   0.0000   0.0000   0.3682
  18.500   1.0888   0.27483   0.27065  -0.1524  0.0512  1.0000  -2.0402   0.0000   0.0000   0.0000   0.3690
  18.600   1.0896   0.27690   0.27271  -0.1536  0.0512  1.0000  -2.0170   0.0000   0.0000   0.0000   0.3699
  18.700   1.0901   0.27887   0.27468  -0.1549  0.0511  1.0000  -1.9917   0.0000   0.0000   0.0000   0.3709
  18.800   1.0901   0.28068   0.27648  -0.1564  0.0509  1.0000  -1.9628   0.0000   0.0000   0.0000   0.3721
  18.900   1.0899   0.28238   0.27818  -0.1580  0.0508  1.0000  -1.9309   0.0000   0.0000   0.0000   0.3735
  19.000   1.0897   0.28404   0.27983  -0.1597  0.0505  1.0000  -1.8963   0.0000   0.0000   0.0000   0.3749
  19.100   1.0895   0.28570   0.28148  -0.1615  0.0502  1.0000  -1.8584   0.0000   0.0000   0.0000   0.3765
  19.200   1.0897   0.28748   0.28325  -0.1632  0.0495  1.0000  -1.8218   0.0000   0.0000   0.0000   0.3779
  19.300   1.0906   0.28947   0.28524  -0.1647  0.0488  1.0000  -1.7948   0.0000   0.0000   0.0000   0.3790
  19.400   1.0919   0.29158   0.28734  -0.1658  0.0480  1.0000  -1.7768   0.0000   0.0000   0.0000   0.3797
  19.500   1.0933   0.29371   0.28948  -0.1668  0.0473  1.0000  -1.7642   0.0000   0.0000   0.0000   0.3803
  19.600   1.0949   0.29586   0.29163  -0.1677  0.0467  1.0000  -1.7547   0.0000   0.0000   0.0000   0.3807
  19.700   1.0964   0.29800   0.29377  -0.1685  0.0461  1.0000  -1.7476   0.0000   0.0000   0.0000   0.3811
  19.800   1.0980   0.30014   0.29591  -0.1693  0.0455  1.0000  -1.7422   0.0000   0.0000   0.0000   0.3814
  19.900   1.0997   0.30226   0.29805  -0.1701  0.0449  1.0000  -1.7384   0.0000   0.0000   0.0000   0.3817
  20.000   1.1013   0.30438   0.30017  -0.1708  0.0443  1.0000  -1.7359   0.0000   0.0000   0.0000   0.3819
  20.100   1.1029   0.30649   0.30229  -0.1715  0.0438  1.0000  -1.7347   0.0000   0.0000   0.0000   0.3822
  20.200   1.1046   0.30860   0.30439  -0.1721  0.0433  1.0000  -1.7349   0.0000   0.0000   0.0000   0.3823
  20.300   1.1062   0.31069   0.30649  -0.1727  0.0428  1.0000  -1.7363   0.0000   0.0000   0.0000   0.3825
  20.400   1.1078   0.31278   0.30858  -0.1733  0.0423  1.0000  -1.7392   0.0000   0.0000   0.0000   0.3826
  20.500   1.1095   0.31486   0.31067  -0.1738  0.0419  1.0000  -1.7436   0.0000   0.0000   0.0000   0.3827
  20.600   1.1112   0.31694   0.31276  -0.1743  0.0415  1.0000  -1.7496   0.0000   0.0000   0.0000   0.3827
  20.700   1.1128   0.31902   0.31485  -0.1748  0.0411  1.0000  -1.7574   0.0000   0.0000   0.0000   0.3827
  20.800   1.1145   0.32111   0.31695  -0.1751  0.0407  1.0000  -1.7673   0.0000   0.0000   0.0000   0.3826
  20.900   1.1162   0.32324   0.31908  -0.1754  0.0403  1.0000  -1.7797   0.0000   0.0000   0.0000   0.3824
  21.000   1.1180   0.32541   0.32127  -0.1756  0.0400  1.0000  -1.7952   0.0000   0.0000   0.0000   0.3821
  21.100   1.1200   0.32768   0.32355  -0.1757  0.0396  1.0000  -1.8147   0.0000   0.0000   0.0000   0.3817
  21.200   1.1221   0.33015   0.32603  -0.1755  0.0393  1.0000  -1.8397   0.0000   0.0000   0.0000   0.3811
  21.300   1.1248   0.33304   0.32894  -0.1751  0.0390  1.0000  -1.8736   0.0000   0.0000   0.0000   0.3801
  21.400   1.1295   0.33744   0.33336  -0.1737  0.0386  1.0000  -1.9307   0.0000   0.0000   0.0000   0.3781
  21.500   1.1340   0.34480   0.34072  -0.1721  0.0382  1.0000  -1.9709   0.0000   0.0000   0.0000   0.3759
  21.600   1.1342   0.34691   0.34282  -0.1729  0.0381  1.0000  -1.9541   0.0000   0.0000   0.0000   0.3765
  21.700   1.1342   0.34895   0.34492  -0.1738  0.0381  1.0000  -1.9347   0.0000   0.0000   0.0000   0.3771
  21.800   1.1340   0.35096   0.34693  -0.1747  0.0381  1.0000  -1.9167   0.0000   0.0000   0.0000   0.3778
  21.900   1.1338   0.35292   0.34889  -0.1756  0.0380  1.0000  -1.8982   0.0000   0.0000   0.0000   0.3784
  22.000   1.1332   0.35479   0.35076  -0.1765  0.0380  1.0000  -1.8776   0.0000   0.0000   0.0000   0.3791
  22.100   1.1320   0.35653   0.35250  -0.1775  0.0380  1.0000  -1.8540   0.0000   0.0000   0.0000   0.3800
  22.200   1.1308   0.35825   0.35422  -0.1785  0.0379  1.0000  -1.8298   0.0000   0.0000   0.0000   0.3809
  22.300   1.1295   0.35994   0.35592  -0.1795  0.0378  1.0000  -1.8050   0.0000   0.0000   0.0000   0.3818
  22.400   1.1281   0.36162   0.35760  -0.1805  0.0378  1.0000  -1.7794   0.0000   0.0000   0.0000   0.3827
  22.500   1.1266   0.36328   0.35926  -0.1815  0.0377  1.0000  -1.7529   0.0000   0.0000   0.0000   0.3836
  22.600   1.1250   0.36494   0.36092  -0.1825  0.0376  1.0000  -1.7254   0.0000   0.0000   0.0000   0.3846
  22.700   1.1233   0.36660   0.36259  -0.1835  0.0374  1.0000  -1.6971   0.0000   0.0000   0.0000   0.3855
  22.800   1.1217   0.36830   0.36429  -0.1844  0.0373  1.0000  -1.6681   0.0000   0.0000   0.0000   0.3865
  22.900   1.1201   0.37006   0.36606  -0.1854  0.0370  1.0000  -1.6392   0.0000   0.0000   0.0000   0.3874
  23.000   1.1185   0.37193   0.36793  -0.1862  0.0367  1.0000  -1.6121   0.0000   0.0000   0.0000   0.3882
  23.100   1.1167   0.37389   0.36990  -0.1868  0.0363  1.0000  -1.5883   0.0000   0.0000   0.0000   0.3888
  23.200   1.1143   0.37587   0.37189  -0.1871  0.0359  1.0000  -1.5676   0.0000   0.0000   0.0000   0.3894
  23.300   1.1110   0.37780   0.37383  -0.1872  0.0355  1.0000  -1.5487   0.0000   0.0000   0.0000   0.3898
  23.400   1.1059   0.37954   0.37559  -0.1869  0.0351  1.0000  -1.5288   0.0000   0.0000   0.0000   0.3902
  23.700   0.9293   0.34160   0.33801  -0.1570  0.0367  1.0000  -1.1972   0.0000   0.0000   0.0000   0.3923
  23.800   0.9255   0.34149   0.33792  -0.1570  0.0364  1.0000  -1.1744   0.0000   0.0000   0.0000   0.3929
  23.900   0.9219   0.34143   0.33787  -0.1569  0.0360  1.0000  -1.1548   0.0000   0.0000   0.0000   0.3935
  24.000   0.9185   0.34138   0.33784  -0.1569  0.0356  1.0000  -1.1378   0.0000   0.0000   0.0000   0.3939
  24.100   0.9153   0.34133   0.33781  -0.1568  0.0352  1.0000  -1.1229   0.0000   0.0000   0.0000   0.3943
  24.200   0.9123   0.34130   0.33778  -0.1567  0.0348  1.0000  -1.1096   0.0000   0.0000   0.0000   0.3946
  24.300   0.9093   0.34124   0.33774  -0.1565  0.0344  1.0000  -1.0975   0.0000   0.0000   0.0000   0.3950
  24.400   0.9065   0.34123   0.33775  -0.1564  0.0340  1.0000  -1.0866   0.0000   0.0000   0.0000   0.3953
  24.500   0.9039   0.34123   0.33776  -0.1563  0.0337  1.0000  -1.0766   0.0000   0.0000   0.0000   0.3955
  24.600   0.9014   0.34125   0.33779  -0.1563  0.0333  1.0000  -1.0673   0.0000   0.0000   0.0000   0.3958
  24.700   0.8991   0.34129   0.33785  -0.1562  0.0329  1.0000  -1.0589   0.0000   0.0000   0.0000   0.3961
  24.800   0.8968   0.34133   0.33790  -0.1561  0.0326  1.0000  -1.0510   0.0000   0.0000   0.0000   0.3963
  24.900   0.8947   0.34138   0.33797  -0.1561  0.0323  1.0000  -1.0437   0.0000   0.0000   0.0000   0.3966
  25.000   0.8926   0.34145   0.33805  -0.1560  0.0319  1.0000  -1.0370   0.0000   0.0000   0.0000   0.3968
  25.100   0.8906   0.34152   0.33813  -0.1560  0.0316  1.0000  -1.0309   0.0000   0.0000   0.0000   0.3970
  25.200   0.8888   0.34160   0.33823  -0.1560  0.0313  1.0000  -1.0253   0.0000   0.0000   0.0000   0.3972
  25.300   0.8870   0.34167   0.33831  -0.1560  0.0310  1.0000  -1.0202   0.0000   0.0000   0.0000   0.3974
  25.400   0.8852   0.34176   0.33842  -0.1560  0.0307  1.0000  -1.0157   0.0000   0.0000   0.0000   0.3976
  25.500   0.8836   0.34186   0.33853  -0.1560  0.0304  1.0000  -1.0119   0.0000   0.0000   0.0000   0.3978
  25.600   0.8820   0.34196   0.33864  -0.1560  0.0301  1.0000  -1.0086   0.0000   0.0000   0.0000   0.3979
  25.700   0.8805   0.34206   0.33875  -0.1560  0.0298  1.0000  -1.0059   0.0000   0.0000   0.0000   0.3981
  25.800   0.8790   0.34215   0.33886  -0.1560  0.0296  1.0000  -1.0039   0.0000   0.0000   0.0000   0.3982
  25.900   0.8776   0.34225   0.33897  -0.1560  0.0293  1.0000  -1.0027   0.0000   0.0000   0.0000   0.3984
  26.000   0.8763   0.34233   0.33907  -0.1559  0.0290  1.0000  -1.0022   0.0000   0.0000   0.0000   0.3985
  26.100   0.8750   0.34244   0.33919  -0.1559  0.0288  1.0000  -1.0028   0.0000   0.0000   0.0000   0.3986
  26.200   0.8737   0.34251   0.33928  -0.1559  0.0285  1.0000  -1.0043   0.0000   0.0000   0.0000   0.3986
  26.300   0.8724   0.34257   0.33935  -0.1558  0.0283  1.0000  -1.0069   0.0000   0.0000   0.0000   0.3986
  26.400   0.8712   0.34263   0.33942  -0.1558  0.0281  1.0000  -1.0109   0.0000   0.0000   0.0000   0.3986
  26.500   0.8700   0.34268   0.33948  -0.1556  0.0278  1.0000  -1.0165   0.0000   0.0000   0.0000   0.3985
  26.600   0.8689   0.34275   0.33957  -0.1554  0.0276  1.0000  -1.0243   0.0000   0.0000   0.0000   0.3984
  26.700   0.8679   0.34289   0.33972  -0.1551  0.0274  1.0000  -1.0351   0.0000   0.0000   0.0000   0.3981
  26.800   0.8672   0.34326   0.34012  -0.1547  0.0272  1.0000  -1.0504   0.0000   0.0000   0.0000   0.3975
  26.900   0.8677   0.34458   0.34145  -0.1539  0.0269  1.0000  -1.0760   0.0000   0.0000   0.0000   0.3964


