xflr5 v6.61

 Calculated polar for: FX 60-100 (126) AIRFOIL

 1 1 Reynolds number fixed          Mach number fixed         

 xtrf =   1.000 (top)        1.000 (bottom)
 Mach =   0.000     Re =     0.500 e 6     Ncrit =   9.000

  alpha     CL        CD       CDp       Cm    Top Xtr Bot Xtr   Cpmin    Chinge    XCp    
 ------- -------- --------- --------- -------- ------- ------- -------- --------- ---------
 -10.000  -0.3083   0.10742   0.10482  -0.0291  1.0000  0.0098  -1.5868   0.0000   0.0000   0.0000   0.1464
  -9.000  -0.3175   0.09254   0.09008  -0.0312  0.9998  0.0101  -1.8965   0.0000   0.0000   0.0000   0.1434
  -8.900  -0.3232   0.08822   0.08576  -0.0338  0.9992  0.0105  -2.1054   0.0000   0.0000   0.0000   0.1372
  -8.800  -0.3256   0.08489   0.08243  -0.0361  0.9986  0.0108  -2.2351   0.0000   0.0000   0.0000   0.1309
  -8.700  -0.3262   0.08209   0.07963  -0.0382  0.9980  0.0111  -2.3205   0.0000   0.0000   0.0000   0.1245
  -8.600  -0.3256   0.07968   0.07722  -0.0402  0.9972  0.0114  -2.3732   0.0000   0.0000   0.0000   0.1181
  -8.500  -0.3240   0.07757   0.07511  -0.0421  0.9964  0.0118  -2.4004   0.0000   0.0000   0.0000   0.1118
  -8.400  -0.3217   0.07568   0.07323  -0.0439  0.9955  0.0121  -2.4085   0.0000   0.0000   0.0000   0.1052
  -8.300  -0.3189   0.07393   0.07148  -0.0458  0.9945  0.0124  -2.4044   0.0000   0.0000   0.0000   0.0984
  -8.200  -0.3158   0.07225   0.06980  -0.0476  0.9934  0.0128  -2.3952   0.0000   0.0000   0.0000   0.0912
  -8.100  -0.3126   0.07055   0.06811  -0.0495  0.9921  0.0131  -2.3869   0.0000   0.0000   0.0000   0.0837
  -8.000  -0.3096   0.06877   0.06633  -0.0515  0.9907  0.0134  -2.3842   0.0000   0.0000   0.0000   0.0757
  -7.900  -0.3069   0.06683   0.06440  -0.0537  0.9889  0.0137  -2.3910   0.0000   0.0000   0.0000   0.0672
  -7.800  -0.3037   0.06510   0.06267  -0.0557  0.9870  0.0141  -2.3808   0.0000   0.0000   0.0000   0.0587
  -7.700  -0.3011   0.06314   0.06072  -0.0580  0.9848  0.0144  -2.3866   0.0000   0.0000   0.0000   0.0497
  -7.600  -0.3013   0.06021   0.05779  -0.0612  0.9818  0.0144  -2.4614   0.0000   0.0000   0.0000   0.0392
  -7.500  -0.3142   0.05262   0.05012  -0.0688  0.9759  0.0131  -2.8665   0.0000   0.0000   0.0000   0.0232
  -7.400  -0.3172   0.04773   0.04511  -0.0765  0.9708  0.0126  -3.0541   0.0000   0.0000   0.0000   0.0013
  -7.300  -0.3136   0.04432   0.04158  -0.0832  0.9674  0.0127  -3.1186   0.0000   0.0000   0.0000  -0.0226
  -7.200  -0.3073   0.04227   0.03944  -0.0869  0.9651  0.0131  -3.0932   0.0000   0.0000   0.0000  -0.0401
  -7.100  -0.2992   0.04063   0.03772  -0.0899  0.9632  0.0137  -3.0341   0.0000   0.0000   0.0000  -0.0580
  -7.000  -0.2898   0.03921   0.03624  -0.0926  0.9615  0.0144  -2.9586   0.0000   0.0000   0.0000  -0.0769
  -6.900  -0.2791   0.03836   0.03536  -0.0946  0.9602  0.0153  -2.8421   0.0000   0.0000   0.0000  -0.0963
  -6.800  -0.2680   0.03731   0.03425  -0.0967  0.9589  0.0164  -2.7441   0.0000   0.0000   0.0000  -0.1181
  -6.700  -0.2565   0.03612   0.03299  -0.0988  0.9577  0.0178  -2.6601   0.0000   0.0000   0.0000  -0.1427
  -6.600  -0.2441   0.03496   0.03174  -0.1007  0.9566  0.0196  -2.5830   0.0000   0.0000   0.0000  -0.1704
  -6.500  -0.2299   0.03440   0.03112  -0.1020  0.9555  0.0222  -2.4853   0.0000   0.0000   0.0000  -0.2015
  -6.400  -0.2073   0.03817   0.03489  -0.1012  0.9548  0.0266  -2.2215   0.0000   0.0000   0.0000  -0.2468
  -6.200  -0.1970   0.02951   0.02591  -0.1090  0.9486  0.0333  -2.2760   0.0000   0.0000   0.0000  -0.3119
  -6.100  -0.1864   0.03092   0.02755  -0.1085  0.9474  0.0389  -2.0562   0.0000   0.0000   0.0000  -0.3406
  -5.200  -0.0844   0.01569   0.01056  -0.1123  0.9240  0.0286  -2.0740   0.0000   0.0000   0.0000  -1.0976
  -5.100  -0.0705   0.01319   0.00781  -0.1121  0.9213  0.0219  -2.1729   0.0000   0.0000   0.0000  -1.3592
  -5.000  -0.0566   0.01140   0.00574  -0.1122  0.9186  0.0189  -2.2149   0.0000   0.0000   0.0000  -1.7550
  -4.900  -0.0427   0.01054   0.00465  -0.1125  0.9158  0.0173  -2.1790   0.0000   0.0000   0.0000  -2.4178
  -4.800  -0.0295   0.01013   0.00407  -0.1128  0.9128  0.0164  -2.1005   0.0000   0.0000   0.0000  -3.6216
  -4.700  -0.0166   0.00985   0.00364  -0.1131  0.9097  0.0160  -2.0147   0.0000   0.0000   0.0000  -6.6410
  -4.600  -0.0039   0.00962   0.00328  -0.1133  0.9062  0.0160  -1.9279   0.0000   0.0000   0.0000  -29.2438
  -4.500   0.0089   0.00943   0.00293  -0.1135  0.9023  0.0176  -1.8507   0.0000   0.0000   0.0000  13.1218
  -4.400   0.0219   0.00901   0.00277  -0.1140  0.8978  0.0417  -1.7742   0.0000   0.0000   0.0000   5.5014
  -4.300   0.0332   0.00894   0.00273  -0.1142  0.8953  0.0496  -1.6632   0.0000   0.0000   0.0000   3.7249
  -4.200   0.0439   0.00893   0.00272  -0.1143  0.8939  0.0510  -1.5520   0.0000   0.0000   0.0000   2.8766
  -4.100   0.0545   0.00895   0.00275  -0.1143  0.8924  0.0515  -1.4409   0.0000   0.0000   0.0000   2.3648
  -3.900   0.0760   0.00891   0.00273  -0.1144  0.8886  0.0541  -1.2501   0.0000   0.0000   0.0000   1.7669
  -3.800   0.0871   0.00880   0.00259  -0.1146  0.8863  0.0577  -1.2086   0.0000   0.0000   0.0000   1.5746
  -3.700   0.0983   0.00871   0.00248  -0.1147  0.8839  0.0629  -1.1681   0.0000   0.0000   0.0000   1.4257
  -3.600   0.1093   0.00861   0.00240  -0.1148  0.8812  0.0697  -1.1274   0.0000   0.0000   0.0000   1.3074
  -3.500   0.1204   0.00850   0.00234  -0.1149  0.8779  0.0778  -1.0846   0.0000   0.0000   0.0000   1.2117
  -3.400   0.1314   0.00833   0.00227  -0.1152  0.8740  0.0925  -1.0429   0.0000   0.0000   0.0000   1.1322
  -3.300   0.1432   0.00769   0.00206  -0.1160  0.8697  0.1935  -1.0043   0.0000   0.0000   0.0000   1.0654
  -3.200   0.1543   0.00733   0.00193  -0.1164  0.8647  0.2534  -0.9653   0.0000   0.0000   0.0000   1.0088
  -3.100   0.1652   0.00708   0.00190  -0.1166  0.8589  0.2893  -0.9266   0.0000   0.0000   0.0000   0.9597
  -3.000   0.1761   0.00696   0.00191  -0.1167  0.8522  0.3462  -0.8879   0.0000   0.0000   0.0000   0.9164
  -2.900   0.1865   0.00687   0.00198  -0.1166  0.8445  0.4060  -0.8497   0.0000   0.0000   0.0000   0.8788
  -2.800   0.1970   0.00686   0.00196  -0.1165  0.8353  0.4200  -0.8121   0.0000   0.0000   0.0000   0.8445
  -2.700   0.2079   0.00687   0.00194  -0.1165  0.8249  0.4276  -0.7746   0.0000   0.0000   0.0000   0.8133
  -2.600   0.2191   0.00690   0.00194  -0.1166  0.8144  0.4332  -0.7369   0.0000   0.0000   0.0000   0.7849
  -2.500   0.2305   0.00693   0.00195  -0.1168  0.8046  0.4371  -0.7016   0.0000   0.0000   0.0000   0.7590
  -2.400   0.2412   0.00691   0.00192  -0.1168  0.8031  0.4397  -0.6756   0.0000   0.0000   0.0000   0.7361
  -2.300   0.2520   0.00690   0.00190  -0.1167  0.8019  0.4416  -0.6497   0.0000   0.0000   0.0000   0.7152
  -2.200   0.2626   0.00687   0.00190  -0.1167  0.8002  0.4484  -0.6239   0.0000   0.0000   0.0000   0.6961
  -2.100   0.2731   0.00685   0.00194  -0.1166  0.7980  0.4565  -0.5984   0.0000   0.0000   0.0000   0.6784
  -2.000   0.2836   0.00685   0.00198  -0.1165  0.7949  0.4632  -0.5729   0.0000   0.0000   0.0000   0.6621
  -1.900   0.2941   0.00687   0.00201  -0.1164  0.7906  0.4686  -0.5476   0.0000   0.0000   0.0000   0.6469
  -1.800   0.3046   0.00690   0.00203  -0.1163  0.7847  0.4733  -0.5224   0.0000   0.0000   0.0000   0.6327
  -1.700   0.3151   0.00693   0.00204  -0.1162  0.7768  0.4777  -0.4993   0.0000   0.0000   0.0000   0.6195
  -1.600   0.3255   0.00697   0.00205  -0.1160  0.7666  0.4816  -0.5063   0.0000   0.0000   0.0000   0.6071
  -1.500   0.3359   0.00702   0.00206  -0.1158  0.7544  0.4850  -0.5136   0.0000   0.0000   0.0000   0.5954
  -1.400   0.3460   0.00710   0.00207  -0.1156  0.7406  0.4881  -0.5217   0.0000   0.0000   0.0000   0.5845
  -1.300   0.3559   0.00724   0.00215  -0.1153  0.7250  0.4915  -0.5297   0.0000   0.0000   0.0000   0.5742
  -1.200   0.3658   0.00736   0.00220  -0.1150  0.7059  0.4934  -0.5377   0.0000   0.0000   0.0000   0.5646
  -1.100   0.3765   0.00741   0.00221  -0.1150  0.6903  0.4945  -0.5460   0.0000   0.0000   0.0000   0.5555
  -1.000   0.3873   0.00746   0.00224  -0.1150  0.6852  0.4955  -0.5544   0.0000   0.0000   0.0000   0.5469
  -0.900   0.3979   0.00752   0.00227  -0.1149  0.6772  0.4964  -0.5627   0.0000   0.0000   0.0000   0.5387
  -0.800   0.4083   0.00760   0.00230  -0.1148  0.6663  0.4972  -0.5711   0.0000   0.0000   0.0000   0.5309
  -0.700   0.4185   0.00769   0.00231  -0.1146  0.6536  0.4978  -0.5799   0.0000   0.0000   0.0000   0.5235
  -0.600   0.4287   0.00778   0.00232  -0.1145  0.6412  0.4984  -0.5896   0.0000   0.0000   0.0000   0.5166
  -0.500   0.4390   0.00785   0.00231  -0.1144  0.6300  0.4988  -0.5993   0.0000   0.0000   0.0000   0.5100
  -0.400   0.4495   0.00790   0.00228  -0.1144  0.6188  0.4991  -0.6091   0.0000   0.0000   0.0000   0.5038
  -0.300   0.4603   0.00793   0.00224  -0.1144  0.6082  0.4992  -0.6209   0.0000   0.0000   0.0000   0.4979
  -0.200   0.4714   0.00794   0.00220  -0.1145  0.5996  0.4993  -0.6359   0.0000   0.0000   0.0000   0.4922
  -0.100   0.4826   0.00792   0.00216  -0.1147  0.5958  0.4993  -0.6510   0.0000   0.0000   0.0000   0.4868
   0.000   0.4939   0.00790   0.00211  -0.1149  0.5938  0.4991  -0.6663   0.0000   0.0000   0.0000   0.4817
   0.100   0.5052   0.00788   0.00206  -0.1151  0.5916  0.4989  -0.6816   0.0000   0.0000   0.0000   0.4768
   0.200   0.5165   0.00786   0.00202  -0.1152  0.5893  0.4987  -0.6970   0.0000   0.0000   0.0000   0.4720
   0.300   0.5276   0.00786   0.00200  -0.1154  0.5871  0.4985  -0.7124   0.0000   0.0000   0.0000   0.4675
   0.400   0.5386   0.00789   0.00203  -0.1154  0.5851  0.4989  -0.7278   0.0000   0.0000   0.0000   0.4631
   0.500   0.5498   0.00790   0.00213  -0.1155  0.5915  0.5088  -0.7434   0.0000   0.0000   0.0000   0.4587
   0.600   0.5611   0.00787   0.00211  -0.1156  0.5926  0.5130  -0.7591   0.0000   0.0000   0.0000   0.4547
   0.700   0.5725   0.00784   0.00210  -0.1158  0.5937  0.5170  -0.7749   0.0000   0.0000   0.0000   0.4509
   0.800   0.5838   0.00783   0.00210  -0.1160  0.5946  0.5210  -0.7906   0.0000   0.0000   0.0000   0.4472
   0.900   0.5951   0.00782   0.00210  -0.1161  0.5954  0.5250  -0.8064   0.0000   0.0000   0.0000   0.4436
   1.000   0.6064   0.00782   0.00212  -0.1163  0.5959  0.5290  -0.8222   0.0000   0.0000   0.0000   0.4401
   1.100   0.6177   0.00782   0.00214  -0.1164  0.5962  0.5328  -0.8381   0.0000   0.0000   0.0000   0.4368
   1.200   0.6289   0.00783   0.00217  -0.1165  0.5963  0.5366  -0.8539   0.0000   0.0000   0.0000   0.4336
   1.300   0.6401   0.00783   0.00220  -0.1167  0.5963  0.5402  -0.8698   0.0000   0.0000   0.0000   0.4304
   1.400   0.6513   0.00785   0.00223  -0.1168  0.5962  0.5437  -0.8858   0.0000   0.0000   0.0000   0.4274
   1.500   0.6624   0.00786   0.00227  -0.1169  0.5962  0.5469  -0.9018   0.0000   0.0000   0.0000   0.4245
   1.600   0.6736   0.00788   0.00231  -0.1170  0.5960  0.5499  -0.9178   0.0000   0.0000   0.0000   0.4216
   1.700   0.6846   0.00789   0.00235  -0.1170  0.5956  0.5527  -0.9338   0.0000   0.0000   0.0000   0.4189
   1.800   0.6956   0.00790   0.00239  -0.1171  0.5948  0.5555  -0.9499   0.0000   0.0000   0.0000   0.4162
   1.900   0.7065   0.00790   0.00243  -0.1171  0.5937  0.5583  -0.9660   0.0000   0.0000   0.0000   0.4135
   2.000   0.7174   0.00791   0.00246  -0.1171  0.5924  0.5612  -0.9822   0.0000   0.0000   0.0000   0.4110
   2.100   0.7283   0.00793   0.00250  -0.1171  0.5909  0.5639  -0.9983   0.0000   0.0000   0.0000   0.4085
   2.200   0.7392   0.00795   0.00254  -0.1172  0.5892  0.5664  -1.0145   0.0000   0.0000   0.0000   0.4060
   2.300   0.7501   0.00797   0.00257  -0.1172  0.5871  0.5684  -1.0308   0.0000   0.0000   0.0000   0.4037
   2.400   0.7609   0.00799   0.00260  -0.1172  0.5846  0.5701  -1.0471   0.0000   0.0000   0.0000   0.4014
   2.500   0.7718   0.00801   0.00263  -0.1172  0.5818  0.5714  -1.0634   0.0000   0.0000   0.0000   0.3992
   2.600   0.7827   0.00804   0.00266  -0.1172  0.5786  0.5724  -1.0797   0.0000   0.0000   0.0000   0.3970
   2.700   0.7936   0.00807   0.00268  -0.1173  0.5750  0.5730  -1.0961   0.0000   0.0000   0.0000   0.3949
   2.800   0.8044   0.00811   0.00271  -0.1173  0.5709  0.5736  -1.1125   0.0000   0.0000   0.0000   0.3928
   2.900   0.8152   0.00815   0.00273  -0.1173  0.5664  0.5742  -1.1288   0.0000   0.0000   0.0000   0.3908
   3.000   0.8259   0.00820   0.00276  -0.1172  0.5614  0.5747  -1.1452   0.0000   0.0000   0.0000   0.3889
   3.100   0.8364   0.00826   0.00278  -0.1172  0.5560  0.5752  -1.1615   0.0000   0.0000   0.0000   0.3869
   3.200   0.8469   0.00832   0.00281  -0.1171  0.5502  0.5757  -1.1777   0.0000   0.0000   0.0000   0.3850
   3.300   0.8573   0.00839   0.00284  -0.1171  0.5435  0.5762  -1.1938   0.0000   0.0000   0.0000   0.3832
   3.400   0.8675   0.00847   0.00288  -0.1170  0.5359  0.5767  -1.2313   0.0000   0.0000   0.0000   0.3814
   3.500   0.8779   0.00854   0.00292  -0.1169  0.5275  0.5771  -1.2710   0.0000   0.0000   0.0000   0.3796
   3.600   0.8883   0.00862   0.00297  -0.1168  0.5184  0.5776  -1.3113   0.0000   0.0000   0.0000   0.3779
   3.700   0.8989   0.00870   0.00302  -0.1168  0.5089  0.5780  -1.3522   0.0000   0.0000   0.0000   0.3762
   3.800   0.9096   0.00878   0.00309  -0.1168  0.4999  0.5784  -1.3938   0.0000   0.0000   0.0000   0.3746
   3.900   0.9205   0.00877   0.00311  -0.1168  0.4981  0.5788  -1.4365   0.0000   0.0000   0.0000   0.3729
   4.000   0.9313   0.00878   0.00313  -0.1168  0.4951  0.5792  -1.4795   0.0000   0.0000   0.0000   0.3714
   4.100   0.9415   0.00882   0.00315  -0.1166  0.4848  0.5795  -1.5221   0.0000   0.0000   0.0000   0.3697
   4.200   0.9477   0.00917   0.00319  -0.1158  0.4463  0.5798  -1.5574   0.0000   0.0000   0.0000   0.3679
   4.300   0.9555   0.00946   0.00326  -0.1153  0.4130  0.5801  -1.5957   0.0000   0.0000   0.0000   0.3663
   4.400   0.9620   0.00988   0.00336  -0.1146  0.3592  0.5805  -1.6315   0.0000   0.0000   0.0000   0.3647
   4.500   0.9707   0.01010   0.00345  -0.1143  0.3052  0.5808  -1.6720   0.0000   0.0000   0.0000   0.3632
   4.600   0.9792   0.01036   0.00356  -0.1140  0.2854  0.5812  -1.7128   0.0000   0.0000   0.0000   0.3618
   4.700   0.9862   0.01076   0.00375  -0.1135  0.2653  0.5815  -1.7506   0.0000   0.0000   0.0000   0.3603
   4.800   0.9943   0.01104   0.00391  -0.1131  0.2476  0.5818  -1.7909   0.0000   0.0000   0.0000   0.3589
   4.900   1.0033   0.01124   0.00403  -0.1128  0.2364  0.5821  -1.8337   0.0000   0.0000   0.0000   0.3575
   5.000   1.0111   0.01155   0.00417  -0.1124  0.2206  0.5824  -1.8746   0.0000   0.0000   0.0000   0.3561
   5.100   1.0192   0.01185   0.00433  -0.1120  0.2007  0.5827  -1.9161   0.0000   0.0000   0.0000   0.3548
   5.200   1.0287   0.01200   0.00445  -0.1119  0.1902  0.5830  -1.9618   0.0000   0.0000   0.0000   0.3535
   5.300   1.0378   0.01219   0.00457  -0.1116  0.1799  0.5833  -2.0073   0.0000   0.0000   0.0000   0.3522
   5.400   1.0464   0.01244   0.00471  -0.1113  0.1675  0.5836  -2.0521   0.0000   0.0000   0.0000   0.3509
   5.500   1.0553   0.01266   0.00483  -0.1110  0.1525  0.5838  -2.0983   0.0000   0.0000   0.0000   0.3496
   5.600   1.0650   0.01278   0.00494  -0.1109  0.1443  0.5841  -2.1474   0.0000   0.0000   0.0000   0.3484
   5.700   1.0746   0.01291   0.00505  -0.1107  0.1388  0.5844  -2.1975   0.0000   0.0000   0.0000   0.3472
   5.800   1.0828   0.01318   0.00522  -0.1103  0.1231  0.5847  -2.2453   0.0000   0.0000   0.0000   0.3460
   5.900   1.0875   0.01381   0.00553  -0.1095  0.0891  0.5849  -2.3103   0.0000   0.0000   0.0000   0.3446
   6.000   1.0932   0.01431   0.00584  -0.1088  0.0657  0.5852  -2.4020   0.0000   0.0000   0.0000   0.3434
   6.100   1.0985   0.01487   0.00619  -0.1079  0.0353  0.5854  -2.4906   0.0000   0.0000   0.0000   0.3420
   6.200   1.1059   0.01520   0.00641  -0.1074  0.0243  0.5857  -2.5924   0.0000   0.0000   0.0000   0.3408
   6.300   1.1140   0.01546   0.00658  -0.1069  0.0210  0.5860  -2.6977   0.0000   0.0000   0.0000   0.3395
   6.400   1.1224   0.01571   0.00674  -0.1064  0.0155  0.5863  -2.7863   0.0000   0.0000   0.0000   0.3382
   6.500   1.1310   0.01602   0.00722  -0.1056  0.0122  0.5865  -2.8307   0.0000   0.0000   0.0000   0.3367
   6.600   1.1392   0.01631   0.00765  -0.1049  0.0118  0.5868  -2.9022   0.0000   0.0000   0.0000   0.3352
   6.700   1.1469   0.01664   0.00808  -0.1042  0.0117  0.5871  -2.9860   0.0000   0.0000   0.0000   0.3338
   6.800   1.1542   0.01698   0.00852  -0.1034  0.0118  0.5874  -3.0753   0.0000   0.0000   0.0000   0.3325
   6.900   1.1612   0.01734   0.00896  -0.1025  0.0121  0.5877  -3.1610   0.0000   0.0000   0.0000   0.3311
   7.000   1.1679   0.01771   0.00940  -0.1017  0.0124  0.5880  -3.2450   0.0000   0.0000   0.0000   0.3297
   7.100   1.1745   0.01807   0.00983  -0.1008  0.0129  0.5882  -3.3277   0.0000   0.0000   0.0000   0.3283
   7.200   1.1807   0.01845   0.01028  -0.0998  0.0135  0.5885  -3.4080   0.0000   0.0000   0.0000   0.3269
   7.300   1.1865   0.01886   0.01075  -0.0988  0.0142  0.5888  -3.4835   0.0000   0.0000   0.0000   0.3255
   7.400   1.1916   0.01932   0.01131  -0.0976  0.0151  0.5891  -3.5487   0.0000   0.0000   0.0000   0.3240
   7.500   1.1952   0.01992   0.01203  -0.0960  0.0163  0.5894  -3.5884   0.0000   0.0000   0.0000   0.3224
   7.600   1.1966   0.02083   0.01313  -0.0938  0.0181  0.5897  -3.5722   0.0000   0.0000   0.0000   0.3203
   7.700   1.1974   0.02228   0.01481  -0.0914  0.0206  0.5899  -3.5185   0.0000   0.0000   0.0000   0.3181
  14.700   0.9121   0.17454   0.17200  -0.1017  0.0259  1.0000  -2.0353   0.0000   0.0000   0.0000   0.3462
  15.000   0.9377   0.17304   0.17046  -0.1016  0.0190  1.0000  -2.3890   0.0000   0.0000   0.0000   0.3424
  15.100   0.9387   0.17480   0.17222  -0.1025  0.0181  1.0000  -2.3961   0.0000   0.0000   0.0000   0.3432
  15.200   0.9399   0.17645   0.17386  -0.1034  0.0173  1.0000  -2.4109   0.0000   0.0000   0.0000   0.3439
  15.300   0.9414   0.17796   0.17536  -0.1043  0.0166  1.0000  -2.4355   0.0000   0.0000   0.0000   0.3445
  17.100   0.9511   0.22222   0.21976  -0.1233  0.0191  1.0000  -1.8699   0.0000   0.0000   0.0000   0.3618
  17.200   0.9524   0.22476   0.22229  -0.1242  0.0196  1.0000  -1.8442   0.0000   0.0000   0.0000   0.3625
  17.300   0.9537   0.22727   0.22479  -0.1252  0.0201  1.0000  -1.8215   0.0000   0.0000   0.0000   0.3632
  17.400   0.9551   0.22975   0.22727  -0.1261  0.0206  1.0000  -1.8018   0.0000   0.0000   0.0000   0.3639
  17.500   0.9566   0.23220   0.22971  -0.1270  0.0209  1.0000  -1.7849   0.0000   0.0000   0.0000   0.3645
  17.600   0.9582   0.23460   0.23210  -0.1279  0.0211  1.0000  -1.7704   0.0000   0.0000   0.0000   0.3651
  17.700   0.9598   0.23695   0.23444  -0.1288  0.0211  1.0000  -1.7579   0.0000   0.0000   0.0000   0.3657
  17.800   0.9616   0.23924   0.23673  -0.1297  0.0211  1.0000  -1.7472   0.0000   0.0000   0.0000   0.3662
  17.900   0.9634   0.24148   0.23897  -0.1305  0.0209  1.0000  -1.7380   0.0000   0.0000   0.0000   0.3668
  18.000   0.9652   0.24370   0.24118  -0.1314  0.0206  1.0000  -1.7304   0.0000   0.0000   0.0000   0.3673
  18.100   0.9671   0.24589   0.24336  -0.1323  0.0202  1.0000  -1.7244   0.0000   0.0000   0.0000   0.3678
  18.200   0.9691   0.24807   0.24553  -0.1332  0.0197  1.0000  -1.7203   0.0000   0.0000   0.0000   0.3683
  18.300   0.9711   0.25023   0.24769  -0.1340  0.0192  1.0000  -1.7182   0.0000   0.0000   0.0000   0.3688
  18.400   0.9731   0.25238   0.24983  -0.1349  0.0187  1.0000  -1.7184   0.0000   0.0000   0.0000   0.3692
  18.500   0.9752   0.25450   0.25195  -0.1357  0.0181  1.0000  -1.7212   0.0000   0.0000   0.0000   0.3696
  18.600   0.9773   0.25661   0.25405  -0.1365  0.0175  1.0000  -1.7267   0.0000   0.0000   0.0000   0.3700
  18.700   0.9794   0.25868   0.25612  -0.1374  0.0169  1.0000  -1.7354   0.0000   0.0000   0.0000   0.3704
  18.800   0.9817   0.26072   0.25816  -0.1381  0.0163  1.0000  -1.7477   0.0000   0.0000   0.0000   0.3707
  18.900   0.9840   0.26272   0.26015  -0.1389  0.0157  1.0000  -1.7644   0.0000   0.0000   0.0000   0.3710
  19.000   0.9863   0.26467   0.26209  -0.1397  0.0151  1.0000  -1.7862   0.0000   0.0000   0.0000   0.3713
  19.100   0.9888   0.26655   0.26397  -0.1404  0.0145  1.0000  -1.8146   0.0000   0.0000   0.0000   0.3714
  19.200   0.9915   0.26836   0.26577  -0.1411  0.0140  1.0000  -1.8512   0.0000   0.0000   0.0000   0.3715
  19.300   0.9944   0.27006   0.26747  -0.1417  0.0134  1.0000  -1.8990   0.0000   0.0000   0.0000   0.3715
  19.400   0.9977   0.27165   0.26905  -0.1422  0.0128  1.0000  -1.9630   0.0000   0.0000   0.0000   0.3713
  19.500   1.0018   0.27310   0.27049  -0.1425  0.0122  1.0000  -2.0540   0.0000   0.0000   0.0000   0.3708
  19.600   1.0059   0.27480   0.27219  -0.1428  0.0115  1.0000  -2.1500   0.0000   0.0000   0.0000   0.3702
  19.700   1.0075   0.27805   0.27544  -0.1437  0.0108  1.0000  -2.1719   0.0000   0.0000   0.0000   0.3707
  19.800   1.0015   0.29000   0.28739  -0.1468  0.0098  1.0000  -1.8284   0.0000   0.0000   0.0000   0.3748
  19.900   1.0035   0.29266   0.29005  -0.1478  0.0098  1.0000  -1.8170   0.0000   0.0000   0.0000   0.3754
  20.000   1.0055   0.29535   0.29275  -0.1488  0.0097  1.0000  -1.8057   0.0000   0.0000   0.0000   0.3759
  20.100   1.0076   0.29808   0.29547  -0.1497  0.0097  1.0000  -1.7944   0.0000   0.0000   0.0000   0.3764
  20.200   1.0096   0.30083   0.29823  -0.1507  0.0097  1.0000  -1.7833   0.0000   0.0000   0.0000   0.3770
  20.300   1.0116   0.30363   0.30102  -0.1517  0.0097  1.0000  -1.7722   0.0000   0.0000   0.0000   0.3775
  20.400   1.0136   0.30647   0.30386  -0.1528  0.0097  1.0000  -1.7612   0.0000   0.0000   0.0000   0.3781
  20.500   1.0156   0.30936   0.30676  -0.1538  0.0097  1.0000  -1.7502   0.0000   0.0000   0.0000   0.3787
  20.600   1.0177   0.31230   0.30971  -0.1549  0.0097  1.0000  -1.7392   0.0000   0.0000   0.0000   0.3792
  20.700   1.0197   0.31532   0.31272  -0.1560  0.0096  1.0000  -1.7281   0.0000   0.0000   0.0000   0.3798
  20.800   1.0217   0.31841   0.31582  -0.1571  0.0096  1.0000  -1.7168   0.0000   0.0000   0.0000   0.3805
  20.900   1.0238   0.32160   0.31902  -0.1582  0.0096  1.0000  -1.7053   0.0000   0.0000   0.0000   0.3812
  21.000   1.0258   0.32493   0.32235  -0.1595  0.0096  1.0000  -1.6933   0.0000   0.0000   0.0000   0.3819
  21.100   1.0278   0.32844   0.32586  -0.1608  0.0096  1.0000  -1.6808   0.0000   0.0000   0.0000   0.3827
  21.200   1.0298   0.33221   0.32965  -0.1622  0.0095  1.0000  -1.6672   0.0000   0.0000   0.0000   0.3836
  21.300   1.0318   0.33648   0.33393  -0.1638  0.0095  1.0000  -1.6511   0.0000   0.0000   0.0000   0.3847
  21.400   1.0337   0.34267   0.34015  -0.1664  0.0095  1.0000  -1.6256   0.0000   0.0000   0.0000   0.3868


