xflr5 v6.61

 Calculated polar for: FX 60-100 AIRFOIL

 1 1 Reynolds number fixed          Mach number fixed         

 xtrf =   1.000 (top)        1.000 (bottom)
 Mach =   0.000     Re =     0.563 e 6     Ncrit =   9.000

  alpha     CL        CD       CDp       Cm    Top Xtr Bot Xtr   Cpmin    Chinge    XCp    
 ------- -------- --------- --------- -------- ------- ------- -------- --------- ---------
 -10.000  -0.3680   0.10550   0.10325  -0.0309  1.0000  0.0098  -2.0518   0.0000   0.0000   0.0000   0.1566
  -9.900  -0.3665   0.10393   0.10169  -0.0316  1.0000  0.0098  -2.0718   0.0000   0.0000   0.0000   0.1546
  -9.800  -0.3650   0.10236   0.10013  -0.0322  1.0000  0.0098  -2.0926   0.0000   0.0000   0.0000   0.1526
  -9.500  -0.3613   0.09763   0.09540  -0.0341  1.0000  0.0098  -2.1648   0.0000   0.0000   0.0000   0.1467
  -9.400  -0.3602   0.09604   0.09383  -0.0347  1.0000  0.0098  -2.1891   0.0000   0.0000   0.0000   0.1447
  -9.300  -0.3712   0.09165   0.08950  -0.0363  1.0000  0.0101  -2.4525   0.0000   0.0000   0.0000   0.1434
  -9.200  -0.3737   0.08946   0.08732  -0.0371  1.0000  0.0102  -2.5252   0.0000   0.0000   0.0000   0.1419
  -9.100  -0.3749   0.08763   0.08551  -0.0379  1.0000  0.0103  -2.5672   0.0000   0.0000   0.0000   0.1403
  -9.000  -0.3757   0.08594   0.08384  -0.0385  1.0000  0.0104  -2.5979   0.0000   0.0000   0.0000   0.1389
  -8.900  -0.3764   0.08434   0.08224  -0.0391  1.0000  0.0105  -2.6238   0.0000   0.0000   0.0000   0.1375
  -8.800  -0.3771   0.08277   0.08070  -0.0397  1.0000  0.0106  -2.6477   0.0000   0.0000   0.0000   0.1364
  -8.700  -0.3781   0.08124   0.07917  -0.0402  1.0000  0.0106  -2.6713   0.0000   0.0000   0.0000   0.1354
  -8.600  -0.3794   0.07974   0.07769  -0.0406  1.0000  0.0107  -2.6960   0.0000   0.0000   0.0000   0.1347
  -8.500  -0.3813   0.07828   0.07625  -0.0409  1.0000  0.0107  -2.7227   0.0000   0.0000   0.0000   0.1346
  -8.400  -0.3840   0.07687   0.07487  -0.0411  1.0000  0.0108  -2.7521   0.0000   0.0000   0.0000   0.1350
  -8.300  -0.3877   0.07556   0.07358  -0.0410  1.0000  0.0108  -2.7848   0.0000   0.0000   0.0000   0.1365
  -8.200  -0.3935   0.07446   0.07250  -0.0404  1.0000  0.0108  -2.8214   0.0000   0.0000   0.0000   0.1399
  -8.100  -0.4021   0.07369   0.07177  -0.0389  1.0000  0.0108  -2.8618   0.0000   0.0000   0.0000   0.1460
  -8.000  -0.4135   0.07330   0.07141  -0.0366  1.0000  0.0108  -2.9047   0.0000   0.0000   0.0000   0.1544
  -7.900  -0.4099   0.07069   0.06881  -0.0398  0.9983  0.0108  -2.9513   0.0000   0.0000   0.0000   0.1459
  -7.800  -0.4035   0.06749   0.06562  -0.0442  0.9960  0.0109  -3.0082   0.0000   0.0000   0.0000   0.1333
  -7.700  -0.3948   0.06351   0.06163  -0.0500  0.9934  0.0110  -3.0847   0.0000   0.0000   0.0000   0.1161
  -7.600  -0.3831   0.05057   0.04856  -0.0697  0.9888  0.0108  -3.5998   0.0000   0.0000   0.0000   0.0604
  -7.500  -0.3654   0.04369   0.04144  -0.0848  0.9849  0.0108  -3.7617   0.0000   0.0000   0.0000   0.0099
  -7.400  -0.3511   0.04023   0.03781  -0.0915  0.9834  0.0110  -3.7852   0.0000   0.0000   0.0000  -0.0186
  -7.300  -0.3390   0.03779   0.03524  -0.0955  0.9810  0.0112  -3.7723   0.0000   0.0000   0.0000  -0.0400
  -7.200  -0.3264   0.03585   0.03318  -0.0987  0.9789  0.0114  -3.7294   0.0000   0.0000   0.0000  -0.0608
  -7.100  -0.3126   0.03396   0.03117  -0.1018  0.9774  0.0116  -3.6839   0.0000   0.0000   0.0000  -0.0841
  -7.000  -0.2986   0.03217   0.02926  -0.1045  0.9762  0.0119  -3.6385   0.0000   0.0000   0.0000  -0.1090
  -6.900  -0.2845   0.03055   0.02751  -0.1070  0.9750  0.0123  -3.5907   0.0000   0.0000   0.0000  -0.1351
  -6.800  -0.2704   0.02936   0.02618  -0.1090  0.9741  0.0130  -3.5187   0.0000   0.0000   0.0000  -0.1624
  -6.700  -0.2578   0.02803   0.02471  -0.1105  0.9721  0.0138  -3.4823   0.0000   0.0000   0.0000  -0.1883
  -6.600  -0.2458   0.02708   0.02364  -0.1113  0.9695  0.0150  -3.4420   0.0000   0.0000   0.0000  -0.2130
  -6.500  -0.2322   0.02504   0.02121  -0.1137  0.9670  0.0186  -3.4593   0.0000   0.0000   0.0000  -0.2501
  -6.400  -0.2203   0.02422   0.02040  -0.1147  0.9655  0.0196  -3.3344   0.0000   0.0000   0.0000  -0.2816
  -6.300  -0.2077   0.02384   0.02003  -0.1156  0.9641  0.0206  -3.1940   0.0000   0.0000   0.0000  -0.3176
  -6.200  -0.1946   0.02340   0.01955  -0.1164  0.9628  0.0220  -3.0732   0.0000   0.0000   0.0000  -0.3597
  -6.100  -0.1825   0.02296   0.01903  -0.1169  0.9608  0.0235  -2.9777   0.0000   0.0000   0.0000  -0.4024
  -6.000  -0.1714   0.02284   0.01883  -0.1168  0.9577  0.0250  -2.8855   0.0000   0.0000   0.0000  -0.4441
  -5.900  -0.1602   0.02122   0.01694  -0.1182  0.9548  0.0289  -2.8271   0.0000   0.0000   0.0000  -0.5009
  -5.800  -0.1490   0.02061   0.01636  -0.1186  0.9528  0.0299  -2.7138   0.0000   0.0000   0.0000  -0.5597
  -5.700  -0.1374   0.02014   0.01587  -0.1190  0.9511  0.0308  -2.6018   0.0000   0.0000   0.0000  -0.6306
  -5.600  -0.1257   0.01991   0.01563  -0.1193  0.9496  0.0326  -2.4787   0.0000   0.0000   0.0000  -0.7153
  -5.500  -0.1137   0.02015   0.01585  -0.1194  0.9479  0.0356  -2.3511   0.0000   0.0000   0.0000  -0.8169
  -5.400  -0.1031   0.01920   0.01466  -0.1200  0.9447  0.0405  -2.2861   0.0000   0.0000   0.0000  -0.9317
  -5.200  -0.0766   0.01448   0.00937  -0.1187  0.9400  0.0187  -2.5685   0.0000   0.0000   0.0000  -1.3253
  -5.100  -0.0648   0.01455   0.00940  -0.1186  0.9378  0.0179  -2.4914   0.0000   0.0000   0.0000  -1.6075
  -5.000  -0.0535   0.01413   0.00898  -0.1185  0.9357  0.0166  -2.4481   0.0000   0.0000   0.0000  -1.9987
  -4.900  -0.0420   0.01316   0.00794  -0.1186  0.9339  0.0160  -2.4469   0.0000   0.0000   0.0000  -2.6185
  -4.800  -0.0309   0.01255   0.00728  -0.1186  0.9314  0.0155  -2.4211   0.0000   0.0000   0.0000  -3.6480
  -4.700  -0.0200   0.01204   0.00673  -0.1185  0.9285  0.0150  -2.3895   0.0000   0.0000   0.0000  -5.7571
  -4.600  -0.0089   0.01160   0.00623  -0.1185  0.9256  0.0147  -2.3531   0.0000   0.0000   0.0000  -13.3166
  -4.500   0.0025   0.01120   0.00578  -0.1185  0.9229  0.0143  -2.3128   0.0000   0.0000   0.0000  48.6661
  -4.400   0.0140   0.01084   0.00537  -0.1185  0.9204  0.0141  -2.2689   0.0000   0.0000   0.0000   8.8544
  -4.300   0.0256   0.01052   0.00500  -0.1186  0.9181  0.0138  -2.2208   0.0000   0.0000   0.0000   4.9325
  -4.100   0.0489   0.00997   0.00430  -0.1187  0.9130  0.0135  -2.1296   0.0000   0.0000   0.0000   2.7067
  -4.000   0.0603   0.00975   0.00404  -0.1188  0.9100  0.0134  -2.0747   0.0000   0.0000   0.0000   2.2411
  -3.900   0.0718   0.00955   0.00379  -0.1188  0.9072  0.0133  -2.0180   0.0000   0.0000   0.0000   1.9220
  -3.800   0.0834   0.00937   0.00357  -0.1188  0.9044  0.0133  -1.9597   0.0000   0.0000   0.0000   1.6907
  -3.700   0.0949   0.00922   0.00336  -0.1188  0.9019  0.0134  -1.9005   0.0000   0.0000   0.0000   1.5150
  -3.600   0.1065   0.00907   0.00316  -0.1188  0.8993  0.0135  -1.8411   0.0000   0.0000   0.0000   1.3770
  -3.400   0.1294   0.00884   0.00283  -0.1188  0.8937  0.0141  -1.7249   0.0000   0.0000   0.0000   1.1762
  -3.300   0.1408   0.00873   0.00269  -0.1188  0.8904  0.0147  -1.6703   0.0000   0.0000   0.0000   1.1010
  -3.200   0.1522   0.00862   0.00253  -0.1187  0.8871  0.0156  -1.6208   0.0000   0.0000   0.0000   1.0368
  -3.100   0.1639   0.00842   0.00234  -0.1187  0.8840  0.0253  -1.6163   0.0000   0.0000   0.0000   0.9801
  -3.000   0.1762   0.00787   0.00209  -0.1193  0.8810  0.1142  -1.5996   0.0000   0.0000   0.0000   0.9322
  -2.900   0.1878   0.00760   0.00198  -0.1195  0.8781  0.1630  -1.5190   0.0000   0.0000   0.0000   0.8912
  -2.800   0.1993   0.00738   0.00190  -0.1197  0.8750  0.2097  -1.4330   0.0000   0.0000   0.0000   0.8550
  -2.700   0.2106   0.00715   0.00184  -0.1199  0.8714  0.2602  -1.3460   0.0000   0.0000   0.0000   0.8232
  -2.600   0.2219   0.00699   0.00180  -0.1200  0.8675  0.2951  -1.2589   0.0000   0.0000   0.0000   0.7944
  -2.500   0.2330   0.00693   0.00177  -0.1200  0.8634  0.3147  -1.1722   0.0000   0.0000   0.0000   0.7681
  -2.400   0.2441   0.00683   0.00174  -0.1200  0.8594  0.3436  -1.0860   0.0000   0.0000   0.0000   0.7442
  -2.300   0.2553   0.00677   0.00172  -0.1199  0.8555  0.3687  -1.0005   0.0000   0.0000   0.0000   0.7223
  -2.200   0.2665   0.00672   0.00172  -0.1199  0.8518  0.3852  -0.9155   0.0000   0.0000   0.0000   0.7022
  -2.100   0.2777   0.00669   0.00170  -0.1199  0.8478  0.3936  -0.8300   0.0000   0.0000   0.0000   0.6837
  -2.000   0.2888   0.00676   0.00158  -0.1197  0.8436  0.3663  -0.7320   0.0000   0.0000   0.0000   0.6662
  -1.900   0.3000   0.00669   0.00158  -0.1197  0.8392  0.3909  -0.6549   0.0000   0.0000   0.0000   0.6505
  -1.800   0.3111   0.00665   0.00157  -0.1196  0.8347  0.4106  -0.5794   0.0000   0.0000   0.0000   0.6359
  -1.700   0.3221   0.00664   0.00157  -0.1195  0.8301  0.4269  -0.5055   0.0000   0.0000   0.0000   0.6222
  -1.600   0.3333   0.00664   0.00156  -0.1195  0.8256  0.4344  -0.5136   0.0000   0.0000   0.0000   0.6094
  -1.500   0.3445   0.00661   0.00154  -0.1194  0.8205  0.4407  -0.5220   0.0000   0.0000   0.0000   0.5975
  -1.400   0.3556   0.00659   0.00152  -0.1194  0.8153  0.4463  -0.5303   0.0000   0.0000   0.0000   0.5862
  -1.300   0.3667   0.00659   0.00150  -0.1192  0.8101  0.4515  -0.5387   0.0000   0.0000   0.0000   0.5757
  -1.200   0.3777   0.00660   0.00148  -0.1191  0.8050  0.4564  -0.5470   0.0000   0.0000   0.0000   0.5657
  -1.100   0.3890   0.00660   0.00147  -0.1191  0.8002  0.4610  -0.5554   0.0000   0.0000   0.0000   0.5564
  -1.000   0.4002   0.00660   0.00146  -0.1190  0.7948  0.4651  -0.5639   0.0000   0.0000   0.0000   0.5476
  -0.900   0.4113   0.00660   0.00144  -0.1190  0.7893  0.4692  -0.5723   0.0000   0.0000   0.0000   0.5392
  -0.800   0.4224   0.00660   0.00143  -0.1189  0.7839  0.4747  -0.5811   0.0000   0.0000   0.0000   0.5313
  -0.700   0.4335   0.00661   0.00142  -0.1188  0.7788  0.4805  -0.5910   0.0000   0.0000   0.0000   0.5238
  -0.600   0.4447   0.00660   0.00143  -0.1188  0.7741  0.4865  -0.6011   0.0000   0.0000   0.0000   0.5167
  -0.500   0.4560   0.00660   0.00143  -0.1188  0.7687  0.4923  -0.6111   0.0000   0.0000   0.0000   0.5099
  -0.400   0.4672   0.00662   0.00143  -0.1187  0.7629  0.4973  -0.6212   0.0000   0.0000   0.0000   0.5035
  -0.300   0.4783   0.00664   0.00142  -0.1186  0.7570  0.5018  -0.6312   0.0000   0.0000   0.0000   0.4973
  -0.200   0.4893   0.00665   0.00142  -0.1185  0.7514  0.5084  -0.6412   0.0000   0.0000   0.0000   0.4914
  -0.100   0.5005   0.00665   0.00144  -0.1185  0.7461  0.5141  -0.6513   0.0000   0.0000   0.0000   0.4858
   0.000   0.5117   0.00665   0.00144  -0.1185  0.7392  0.5191  -0.6614   0.0000   0.0000   0.0000   0.4805
   0.100   0.5227   0.00668   0.00144  -0.1184  0.7311  0.5235  -0.6715   0.0000   0.0000   0.0000   0.4753
   0.200   0.5334   0.00673   0.00144  -0.1182  0.7227  0.5276  -0.6826   0.0000   0.0000   0.0000   0.4704
   0.300   0.5445   0.00675   0.00145  -0.1181  0.7148  0.5313  -0.6948   0.0000   0.0000   0.0000   0.4657
   0.400   0.5555   0.00677   0.00145  -0.1181  0.7051  0.5360  -0.7081   0.0000   0.0000   0.0000   0.4611
   0.500   0.5662   0.00681   0.00146  -0.1179  0.6948  0.5420  -0.7264   0.0000   0.0000   0.0000   0.4568
   0.600   0.5771   0.00685   0.00149  -0.1178  0.6860  0.5481  -0.7451   0.0000   0.0000   0.0000   0.4526
   0.700   0.5880   0.00688   0.00151  -0.1177  0.6765  0.5541  -0.7638   0.0000   0.0000   0.0000   0.4485
   0.800   0.5988   0.00694   0.00153  -0.1176  0.6672  0.5598  -0.7825   0.0000   0.0000   0.0000   0.4446
   0.900   0.6096   0.00701   0.00155  -0.1175  0.6592  0.5645  -0.8013   0.0000   0.0000   0.0000   0.4409
   1.000   0.6208   0.00702   0.00158  -0.1175  0.6514  0.5714  -0.8204   0.0000   0.0000   0.0000   0.4373
   1.100   0.6317   0.00705   0.00161  -0.1174  0.6421  0.5782  -0.8394   0.0000   0.0000   0.0000   0.4338
   1.200   0.6423   0.00711   0.00164  -0.1172  0.6322  0.5846  -0.8583   0.0000   0.0000   0.0000   0.4304
   1.300   0.6532   0.00716   0.00167  -0.1172  0.6237  0.5906  -0.8775   0.0000   0.0000   0.0000   0.4271
   1.400   0.6641   0.00722   0.00170  -0.1171  0.6142  0.5956  -0.8968   0.0000   0.0000   0.0000   0.4240
   1.500   0.6748   0.00729   0.00173  -0.1170  0.6043  0.6011  -0.9159   0.0000   0.0000   0.0000   0.4209
   1.600   0.6855   0.00734   0.00177  -0.1169  0.5957  0.6074  -0.9351   0.0000   0.0000   0.0000   0.4180
   1.700   0.6966   0.00737   0.00181  -0.1168  0.5876  0.6132  -0.9547   0.0000   0.0000   0.0000   0.4151
   1.800   0.7074   0.00743   0.00185  -0.1167  0.5782  0.6187  -0.9742   0.0000   0.0000   0.0000   0.4124
   1.900   0.7180   0.00752   0.00189  -0.1166  0.5685  0.6239  -0.9936   0.0000   0.0000   0.0000   0.4097
   2.000   0.7289   0.00758   0.00192  -0.1166  0.5606  0.6284  -1.0133   0.0000   0.0000   0.0000   0.4070
   2.100   0.7399   0.00762   0.00196  -0.1165  0.5524  0.6342  -1.0331   0.0000   0.0000   0.0000   0.4045
   2.200   0.7506   0.00768   0.00201  -0.1164  0.5435  0.6403  -1.0527   0.0000   0.0000   0.0000   0.4021
   2.300   0.7611   0.00776   0.00207  -0.1163  0.5345  0.6464  -1.0723   0.0000   0.0000   0.0000   0.3997
   2.400   0.7721   0.00780   0.00214  -0.1162  0.5274  0.6525  -1.0969   0.0000   0.0000   0.0000   0.3973
   2.500   0.7831   0.00786   0.00218  -0.1162  0.5185  0.6581  -1.1233   0.0000   0.0000   0.0000   0.3951
   2.600   0.7937   0.00793   0.00223  -0.1161  0.5081  0.6642  -1.1495   0.0000   0.0000   0.0000   0.3929
   2.700   0.8042   0.00801   0.00229  -0.1160  0.4985  0.6711  -1.1756   0.0000   0.0000   0.0000   0.3907
   2.800   0.8151   0.00806   0.00234  -0.1159  0.4905  0.6780  -1.2024   0.0000   0.0000   0.0000   0.3886
   2.900   0.8258   0.00812   0.00240  -0.1158  0.4815  0.6848  -1.2291   0.0000   0.0000   0.0000   0.3866
   3.000   0.8364   0.00823   0.00245  -0.1157  0.4720  0.6911  -1.2557   0.0000   0.0000   0.0000   0.3846
   3.100   0.8471   0.00828   0.00252  -0.1156  0.4642  0.6993  -1.2826   0.0000   0.0000   0.0000   0.3827
   3.200   0.8579   0.00832   0.00257  -0.1156  0.4557  0.7082  -1.3098   0.0000   0.0000   0.0000   0.3808
   3.300   0.8685   0.00839   0.00263  -0.1155  0.4448  0.7173  -1.3368   0.0000   0.0000   0.0000   0.3789
   3.400   0.8787   0.00850   0.00271  -0.1153  0.4336  0.7272  -1.3706   0.0000   0.0000   0.0000   0.3771
   3.500   0.8894   0.00855   0.00278  -0.1152  0.4241  0.7390  -1.4093   0.0000   0.0000   0.0000   0.3753
   3.700   0.9097   0.00873   0.00293  -0.1149  0.4025  0.7658  -1.4860   0.0000   0.0000   0.0000   0.3718
   3.800   0.9202   0.00875   0.00300  -0.1147  0.3945  0.7835  -1.5301   0.0000   0.0000   0.0000   0.3701
   3.900   0.9301   0.00880   0.00307  -0.1145  0.3830  0.8076  -1.5763   0.0000   0.0000   0.0000   0.3684
   4.000   0.9383   0.00884   0.00316  -0.1139  0.3705  0.8455  -1.6192   0.0000   0.0000   0.0000   0.3666
   4.100   0.9440   0.00869   0.00315  -0.1125  0.3623  1.0000  -1.6572   0.0000   0.0000   0.0000   0.3643
   4.200   0.9546   0.00883   0.00328  -0.1124  0.3511  1.0000  -1.7065   0.0000   0.0000   0.0000   0.3628
   4.300   0.9648   0.00900   0.00339  -0.1123  0.3392  1.0000  -1.7551   0.0000   0.0000   0.0000   0.3614
   4.400   0.9755   0.00912   0.00347  -0.1123  0.3265  1.0000  -1.8051   0.0000   0.0000   0.0000   0.3599
   4.500   0.9851   0.00937   0.00360  -0.1121  0.3054  1.0000  -1.8528   0.0000   0.0000   0.0000   0.3585
   4.600   0.9948   0.00960   0.00372  -0.1119  0.2865  1.0000  -1.9012   0.0000   0.0000   0.0000   0.3571
   4.700   1.0049   0.00980   0.00384  -0.1118  0.2693  1.0000  -1.9506   0.0000   0.0000   0.0000   0.3558
   4.800   1.0143   0.01008   0.00398  -0.1116  0.2462  1.0000  -1.9987   0.0000   0.0000   0.0000   0.3544
   4.900   1.0240   0.01031   0.00412  -0.1115  0.2304  1.0000  -2.0480   0.0000   0.0000   0.0000   0.3531
   5.000   1.0341   0.01049   0.00424  -0.1113  0.2179  1.0000  -2.0986   0.0000   0.0000   0.0000   0.3518
   5.100   1.0434   0.01078   0.00441  -0.1111  0.1956  1.0000  -2.1473   0.0000   0.0000   0.0000   0.3506
   5.200   1.0526   0.01108   0.00458  -0.1109  0.1770  1.0000  -2.1962   0.0000   0.0000   0.0000   0.3493
   5.300   1.0621   0.01134   0.00474  -0.1107  0.1569  1.0000  -2.2461   0.0000   0.0000   0.0000   0.3481
   5.400   1.0707   0.01173   0.00496  -0.1104  0.1357  1.0000  -2.2940   0.0000   0.0000   0.0000   0.3469
   5.500   1.0802   0.01199   0.00513  -0.1103  0.1218  1.0000  -2.3444   0.0000   0.0000   0.0000   0.3457
   5.600   1.0892   0.01230   0.00532  -0.1100  0.1031  1.0000  -2.3945   0.0000   0.0000   0.0000   0.3445
   5.700   1.0987   0.01256   0.00549  -0.1098  0.0942  1.0000  -2.4457   0.0000   0.0000   0.0000   0.3433
   5.800   1.1084   0.01277   0.00564  -0.1097  0.0870  1.0000  -2.4979   0.0000   0.0000   0.0000   0.3422
   5.900   1.1188   0.01290   0.00576  -0.1095  0.0839  1.0000  -2.5520   0.0000   0.0000   0.0000   0.3411
   6.000   1.1292   0.01301   0.00591  -0.1095  0.0799  1.0000  -2.6061   0.0000   0.0000   0.0000   0.3400
   6.100   1.1388   0.01324   0.00608  -0.1093  0.0687  1.0000  -2.6586   0.0000   0.0000   0.0000   0.3389
   6.200   1.1484   0.01346   0.00624  -0.1091  0.0638  1.0000  -2.7114   0.0000   0.0000   0.0000   0.3378
   6.300   1.1582   0.01366   0.00640  -0.1089  0.0602  1.0000  -2.7649   0.0000   0.0000   0.0000   0.3367
   6.400   1.1679   0.01385   0.00655  -0.1087  0.0566  1.0000  -2.8184   0.0000   0.0000   0.0000   0.3356
   6.500   1.1779   0.01402   0.00670  -0.1086  0.0532  1.0000  -2.8725   0.0000   0.0000   0.0000   0.3346
   6.600   1.1881   0.01415   0.00684  -0.1084  0.0513  1.0000  -2.9278   0.0000   0.0000   0.0000   0.3336
   6.700   1.1984   0.01427   0.00697  -0.1083  0.0501  1.0000  -2.9839   0.0000   0.0000   0.0000   0.3326
   6.800   1.2085   0.01440   0.00711  -0.1082  0.0478  1.0000  -3.0396   0.0000   0.0000   0.0000   0.3316
   6.900   1.2182   0.01459   0.00728  -0.1080  0.0432  1.0000  -3.1223   0.0000   0.0000   0.0000   0.3306
   7.000   1.2271   0.01488   0.00750  -0.1077  0.0366  1.0000  -3.2433   0.0000   0.0000   0.0000   0.3296
   7.100   1.2363   0.01513   0.00770  -0.1075  0.0321  1.0000  -3.3664   0.0000   0.0000   0.0000   0.3286
   7.200   1.2453   0.01539   0.00791  -0.1072  0.0273  1.0000  -3.4878   0.0000   0.0000   0.0000   0.3276
   7.300   1.2548   0.01559   0.00809  -0.1070  0.0244  1.0000  -3.6117   0.0000   0.0000   0.0000   0.3266
   7.400   1.2629   0.01597   0.00840  -0.1066  0.0175  1.0000  -3.7241   0.0000   0.0000   0.0000   0.3256
   7.500   1.2707   0.01638   0.00875  -0.1061  0.0087  1.0000  -3.8326   0.0000   0.0000   0.0000   0.3246
   7.600   1.2792   0.01671   0.00905  -0.1058  0.0057  1.0000  -3.9420   0.0000   0.0000   0.0000   0.3237
   7.700   1.2886   0.01691   0.00927  -0.1055  0.0044  1.0000  -4.0566   0.0000   0.0000   0.0000   0.3227
   7.800   1.2980   0.01711   0.00949  -0.1052  0.0041  1.0000  -4.1754   0.0000   0.0000   0.0000   0.3218
   7.900   1.3073   0.01731   0.00972  -0.1050  0.0039  1.0000  -4.2946   0.0000   0.0000   0.0000   0.3208
   8.000   1.3167   0.01750   0.00996  -0.1047  0.0039  1.0000  -4.4291   0.0000   0.0000   0.0000   0.3199
   8.100   1.3260   0.01771   0.01020  -0.1044  0.0037  1.0000  -4.5541   0.0000   0.0000   0.0000   0.3190
   8.200   1.3351   0.01793   0.01045  -0.1041  0.0036  1.0000  -4.6766   0.0000   0.0000   0.0000   0.3181
   8.300   1.3441   0.01816   0.01071  -0.1038  0.0036  1.0000  -4.7985   0.0000   0.0000   0.0000   0.3172
   8.400   1.3530   0.01839   0.01098  -0.1034  0.0035  1.0000  -4.9203   0.0000   0.0000   0.0000   0.3163
   8.500   1.3619   0.01863   0.01126  -0.1031  0.0034  1.0000  -5.0419   0.0000   0.0000   0.0000   0.3154
   8.600   1.3706   0.01888   0.01154  -0.1027  0.0034  1.0000  -5.1633   0.0000   0.0000   0.0000   0.3145
   8.700   1.3792   0.01914   0.01184  -0.1023  0.0033  1.0000  -5.2844   0.0000   0.0000   0.0000   0.3136
   8.800   1.3876   0.01942   0.01215  -0.1019  0.0033  1.0000  -5.4051   0.0000   0.0000   0.0000   0.3127
   8.900   1.3959   0.01970   0.01248  -0.1015  0.0033  1.0000  -5.5251   0.0000   0.0000   0.0000   0.3118
   9.000   1.4041   0.02000   0.01282  -0.1010  0.0033  1.0000  -5.6446   0.0000   0.0000   0.0000   0.3109
   9.100   1.4121   0.02030   0.01317  -0.1006  0.0033  1.0000  -5.7634   0.0000   0.0000   0.0000   0.3100
   9.200   1.4199   0.02063   0.01354  -0.1001  0.0033  1.0000  -5.8812   0.0000   0.0000   0.0000   0.3091
   9.300   1.4275   0.02096   0.01392  -0.0995  0.0033  1.0000  -5.9979   0.0000   0.0000   0.0000   0.3082
   9.400   1.4349   0.02131   0.01432  -0.0990  0.0033  1.0000  -6.1129   0.0000   0.0000   0.0000   0.3073
   9.500   1.4420   0.02168   0.01475  -0.0984  0.0033  1.0000  -6.2275   0.0000   0.0000   0.0000   0.3064
   9.600   1.4489   0.02207   0.01519  -0.0977  0.0033  1.0000  -6.3419   0.0000   0.0000   0.0000   0.3055
   9.700   1.4554   0.02248   0.01566  -0.0971  0.0033  1.0000  -6.4538   0.0000   0.0000   0.0000   0.3046
   9.800   1.4616   0.02291   0.01615  -0.0964  0.0033  1.0000  -6.5629   0.0000   0.0000   0.0000   0.3037
   9.900   1.4675   0.02336   0.01666  -0.0956  0.0033  1.0000  -6.6690   0.0000   0.0000   0.0000   0.3027
  10.000   1.4729   0.02383   0.01719  -0.0948  0.0033  1.0000  -6.7717   0.0000   0.0000   0.0000   0.3018
  10.100   1.4779   0.02433   0.01775  -0.0939  0.0034  1.0000  -6.8706   0.0000   0.0000   0.0000   0.3008
  10.200   1.4823   0.02485   0.01833  -0.0930  0.0034  1.0000  -6.9651   0.0000   0.0000   0.0000   0.2998
  10.300   1.4856   0.02537   0.01893  -0.0919  0.0034  1.0000  -7.0515   0.0000   0.0000   0.0000   0.2988
  10.400   1.4880   0.02595   0.01960  -0.0906  0.0034  1.0000  -7.1339   0.0000   0.0000   0.0000   0.2977
  10.500   1.4900   0.02654   0.02026  -0.0893  0.0035  1.0000  -7.2104   0.0000   0.0000   0.0000   0.2966
  10.600   1.4915   0.02715   0.02094  -0.0880  0.0035  1.0000  -7.2823   0.0000   0.0000   0.0000   0.2955
  10.700   1.4927   0.02780   0.02166  -0.0867  0.0035  1.0000  -7.3503   0.0000   0.0000   0.0000   0.2944
  10.800   1.4934   0.02849   0.02242  -0.0854  0.0036  1.0000  -7.4144   0.0000   0.0000   0.0000   0.2933
  10.900   1.4939   0.02921   0.02322  -0.0841  0.0036  1.0000  -7.4756   0.0000   0.0000   0.0000   0.2923
  11.000   1.4941   0.02998   0.02406  -0.0828  0.0036  1.0000  -7.5337   0.0000   0.0000   0.0000   0.2913
  11.100   1.4940   0.03079   0.02495  -0.0816  0.0037  1.0000  -7.5878   0.0000   0.0000   0.0000   0.2903
  11.200   1.4934   0.03165   0.02588  -0.0803  0.0037  1.0000  -7.6383   0.0000   0.0000   0.0000   0.2893
  11.300   1.4926   0.03255   0.02687  -0.0791  0.0037  1.0000  -7.6857   0.0000   0.0000   0.0000   0.2884
  11.400   1.4917   0.03351   0.02791  -0.0780  0.0038  1.0000  -7.7301   0.0000   0.0000   0.0000   0.2875
  11.500   1.4903   0.03453   0.02901  -0.0768  0.0038  1.0000  -7.7708   0.0000   0.0000   0.0000   0.2866
  11.600   1.4888   0.03560   0.03016  -0.0758  0.0038  1.0000  -7.8083   0.0000   0.0000   0.0000   0.2858
  11.700   1.4868   0.03673   0.03137  -0.0747  0.0039  1.0000  -7.8412   0.0000   0.0000   0.0000   0.2850
  11.800   1.4844   0.03790   0.03263  -0.0737  0.0039  1.0000  -7.8700   0.0000   0.0000   0.0000   0.2842
  11.900   1.4816   0.03915   0.03397  -0.0728  0.0040  1.0000  -7.8944   0.0000   0.0000   0.0000   0.2835
  12.000   1.4786   0.04047   0.03538  -0.0719  0.0040  1.0000  -7.9152   0.0000   0.0000   0.0000   0.2828
  12.100   1.4752   0.04187   0.03687  -0.0710  0.0040  1.0000  -7.9311   0.0000   0.0000   0.0000   0.2822
  12.200   1.4715   0.04334   0.03844  -0.0703  0.0041  1.0000  -7.9422   0.0000   0.0000   0.0000   0.2816
  12.300   1.4673   0.04491   0.04010  -0.0696  0.0041  1.0000  -7.9476   0.0000   0.0000   0.0000   0.2811
  12.400   1.4626   0.04657   0.04186  -0.0689  0.0041  1.0000  -7.9470   0.0000   0.0000   0.0000   0.2806
  12.500   1.4574   0.04833   0.04372  -0.0684  0.0042  1.0000  -7.9398   0.0000   0.0000   0.0000   0.2802
  12.600   1.4515   0.05020   0.04569  -0.0679  0.0042  1.0000  -7.9250   0.0000   0.0000   0.0000   0.2799
  12.700   1.4448   0.05216   0.04776  -0.0675  0.0042  1.0000  -7.9019   0.0000   0.0000   0.0000   0.2797
  12.800   1.4373   0.05428   0.04998  -0.0672  0.0043  1.0000  -7.8691   0.0000   0.0000   0.0000   0.2795
  12.900   1.4288   0.05661   0.05242  -0.0670  0.0043  1.0000  -7.8218   0.0000   0.0000   0.0000   0.2795
  13.000   1.4182   0.05932   0.05526  -0.0670  0.0043  1.0000  -7.7451   0.0000   0.0000   0.0000   0.2797
  13.100   1.4033   0.06277   0.05885  -0.0672  0.0045  1.0000  -7.5952   0.0000   0.0000   0.0000   0.2801
  13.200   1.4046   0.06387   0.05999  -0.0673  0.0045  1.0000  -7.6783   0.0000   0.0000   0.0000   0.2800
  13.300   1.4052   0.06509   0.06124  -0.0676  0.0046  1.0000  -7.7540   0.0000   0.0000   0.0000   0.2800
  13.400   1.4053   0.06640   0.06259  -0.0679  0.0046  1.0000  -7.8233   0.0000   0.0000   0.0000   0.2800
  13.500   1.4055   0.06773   0.06395  -0.0682  0.0047  1.0000  -7.8926   0.0000   0.0000   0.0000   0.2800
  13.600   1.4049   0.06920   0.06547  -0.0686  0.0048  1.0000  -7.9523   0.0000   0.0000   0.0000   0.2801
  13.700   1.4039   0.07076   0.06707  -0.0690  0.0048  1.0000  -8.0064   0.0000   0.0000   0.0000   0.2802
  13.800   1.4030   0.07234   0.06869  -0.0695  0.0049  1.0000  -8.0599   0.0000   0.0000   0.0000   0.2804
  13.900   1.4010   0.07411   0.07052  -0.0701  0.0049  1.0000  -8.1007   0.0000   0.0000   0.0000   0.2807
  14.000   1.3989   0.07594   0.07240  -0.0707  0.0050  1.0000  -8.1386   0.0000   0.0000   0.0000   0.2810
  14.100   1.3964   0.07787   0.07438  -0.0714  0.0050  1.0000  -8.1699   0.0000   0.0000   0.0000   0.2814
  14.200   1.3931   0.07999   0.07656  -0.0723  0.0051  1.0000  -8.1896   0.0000   0.0000   0.0000   0.2820
  14.300   1.3898   0.08211   0.07874  -0.0731  0.0052  1.0000  -8.2078   0.0000   0.0000   0.0000   0.2825
  14.400   1.3852   0.08449   0.08119  -0.0742  0.0052  1.0000  -8.2100   0.0000   0.0000   0.0000   0.2832
  14.500   1.3804   0.08691   0.08367  -0.0752  0.0053  1.0000  -8.2070   0.0000   0.0000   0.0000   0.2840
  14.600   1.3748   0.08951   0.08635  -0.0764  0.0053  1.0000  -8.1940   0.0000   0.0000   0.0000   0.2849
  14.700   1.3690   0.09223   0.08914  -0.0777  0.0054  1.0000  -8.1749   0.0000   0.0000   0.0000   0.2859
  14.800   1.3629   0.09505   0.09203  -0.0791  0.0054  1.0000  -8.1504   0.0000   0.0000   0.0000   0.2869
  14.900   1.3563   0.09807   0.09512  -0.0806  0.0055  1.0000  -8.1176   0.0000   0.0000   0.0000   0.2882
  15.000   1.3497   0.10113   0.09826  -0.0822  0.0055  1.0000  -8.0815   0.0000   0.0000   0.0000   0.2895
  15.100   1.3427   0.10438   0.10157  -0.0840  0.0055  1.0000  -8.0394   0.0000   0.0000   0.0000   0.2910
  15.200   1.3359   0.10761   0.10487  -0.0858  0.0055  1.0000  -7.9956   0.0000   0.0000   0.0000   0.2924
  15.300   1.3287   0.11102   0.10835  -0.0877  0.0056  1.0000  -7.9474   0.0000   0.0000   0.0000   0.2941
  15.400   1.3217   0.11441   0.11181  -0.0896  0.0056  1.0000  -7.8978   0.0000   0.0000   0.0000   0.2957
  15.500   1.3145   0.11794   0.11539  -0.0917  0.0056  1.0000  -7.8453   0.0000   0.0000   0.0000   0.2975
  15.600   1.3076   0.12141   0.11892  -0.0938  0.0056  1.0000  -7.7917   0.0000   0.0000   0.0000   0.2993
  15.700   1.3004   0.12504   0.12261  -0.0959  0.0055  1.0000  -7.7344   0.0000   0.0000   0.0000   0.3012
  15.800   1.2935   0.12863   0.12626  -0.0981  0.0055  1.0000  -7.6756   0.0000   0.0000   0.0000   0.3032
  15.900   1.2863   0.13237   0.13005  -0.1004  0.0055  1.0000  -7.6118   0.0000   0.0000   0.0000   0.3052
  16.000   1.2795   0.13602   0.13376  -0.1026  0.0055  1.0000  -7.5469   0.0000   0.0000   0.0000   0.3072
  16.100   1.2722   0.13991   0.13769  -0.1050  0.0054  1.0000  -7.4729   0.0000   0.0000   0.0000   0.3095
  16.200   1.2651   0.14376   0.14159  -0.1073  0.0054  1.0000  -7.3959   0.0000   0.0000   0.0000   0.3117
  16.300   1.2575   0.14782   0.14570  -0.1098  0.0054  1.0000  -7.3071   0.0000   0.0000   0.0000   0.3141
  16.400   1.2502   0.15183   0.14976  -0.1122  0.0053  1.0000  -7.2159   0.0000   0.0000   0.0000   0.3165
  16.500   1.2418   0.15622   0.15420  -0.1149  0.0053  1.0000  -7.1024   0.0000   0.0000   0.0000   0.3192
  16.600   1.2328   0.16090   0.15892  -0.1177  0.0052  1.0000  -6.9682   0.0000   0.0000   0.0000   0.3221
  16.700   1.2239   0.16560   0.16367  -0.1206  0.0051  1.0000  -6.8262   0.0000   0.0000   0.0000   0.3251
  16.800   1.2122   0.17121   0.16933  -0.1240  0.0050  1.0000  -6.6189   0.0000   0.0000   0.0000   0.3289
  16.900   1.1969   0.17795   0.17613  -0.1283  0.0049  1.0000  -6.3118   0.0000   0.0000   0.0000   0.3340
  17.000   1.1620   0.19192   0.19020  -0.1365  0.0046  1.0000  -5.5042   0.0000   0.0000   0.0000   0.3450
  17.100   1.1441   0.20115   0.19944  -0.1413  0.0046  1.0000  -5.0137   0.0000   0.0000   0.0000   0.3514
  17.200   1.1394   0.20558   0.20389  -0.1435  0.0046  1.0000  -4.8561   0.0000   0.0000   0.0000   0.3539
  17.300   1.1379   0.20877   0.20708  -0.1450  0.0046  1.0000  -4.7833   0.0000   0.0000   0.0000   0.3553
  17.400   1.1374   0.21155   0.20986  -0.1464  0.0047  1.0000  -4.7379   0.0000   0.0000   0.0000   0.3564
  17.500   1.1372   0.21429   0.21260  -0.1477  0.0048  1.0000  -4.6943   0.0000   0.0000   0.0000   0.3575
  17.600   1.1365   0.21728   0.21559  -0.1490  0.0049  1.0000  -4.6313   0.0000   0.0000   0.0000   0.3587
  17.700   1.1351   0.22067   0.21899  -0.1505  0.0050  1.0000  -4.5350   0.0000   0.0000   0.0000   0.3601
  18.600   1.1075   0.26975   0.26798  -0.1673  0.0127  1.0000  -2.1808   0.0000   0.0000   0.0000   0.3793
  18.700   1.1094   0.27183   0.27006  -0.1681  0.0125  1.0000  -2.1829   0.0000   0.0000   0.0000   0.3797
  18.800   1.1112   0.27388   0.27211  -0.1689  0.0123  1.0000  -2.1873   0.0000   0.0000   0.0000   0.3800
  18.900   1.1131   0.27590   0.27413  -0.1697  0.0121  1.0000  -2.1938   0.0000   0.0000   0.0000   0.3803
  19.000   1.1150   0.27789   0.27612  -0.1705  0.0119  1.0000  -2.2024   0.0000   0.0000   0.0000   0.3806
  19.100   1.1169   0.27985   0.27808  -0.1713  0.0117  1.0000  -2.2131   0.0000   0.0000   0.0000   0.3808
  19.200   1.1189   0.28178   0.28002  -0.1720  0.0116  1.0000  -2.2259   0.0000   0.0000   0.0000   0.3810
  19.300   1.1208   0.28368   0.28192  -0.1727  0.0114  1.0000  -2.2409   0.0000   0.0000   0.0000   0.3812
  19.400   1.1228   0.28555   0.28380  -0.1734  0.0113  1.0000  -2.2581   0.0000   0.0000   0.0000   0.3814
  19.500   1.1248   0.28740   0.28564  -0.1741  0.0112  1.0000  -2.2777   0.0000   0.0000   0.0000   0.3815
  19.600   1.1268   0.28921   0.28745  -0.1748  0.0110  1.0000  -2.2997   0.0000   0.0000   0.0000   0.3816
  19.700   1.1289   0.29099   0.28924  -0.1754  0.0109  1.0000  -2.3243   0.0000   0.0000   0.0000   0.3816
  19.800   1.1309   0.29274   0.29099  -0.1759  0.0108  1.0000  -2.3515   0.0000   0.0000   0.0000   0.3816
  19.900   1.1330   0.29445   0.29271  -0.1765  0.0107  1.0000  -2.3817   0.0000   0.0000   0.0000   0.3816
  20.000   1.1350   0.29619   0.29445  -0.1770  0.0106  1.0000  -2.4126   0.0000   0.0000   0.0000   0.3816
  20.100   1.1370   0.29794   0.29621  -0.1775  0.0105  1.0000  -2.4434   0.0000   0.0000   0.0000   0.3815
  20.200   1.1383   0.29998   0.29825  -0.1781  0.0103  1.0000  -2.4617   0.0000   0.0000   0.0000   0.3817
  20.900   1.1391   0.32213   0.32037  -0.1842  0.0097  1.0000  -2.1494   0.0000   0.0000   0.0000   0.3860
  21.000   1.1404   0.32455   0.32280  -0.1849  0.0097  1.0000  -2.1377   0.0000   0.0000   0.0000   0.3863
  21.100   1.1416   0.32697   0.32522  -0.1857  0.0097  1.0000  -2.1263   0.0000   0.0000   0.0000   0.3867
  21.200   1.1429   0.32937   0.32763  -0.1865  0.0097  1.0000  -2.1151   0.0000   0.0000   0.0000   0.3870
  21.300   1.1441   0.33177   0.33003  -0.1872  0.0096  1.0000  -2.1041   0.0000   0.0000   0.0000   0.3873
  21.400   1.1452   0.33416   0.33242  -0.1880  0.0096  1.0000  -2.0935   0.0000   0.0000   0.0000   0.3876
  21.500   1.1464   0.33654   0.33480  -0.1887  0.0096  1.0000  -2.0831   0.0000   0.0000   0.0000   0.3880
  21.600   1.1475   0.33890   0.33718  -0.1895  0.0096  1.0000  -2.0729   0.0000   0.0000   0.0000   0.3883
  21.700   1.1487   0.34123   0.33951  -0.1903  0.0095  1.0000  -2.0632   0.0000   0.0000   0.0000   0.3886
  21.800   1.1499   0.34353   0.34182  -0.1911  0.0095  1.0000  -2.0537   0.0000   0.0000   0.0000   0.3890
  21.900   1.1512   0.34581   0.34410  -0.1919  0.0094  1.0000  -2.0433   0.0000   0.0000   0.0000   0.3893
  22.000   1.1524   0.34828   0.34656  -0.1929  0.0092  1.0000  -2.0169   0.0000   0.0000   0.0000   0.3899
  22.100   1.1537   0.35088   0.34916  -0.1940  0.0090  1.0000  -1.9826   0.0000   0.0000   0.0000   0.3905
  22.200   1.1549   0.35354   0.35183  -0.1948  0.0088  1.0000  -1.9502   0.0000   0.0000   0.0000   0.3909
  22.300   1.1557   0.35616   0.35445  -0.1956  0.0085  1.0000  -1.9257   0.0000   0.0000   0.0000   0.3913
  22.400   1.1564   0.35871   0.35701  -0.1962  0.0083  1.0000  -1.9075   0.0000   0.0000   0.0000   0.3916
  22.500   1.1568   0.36122   0.35952  -0.1968  0.0081  1.0000  -1.8931   0.0000   0.0000   0.0000   0.3919
  22.600   1.1572   0.36370   0.36200  -0.1974  0.0079  1.0000  -1.8813   0.0000   0.0000   0.0000   0.3922
  22.700   1.1573   0.36615   0.36446  -0.1979  0.0077  1.0000  -1.8710   0.0000   0.0000   0.0000   0.3924
  22.800   1.1574   0.36858   0.36689  -0.1984  0.0076  1.0000  -1.8619   0.0000   0.0000   0.0000   0.3927
  22.900   1.1572   0.37099   0.36931  -0.1989  0.0075  1.0000  -1.8535   0.0000   0.0000   0.0000   0.3929
  23.000   1.1569   0.37339   0.37171  -0.1993  0.0073  1.0000  -1.8457   0.0000   0.0000   0.0000   0.3932
  23.100   1.1564   0.37576   0.37409  -0.1997  0.0072  1.0000  -1.8382   0.0000   0.0000   0.0000   0.3934
  23.200   1.1557   0.37812   0.37645  -0.2001  0.0071  1.0000  -1.8308   0.0000   0.0000   0.0000   0.3937
  23.300   1.1546   0.38045   0.37878  -0.2004  0.0070  1.0000  -1.8234   0.0000   0.0000   0.0000   0.3939
  23.400   1.1532   0.38274   0.38108  -0.2006  0.0068  1.0000  -1.8157   0.0000   0.0000   0.0000   0.3942
  23.500   1.1514   0.38500   0.38334  -0.2008  0.0067  1.0000  -1.8074   0.0000   0.0000   0.0000   0.3944
  23.600   1.1489   0.38720   0.38555  -0.2009  0.0066  1.0000  -1.7982   0.0000   0.0000   0.0000   0.3947
  23.700   1.1454   0.38931   0.38766  -0.2007  0.0066  1.0000  -1.7870   0.0000   0.0000   0.0000   0.3950
  23.800   1.1402   0.39124   0.38961  -0.2003  0.0065  1.0000  -1.7721   0.0000   0.0000   0.0000   0.3953
  28.500   0.8611   0.34889   0.34769  -0.1678  0.0044  1.0000  -1.0615   0.0000   0.0000   0.0000   0.4098
  28.600   0.8604   0.34927   0.34808  -0.1680  0.0044  1.0000  -1.0547   0.0000   0.0000   0.0000   0.4100
  28.700   0.8597   0.34965   0.34847  -0.1682  0.0044  1.0000  -1.0480   0.0000   0.0000   0.0000   0.4102
  28.800   0.8591   0.35005   0.34886  -0.1684  0.0044  1.0000  -1.0414   0.0000   0.0000   0.0000   0.4105
  28.900   0.8584   0.35044   0.34927  -0.1687  0.0044  1.0000  -1.0349   0.0000   0.0000   0.0000   0.4107
  29.000   0.8578   0.35084   0.34967  -0.1689  0.0044  1.0000  -1.0282   0.0000   0.0000   0.0000   0.4109
  29.100   0.8572   0.35125   0.35008  -0.1692  0.0044  1.0000  -1.0232   0.0000   0.0000   0.0000   0.4111
  29.200   0.8566   0.35166   0.35049  -0.1694  0.0044  1.0000  -1.0265   0.0000   0.0000   0.0000   0.4113
  29.300   0.8560   0.35207   0.35091  -0.1697  0.0044  1.0000  -1.0298   0.0000   0.0000   0.0000   0.4115
  29.400   0.8554   0.35248   0.35133  -0.1699  0.0044  1.0000  -1.0331   0.0000   0.0000   0.0000   0.4117
  29.500   0.8549   0.35290   0.35176  -0.1702  0.0044  1.0000  -1.0363   0.0000   0.0000   0.0000   0.4119
  29.600   0.8543   0.35332   0.35218  -0.1704  0.0044  1.0000  -1.0395   0.0000   0.0000   0.0000   0.4122
  29.700   0.8538   0.35375   0.35261  -0.1707  0.0044  1.0000  -1.0427   0.0000   0.0000   0.0000   0.4124
  29.800   0.8532   0.35418   0.35304  -0.1709  0.0044  1.0000  -1.0458   0.0000   0.0000   0.0000   0.4126
  29.900   0.8527   0.35461   0.35348  -0.1712  0.0044  1.0000  -1.0488   0.0000   0.0000   0.0000   0.4128
  30.000   0.8522   0.35504   0.35392  -0.1715  0.0044  1.0000  -1.0518   0.0000   0.0000   0.0000   0.4130


