xflr5 v6.61

 Calculated polar for: FX 61-140 AIRFOIL

 1 1 Reynolds number fixed          Mach number fixed         

 xtrf =   1.000 (top)        1.000 (bottom)
 Mach =   0.000     Re =     0.450 e 6     Ncrit =   9.000

  alpha     CL        CD       CDp       Cm    Top Xtr Bot Xtr   Cpmin    Chinge    XCp    
 ------- -------- --------- --------- -------- ------- ------- -------- --------- ---------
 -10.000  -0.3985   0.09578   0.09342  -0.0386  1.0000  0.0139  -2.2410   0.0000   0.0000   0.0000   0.1393
  -9.900  -0.3998   0.09387   0.09152  -0.0394  1.0000  0.0140  -2.2714   0.0000   0.0000   0.0000   0.1378
  -9.800  -0.4013   0.09190   0.08957  -0.0402  1.0000  0.0141  -2.3042   0.0000   0.0000   0.0000   0.1363
  -9.700  -0.4031   0.08988   0.08756  -0.0411  1.0000  0.0142  -2.3396   0.0000   0.0000   0.0000   0.1348
  -9.600  -0.4053   0.08779   0.08549  -0.0420  1.0000  0.0142  -2.3782   0.0000   0.0000   0.0000   0.1332
  -9.500  -0.4078   0.08562   0.08333  -0.0431  1.0000  0.0143  -2.4207   0.0000   0.0000   0.0000   0.1315
  -9.400  -0.4107   0.08330   0.08102  -0.0442  1.0000  0.0143  -2.4684   0.0000   0.0000   0.0000   0.1296
  -9.300  -0.4142   0.08074   0.07848  -0.0457  1.0000  0.0143  -2.5243   0.0000   0.0000   0.0000   0.1272
  -9.200  -0.4189   0.07767   0.07543  -0.0477  1.0000  0.0142  -2.5982   0.0000   0.0000   0.0000   0.1239
  -9.100  -0.4257   0.07428   0.07204  -0.0502  1.0000  0.0141  -2.6873   0.0000   0.0000   0.0000   0.1201
  -9.000  -0.4334   0.07155   0.06930  -0.0519  1.0000  0.0139  -2.7595   0.0000   0.0000   0.0000   0.1185
  -8.900  -0.4417   0.06922   0.06696  -0.0531  1.0000  0.0138  -2.8220   0.0000   0.0000   0.0000   0.1184
  -8.800  -0.4505   0.06720   0.06492  -0.0539  1.0000  0.0138  -2.8768   0.0000   0.0000   0.0000   0.1193
  -8.700  -0.4597   0.06545   0.06316  -0.0542  1.0000  0.0137  -2.9252   0.0000   0.0000   0.0000   0.1213
  -8.600  -0.4694   0.06396   0.06166  -0.0542  1.0000  0.0136  -2.9683   0.0000   0.0000   0.0000   0.1242
  -8.500  -0.4796   0.06271   0.06040  -0.0536  1.0000  0.0136  -3.0068   0.0000   0.0000   0.0000   0.1282
  -8.400  -0.4907   0.06172   0.05940  -0.0526  1.0000  0.0135  -3.0417   0.0000   0.0000   0.0000   0.1331
  -8.300  -0.5029   0.06098   0.05866  -0.0510  1.0000  0.0134  -3.0739   0.0000   0.0000   0.0000   0.1391
  -8.200  -0.5149   0.06026   0.05794  -0.0495  1.0000  0.0134  -3.1045   0.0000   0.0000   0.0000   0.1448
  -8.100  -0.5240   0.05916   0.05683  -0.0489  1.0000  0.0133  -3.1337   0.0000   0.0000   0.0000   0.1479
  -8.000  -0.5193   0.05633   0.05390  -0.0530  0.9981  0.0135  -3.1612   0.0000   0.0000   0.0000   0.1392
  -7.900  -0.5115   0.05357   0.05102  -0.0569  0.9959  0.0137  -3.1796   0.0000   0.0000   0.0000   0.1300
  -7.800  -0.5040   0.05113   0.04847  -0.0598  0.9935  0.0140  -3.1924   0.0000   0.0000   0.0000   0.1226
  -6.800  -0.3991   0.02767   0.02320  -0.0756  0.9712  0.0090  -3.7752   0.0000   0.0000   0.0000   0.0512
  -6.700  -0.3892   0.02531   0.02062  -0.0763  0.9680  0.0084  -3.8443   0.0000   0.0000   0.0000   0.0444
  -6.600  -0.3766   0.02346   0.01857  -0.0771  0.9660  0.0080  -3.8790   0.0000   0.0000   0.0000   0.0356
  -6.500  -0.3631   0.02185   0.01677  -0.0778  0.9645  0.0077  -3.9021   0.0000   0.0000   0.0000   0.0259
  -6.400  -0.3492   0.02043   0.01519  -0.0784  0.9632  0.0074  -3.9126   0.0000   0.0000   0.0000   0.0155
  -6.300  -0.3351   0.01920   0.01382  -0.0790  0.9621  0.0072  -3.9154   0.0000   0.0000   0.0000   0.0041
  -6.200  -0.3263   0.01834   0.01286  -0.0784  0.9573  0.0071  -3.9053   0.0000   0.0000   0.0000  -0.0006
  -6.100  -0.3141   0.01747   0.01191  -0.0786  0.9544  0.0070  -3.8782   0.0000   0.0000   0.0000  -0.0107
  -6.000  -0.3008   0.01669   0.01106  -0.0790  0.9522  0.0071  -3.8359   0.0000   0.0000   0.0000  -0.0233
  -5.900  -0.2869   0.01598   0.01029  -0.0796  0.9502  0.0072  -3.7811   0.0000   0.0000   0.0000  -0.0384
  -5.800  -0.2723   0.01533   0.00958  -0.0804  0.9486  0.0074  -3.7176   0.0000   0.0000   0.0000  -0.0564
  -5.700  -0.2626   0.01490   0.00907  -0.0801  0.9425  0.0077  -3.6627   0.0000   0.0000   0.0000  -0.0665
  -5.600  -0.2487   0.01434   0.00848  -0.0808  0.9387  0.0082  -3.5962   0.0000   0.0000   0.0000  -0.0866
  -5.500  -0.2326   0.01384   0.00793  -0.0820  0.9359  0.0088  -3.5147   0.0000   0.0000   0.0000  -0.1145
  -5.400  -0.2151   0.01354   0.00759  -0.0834  0.9335  0.0095  -3.3968   0.0000   0.0000   0.0000  -0.1502
  -5.300  -0.1997   0.01256   0.00655  -0.0849  0.9282  0.0115  -3.3728   0.0000   0.0000   0.0000  -0.1881
  -5.200  -0.1824   0.01225   0.00624  -0.0863  0.9236  0.0136  -3.2395   0.0000   0.0000   0.0000  -0.2373
  -5.100  -0.1625   0.01199   0.00595  -0.0883  0.9197  0.0168  -3.1127   0.0000   0.0000   0.0000  -0.3085
  -5.000  -0.1399   0.01147   0.00544  -0.0911  0.9165  0.0228  -2.9622   0.0000   0.0000   0.0000  -0.4186
  -4.900  -0.1219   0.01142   0.00539  -0.0927  0.9101  0.0261  -2.7873   0.0000   0.0000   0.0000  -0.5292
  -4.800  -0.1011   0.01100   0.00496  -0.0951  0.9038  0.0316  -2.6326   0.0000   0.0000   0.0000  -0.7128
  -4.700  -0.0794   0.01081   0.00475  -0.0975  0.8976  0.0366  -2.4605   0.0000   0.0000   0.0000  -1.0047
  -4.600  -0.0605   0.01046   0.00435  -0.0993  0.8883  0.0426  -2.3309   0.0000   0.0000   0.0000  -1.4262
  -4.500  -0.0404   0.01007   0.00399  -0.1015  0.8787  0.0600  -2.2251   0.0000   0.0000   0.0000  -2.3139
  -4.400  -0.0198   0.00901   0.00348  -0.1049  0.8681  0.1920  -2.1145   0.0000   0.0000   0.0000  -5.1556
  -4.300   0.0032   0.00787   0.00300  -0.1091  0.8570  0.3689  -1.9829   0.0000   0.0000   0.0000  34.5067
  -4.200   0.0212   0.00740   0.00282  -0.1112  0.8451  0.4636  -1.8664   0.0000   0.0000   0.0000   5.5774
  -4.100   0.0358   0.00727   0.00278  -0.1121  0.8324  0.5066  -1.7632   0.0000   0.0000   0.0000   3.4329
  -4.000   0.0484   0.00725   0.00276  -0.1124  0.8201  0.5338  -1.6691   0.0000   0.0000   0.0000   2.6070
  -3.900   0.0605   0.00727   0.00275  -0.1126  0.8075  0.5581  -1.5828   0.0000   0.0000   0.0000   2.1379
  -3.800   0.0719   0.00731   0.00278  -0.1126  0.7961  0.5733  -1.4945   0.0000   0.0000   0.0000   1.8371
  -3.700   0.0829   0.00740   0.00283  -0.1125  0.7844  0.5876  -1.4087   0.0000   0.0000   0.0000   1.6239
  -3.600   0.0945   0.00748   0.00281  -0.1125  0.7741  0.5968  -1.3228   0.0000   0.0000   0.0000   1.4558
  -3.500   0.1052   0.00754   0.00285  -0.1123  0.7639  0.6035  -1.2414   0.0000   0.0000   0.0000   1.3312
  -3.400   0.1157   0.00764   0.00290  -0.1121  0.7542  0.6095  -1.1618   0.0000   0.0000   0.0000   1.2304
  -3.300   0.1264   0.00774   0.00296  -0.1119  0.7457  0.6168  -1.0827   0.0000   0.0000   0.0000   1.1452
  -3.200   0.1376   0.00787   0.00303  -0.1118  0.7370  0.6263  -1.0031   0.0000   0.0000   0.0000   1.0713
  -3.100   0.1475   0.00804   0.00317  -0.1114  0.7283  0.6350  -0.9289   0.0000   0.0000   0.0000   1.0127
  -3.000   0.1563   0.00829   0.00340  -0.1106  0.7203  0.6421  -0.8588   0.0000   0.0000   0.0000   0.9641
  -2.900   0.1660   0.00848   0.00359  -0.1100  0.7132  0.6481  -0.7876   0.0000   0.0000   0.0000   0.9186
  -2.800   0.1766   0.00861   0.00367  -0.1098  0.7056  0.6520  -0.7159   0.0000   0.0000   0.0000   0.8770
  -2.700   0.1875   0.00870   0.00370  -0.1097  0.6980  0.6549  -0.6448   0.0000   0.0000   0.0000   0.8397
  -2.600   0.1985   0.00881   0.00373  -0.1096  0.6909  0.6575  -0.5998   0.0000   0.0000   0.0000   0.8064
  -2.500   0.2101   0.00888   0.00375  -0.1097  0.6849  0.6596  -0.6084   0.0000   0.0000   0.0000   0.7759
  -2.400   0.2214   0.00893   0.00375  -0.1097  0.6784  0.6615  -0.6174   0.0000   0.0000   0.0000   0.7488
  -2.300   0.2321   0.00893   0.00372  -0.1096  0.6718  0.6638  -0.6261   0.0000   0.0000   0.0000   0.7252
  -2.200   0.2425   0.00899   0.00373  -0.1094  0.6652  0.6656  -0.6347   0.0000   0.0000   0.0000   0.7037
  -2.100   0.2529   0.00907   0.00376  -0.1092  0.6591  0.6672  -0.6434   0.0000   0.0000   0.0000   0.6840
  -2.000   0.2636   0.00912   0.00381  -0.1091  0.6539  0.6689  -0.6521   0.0000   0.0000   0.0000   0.6656
  -1.900   0.2742   0.00918   0.00382  -0.1089  0.6481  0.6706  -0.6609   0.0000   0.0000   0.0000   0.6486
  -1.800   0.2847   0.00926   0.00386  -0.1087  0.6422  0.6722  -0.6696   0.0000   0.0000   0.0000   0.6330
  -1.700   0.2953   0.00934   0.00388  -0.1085  0.6364  0.6738  -0.6784   0.0000   0.0000   0.0000   0.6186
  -1.500   0.3172   0.00946   0.00393  -0.1084  0.6264  0.6769  -0.6962   0.0000   0.0000   0.0000   0.5924
  -1.400   0.3285   0.00949   0.00395  -0.1085  0.6223  0.6785  -0.7054   0.0000   0.0000   0.0000   0.5805
  -1.300   0.3397   0.00953   0.00396  -0.1085  0.6177  0.6802  -0.7145   0.0000   0.0000   0.0000   0.5695
  -1.200   0.3509   0.00959   0.00398  -0.1085  0.6129  0.6820  -0.7237   0.0000   0.0000   0.0000   0.5591
  -1.100   0.3622   0.00964   0.00399  -0.1086  0.6080  0.6837  -0.7329   0.0000   0.0000   0.0000   0.5495
  -1.000   0.3734   0.00971   0.00400  -0.1086  0.6030  0.6853  -0.7420   0.0000   0.0000   0.0000   0.5404
  -0.800   0.3965   0.00982   0.00403  -0.1088  0.5945  0.6884  -0.7607   0.0000   0.0000   0.0000   0.5238
  -0.700   0.4082   0.00985   0.00405  -0.1090  0.5909  0.6896  -0.7702   0.0000   0.0000   0.0000   0.5161
  -0.600   0.4198   0.00990   0.00408  -0.1091  0.5871  0.6907  -0.7796   0.0000   0.0000   0.0000   0.5089
  -0.500   0.4314   0.00993   0.00407  -0.1093  0.5833  0.6918  -0.7891   0.0000   0.0000   0.0000   0.5021
  -0.400   0.4428   0.00988   0.00401  -0.1094  0.5795  0.6936  -0.7984   0.0000   0.0000   0.0000   0.4957
  -0.300   0.4538   0.00989   0.00399  -0.1094  0.5757  0.6950  -0.8076   0.0000   0.0000   0.0000   0.4896
  -0.200   0.4646   0.00993   0.00400  -0.1093  0.5718  0.6961  -0.8166   0.0000   0.0000   0.0000   0.4838
  -0.100   0.4754   0.00999   0.00403  -0.1093  0.5676  0.6972  -0.8256   0.0000   0.0000   0.0000   0.4782
   0.000   0.4863   0.01004   0.00407  -0.1092  0.5643  0.6982  -0.8347   0.0000   0.0000   0.0000   0.4728
   0.100   0.4974   0.01006   0.00410  -0.1092  0.5620  0.6994  -0.8439   0.0000   0.0000   0.0000   0.4677
   0.200   0.5085   0.01008   0.00413  -0.1092  0.5594  0.7006  -0.8539   0.0000   0.0000   0.0000   0.4627
   0.300   0.5195   0.01012   0.00417  -0.1092  0.5565  0.7018  -0.8640   0.0000   0.0000   0.0000   0.4580
   0.400   0.5305   0.01016   0.00421  -0.1091  0.5535  0.7030  -0.8741   0.0000   0.0000   0.0000   0.4534
   0.500   0.5415   0.01021   0.00424  -0.1091  0.5504  0.7043  -0.8842   0.0000   0.0000   0.0000   0.4491
   0.600   0.5525   0.01025   0.00428  -0.1091  0.5473  0.7056  -0.8951   0.0000   0.0000   0.0000   0.4450
   0.700   0.5636   0.01031   0.00431  -0.1091  0.5441  0.7069  -0.9062   0.0000   0.0000   0.0000   0.4410
   0.800   0.5746   0.01037   0.00434  -0.1091  0.5408  0.7083  -0.9173   0.0000   0.0000   0.0000   0.4372
   0.900   0.5857   0.01045   0.00438  -0.1091  0.5370  0.7097  -0.9284   0.0000   0.0000   0.0000   0.4335
   1.000   0.5969   0.01054   0.00444  -0.1092  0.5327  0.7111  -0.9395   0.0000   0.0000   0.0000   0.4300
   1.100   0.6085   0.01055   0.00446  -0.1093  0.5309  0.7125  -0.9510   0.0000   0.0000   0.0000   0.4266
   1.200   0.6201   0.01057   0.00449  -0.1094  0.5287  0.7138  -0.9625   0.0000   0.0000   0.0000   0.4234
   1.300   0.6317   0.01059   0.00451  -0.1096  0.5262  0.7151  -0.9741   0.0000   0.0000   0.0000   0.4203
   1.400   0.6433   0.01061   0.00453  -0.1097  0.5235  0.7162  -0.9857   0.0000   0.0000   0.0000   0.4173
   1.500   0.6549   0.01064   0.00455  -0.1099  0.5208  0.7172  -0.9973   0.0000   0.0000   0.0000   0.4144
   1.600   0.6665   0.01068   0.00458  -0.1100  0.5180  0.7182  -1.0089   0.0000   0.0000   0.0000   0.4116
   1.700   0.6780   0.01073   0.00461  -0.1102  0.5151  0.7191  -1.0205   0.0000   0.0000   0.0000   0.4089
   1.800   0.6894   0.01078   0.00464  -0.1103  0.5121  0.7199  -1.0321   0.0000   0.0000   0.0000   0.4063
   1.900   0.7008   0.01085   0.00467  -0.1104  0.5089  0.7206  -1.0436   0.0000   0.0000   0.0000   0.4037
   2.000   0.7120   0.01093   0.00475  -0.1105  0.5054  0.7212  -1.0550   0.0000   0.0000   0.0000   0.4013
   2.100   0.7237   0.01094   0.00473  -0.1107  0.5013  0.7227  -1.0667   0.0000   0.0000   0.0000   0.3990
   2.200   0.7352   0.01093   0.00473  -0.1109  0.4990  0.7240  -1.0783   0.0000   0.0000   0.0000   0.3967
   2.300   0.7465   0.01091   0.00473  -0.1109  0.4973  0.7250  -1.0899   0.0000   0.0000   0.0000   0.3944
   2.400   0.7578   0.01091   0.00475  -0.1110  0.4954  0.7260  -1.1014   0.0000   0.0000   0.0000   0.3922
   2.500   0.7689   0.01092   0.00478  -0.1110  0.4934  0.7269  -1.1129   0.0000   0.0000   0.0000   0.3900
   2.600   0.7801   0.01094   0.00482  -0.1111  0.4912  0.7278  -1.1244   0.0000   0.0000   0.0000   0.3879
   2.700   0.7912   0.01097   0.00486  -0.1111  0.4889  0.7287  -1.1359   0.0000   0.0000   0.0000   0.3858
   2.800   0.8022   0.01100   0.00490  -0.1111  0.4865  0.7296  -1.1474   0.0000   0.0000   0.0000   0.3838
   2.900   0.8131   0.01104   0.00494  -0.1111  0.4841  0.7307  -1.1589   0.0000   0.0000   0.0000   0.3818
   3.000   0.8240   0.01109   0.00499  -0.1110  0.4815  0.7317  -1.1703   0.0000   0.0000   0.0000   0.3799
   3.100   0.8349   0.01115   0.00504  -0.1110  0.4790  0.7328  -1.1817   0.0000   0.0000   0.0000   0.3780
   3.200   0.8457   0.01122   0.00510  -0.1110  0.4763  0.7340  -1.1933   0.0000   0.0000   0.0000   0.3761
   3.300   0.8565   0.01130   0.00516  -0.1109  0.4733  0.7351  -1.2070   0.0000   0.0000   0.0000   0.3744
   3.400   0.8675   0.01140   0.00525  -0.1110  0.4698  0.7363  -1.2207   0.0000   0.0000   0.0000   0.3726
   3.500   0.8786   0.01147   0.00532  -0.1110  0.4665  0.7374  -1.2347   0.0000   0.0000   0.0000   0.3710
   3.600   0.8897   0.01141   0.00529  -0.1110  0.4624  0.7385  -1.2491   0.0000   0.0000   0.0000   0.3693
   3.700   0.9015   0.01153   0.00547  -0.1112  0.4640  0.7396  -1.2631   0.0000   0.0000   0.0000   0.3678
   3.800   0.9129   0.01154   0.00551  -0.1113  0.4617  0.7406  -1.2774   0.0000   0.0000   0.0000   0.3663
   3.900   0.9240   0.01151   0.00549  -0.1114  0.4565  0.7416  -1.2920   0.0000   0.0000   0.0000   0.3647
   4.000   0.9344   0.01152   0.00544  -0.1113  0.4471  0.7426  -1.3064   0.0000   0.0000   0.0000   0.3632
   4.100   0.9439   0.01162   0.00544  -0.1110  0.4338  0.7436  -1.3200   0.0000   0.0000   0.0000   0.3616
   4.200   0.9549   0.01158   0.00539  -0.1110  0.4222  0.7445  -1.3351   0.0000   0.0000   0.0000   0.3601
   4.300   0.9647   0.01168   0.00538  -0.1109  0.4090  0.7454  -1.3490   0.0000   0.0000   0.0000   0.3587
   4.400   0.9752   0.01177   0.00544  -0.1108  0.4016  0.7464  -1.3629   0.0000   0.0000   0.0000   0.3573
   4.500   0.9867   0.01180   0.00548  -0.1109  0.3972  0.7473  -1.3777   0.0000   0.0000   0.0000   0.3560
   4.600   0.9978   0.01186   0.00553  -0.1110  0.3914  0.7482  -1.3981   0.0000   0.0000   0.0000   0.3546
   4.700   1.0085   0.01194   0.00559  -0.1110  0.3844  0.7490  -1.4405   0.0000   0.0000   0.0000   0.3533
   4.800   1.0189   0.01205   0.00565  -0.1109  0.3768  0.7496  -1.4822   0.0000   0.0000   0.0000   0.3520
   4.900   1.0295   0.01213   0.00569  -0.1110  0.3692  0.7506  -1.5244   0.0000   0.0000   0.0000   0.3508
   5.000   1.0408   0.01214   0.00569  -0.1111  0.3618  0.7520  -1.5678   0.0000   0.0000   0.0000   0.3497
   5.100   1.0511   0.01222   0.00573  -0.1110  0.3508  0.7531  -1.6092   0.0000   0.0000   0.0000   0.3485
   5.200   1.0605   0.01237   0.00579  -0.1108  0.3380  0.7540  -1.6639   0.0000   0.0000   0.0000   0.3472
   5.300   1.0706   0.01248   0.00586  -0.1107  0.3245  0.7549  -1.7521   0.0000   0.0000   0.0000   0.3460
   5.400   1.0793   0.01270   0.00597  -0.1104  0.3070  0.7557  -1.8380   0.0000   0.0000   0.0000   0.3448
   5.500   1.0884   0.01291   0.00609  -0.1102  0.2883  0.7566  -1.9286   0.0000   0.0000   0.0000   0.3436
   5.600   1.0940   0.01345   0.00639  -0.1094  0.2456  0.7574  -2.0366   0.0000   0.0000   0.0000   0.3423
   5.700   1.1004   0.01396   0.00668  -0.1088  0.2081  0.7582  -2.1263   0.0000   0.0000   0.0000   0.3410
   5.900   1.1099   0.01530   0.00752  -0.1072  0.1247  0.7599  -2.2834   0.0000   0.0000   0.0000   0.3385
   6.000   1.1136   0.01608   0.00804  -0.1062  0.0810  0.7607  -2.3548   0.0000   0.0000   0.0000   0.3371
   6.100   1.1127   0.01730   0.00887  -0.1045  0.0182  0.7616  -2.4000   0.0000   0.0000   0.0000   0.3356
   6.200   1.1201   0.01769   0.00922  -0.1040  0.0061  0.7624  -2.4895   0.0000   0.0000   0.0000   0.3344
   6.300   1.1297   0.01785   0.00939  -0.1038  0.0050  0.7633  -2.5915   0.0000   0.0000   0.0000   0.3333
   6.400   1.1395   0.01799   0.00956  -0.1036  0.0045  0.7642  -2.6935   0.0000   0.0000   0.0000   0.3323
   6.500   1.1493   0.01814   0.00972  -0.1035  0.0043  0.7651  -2.7962   0.0000   0.0000   0.0000   0.3312
   6.600   1.1589   0.01830   0.00990  -0.1033  0.0042  0.7660  -2.8989   0.0000   0.0000   0.0000   0.3302
   6.700   1.1685   0.01846   0.01009  -0.1031  0.0041  0.7669  -3.0012   0.0000   0.0000   0.0000   0.3292
   6.800   1.1780   0.01863   0.01029  -0.1029  0.0041  0.7678  -3.1031   0.0000   0.0000   0.0000   0.3281
   6.900   1.1874   0.01881   0.01051  -0.1027  0.0040  0.7687  -3.2046   0.0000   0.0000   0.0000   0.3271
   7.000   1.1966   0.01900   0.01073  -0.1024  0.0040  0.7697  -3.3057   0.0000   0.0000   0.0000   0.3261
   7.100   1.2057   0.01921   0.01098  -0.1021  0.0039  0.7708  -3.4060   0.0000   0.0000   0.0000   0.3251
   7.200   1.2146   0.01942   0.01123  -0.1018  0.0039  0.7718  -3.5060   0.0000   0.0000   0.0000   0.3241
   7.300   1.2234   0.01965   0.01150  -0.1015  0.0039  0.7728  -3.6054   0.0000   0.0000   0.0000   0.3231
   7.400   1.2320   0.01988   0.01178  -0.1011  0.0039  0.7738  -3.7041   0.0000   0.0000   0.0000   0.3221
   7.500   1.2404   0.02014   0.01208  -0.1007  0.0039  0.7747  -3.8014   0.0000   0.0000   0.0000   0.3211
   7.600   1.2485   0.02041   0.01240  -0.1003  0.0039  0.7755  -3.8974   0.0000   0.0000   0.0000   0.3201
   7.700   1.2564   0.02069   0.01273  -0.0999  0.0039  0.7762  -3.9919   0.0000   0.0000   0.0000   0.3191
   7.800   1.2642   0.02098   0.01310  -0.0994  0.0039  0.7769  -4.0802   0.0000   0.0000   0.0000   0.3181
   7.900   1.2714   0.02130   0.01348  -0.0988  0.0039  0.7774  -4.1704   0.0000   0.0000   0.0000   0.3170
   8.000   1.2783   0.02164   0.01388  -0.0982  0.0040  0.7780  -4.2585   0.0000   0.0000   0.0000   0.3160
   8.100   1.2851   0.02198   0.01427  -0.0977  0.0040  0.7791  -4.3455   0.0000   0.0000   0.0000   0.3150
   8.200   1.2912   0.02235   0.01471  -0.0969  0.0040  0.7801  -4.4278   0.0000   0.0000   0.0000   0.3140
   8.300   1.2964   0.02276   0.01518  -0.0961  0.0040  0.7811  -4.5055   0.0000   0.0000   0.0000   0.3129
   8.400   1.3010   0.02319   0.01568  -0.0951  0.0041  0.7820  -4.5789   0.0000   0.0000   0.0000   0.3117
   8.500   1.3045   0.02364   0.01619  -0.0940  0.0041  0.7829  -4.6460   0.0000   0.0000   0.0000   0.3105
   8.600   1.3064   0.02410   0.01672  -0.0926  0.0041  0.7837  -4.7046   0.0000   0.0000   0.0000   0.3092
   8.700   1.3077   0.02460   0.01728  -0.0911  0.0041  0.7846  -4.7595   0.0000   0.0000   0.0000   0.3078
   8.800   1.3088   0.02515   0.01790  -0.0897  0.0042  0.7855  -4.8119   0.0000   0.0000   0.0000   0.3065
   8.900   1.3094   0.02574   0.01855  -0.0882  0.0042  0.7865  -4.8606   0.0000   0.0000   0.0000   0.3052
   9.000   1.3095   0.02638   0.01926  -0.0867  0.0042  0.7875  -4.9051   0.0000   0.0000   0.0000   0.3039
   9.100   1.3088   0.02707   0.02001  -0.0852  0.0042  0.7886  -4.9452   0.0000   0.0000   0.0000   0.3027
   9.200   1.3078   0.02781   0.02081  -0.0837  0.0043  0.7897  -4.9814   0.0000   0.0000   0.0000   0.3014
   9.300   1.3062   0.02861   0.02167  -0.0822  0.0043  0.7907  -5.0134   0.0000   0.0000   0.0000   0.3002
   9.400   1.3041   0.02947   0.02260  -0.0808  0.0043  0.7918  -5.0406   0.0000   0.0000   0.0000   0.2990
   9.500   1.3014   0.03041   0.02360  -0.0794  0.0043  0.7928  -5.0629   0.0000   0.0000   0.0000   0.2979
   9.600   1.2984   0.03144   0.02470  -0.0780  0.0044  0.7937  -5.0796   0.0000   0.0000   0.0000   0.2969
   9.700   1.2947   0.03258   0.02591  -0.0768  0.0044  0.7946  -5.0884   0.0000   0.0000   0.0000   0.2959
   9.800   1.2930   0.03362   0.02702  -0.0758  0.0044  0.7954  -5.1162   0.0000   0.0000   0.0000   0.2951
   9.900   1.2954   0.03433   0.02777  -0.0753  0.0045  0.7962  -5.1878   0.0000   0.0000   0.0000   0.2944
  10.000   1.2979   0.03505   0.02853  -0.0748  0.0045  0.7971  -5.2603   0.0000   0.0000   0.0000   0.2937
  10.100   1.3002   0.03579   0.02931  -0.0743  0.0046  0.7979  -5.3321   0.0000   0.0000   0.0000   0.2931
  10.200   1.3026   0.03655   0.03010  -0.0739  0.0046  0.7987  -5.4040   0.0000   0.0000   0.0000   0.2925
  10.300   1.3049   0.03733   0.03092  -0.0735  0.0047  0.7994  -5.4756   0.0000   0.0000   0.0000   0.2919
  10.400   1.3073   0.03813   0.03176  -0.0731  0.0048  0.8002  -5.5468   0.0000   0.0000   0.0000   0.2913
  10.500   1.3096   0.03896   0.03263  -0.0728  0.0048  0.8009  -5.6174   0.0000   0.0000   0.0000   0.2908
  10.600   1.3118   0.03982   0.03353  -0.0724  0.0049  0.8016  -5.6859   0.0000   0.0000   0.0000   0.2903
  10.700   1.3140   0.04071   0.03445  -0.0721  0.0050  0.8023  -5.7528   0.0000   0.0000   0.0000   0.2898
  10.800   1.3159   0.04164   0.03543  -0.0719  0.0051  0.8029  -5.8154   0.0000   0.0000   0.0000   0.2893
  10.900   1.3176   0.04261   0.03644  -0.0716  0.0052  0.8035  -5.8731   0.0000   0.0000   0.0000   0.2888
  11.000   1.3191   0.04361   0.03750  -0.0712  0.0053  0.8040  -5.9231   0.0000   0.0000   0.0000   0.2883
  11.300   1.3200   0.04724   0.04140  -0.0691  0.0062  0.8062  -5.9198   0.0000   0.0000   0.0000   0.2861
  11.400   1.3210   0.04868   0.04295  -0.0674  0.0068  0.8068  -5.8423   0.0000   0.0000   0.0000   0.2847
  11.500   1.3241   0.05022   0.04463  -0.0656  0.0076  0.8072  -5.7651   0.0000   0.0000   0.0000   0.2831
  11.600   1.3275   0.05201   0.04655  -0.0642  0.0083  0.8077  -5.7085   0.0000   0.0000   0.0000   0.2817
  17.600   1.0412   0.23623   0.23436  -0.1468  0.0171  0.8418  -2.5555   0.0000   0.0000   0.0000   0.3671
  17.700   1.0426   0.23894   0.23707  -0.1481  0.0170  0.8428  -2.5269   0.0000   0.0000   0.0000   0.3680
  17.800   1.0440   0.24160   0.23973  -0.1493  0.0170  0.8437  -2.5003   0.0000   0.0000   0.0000   0.3689
  17.900   1.0456   0.24422   0.24235  -0.1505  0.0170  0.8447  -2.4755   0.0000   0.0000   0.0000   0.3697
  18.000   1.0473   0.24680   0.24493  -0.1518  0.0169  0.8457  -2.4525   0.0000   0.0000   0.0000   0.3705
  18.100   1.0493   0.24931   0.24745  -0.1530  0.0168  0.8468  -2.4317   0.0000   0.0000   0.0000   0.3713
  18.200   1.0515   0.25175   0.24989  -0.1542  0.0167  0.8478  -2.4135   0.0000   0.0000   0.0000   0.3721
  18.300   1.0544   0.25409   0.25223  -0.1555  0.0164  0.8489  -2.3973   0.0000   0.0000   0.0000   0.3728
  18.400   1.0569   0.25675   0.25489  -0.1570  0.0160  0.8500  -2.3640   0.0000   0.0000   0.0000   0.3737
  18.500   1.0588   0.25962   0.25776  -0.1584  0.0155  0.8510  -2.3230   0.0000   0.0000   0.0000   0.3747
  18.600   1.0604   0.26238   0.26052  -0.1598  0.0151  0.8520  -2.2895   0.0000   0.0000   0.0000   0.3756
  18.700   1.0620   0.26503   0.26317  -0.1610  0.0148  0.8529  -2.2628   0.0000   0.0000   0.0000   0.3764
  19.500   1.0757   0.28416   0.28236  -0.1694  0.0128  0.8642  -2.1730   0.0000   0.0000   0.0000   0.3810
  19.600   1.0776   0.28641   0.28462  -0.1704  0.0126  0.8659  -2.1714   0.0000   0.0000   0.0000   0.3815
  19.700   1.0795   0.28864   0.28686  -0.1713  0.0124  0.8676  -2.1714   0.0000   0.0000   0.0000   0.3819
  19.800   1.0814   0.29085   0.28908  -0.1722  0.0123  0.8695  -2.1733   0.0000   0.0000   0.0000   0.3822
  19.900   1.0833   0.29304   0.29128  -0.1731  0.0121  0.8714  -2.1769   0.0000   0.0000   0.0000   0.3826
  20.000   1.0853   0.29522   0.29348  -0.1740  0.0119  0.8733  -2.1817   0.0000   0.0000   0.0000   0.3830
  20.100   1.0872   0.29737   0.29563  -0.1749  0.0118  0.8752  -2.1888   0.0000   0.0000   0.0000   0.3833
  23.700   0.9214   0.34581   0.34439  -0.1659  0.0095  0.8853  -1.5173   0.0000   0.0000   0.0000   0.3999
  23.800   0.9166   0.34548   0.34407  -0.1655  0.0095  0.8855  -1.4960   0.0000   0.0000   0.0000   0.4004
  23.900   0.9123   0.34525   0.34385  -0.1652  0.0095  0.8859  -1.4760   0.0000   0.0000   0.0000   0.4009
  24.000   0.9085   0.34511   0.34371  -0.1650  0.0095  0.8865  -1.4572   0.0000   0.0000   0.0000   0.4014
  24.100   0.9050   0.34505   0.34367  -0.1649  0.0094  0.8873  -1.4386   0.0000   0.0000   0.0000   0.4019
  24.200   0.9016   0.34512   0.34374  -0.1649  0.0094  0.8881  -1.4156   0.0000   0.0000   0.0000   0.4025
  24.300   0.8986   0.34529   0.34392  -0.1649  0.0094  0.8890  -1.3919   0.0000   0.0000   0.0000   0.4031
  24.400   0.8958   0.34555   0.34419  -0.1650  0.0093  0.8901  -1.3682   0.0000   0.0000   0.0000   0.4037
  24.500   0.8935   0.34589   0.34454  -0.1652  0.0092  0.8913  -1.3444   0.0000   0.0000   0.0000   0.4043
  24.600   0.8914   0.34632   0.34498  -0.1654  0.0091  0.8926  -1.3201   0.0000   0.0000   0.0000   0.4049
  24.700   0.8895   0.34678   0.34545  -0.1656  0.0090  0.8940  -1.2958   0.0000   0.0000   0.0000   0.4054
  24.800   0.8876   0.34720   0.34587  -0.1657  0.0088  0.8954  -1.2728   0.0000   0.0000   0.0000   0.4059


