xflr5 v6.61

 Calculated polar for: FX 60-100 (126) AIRFOIL

 1 1 Reynolds number fixed          Mach number fixed         

 xtrf =   1.000 (top)        1.000 (bottom)
 Mach =   0.000     Re =     0.625 e 6     Ncrit =   9.000

  alpha     CL        CD       CDp       Cm    Top Xtr Bot Xtr   Cpmin    Chinge    XCp    
 ------- -------- --------- --------- -------- ------- ------- -------- --------- ---------
 -10.000  -0.3100   0.10757   0.10526  -0.0277  1.0000  0.0096  -1.5404   0.0000   0.0000   0.0000   0.1515
  -9.900  -0.3098   0.10630   0.10400  -0.0278  1.0000  0.0096  -1.5523   0.0000   0.0000   0.0000   0.1512
  -9.800  -0.3097   0.10503   0.10273  -0.0279  1.0000  0.0096  -1.5647   0.0000   0.0000   0.0000   0.1509
  -9.700  -0.3096   0.10376   0.10147  -0.0280  1.0000  0.0096  -1.5774   0.0000   0.0000   0.0000   0.1506
  -9.600  -0.3097   0.10249   0.10021  -0.0281  1.0000  0.0097  -1.5905   0.0000   0.0000   0.0000   0.1504
  -9.500  -0.3099   0.10124   0.09896  -0.0282  1.0000  0.0097  -1.6041   0.0000   0.0000   0.0000   0.1503
  -9.400  -0.3062   0.09946   0.09719  -0.0295  0.9997  0.0097  -1.6186   0.0000   0.0000   0.0000   0.1450
  -9.300  -0.3023   0.09764   0.09537  -0.0309  0.9994  0.0097  -1.6340   0.0000   0.0000   0.0000   0.1390
  -9.200  -0.2984   0.09582   0.09355  -0.0323  0.9990  0.0097  -1.6503   0.0000   0.0000   0.0000   0.1328
  -9.100  -0.2946   0.09400   0.09173  -0.0338  0.9986  0.0097  -1.6674   0.0000   0.0000   0.0000   0.1265
  -9.000  -0.2909   0.09218   0.08991  -0.0352  0.9981  0.0097  -1.6854   0.0000   0.0000   0.0000   0.1201
  -8.900  -0.2873   0.09032   0.08806  -0.0367  0.9977  0.0097  -1.7045   0.0000   0.0000   0.0000   0.1134
  -8.800  -0.2838   0.08845   0.08619  -0.0382  0.9971  0.0097  -1.7246   0.0000   0.0000   0.0000   0.1065
  -8.700  -0.2803   0.08656   0.08430  -0.0397  0.9966  0.0098  -1.7460   0.0000   0.0000   0.0000   0.0993
  -8.600  -0.2769   0.08464   0.08238  -0.0413  0.9959  0.0098  -1.7688   0.0000   0.0000   0.0000   0.0918
  -8.500  -0.2735   0.08269   0.08043  -0.0430  0.9952  0.0098  -1.7930   0.0000   0.0000   0.0000   0.0840
  -8.400  -0.2702   0.08072   0.07846  -0.0446  0.9944  0.0098  -1.8190   0.0000   0.0000   0.0000   0.0758
  -8.300  -0.2669   0.07870   0.07645  -0.0464  0.9936  0.0098  -1.8468   0.0000   0.0000   0.0000   0.0672
  -8.200  -0.2638   0.07665   0.07440  -0.0482  0.9926  0.0098  -1.8767   0.0000   0.0000   0.0000   0.0582
  -8.100  -0.2607   0.07456   0.07231  -0.0501  0.9915  0.0098  -1.9091   0.0000   0.0000   0.0000   0.0488
  -8.000  -0.2578   0.07241   0.07016  -0.0521  0.9903  0.0098  -1.9443   0.0000   0.0000   0.0000   0.0389
  -7.900  -0.2587   0.06925   0.06703  -0.0547  0.9887  0.0099  -2.0562   0.0000   0.0000   0.0000   0.0293
  -7.800  -0.2607   0.06571   0.06350  -0.0578  0.9868  0.0100  -2.1889   0.0000   0.0000   0.0000   0.0192
  -7.700  -0.2611   0.06226   0.06004  -0.0609  0.9847  0.0101  -2.3005   0.0000   0.0000   0.0000   0.0075
  -7.600  -0.2592   0.05880   0.05657  -0.0643  0.9824  0.0101  -2.3902   0.0000   0.0000   0.0000  -0.0074
  -7.500  -0.2583   0.05575   0.05349  -0.0677  0.9797  0.0101  -2.4644   0.0000   0.0000   0.0000  -0.0213
  -7.400  -0.2582   0.05317   0.05088  -0.0709  0.9764  0.0101  -2.5185   0.0000   0.0000   0.0000  -0.0337
  -7.300  -0.2584   0.05107   0.04875  -0.0741  0.9725  0.0100  -2.5462   0.0000   0.0000   0.0000  -0.0455
  -7.200  -0.2583   0.04872   0.04636  -0.0780  0.9683  0.0100  -2.5839   0.0000   0.0000   0.0000  -0.0604
  -6.900  -0.2573   0.03482   0.03180  -0.0987  0.9587  0.0106  -3.0671   0.0000   0.0000   0.0000  -0.1421
  -6.800  -0.2537   0.02907   0.02565  -0.1039  0.9558  0.0118  -3.2811   0.0000   0.0000   0.0000  -0.1682
  -6.700  -0.2431   0.02735   0.02381  -0.1061  0.9535  0.0129  -3.2130   0.0000   0.0000   0.0000  -0.1951
  -6.600  -0.2311   0.02673   0.02316  -0.1075  0.9510  0.0140  -3.0738   0.0000   0.0000   0.0000  -0.2239
  -6.500  -0.2196   0.02637   0.02278  -0.1085  0.9479  0.0151  -2.9306   0.0000   0.0000   0.0000  -0.2533
  -6.400  -0.2107   0.02610   0.02251  -0.1088  0.9467  0.0163  -2.8017   0.0000   0.0000   0.0000  -0.2753
  -6.300  -0.2015   0.02582   0.02222  -0.1089  0.9452  0.0178  -2.6806   0.0000   0.0000   0.0000  -0.2997
  -6.200  -0.1920   0.02556   0.02193  -0.1091  0.9433  0.0197  -2.5671   0.0000   0.0000   0.0000  -0.3275
  -6.100  -0.1813   0.02569   0.02207  -0.1090  0.9412  0.0223  -2.4424   0.0000   0.0000   0.0000  -0.3606
  -5.900  -0.1643   0.02268   0.01876  -0.1109  0.9349  0.0309  -2.3273   0.0000   0.0000   0.0000  -0.4348
  -5.100  -0.0684   0.01450   0.00961  -0.1125  0.9068  0.0279  -1.9885   0.0000   0.0000   0.0000  -1.4150
  -5.000  -0.0535   0.01058   0.00519  -0.1123  0.9026  0.0185  -2.2148   0.0000   0.0000   0.0000  -1.8730
  -4.900  -0.0399   0.00978   0.00414  -0.1125  0.8974  0.0162  -2.1813   0.0000   0.0000   0.0000  -2.6021
  -4.800  -0.0277   0.00945   0.00367  -0.1127  0.8951  0.0151  -2.0929   0.0000   0.0000   0.0000  -3.8586
  -4.700  -0.0159   0.00919   0.00331  -0.1128  0.8938  0.0144  -2.0046   0.0000   0.0000   0.0000  -6.9152
  -4.600  -0.0041   0.00898   0.00299  -0.1129  0.8922  0.0141  -1.9187   0.0000   0.0000   0.0000  -27.3435
  -4.500   0.0077   0.00881   0.00270  -0.1130  0.8903  0.0143  -1.8362   0.0000   0.0000   0.0000  15.1353
  -4.400   0.0201   0.00856   0.00242  -0.1130  0.8882  0.0227  -1.7846   0.0000   0.0000   0.0000   5.9181
  -4.300   0.0315   0.00826   0.00234  -0.1134  0.8858  0.0446  -1.6776   0.0000   0.0000   0.0000   3.8804
  -4.200   0.0425   0.00820   0.00230  -0.1135  0.8829  0.0490  -1.5673   0.0000   0.0000   0.0000   2.9444
  -4.100   0.0533   0.00817   0.00226  -0.1135  0.8793  0.0505  -1.4579   0.0000   0.0000   0.0000   2.3978
  -4.000   0.0640   0.00816   0.00224  -0.1135  0.8748  0.0511  -1.3499   0.0000   0.0000   0.0000   2.0385
  -3.900   0.0746   0.00816   0.00224  -0.1135  0.8693  0.0515  -1.2567   0.0000   0.0000   0.0000   1.7841
  -3.700   0.0955   0.00820   0.00227  -0.1134  0.8557  0.0521  -1.1579   0.0000   0.0000   0.0000   1.4465
  -3.600   0.1062   0.00810   0.00209  -0.1133  0.8471  0.0546  -1.1196   0.0000   0.0000   0.0000   1.3250
  -3.500   0.1170   0.00802   0.00192  -0.1133  0.8367  0.0583  -1.0830   0.0000   0.0000   0.0000   1.2257
  -3.400   0.1280   0.00794   0.00181  -0.1134  0.8247  0.0688  -1.0471   0.0000   0.0000   0.0000   1.1416
  -3.300   0.1393   0.00784   0.00177  -0.1136  0.8133  0.0793  -1.0060   0.0000   0.0000   0.0000   1.0708
  -3.200   0.1512   0.00750   0.00166  -0.1142  0.8039  0.1246  -0.9665   0.0000   0.0000   0.0000   1.0103
  -3.100   0.1628   0.00695   0.00149  -0.1150  0.8030  0.2238  -0.9284   0.0000   0.0000   0.0000   0.9603
  -3.000   0.1739   0.00678   0.00143  -0.1152  0.8018  0.2493  -0.8900   0.0000   0.0000   0.0000   0.9162
  -2.900   0.1850   0.00659   0.00139  -0.1154  0.8001  0.2790  -0.8520   0.0000   0.0000   0.0000   0.8774
  -2.800   0.1959   0.00644   0.00139  -0.1156  0.7979  0.3055  -0.8142   0.0000   0.0000   0.0000   0.8430
  -2.600   0.2177   0.00627   0.00151  -0.1158  0.7912  0.4178  -0.7394   0.0000   0.0000   0.0000   0.7845
  -2.500   0.2286   0.00626   0.00150  -0.1159  0.7864  0.4266  -0.7051   0.0000   0.0000   0.0000   0.7591
  -2.400   0.2394   0.00626   0.00149  -0.1159  0.7802  0.4319  -0.6788   0.0000   0.0000   0.0000   0.7360
  -2.300   0.2501   0.00628   0.00147  -0.1158  0.7715  0.4356  -0.6528   0.0000   0.0000   0.0000   0.7150
  -2.200   0.2606   0.00630   0.00145  -0.1157  0.7597  0.4385  -0.6271   0.0000   0.0000   0.0000   0.6957
  -2.100   0.2710   0.00635   0.00142  -0.1156  0.7449  0.4407  -0.6017   0.0000   0.0000   0.0000   0.6781
  -2.000   0.2812   0.00640   0.00139  -0.1155  0.7282  0.4449  -0.5766   0.0000   0.0000   0.0000   0.6620
  -1.900   0.2914   0.00644   0.00141  -0.1153  0.7089  0.4546  -0.5517   0.0000   0.0000   0.0000   0.6470
  -1.800   0.3019   0.00648   0.00144  -0.1153  0.6914  0.4617  -0.5263   0.0000   0.0000   0.0000   0.6328
  -1.700   0.3128   0.00650   0.00148  -0.1153  0.6872  0.4675  -0.5008   0.0000   0.0000   0.0000   0.6195
  -1.600   0.3237   0.00654   0.00151  -0.1153  0.6820  0.4726  -0.5059   0.0000   0.0000   0.0000   0.6070
  -1.500   0.3344   0.00659   0.00154  -0.1153  0.6754  0.4771  -0.5132   0.0000   0.0000   0.0000   0.5953
  -1.400   0.3451   0.00666   0.00156  -0.1153  0.6663  0.4811  -0.5215   0.0000   0.0000   0.0000   0.5844
  -1.300   0.3554   0.00675   0.00160  -0.1151  0.6542  0.4853  -0.5296   0.0000   0.0000   0.0000   0.5742
  -1.200   0.3652   0.00692   0.00168  -0.1149  0.6397  0.4898  -0.5376   0.0000   0.0000   0.0000   0.5647
  -1.100   0.3751   0.00705   0.00170  -0.1147  0.6226  0.4914  -0.5455   0.0000   0.0000   0.0000   0.5558
  -1.000   0.3855   0.00712   0.00170  -0.1146  0.6049  0.4924  -0.5536   0.0000   0.0000   0.0000   0.5473
  -0.900   0.3964   0.00715   0.00169  -0.1147  0.5960  0.4930  -0.5620   0.0000   0.0000   0.0000   0.5392
  -0.800   0.4075   0.00716   0.00168  -0.1148  0.5935  0.4936  -0.5706   0.0000   0.0000   0.0000   0.5314
  -0.700   0.4187   0.00717   0.00167  -0.1149  0.5914  0.4940  -0.5798   0.0000   0.0000   0.0000   0.5241
  -0.600   0.4298   0.00718   0.00165  -0.1150  0.5887  0.4943  -0.5899   0.0000   0.0000   0.0000   0.5172
  -0.500   0.4409   0.00719   0.00164  -0.1151  0.5855  0.4945  -0.6001   0.0000   0.0000   0.0000   0.5106
  -0.400   0.4520   0.00719   0.00161  -0.1152  0.5816  0.4943  -0.6102   0.0000   0.0000   0.0000   0.5043
  -0.300   0.4630   0.00720   0.00158  -0.1153  0.5771  0.4939  -0.6232   0.0000   0.0000   0.0000   0.4984
  -0.200   0.4741   0.00721   0.00155  -0.1154  0.5722  0.4931  -0.6382   0.0000   0.0000   0.0000   0.4928
  -0.100   0.4851   0.00722   0.00152  -0.1155  0.5675  0.4923  -0.6533   0.0000   0.0000   0.0000   0.4874
   0.000   0.4961   0.00723   0.00150  -0.1156  0.5635  0.4915  -0.6684   0.0000   0.0000   0.0000   0.4822
   0.100   0.5071   0.00725   0.00149  -0.1157  0.5598  0.4909  -0.6836   0.0000   0.0000   0.0000   0.4773
   0.200   0.5181   0.00727   0.00149  -0.1158  0.5562  0.4906  -0.6988   0.0000   0.0000   0.0000   0.4725
   0.300   0.5290   0.00730   0.00149  -0.1159  0.5525  0.4906  -0.7140   0.0000   0.0000   0.0000   0.4679
   0.400   0.5399   0.00734   0.00151  -0.1159  0.5488  0.4912  -0.7293   0.0000   0.0000   0.0000   0.4635
   0.500   0.5522   0.00728   0.00161  -0.1162  0.5662  0.4952  -0.7459   0.0000   0.0000   0.0000   0.4591
   0.600   0.5635   0.00728   0.00164  -0.1163  0.5688  0.4959  -0.7616   0.0000   0.0000   0.0000   0.4551
   0.700   0.5748   0.00729   0.00167  -0.1164  0.5706  0.4965  -0.7774   0.0000   0.0000   0.0000   0.4511
   0.800   0.5860   0.00731   0.00171  -0.1165  0.5719  0.4971  -0.7932   0.0000   0.0000   0.0000   0.4473
   0.900   0.5972   0.00733   0.00175  -0.1166  0.5726  0.4977  -0.8090   0.0000   0.0000   0.0000   0.4437
   1.000   0.6082   0.00736   0.00180  -0.1166  0.5724  0.4982  -0.8248   0.0000   0.0000   0.0000   0.4402
   1.100   0.6193   0.00739   0.00185  -0.1167  0.5722  0.4987  -0.8407   0.0000   0.0000   0.0000   0.4367
   1.200   0.6304   0.00742   0.00191  -0.1167  0.5729  0.4991  -0.8566   0.0000   0.0000   0.0000   0.4334
   1.300   0.6416   0.00744   0.00197  -0.1168  0.5747  0.4995  -0.8727   0.0000   0.0000   0.0000   0.4303
   1.400   0.6528   0.00747   0.00204  -0.1169  0.5772  0.4999  -0.8887   0.0000   0.0000   0.0000   0.4272
   1.500   0.6641   0.00747   0.00208  -0.1170  0.5796  0.5014  -0.9049   0.0000   0.0000   0.0000   0.4242
   1.600   0.6756   0.00745   0.00207  -0.1172  0.5816  0.5048  -0.9212   0.0000   0.0000   0.0000   0.4215
   1.700   0.6869   0.00743   0.00206  -0.1174  0.5831  0.5084  -0.9375   0.0000   0.0000   0.0000   0.4188
   1.800   0.6983   0.00742   0.00207  -0.1175  0.5838  0.5120  -0.9537   0.0000   0.0000   0.0000   0.4161
   1.900   0.7095   0.00742   0.00208  -0.1176  0.5836  0.5157  -0.9700   0.0000   0.0000   0.0000   0.4136
   2.000   0.7205   0.00742   0.00209  -0.1177  0.5816  0.5195  -0.9862   0.0000   0.0000   0.0000   0.4111
   2.100   0.7315   0.00744   0.00210  -0.1178  0.5784  0.5236  -1.0024   0.0000   0.0000   0.0000   0.4086
   2.200   0.7424   0.00746   0.00212  -0.1178  0.5748  0.5283  -1.0187   0.0000   0.0000   0.0000   0.4062
   2.300   0.7532   0.00748   0.00214  -0.1178  0.5709  0.5332  -1.0349   0.0000   0.0000   0.0000   0.4039
   2.400   0.7640   0.00751   0.00216  -0.1178  0.5666  0.5383  -1.0511   0.0000   0.0000   0.0000   0.4016
   2.500   0.7747   0.00755   0.00219  -0.1178  0.5620  0.5432  -1.0673   0.0000   0.0000   0.0000   0.3994
   2.600   0.7852   0.00759   0.00223  -0.1178  0.5570  0.5477  -1.0834   0.0000   0.0000   0.0000   0.3972
   2.700   0.7957   0.00764   0.00227  -0.1177  0.5515  0.5515  -1.0995   0.0000   0.0000   0.0000   0.3951
   2.800   0.8061   0.00770   0.00230  -0.1177  0.5454  0.5547  -1.1155   0.0000   0.0000   0.0000   0.3930
   2.900   0.8165   0.00776   0.00234  -0.1176  0.5387  0.5570  -1.1316   0.0000   0.0000   0.0000   0.3910
   3.000   0.8270   0.00782   0.00238  -0.1175  0.5312  0.5586  -1.1477   0.0000   0.0000   0.0000   0.3890
   3.100   0.8376   0.00788   0.00242  -0.1175  0.5235  0.5597  -1.1639   0.0000   0.0000   0.0000   0.3871
   3.200   0.8483   0.00794   0.00246  -0.1175  0.5161  0.5604  -1.1802   0.0000   0.0000   0.0000   0.3852
   3.300   0.8590   0.00800   0.00251  -0.1175  0.5091  0.5609  -1.1966   0.0000   0.0000   0.0000   0.3834
   3.400   0.8698   0.00806   0.00256  -0.1175  0.5020  0.5614  -1.2357   0.0000   0.0000   0.0000   0.3816
   3.500   0.8808   0.00807   0.00259  -0.1175  0.4993  0.5618  -1.2767   0.0000   0.0000   0.0000   0.3799
   3.600   0.8918   0.00807   0.00261  -0.1176  0.4976  0.5623  -1.3182   0.0000   0.0000   0.0000   0.3782
   3.700   0.9027   0.00809   0.00263  -0.1176  0.4950  0.5627  -1.3601   0.0000   0.0000   0.0000   0.3765
   3.800   0.9135   0.00811   0.00266  -0.1176  0.4904  0.5631  -1.4020   0.0000   0.0000   0.0000   0.3749
   3.900   0.9238   0.00818   0.00269  -0.1175  0.4797  0.5635  -1.4435   0.0000   0.0000   0.0000   0.3732
   4.000   0.9301   0.00857   0.00276  -0.1167  0.4406  0.5638  -1.4779   0.0000   0.0000   0.0000   0.3714
   4.100   0.9381   0.00885   0.00284  -0.1163  0.4067  0.5642  -1.5158   0.0000   0.0000   0.0000   0.3698
   4.200   0.9452   0.00925   0.00293  -0.1157  0.3460  0.5646  -1.5517   0.0000   0.0000   0.0000   0.3682
   4.300   0.9542   0.00946   0.00302  -0.1155  0.3001  0.5649  -1.5920   0.0000   0.0000   0.0000   0.3667
   4.400   0.9616   0.00985   0.00320  -0.1150  0.2754  0.5653  -1.6294   0.0000   0.0000   0.0000   0.3651
   4.500   0.9689   0.01024   0.00339  -0.1145  0.2526  0.5656  -1.6665   0.0000   0.0000   0.0000   0.3636
   4.600   0.9783   0.01041   0.00349  -0.1143  0.2420  0.5660  -1.7086   0.0000   0.0000   0.0000   0.3622
   4.700   0.9868   0.01067   0.00361  -0.1140  0.2275  0.5663  -1.7493   0.0000   0.0000   0.0000   0.3607
   4.800   0.9948   0.01099   0.00378  -0.1136  0.2082  0.5666  -1.7891   0.0000   0.0000   0.0000   0.3593
   4.900   1.0044   0.01116   0.00389  -0.1134  0.1930  0.5669  -1.8329   0.0000   0.0000   0.0000   0.3580
   5.000   1.0139   0.01132   0.00399  -0.1133  0.1840  0.5672  -1.8773   0.0000   0.0000   0.0000   0.3566
   5.100   1.0230   0.01152   0.00411  -0.1130  0.1728  0.5674  -1.9211   0.0000   0.0000   0.0000   0.3553
   5.200   1.0319   0.01175   0.00423  -0.1128  0.1594  0.5677  -1.9651   0.0000   0.0000   0.0000   0.3540
   5.300   1.0415   0.01190   0.00434  -0.1126  0.1460  0.5680  -2.0113   0.0000   0.0000   0.0000   0.3527
   5.400   1.0515   0.01200   0.00443  -0.1125  0.1425  0.5683  -2.0594   0.0000   0.0000   0.0000   0.3515
   5.500   1.0611   0.01213   0.00454  -0.1123  0.1362  0.5685  -2.1074   0.0000   0.0000   0.0000   0.3502
   5.600   1.0680   0.01256   0.00475  -0.1117  0.1108  0.5688  -2.1492   0.0000   0.0000   0.0000   0.3489
   5.700   1.0737   0.01310   0.00505  -0.1110  0.0835  0.5690  -2.1887   0.0000   0.0000   0.0000   0.3476
   5.800   1.0814   0.01342   0.00525  -0.1106  0.0670  0.5693  -2.2345   0.0000   0.0000   0.0000   0.3463
   5.900   1.0891   0.01375   0.00547  -0.1101  0.0462  0.5695  -2.3241   0.0000   0.0000   0.0000   0.3451
   6.000   1.0948   0.01426   0.00581  -0.1093  0.0250  0.5698  -2.4157   0.0000   0.0000   0.0000   0.3437
   6.100   1.1038   0.01445   0.00594  -0.1090  0.0224  0.5700  -2.5276   0.0000   0.0000   0.0000   0.3425
   6.200   1.1122   0.01468   0.00608  -0.1086  0.0193  0.5703  -2.6362   0.0000   0.0000   0.0000   0.3413
   6.300   1.1216   0.01485   0.00619  -0.1082  0.0139  0.5705  -2.7351   0.0000   0.0000   0.0000   0.3400
   6.400   1.1303   0.01517   0.00672  -0.1074  0.0106  0.5708  -2.7693   0.0000   0.0000   0.0000   0.3384
   6.500   1.1383   0.01550   0.00720  -0.1067  0.0103  0.5710  -2.8391   0.0000   0.0000   0.0000   0.3370
   6.600   1.1457   0.01586   0.00769  -0.1059  0.0104  0.5712  -2.9293   0.0000   0.0000   0.0000   0.3355
   6.700   1.1529   0.01624   0.00815  -0.1050  0.0106  0.5715  -3.0148   0.0000   0.0000   0.0000   0.3341
   6.800   1.1601   0.01659   0.00858  -0.1042  0.0110  0.5717  -3.0998   0.0000   0.0000   0.0000   0.3327
   6.900   1.1673   0.01693   0.00897  -0.1034  0.0114  0.5720  -3.1865   0.0000   0.0000   0.0000   0.3314
   7.000   1.1747   0.01724   0.00933  -0.1027  0.0120  0.5722  -3.2749   0.0000   0.0000   0.0000   0.3300
   7.100   1.1820   0.01755   0.00968  -0.1019  0.0127  0.5725  -3.3631   0.0000   0.0000   0.0000   0.3287
   7.200   1.1888   0.01789   0.01008  -0.1010  0.0137  0.5727  -3.4472   0.0000   0.0000   0.0000   0.3273
   7.300   1.1946   0.01832   0.01058  -0.0999  0.0149  0.5730  -3.5180   0.0000   0.0000   0.0000   0.3259
   7.400   1.1979   0.01900   0.01143  -0.0982  0.0168  0.5732  -3.5386   0.0000   0.0000   0.0000   0.3241
   7.500   1.1968   0.02047   0.01320  -0.0951  0.0206  0.5734  -3.4456   0.0000   0.0000   0.0000   0.3215
   8.300   1.2638   0.03189   0.02572  -0.0875  0.0345  0.5756  -3.5969   0.0000   0.0000   0.0000   0.3101
  28.800   0.9698   0.41410   0.41288  -0.2332  0.0066  0.8575  -0.6154   0.0000   0.0000   0.0000   0.4541
  28.900   0.9696   0.41512   0.41390  -0.2334  0.0066  0.8584  -0.6143   0.0000   0.0000   0.0000   0.4541
  29.000   0.9694   0.41614   0.41493  -0.2337  0.0066  0.8593  -0.6132   0.0000   0.0000   0.0000   0.4542
  29.100   0.9692   0.41717   0.41595  -0.2339  0.0066  0.8602  -0.6120   0.0000   0.0000   0.0000   0.4543
  29.200   0.9690   0.41819   0.41698  -0.2342  0.0066  0.8610  -0.6109   0.0000   0.0000   0.0000   0.4543
  29.300   0.9687   0.41922   0.41801  -0.2345  0.0065  0.8619  -0.6099   0.0000   0.0000   0.0000   0.4544
  29.400   0.9685   0.42024   0.41903  -0.2347  0.0065  0.8627  -0.6088   0.0000   0.0000   0.0000   0.4545
  29.500   0.9683   0.42127   0.42006  -0.2350  0.0065  0.8636  -0.6077   0.0000   0.0000   0.0000   0.4545
  29.600   0.9680   0.42230   0.42109  -0.2353  0.0065  0.8644  -0.6067   0.0000   0.0000   0.0000   0.4546
  29.700   0.9678   0.42332   0.42212  -0.2355  0.0065  0.8652  -0.6056   0.0000   0.0000   0.0000   0.4547
  29.800   0.9676   0.42435   0.42315  -0.2358  0.0065  0.8660  -0.6046   0.0000   0.0000   0.0000   0.4548
  29.900   0.9673   0.42538   0.42419  -0.2361  0.0065  0.8668  -0.6036   0.0000   0.0000   0.0000   0.4548
  30.000   0.9670   0.42641   0.42522  -0.2364  0.0064  0.8676  -0.6026   0.0000   0.0000   0.0000   0.4549


