xflr5 v6.61

 Calculated polar for: FX 60-100 (126) AIRFOIL

 1 1 Reynolds number fixed          Mach number fixed         

 xtrf =   1.000 (top)        1.000 (bottom)
 Mach =   0.000     Re =     0.563 e 6     Ncrit =   9.000

  alpha     CL        CD       CDp       Cm    Top Xtr Bot Xtr   Cpmin    Chinge    XCp    
 ------- -------- --------- --------- -------- ------- ------- -------- --------- ---------
 -10.000  -0.3091   0.10751   0.10507  -0.0283  1.0000  0.0097  -1.5597   0.0000   0.0000   0.0000   0.1492
  -9.900  -0.3089   0.10623   0.10380  -0.0284  1.0000  0.0097  -1.5722   0.0000   0.0000   0.0000   0.1489
  -9.800  -0.3088   0.10496   0.10253  -0.0285  1.0000  0.0097  -1.5851   0.0000   0.0000   0.0000   0.1486
  -9.700  -0.3088   0.10368   0.10127  -0.0286  1.0000  0.0097  -1.5984   0.0000   0.0000   0.0000   0.1483
  -9.600  -0.3089   0.10241   0.10001  -0.0287  1.0000  0.0097  -1.6122   0.0000   0.0000   0.0000   0.1481
  -9.500  -0.3091   0.10115   0.09875  -0.0288  1.0000  0.0097  -1.6264   0.0000   0.0000   0.0000   0.1480
  -9.400  -0.3095   0.09989   0.09750  -0.0289  1.0000  0.0097  -1.6411   0.0000   0.0000   0.0000   0.1480
  -9.300  -0.3101   0.09865   0.09627  -0.0290  1.0000  0.0097  -1.6561   0.0000   0.0000   0.0000   0.1481
  -9.200  -0.3075   0.09699   0.09461  -0.0300  0.9998  0.0098  -1.6726   0.0000   0.0000   0.0000   0.1440
  -9.100  -0.3036   0.09514   0.09277  -0.0315  0.9994  0.0098  -1.6903   0.0000   0.0000   0.0000   0.1378
  -9.000  -0.2999   0.09329   0.09092  -0.0330  0.9990  0.0098  -1.7090   0.0000   0.0000   0.0000   0.1315
  -8.900  -0.2961   0.09141   0.08904  -0.0345  0.9985  0.0098  -1.7288   0.0000   0.0000   0.0000   0.1250
  -8.800  -0.2925   0.08951   0.08713  -0.0360  0.9980  0.0098  -1.7497   0.0000   0.0000   0.0000   0.1182
  -8.700  -0.2890   0.08759   0.08522  -0.0376  0.9974  0.0098  -1.7719   0.0000   0.0000   0.0000   0.1113
  -8.600  -0.2855   0.08564   0.08327  -0.0392  0.9968  0.0098  -1.7954   0.0000   0.0000   0.0000   0.1041
  -8.500  -0.2828   0.08345   0.08112  -0.0409  0.9961  0.0098  -1.8377   0.0000   0.0000   0.0000   0.0965
  -8.400  -0.2889   0.07902   0.07669  -0.0439  0.9951  0.0101  -2.0535   0.0000   0.0000   0.0000   0.0895
  -8.300  -0.2924   0.07534   0.07301  -0.0466  0.9940  0.0104  -2.2102   0.0000   0.0000   0.0000   0.0819
  -8.200  -0.2945   0.07204   0.06971  -0.0493  0.9927  0.0105  -2.3356   0.0000   0.0000   0.0000   0.0739
  -8.100  -0.2957   0.06893   0.06660  -0.0520  0.9913  0.0107  -2.4430   0.0000   0.0000   0.0000   0.0655
  -8.000  -0.2963   0.06588   0.06355  -0.0548  0.9896  0.0108  -2.5399   0.0000   0.0000   0.0000   0.0564
  -7.900  -0.2961   0.06271   0.06038  -0.0578  0.9877  0.0109  -2.6326   0.0000   0.0000   0.0000   0.0462
  -7.800  -0.2946   0.05919   0.05685  -0.0612  0.9857  0.0109  -2.7285   0.0000   0.0000   0.0000   0.0335
  -7.700  -0.2937   0.05599   0.05361  -0.0647  0.9831  0.0108  -2.8105   0.0000   0.0000   0.0000   0.0211
  -7.600  -0.2940   0.05331   0.05089  -0.0679  0.9799  0.0108  -2.8722   0.0000   0.0000   0.0000   0.0102
  -7.500  -0.2948   0.05107   0.04862  -0.0712  0.9760  0.0107  -2.9102   0.0000   0.0000   0.0000   0.0000
  -7.400  -0.2954   0.04870   0.04621  -0.0750  0.9716  0.0107  -2.9528   0.0000   0.0000   0.0000  -0.0121
  -7.300  -0.2928   0.04551   0.04292  -0.0815  0.9679  0.0107  -3.0091   0.0000   0.0000   0.0000  -0.0364
  -7.200  -0.2908   0.04178   0.03902  -0.0880  0.9646  0.0108  -3.1094   0.0000   0.0000   0.0000  -0.0603
  -7.100  -0.2890   0.03757   0.03459  -0.0934  0.9619  0.0113  -3.2426   0.0000   0.0000   0.0000  -0.0811
  -7.000  -0.2832   0.03421   0.03103  -0.0974  0.9600  0.0120  -3.2986   0.0000   0.0000   0.0000  -0.1020
  -6.900  -0.2732   0.03251   0.02924  -0.0999  0.9587  0.0129  -3.2293   0.0000   0.0000   0.0000  -0.1236
  -6.800  -0.2617   0.03160   0.02829  -0.1017  0.9575  0.0138  -3.1053   0.0000   0.0000   0.0000  -0.1468
  -6.700  -0.2497   0.03091   0.02755  -0.1034  0.9561  0.0148  -2.9730   0.0000   0.0000   0.0000  -0.1723
  -6.600  -0.2373   0.03041   0.02703  -0.1049  0.9545  0.0160  -2.8314   0.0000   0.0000   0.0000  -0.2002
  -6.500  -0.2247   0.02985   0.02643  -0.1063  0.9527  0.0176  -2.7042   0.0000   0.0000   0.0000  -0.2315
  -6.400  -0.2118   0.02930   0.02583  -0.1075  0.9503  0.0196  -2.5896   0.0000   0.0000   0.0000  -0.2664
  -6.300  -0.1985   0.02932   0.02583  -0.1080  0.9478  0.0224  -2.4643   0.0000   0.0000   0.0000  -0.3034
  -6.100  -0.1840   0.02590   0.02203  -0.1099  0.9440  0.0293  -2.4141   0.0000   0.0000   0.0000  -0.3563
  -6.000  -0.1766   0.02565   0.02190  -0.1104  0.9418  0.0333  -2.2558   0.0000   0.0000   0.0000  -0.3841
  -5.100  -0.0683   0.01306   0.00788  -0.1123  0.9147  0.0227  -2.1377   0.0000   0.0000   0.0000  -1.4136
  -5.000  -0.0543   0.01087   0.00535  -0.1123  0.9115  0.0185  -2.2190   0.0000   0.0000   0.0000  -1.8460
  -4.900  -0.0406   0.01009   0.00433  -0.1126  0.9080  0.0166  -2.1798   0.0000   0.0000   0.0000  -2.5536
  -4.800  -0.0279   0.00973   0.00381  -0.1129  0.9039  0.0156  -2.0931   0.0000   0.0000   0.0000  -3.8399
  -4.700  -0.0153   0.00947   0.00342  -0.1131  0.8991  0.0151  -2.0060   0.0000   0.0000   0.0000  -7.2103
  -4.600  -0.0031   0.00928   0.00310  -0.1133  0.8955  0.0149  -1.9194   0.0000   0.0000   0.0000  -37.1265
  -4.500   0.0087   0.00910   0.00280  -0.1133  0.8943  0.0156  -1.8402   0.0000   0.0000   0.0000  13.3655
  -4.400   0.0210   0.00881   0.00259  -0.1134  0.8928  0.0253  -1.7804   0.0000   0.0000   0.0000   5.7099
  -4.300   0.0322   0.00856   0.00251  -0.1137  0.8911  0.0475  -1.6719   0.0000   0.0000   0.0000   3.8180
  -4.200   0.0431   0.00852   0.00248  -0.1138  0.8891  0.0501  -1.5613   0.0000   0.0000   0.0000   2.9173
  -4.100   0.0539   0.00851   0.00247  -0.1139  0.8869  0.0511  -1.4510   0.0000   0.0000   0.0000   2.3823
  -4.000   0.0646   0.00852   0.00248  -0.1139  0.8843  0.0515  -1.3416   0.0000   0.0000   0.0000   2.0277
  -3.800   0.0861   0.00852   0.00251  -0.1140  0.8777  0.0528  -1.2023   0.0000   0.0000   0.0000   1.5846
  -3.700   0.0971   0.00841   0.00235  -0.1141  0.8734  0.0558  -1.1624   0.0000   0.0000   0.0000   1.4333
  -3.600   0.1081   0.00831   0.00221  -0.1141  0.8682  0.0602  -1.1240   0.0000   0.0000   0.0000   1.3130
  -3.500   0.1191   0.00821   0.00210  -0.1141  0.8623  0.0686  -1.0859   0.0000   0.0000   0.0000   1.2153
  -3.400   0.1299   0.00809   0.00203  -0.1142  0.8556  0.0779  -1.0446   0.0000   0.0000   0.0000   1.1353
  -3.300   0.1407   0.00789   0.00192  -0.1144  0.8478  0.0965  -1.0047   0.0000   0.0000   0.0000   1.0680
  -3.200   0.1522   0.00729   0.00171  -0.1151  0.8387  0.2027  -0.9671   0.0000   0.0000   0.0000   1.0109
  -3.100   0.1633   0.00702   0.00161  -0.1154  0.8279  0.2493  -0.9286   0.0000   0.0000   0.0000   0.9612
  -3.000   0.1746   0.00684   0.00156  -0.1158  0.8168  0.2816  -0.8898   0.0000   0.0000   0.0000   0.9168
  -2.800   0.1969   0.00661   0.00169  -0.1162  0.8033  0.3991  -0.8125   0.0000   0.0000   0.0000   0.8432
  -2.700   0.2076   0.00657   0.00171  -0.1162  0.8022  0.4179  -0.7751   0.0000   0.0000   0.0000   0.8124
  -2.600   0.2184   0.00655   0.00170  -0.1162  0.8006  0.4266  -0.7382   0.0000   0.0000   0.0000   0.7845
  -2.500   0.2292   0.00654   0.00169  -0.1162  0.7986  0.4323  -0.7037   0.0000   0.0000   0.0000   0.7592
  -2.400   0.2400   0.00653   0.00168  -0.1162  0.7960  0.4361  -0.6775   0.0000   0.0000   0.0000   0.7362
  -2.300   0.2509   0.00652   0.00166  -0.1162  0.7925  0.4389  -0.6514   0.0000   0.0000   0.0000   0.7151
  -2.200   0.2617   0.00652   0.00164  -0.1162  0.7878  0.4410  -0.6255   0.0000   0.0000   0.0000   0.6958
  -2.100   0.2724   0.00652   0.00163  -0.1162  0.7813  0.4461  -0.5998   0.0000   0.0000   0.0000   0.6780
  -2.000   0.2829   0.00651   0.00166  -0.1161  0.7723  0.4553  -0.5743   0.0000   0.0000   0.0000   0.6617
  -1.900   0.2932   0.00654   0.00168  -0.1159  0.7603  0.4622  -0.5491   0.0000   0.0000   0.0000   0.6465
  -1.800   0.3034   0.00660   0.00169  -0.1157  0.7457  0.4677  -0.5242   0.0000   0.0000   0.0000   0.6324
  -1.700   0.3134   0.00668   0.00169  -0.1155  0.7289  0.4725  -0.4996   0.0000   0.0000   0.0000   0.6193
  -1.600   0.3235   0.00677   0.00170  -0.1153  0.7091  0.4769  -0.5058   0.0000   0.0000   0.0000   0.6071
  -1.500   0.3341   0.00684   0.00173  -0.1152  0.6916  0.4810  -0.5129   0.0000   0.0000   0.0000   0.5955
  -1.400   0.3450   0.00688   0.00176  -0.1153  0.6874  0.4845  -0.5213   0.0000   0.0000   0.0000   0.5845
  -1.300   0.3556   0.00695   0.00183  -0.1152  0.6820  0.4887  -0.5297   0.0000   0.0000   0.0000   0.5742
  -1.200   0.3661   0.00705   0.00191  -0.1151  0.6744  0.4917  -0.5379   0.0000   0.0000   0.0000   0.5645
  -1.100   0.3767   0.00712   0.00192  -0.1150  0.6639  0.4930  -0.5462   0.0000   0.0000   0.0000   0.5554
  -1.000   0.3869   0.00720   0.00193  -0.1149  0.6508  0.4941  -0.5544   0.0000   0.0000   0.0000   0.5468
  -0.900   0.3970   0.00732   0.00194  -0.1147  0.6363  0.4951  -0.5625   0.0000   0.0000   0.0000   0.5388
  -0.800   0.4070   0.00742   0.00194  -0.1146  0.6210  0.4958  -0.5705   0.0000   0.0000   0.0000   0.5312
  -0.700   0.4175   0.00749   0.00195  -0.1145  0.6074  0.4965  -0.5793   0.0000   0.0000   0.0000   0.5239
  -0.600   0.4284   0.00753   0.00195  -0.1146  0.5985  0.4970  -0.5893   0.0000   0.0000   0.0000   0.5170
  -0.500   0.4395   0.00753   0.00194  -0.1147  0.5956  0.4973  -0.5994   0.0000   0.0000   0.0000   0.5104
  -0.400   0.4508   0.00753   0.00191  -0.1148  0.5936  0.4974  -0.6096   0.0000   0.0000   0.0000   0.5041
  -0.300   0.4620   0.00751   0.00186  -0.1150  0.5911  0.4972  -0.6222   0.0000   0.0000   0.0000   0.4982
  -0.200   0.4732   0.00750   0.00182  -0.1151  0.5881  0.4969  -0.6374   0.0000   0.0000   0.0000   0.4925
  -0.100   0.4844   0.00748   0.00177  -0.1153  0.5848  0.4965  -0.6525   0.0000   0.0000   0.0000   0.4872
   0.000   0.4956   0.00747   0.00172  -0.1154  0.5813  0.4959  -0.6678   0.0000   0.0000   0.0000   0.4820
   0.100   0.5068   0.00747   0.00169  -0.1156  0.5780  0.4953  -0.6830   0.0000   0.0000   0.0000   0.4771
   0.200   0.5179   0.00747   0.00166  -0.1157  0.5751  0.4947  -0.6983   0.0000   0.0000   0.0000   0.4723
   0.300   0.5290   0.00748   0.00166  -0.1158  0.5720  0.4944  -0.7136   0.0000   0.0000   0.0000   0.4678
   0.400   0.5399   0.00752   0.00168  -0.1158  0.5689  0.4951  -0.7290   0.0000   0.0000   0.0000   0.4634
   0.500   0.5512   0.00758   0.00190  -0.1158  0.5810  0.4985  -0.7449   0.0000   0.0000   0.0000   0.4589
   0.600   0.5624   0.00760   0.00195  -0.1159  0.5824  0.4990  -0.7606   0.0000   0.0000   0.0000   0.4548
   0.700   0.5735   0.00763   0.00200  -0.1160  0.5833  0.4994  -0.7763   0.0000   0.0000   0.0000   0.4508
   0.800   0.5846   0.00766   0.00206  -0.1160  0.5840  0.4997  -0.7920   0.0000   0.0000   0.0000   0.4470
   0.900   0.5957   0.00769   0.00212  -0.1161  0.5852  0.5001  -0.8077   0.0000   0.0000   0.0000   0.4433
   1.000   0.6071   0.00766   0.00209  -0.1163  0.5864  0.5034  -0.8236   0.0000   0.0000   0.0000   0.4399
   1.100   0.6185   0.00763   0.00207  -0.1165  0.5874  0.5071  -0.8396   0.0000   0.0000   0.0000   0.4366
   1.200   0.6298   0.00762   0.00206  -0.1166  0.5882  0.5107  -0.8556   0.0000   0.0000   0.0000   0.4334
   1.300   0.6412   0.00760   0.00206  -0.1168  0.5891  0.5145  -0.8716   0.0000   0.0000   0.0000   0.4303
   1.400   0.6525   0.00759   0.00207  -0.1169  0.5900  0.5182  -0.8877   0.0000   0.0000   0.0000   0.4273
   1.500   0.6638   0.00759   0.00209  -0.1171  0.5908  0.5221  -0.9038   0.0000   0.0000   0.0000   0.4244
   1.600   0.6751   0.00759   0.00211  -0.1172  0.5913  0.5259  -0.9199   0.0000   0.0000   0.0000   0.4216
   1.700   0.6863   0.00759   0.00213  -0.1173  0.5914  0.5298  -0.9361   0.0000   0.0000   0.0000   0.4189
   1.800   0.6974   0.00760   0.00216  -0.1174  0.5910  0.5336  -0.9522   0.0000   0.0000   0.0000   0.4162
   1.900   0.7085   0.00761   0.00219  -0.1175  0.5897  0.5374  -0.9684   0.0000   0.0000   0.0000   0.4136
   2.000   0.7195   0.00762   0.00221  -0.1176  0.5878  0.5416  -0.9846   0.0000   0.0000   0.0000   0.4111
   2.100   0.7304   0.00763   0.00225  -0.1176  0.5855  0.5460  -1.0008   0.0000   0.0000   0.0000   0.4086
   2.200   0.7412   0.00764   0.00228  -0.1176  0.5828  0.5502  -1.0170   0.0000   0.0000   0.0000   0.4062
   2.300   0.7521   0.00766   0.00232  -0.1176  0.5798  0.5541  -1.0332   0.0000   0.0000   0.0000   0.4038
   2.400   0.7628   0.00769   0.00236  -0.1176  0.5763  0.5576  -1.0494   0.0000   0.0000   0.0000   0.4016
   2.500   0.7736   0.00772   0.00239  -0.1176  0.5725  0.5606  -1.0656   0.0000   0.0000   0.0000   0.3993
   2.600   0.7843   0.00776   0.00243  -0.1176  0.5683  0.5630  -1.0819   0.0000   0.0000   0.0000   0.3971
   2.700   0.7949   0.00780   0.00246  -0.1175  0.5637  0.5647  -1.0981   0.0000   0.0000   0.0000   0.3950
   2.800   0.8056   0.00785   0.00249  -0.1175  0.5587  0.5658  -1.1144   0.0000   0.0000   0.0000   0.3929
   2.900   0.8161   0.00791   0.00252  -0.1175  0.5533  0.5664  -1.1306   0.0000   0.0000   0.0000   0.3909
   3.000   0.8266   0.00798   0.00254  -0.1174  0.5473  0.5669  -1.1467   0.0000   0.0000   0.0000   0.3889
   3.100   0.8370   0.00804   0.00257  -0.1173  0.5405  0.5674  -1.1628   0.0000   0.0000   0.0000   0.3870
   3.200   0.8474   0.00811   0.00261  -0.1173  0.5329  0.5680  -1.1789   0.0000   0.0000   0.0000   0.3851
   3.300   0.8579   0.00818   0.00265  -0.1172  0.5248  0.5685  -1.1951   0.0000   0.0000   0.0000   0.3833
   3.400   0.8685   0.00825   0.00269  -0.1172  0.5167  0.5689  -1.2332   0.0000   0.0000   0.0000   0.3815
   3.500   0.8792   0.00831   0.00275  -0.1172  0.5087  0.5694  -1.2735   0.0000   0.0000   0.0000   0.3798
   3.600   0.8899   0.00838   0.00280  -0.1172  0.5006  0.5698  -1.3142   0.0000   0.0000   0.0000   0.3781
   3.700   0.9009   0.00839   0.00283  -0.1172  0.4987  0.5703  -1.3561   0.0000   0.0000   0.0000   0.3764
   3.800   0.9118   0.00839   0.00285  -0.1172  0.4965  0.5707  -1.3984   0.0000   0.0000   0.0000   0.3747
   3.900   0.9226   0.00841   0.00288  -0.1172  0.4926  0.5711  -1.4409   0.0000   0.0000   0.0000   0.3731
   4.000   0.9328   0.00847   0.00290  -0.1171  0.4809  0.5714  -1.4828   0.0000   0.0000   0.0000   0.3715
   4.100   0.9388   0.00886   0.00296  -0.1162  0.4406  0.5717  -1.5171   0.0000   0.0000   0.0000   0.3696
   4.200   0.9467   0.00915   0.00304  -0.1158  0.4061  0.5721  -1.5553   0.0000   0.0000   0.0000   0.3680
   4.300   0.9536   0.00955   0.00314  -0.1152  0.3474  0.5725  -1.5912   0.0000   0.0000   0.0000   0.3665
   4.400   0.9626   0.00976   0.00323  -0.1149  0.3013  0.5728  -1.6319   0.0000   0.0000   0.0000   0.3650
   4.500   0.9705   0.01009   0.00337  -0.1145  0.2789  0.5732  -1.6708   0.0000   0.0000   0.0000   0.3635
   4.600   0.9774   0.01051   0.00358  -0.1140  0.2571  0.5735  -1.7078   0.0000   0.0000   0.0000   0.3620
   4.700   0.9865   0.01071   0.00369  -0.1138  0.2441  0.5739  -1.7497   0.0000   0.0000   0.0000   0.3605
   4.800   0.9952   0.01094   0.00381  -0.1135  0.2309  0.5742  -1.7913   0.0000   0.0000   0.0000   0.3591
   4.900   1.0029   0.01127   0.00397  -0.1130  0.2132  0.5745  -1.8312   0.0000   0.0000   0.0000   0.3577
   5.000   1.0120   0.01148   0.00411  -0.1128  0.1948  0.5748  -1.8745   0.0000   0.0000   0.0000   0.3564
   5.100   1.0215   0.01163   0.00421  -0.1126  0.1864  0.5751  -1.9196   0.0000   0.0000   0.0000   0.3551
   5.200   1.0306   0.01184   0.00433  -0.1124  0.1754  0.5754  -1.9641   0.0000   0.0000   0.0000   0.3538
   5.300   1.0393   0.01208   0.00445  -0.1121  0.1624  0.5756  -2.0084   0.0000   0.0000   0.0000   0.3525
   5.400   1.0487   0.01226   0.00458  -0.1119  0.1476  0.5759  -2.0547   0.0000   0.0000   0.0000   0.3512
   5.500   1.0586   0.01236   0.00467  -0.1117  0.1430  0.5762  -2.1034   0.0000   0.0000   0.0000   0.3500
   5.600   1.0681   0.01249   0.00478  -0.1116  0.1368  0.5765  -2.1524   0.0000   0.0000   0.0000   0.3487
   5.700   1.0752   0.01288   0.00499  -0.1110  0.1143  0.5767  -2.1960   0.0000   0.0000   0.0000   0.3475
   5.800   1.0805   0.01347   0.00530  -0.1103  0.0847  0.5770  -2.2354   0.0000   0.0000   0.0000   0.3461
   5.900   1.0878   0.01382   0.00552  -0.1098  0.0672  0.5772  -2.3148   0.0000   0.0000   0.0000   0.3449
   6.000   1.0939   0.01430   0.00584  -0.1091  0.0387  0.5775  -2.4080   0.0000   0.0000   0.0000   0.3436
   6.100   1.1007   0.01470   0.00610  -0.1084  0.0246  0.5778  -2.5067   0.0000   0.0000   0.0000   0.3423
   6.200   1.1093   0.01492   0.00624  -0.1081  0.0216  0.5780  -2.6164   0.0000   0.0000   0.0000   0.3411
   6.300   1.1177   0.01516   0.00637  -0.1076  0.0177  0.5783  -2.7204   0.0000   0.0000   0.0000   0.3398
   6.400   1.1267   0.01542   0.00674  -0.1069  0.0118  0.5786  -2.7703   0.0000   0.0000   0.0000   0.3383
   6.500   1.1351   0.01571   0.00719  -0.1062  0.0110  0.5788  -2.8354   0.0000   0.0000   0.0000   0.3368
   6.600   1.1430   0.01604   0.00764  -0.1055  0.0109  0.5791  -2.9150   0.0000   0.0000   0.0000   0.3354
   6.700   1.1504   0.01640   0.00810  -0.1047  0.0110  0.5794  -3.0042   0.0000   0.0000   0.0000   0.3340
   6.800   1.1575   0.01676   0.00855  -0.1039  0.0113  0.5796  -3.0902   0.0000   0.0000   0.0000   0.3326
   6.900   1.1645   0.01711   0.00898  -0.1030  0.0117  0.5799  -3.1753   0.0000   0.0000   0.0000   0.3312
   7.000   1.1715   0.01746   0.00938  -0.1022  0.0121  0.5802  -3.2605   0.0000   0.0000   0.0000   0.3299
   7.100   1.1783   0.01780   0.00977  -0.1013  0.0127  0.5804  -3.3456   0.0000   0.0000   0.0000   0.3285
   7.200   1.1849   0.01816   0.01019  -0.1004  0.0134  0.5807  -3.4282   0.0000   0.0000   0.0000   0.3271
   7.300   1.1909   0.01856   0.01066  -0.0994  0.0144  0.5810  -3.5035   0.0000   0.0000   0.0000   0.3257
   7.400   1.1956   0.01907   0.01128  -0.0981  0.0156  0.5813  -3.5596   0.0000   0.0000   0.0000   0.3242
   7.500   1.1975   0.01991   0.01230  -0.0960  0.0176  0.5815  -3.5519   0.0000   0.0000   0.0000   0.3222
   7.600   1.1973   0.02141   0.01407  -0.0932  0.0208  0.5818  -3.4762   0.0000   0.0000   0.0000   0.3197
   9.900   1.2123   0.05774   0.05356  -0.0578  0.0341  0.5889  -3.7003   0.0000   0.0000   0.0000   0.2869
  10.000   1.2044   0.05868   0.05455  -0.0560  0.0340  0.5892  -3.6993   0.0000   0.0000   0.0000   0.2856
  10.100   1.1969   0.05972   0.05564  -0.0545  0.0338  0.5896  -3.6987   0.0000   0.0000   0.0000   0.2845
  10.200   1.1891   0.06080   0.05677  -0.0530  0.0337  0.5900  -3.6963   0.0000   0.0000   0.0000   0.2834
  10.300   1.1808   0.06189   0.05791  -0.0518  0.0336  0.5903  -3.6907   0.0000   0.0000   0.0000   0.2825
  10.400   1.1730   0.06309   0.05915  -0.0507  0.0335  0.5907  -3.6862   0.0000   0.0000   0.0000   0.2817
  10.500   1.1656   0.06436   0.06048  -0.0497  0.0333  0.5911  -3.6820   0.0000   0.0000   0.0000   0.2811
  10.600   1.1582   0.06571   0.06187  -0.0490  0.0332  0.5915  -3.6769   0.0000   0.0000   0.0000   0.2806
  10.700   1.1497   0.06704   0.06326  -0.0483  0.0332  0.5919  -3.6657   0.0000   0.0000   0.0000   0.2802
  10.800   1.1408   0.06841   0.06467  -0.0478  0.0331  0.5923  -3.6510   0.0000   0.0000   0.0000   0.2799
  10.900   1.1326   0.06991   0.06622  -0.0475  0.0331  0.5928  -3.6385   0.0000   0.0000   0.0000   0.2798
  11.000   1.1249   0.07149   0.06785  -0.0473  0.0330  0.5933  -3.6263   0.0000   0.0000   0.0000   0.2797
  11.100   1.1173   0.07315   0.06956  -0.0472  0.0329  0.5938  -3.6130   0.0000   0.0000   0.0000   0.2798
  11.200   1.1095   0.07486   0.07132  -0.0473  0.0328  0.5943  -3.5978   0.0000   0.0000   0.0000   0.2801
  11.300   1.1004   0.07656   0.07307  -0.0476  0.0328  0.5948  -3.5779   0.0000   0.0000   0.0000   0.2805
  11.400   1.0919   0.07836   0.07491  -0.0480  0.0327  0.5954  -3.5590   0.0000   0.0000   0.0000   0.2811
  11.500   1.0841   0.08026   0.07686  -0.0486  0.0327  0.5960  -3.5414   0.0000   0.0000   0.0000   0.2818
  11.600   1.0764   0.08223   0.07887  -0.0493  0.0326  0.5966  -3.5228   0.0000   0.0000   0.0000   0.2826
  13.300   0.9248   0.13889   0.13579  -0.0847  0.0261  0.6169  -2.4773   0.0000   0.0000   0.0000   0.3271
  13.400   0.9219   0.14239   0.13931  -0.0866  0.0261  0.6188  -2.4225   0.0000   0.0000   0.0000   0.3294
  13.500   0.9196   0.14588   0.14281  -0.0884  0.0261  0.6210  -2.3676   0.0000   0.0000   0.0000   0.3316
  13.600   0.9178   0.14916   0.14610  -0.0900  0.0261  0.6237  -2.3187   0.0000   0.0000   0.0000   0.3336
  13.700   0.9165   0.15220   0.14915  -0.0915  0.0261  0.6270  -2.2777   0.0000   0.0000   0.0000   0.3353
  13.800   0.9157   0.15502   0.15198  -0.0930  0.0261  0.6309  -2.2434   0.0000   0.0000   0.0000   0.3369
  13.900   0.9153   0.15763   0.15461  -0.0943  0.0260  0.6358  -2.2160   0.0000   0.0000   0.0000   0.3384
  14.000   0.9156   0.15991   0.15691  -0.0955  0.0259  0.6411  -2.1994   0.0000   0.0000   0.0000   0.3396


