xflr5 v6.61

 Calculated polar for: FX 61-140 AIRFOIL

 1 1 Reynolds number fixed          Mach number fixed         

 xtrf =   1.000 (top)        1.000 (bottom)
 Mach =   0.000     Re =     0.688 e 6     Ncrit =   9.000

  alpha     CL        CD       CDp       Cm    Top Xtr Bot Xtr   Cpmin    Chinge    XCp    
 ------- -------- --------- --------- -------- ------- ------- -------- --------- ---------
 -10.000  -0.3911   0.09339   0.09146  -0.0393  1.0000  0.0097  -2.5330   0.0000   0.0000   0.0000   0.1352
  -9.900  -0.3920   0.09128   0.08936  -0.0402  1.0000  0.0097  -2.5739   0.0000   0.0000   0.0000   0.1333
  -9.800  -0.3932   0.08906   0.08715  -0.0412  1.0000  0.0097  -2.6192   0.0000   0.0000   0.0000   0.1314
  -9.700  -0.3945   0.08669   0.08479  -0.0423  1.0000  0.0097  -2.6710   0.0000   0.0000   0.0000   0.1291
  -9.600  -0.3961   0.08401   0.08212  -0.0436  1.0000  0.0097  -2.7350   0.0000   0.0000   0.0000   0.1262
  -9.500  -0.3983   0.08056   0.07868  -0.0458  1.0000  0.0097  -2.8293   0.0000   0.0000   0.0000   0.1215
  -9.400  -0.4020   0.07746   0.07556  -0.0478  1.0000  0.0097  -2.9134   0.0000   0.0000   0.0000   0.1178
  -9.300  -0.4069   0.07479   0.07287  -0.0495  1.0000  0.0097  -2.9826   0.0000   0.0000   0.0000   0.1153
  -9.200  -0.4126   0.07240   0.07046  -0.0509  1.0000  0.0097  -3.0426   0.0000   0.0000   0.0000   0.1138
  -9.100  -0.4187   0.07025   0.06830  -0.0520  1.0000  0.0097  -3.0953   0.0000   0.0000   0.0000   0.1133
  -9.000  -0.4254   0.06832   0.06634  -0.0529  1.0000  0.0097  -3.1420   0.0000   0.0000   0.0000   0.1135
  -8.900  -0.4325   0.06658   0.06459  -0.0534  1.0000  0.0097  -3.1837   0.0000   0.0000   0.0000   0.1146
  -8.800  -0.4399   0.06502   0.06301  -0.0537  1.0000  0.0097  -3.2211   0.0000   0.0000   0.0000   0.1164
  -8.700  -0.4476   0.06362   0.06159  -0.0537  1.0000  0.0097  -3.2549   0.0000   0.0000   0.0000   0.1188
  -8.600  -0.4558   0.06238   0.06033  -0.0534  1.0000  0.0097  -3.2857   0.0000   0.0000   0.0000   0.1220
  -8.500  -0.4646   0.06133   0.05926  -0.0527  1.0000  0.0097  -3.3137   0.0000   0.0000   0.0000   0.1261
  -6.900  -0.3880   0.01932   0.01464  -0.0800  0.9648  0.0050  -4.7794   0.0000   0.0000   0.0000   0.0337
  -6.800  -0.3740   0.01877   0.01402  -0.0807  0.9634  0.0048  -4.6727   0.0000   0.0000   0.0000   0.0239
  -6.700  -0.3596   0.01825   0.01345  -0.0815  0.9621  0.0048  -4.5556   0.0000   0.0000   0.0000   0.0129
  -6.600  -0.3514   0.01784   0.01299  -0.0810  0.9568  0.0047  -4.4653   0.0000   0.0000   0.0000   0.0090
  -6.500  -0.3393   0.01735   0.01246  -0.0813  0.9537  0.0046  -4.3583   0.0000   0.0000   0.0000  -0.0002
  -6.400  -0.3262   0.01683   0.01189  -0.0818  0.9512  0.0046  -4.2498   0.0000   0.0000   0.0000  -0.0115
  -6.300  -0.3121   0.01627   0.01128  -0.0825  0.9492  0.0046  -4.1419   0.0000   0.0000   0.0000  -0.0254
  -6.200  -0.3010   0.01573   0.01069  -0.0826  0.9445  0.0045  -4.0528   0.0000   0.0000   0.0000  -0.0355
  -6.100  -0.2880   0.01510   0.01000  -0.0831  0.9403  0.0045  -3.9646   0.0000   0.0000   0.0000  -0.0497
  -6.000  -0.2730   0.01433   0.00917  -0.0841  0.9371  0.0045  -3.8959   0.0000   0.0000   0.0000  -0.0695
  -5.900  -0.2560   0.01338   0.00812  -0.0856  0.9343  0.0045  -3.8487   0.0000   0.0000   0.0000  -0.0963
  -5.800  -0.2382   0.01207   0.00664  -0.0876  0.9300  0.0049  -3.8719   0.0000   0.0000   0.0000  -0.1302
  -5.700  -0.2177   0.01121   0.00567  -0.0901  0.9250  0.0056  -3.8236   0.0000   0.0000   0.0000  -0.1773
  -5.600  -0.1948   0.01083   0.00527  -0.0929  0.9206  0.0067  -3.6755   0.0000   0.0000   0.0000  -0.2412
  -5.500  -0.1713   0.01060   0.00502  -0.0957  0.9162  0.0083  -3.5048   0.0000   0.0000   0.0000  -0.3244
  -5.400  -0.1513   0.01048   0.00487  -0.0977  0.9083  0.0095  -3.3352   0.0000   0.0000   0.0000  -0.4132
  -5.300  -0.1290   0.01000   0.00434  -0.1004  0.8996  0.0151  -3.2155   0.0000   0.0000   0.0000  -0.5480
  -5.200  -0.1107   0.00991   0.00420  -0.1021  0.8887  0.0166  -3.0443   0.0000   0.0000   0.0000  -0.6943
  -5.000  -0.0790   0.00964   0.00378  -0.1043  0.8630  0.0200  -2.7529   0.0000   0.0000   0.0000  -1.1005
  -4.900  -0.0655   0.00954   0.00365  -0.1050  0.8499  0.0231  -2.6149   0.0000   0.0000   0.0000  -1.3871
  -4.800  -0.0535   0.00950   0.00355  -0.1053  0.8360  0.0256  -2.4825   0.0000   0.0000   0.0000  -1.7575
  -4.700  -0.0418   0.00943   0.00343  -0.1055  0.8234  0.0297  -2.3600   0.0000   0.0000   0.0000  -2.3218
  -4.600  -0.0305   0.00933   0.00332  -0.1057  0.8101  0.0361  -2.2422   0.0000   0.0000   0.0000  -3.2849
  -4.500  -0.0190   0.00919   0.00318  -0.1059  0.7983  0.0487  -2.1525   0.0000   0.0000   0.0000  -5.4293
  -4.400  -0.0069   0.00888   0.00300  -0.1065  0.7860  0.0862  -2.0619   0.0000   0.0000   0.0000  -15.3630
  -4.300   0.0064   0.00836   0.00275  -0.1078  0.7749  0.1676  -1.9661   0.0000   0.0000   0.0000  17.2750
  -4.200   0.0210   0.00779   0.00250  -0.1094  0.7643  0.2594  -1.8653   0.0000   0.0000   0.0000   5.5352
  -4.100   0.0358   0.00730   0.00229  -0.1109  0.7537  0.3498  -1.7638   0.0000   0.0000   0.0000   3.3944
  -4.000   0.0505   0.00694   0.00214  -0.1122  0.7450  0.4221  -1.6633   0.0000   0.0000   0.0000   2.5051
  -3.900   0.0641   0.00674   0.00203  -0.1130  0.7361  0.4717  -1.5718   0.0000   0.0000   0.0000   2.0395
  -3.800   0.0762   0.00667   0.00199  -0.1134  0.7269  0.5002  -1.4815   0.0000   0.0000   0.0000   1.7585
  -3.700   0.0882   0.00662   0.00197  -0.1137  0.7188  0.5235  -1.3927   0.0000   0.0000   0.0000   1.5550
  -3.600   0.1002   0.00660   0.00196  -0.1139  0.7114  0.5404  -1.3054   0.0000   0.0000   0.0000   1.4003
  -3.500   0.1119   0.00660   0.00197  -0.1141  0.7033  0.5571  -1.2208   0.0000   0.0000   0.0000   1.2811
  -3.400   0.1231   0.00663   0.00196  -0.1141  0.6952  0.5682  -1.1393   0.0000   0.0000   0.0000   1.1869
  -3.300   0.1346   0.00665   0.00199  -0.1142  0.6884  0.5803  -1.0582   0.0000   0.0000   0.0000   1.1072
  -3.200   0.1462   0.00668   0.00200  -0.1143  0.6821  0.5898  -0.9783   0.0000   0.0000   0.0000   1.0395
  -3.100   0.1577   0.00672   0.00199  -0.1143  0.6752  0.5966  -0.9004   0.0000   0.0000   0.0000   0.9821
  -3.000   0.1687   0.00677   0.00203  -0.1143  0.6682  0.6056  -0.8251   0.0000   0.0000   0.0000   0.9335
  -2.800   0.1908   0.00697   0.00220  -0.1141  0.6559  0.6259  -0.6784   0.0000   0.0000   0.0000   0.8529
  -2.700   0.2021   0.00705   0.00225  -0.1141  0.6501  0.6323  -0.6065   0.0000   0.0000   0.0000   0.8188
  -2.600   0.2128   0.00710   0.00230  -0.1139  0.6438  0.6372  -0.6074   0.0000   0.0000   0.0000   0.7891
  -2.500   0.2236   0.00718   0.00234  -0.1138  0.6373  0.6402  -0.6161   0.0000   0.0000   0.0000   0.7624
  -2.300   0.2456   0.00731   0.00241  -0.1137  0.6258  0.6453  -0.6339   0.0000   0.0000   0.0000   0.7155
  -2.200   0.2569   0.00736   0.00244  -0.1137  0.6211  0.6478  -0.6431   0.0000   0.0000   0.0000   0.6948
  -2.100   0.2682   0.00741   0.00246  -0.1137  0.6161  0.6500  -0.6522   0.0000   0.0000   0.0000   0.6759
  -2.000   0.2795   0.00746   0.00245  -0.1137  0.6109  0.6519  -0.6614   0.0000   0.0000   0.0000   0.6585
  -1.900   0.2907   0.00752   0.00246  -0.1138  0.6055  0.6537  -0.6705   0.0000   0.0000   0.0000   0.6427
  -1.700   0.3133   0.00764   0.00249  -0.1138  0.5954  0.6571  -0.6888   0.0000   0.0000   0.0000   0.6142
  -1.600   0.3249   0.00768   0.00251  -0.1139  0.5918  0.6585  -0.6982   0.0000   0.0000   0.0000   0.6013
  -1.500   0.3365   0.00773   0.00252  -0.1140  0.5877  0.6597  -0.7076   0.0000   0.0000   0.0000   0.5893
  -1.400   0.3480   0.00778   0.00254  -0.1141  0.5832  0.6606  -0.7169   0.0000   0.0000   0.0000   0.5781
  -1.300   0.3595   0.00777   0.00251  -0.1142  0.5787  0.6626  -0.7263   0.0000   0.0000   0.0000   0.5678
  -1.200   0.3707   0.00779   0.00249  -0.1143  0.5742  0.6647  -0.7355   0.0000   0.0000   0.0000   0.5581
  -1.100   0.3817   0.00783   0.00250  -0.1143  0.5694  0.6664  -0.7446   0.0000   0.0000   0.0000   0.5491
  -1.000   0.3928   0.00787   0.00253  -0.1143  0.5649  0.6680  -0.7537   0.0000   0.0000   0.0000   0.5404
  -0.900   0.4043   0.00789   0.00255  -0.1144  0.5627  0.6694  -0.7631   0.0000   0.0000   0.0000   0.5322
  -0.800   0.4157   0.00792   0.00257  -0.1144  0.5601  0.6708  -0.7725   0.0000   0.0000   0.0000   0.5244
  -0.700   0.4271   0.00796   0.00260  -0.1144  0.5571  0.6721  -0.7819   0.0000   0.0000   0.0000   0.5170
  -0.600   0.4383   0.00799   0.00263  -0.1145  0.5539  0.6735  -0.7912   0.0000   0.0000   0.0000   0.5101
  -0.500   0.4496   0.00804   0.00266  -0.1145  0.5506  0.6748  -0.8006   0.0000   0.0000   0.0000   0.5034
  -0.400   0.4608   0.00809   0.00269  -0.1145  0.5472  0.6762  -0.8099   0.0000   0.0000   0.0000   0.4972
  -0.300   0.4719   0.00814   0.00271  -0.1145  0.5436  0.6775  -0.8192   0.0000   0.0000   0.0000   0.4912
  -0.200   0.4831   0.00820   0.00274  -0.1145  0.5397  0.6788  -0.8285   0.0000   0.0000   0.0000   0.4855
  -0.100   0.4942   0.00826   0.00277  -0.1146  0.5354  0.6800  -0.8377   0.0000   0.0000   0.0000   0.4801
   0.000   0.5056   0.00830   0.00280  -0.1146  0.5321  0.6812  -0.8471   0.0000   0.0000   0.0000   0.4749
   0.100   0.5173   0.00832   0.00282  -0.1148  0.5305  0.6824  -0.8568   0.0000   0.0000   0.0000   0.4699
   0.200   0.5289   0.00834   0.00284  -0.1149  0.5286  0.6835  -0.8670   0.0000   0.0000   0.0000   0.4652
   0.300   0.5405   0.00837   0.00286  -0.1150  0.5263  0.6846  -0.8775   0.0000   0.0000   0.0000   0.4606
   0.400   0.5521   0.00840   0.00288  -0.1151  0.5237  0.6858  -0.8880   0.0000   0.0000   0.0000   0.4562
   0.500   0.5635   0.00844   0.00291  -0.1152  0.5208  0.6869  -0.8992   0.0000   0.0000   0.0000   0.4521
   0.600   0.5749   0.00848   0.00294  -0.1153  0.5178  0.6879  -0.9106   0.0000   0.0000   0.0000   0.4480
   0.700   0.5863   0.00854   0.00297  -0.1153  0.5146  0.6889  -0.9219   0.0000   0.0000   0.0000   0.4442
   0.800   0.5975   0.00860   0.00300  -0.1154  0.5112  0.6897  -0.9333   0.0000   0.0000   0.0000   0.4404
   0.900   0.6086   0.00867   0.00304  -0.1154  0.5075  0.6905  -0.9445   0.0000   0.0000   0.0000   0.4368
   1.000   0.6197   0.00875   0.00309  -0.1154  0.5033  0.6911  -0.9557   0.0000   0.0000   0.0000   0.4334
   1.100   0.6313   0.00878   0.00310  -0.1156  0.4997  0.6924  -0.9672   0.0000   0.0000   0.0000   0.4301
   1.200   0.6432   0.00874   0.00307  -0.1158  0.4984  0.6943  -0.9790   0.0000   0.0000   0.0000   0.4270
   1.300   0.6548   0.00872   0.00307  -0.1160  0.4968  0.6957  -0.9907   0.0000   0.0000   0.0000   0.4239
   1.400   0.6663   0.00873   0.00308  -0.1161  0.4949  0.6969  -1.0024   0.0000   0.0000   0.0000   0.4209
   1.500   0.6778   0.00874   0.00310  -0.1162  0.4926  0.6979  -1.0140   0.0000   0.0000   0.0000   0.4180
   1.600   0.6892   0.00877   0.00313  -0.1162  0.4901  0.6988  -1.0256   0.0000   0.0000   0.0000   0.4152
   1.700   0.7005   0.00879   0.00316  -0.1163  0.4875  0.6997  -1.0371   0.0000   0.0000   0.0000   0.4124
   1.800   0.7117   0.00883   0.00319  -0.1163  0.4850  0.7006  -1.0487   0.0000   0.0000   0.0000   0.4098
   1.900   0.7229   0.00887   0.00325  -0.1164  0.4824  0.7015  -1.0602   0.0000   0.0000   0.0000   0.4072
   2.000   0.7340   0.00892   0.00328  -0.1164  0.4798  0.7024  -1.0717   0.0000   0.0000   0.0000   0.4047
   2.100   0.7451   0.00897   0.00332  -0.1164  0.4769  0.7033  -1.0832   0.0000   0.0000   0.0000   0.4023
   2.200   0.7562   0.00903   0.00337  -0.1164  0.4737  0.7042  -1.0946   0.0000   0.0000   0.0000   0.3999
   2.300   0.7672   0.00910   0.00342  -0.1164  0.4702  0.7051  -1.1060   0.0000   0.0000   0.0000   0.3976
   2.400   0.7783   0.00917   0.00348  -0.1165  0.4671  0.7060  -1.1174   0.0000   0.0000   0.0000   0.3954
   2.500   0.7898   0.00918   0.00351  -0.1166  0.4661  0.7069  -1.1293   0.0000   0.0000   0.0000   0.3932
   2.600   0.8013   0.00920   0.00354  -0.1167  0.4648  0.7079  -1.1411   0.0000   0.0000   0.0000   0.3911
   2.700   0.8128   0.00922   0.00358  -0.1168  0.4634  0.7088  -1.1530   0.0000   0.0000   0.0000   0.3891
   2.800   0.8243   0.00925   0.00361  -0.1169  0.4617  0.7097  -1.1649   0.0000   0.0000   0.0000   0.3871
   2.900   0.8358   0.00927   0.00364  -0.1170  0.4596  0.7106  -1.1768   0.0000   0.0000   0.0000   0.3852
   3.000   0.8470   0.00930   0.00365  -0.1170  0.4542  0.7116  -1.1889   0.0000   0.0000   0.0000   0.3833
   3.100   0.8574   0.00937   0.00366  -0.1169  0.4447  0.7126  -1.2006   0.0000   0.0000   0.0000   0.3814
   3.200   0.8678   0.00947   0.00369  -0.1168  0.4330  0.7136  -1.2128   0.0000   0.0000   0.0000   0.3796
   3.300   0.8789   0.00949   0.00369  -0.1169  0.4224  0.7146  -1.2273   0.0000   0.0000   0.0000   0.3778
   3.400   0.8889   0.00963   0.00372  -0.1167  0.4081  0.7155  -1.2408   0.0000   0.0000   0.0000   0.3760
   3.500   0.8998   0.00971   0.00376  -0.1167  0.3996  0.7164  -1.2549   0.0000   0.0000   0.0000   0.3743
   3.600   0.9123   0.00967   0.00386  -0.1170  0.4124  0.7173  -1.2697   0.0000   0.0000   0.0000   0.3727
   3.700   0.9228   0.00978   0.00392  -0.1169  0.4039  0.7180  -1.2834   0.0000   0.0000   0.0000   0.3711
   3.800   0.9340   0.00982   0.00395  -0.1170  0.3964  0.7187  -1.2980   0.0000   0.0000   0.0000   0.3695
   3.900   0.9451   0.00988   0.00399  -0.1170  0.3899  0.7193  -1.3124   0.0000   0.0000   0.0000   0.3680
   4.000   0.9558   0.00997   0.00404  -0.1170  0.3824  0.7198  -1.3265   0.0000   0.0000   0.0000   0.3665
   4.100   0.9663   0.01009   0.00410  -0.1170  0.3740  0.7203  -1.3403   0.0000   0.0000   0.0000   0.3650
   4.200   0.9772   0.01016   0.00416  -0.1170  0.3680  0.7207  -1.3546   0.0000   0.0000   0.0000   0.3636
   4.300   0.9883   0.01022   0.00421  -0.1170  0.3618  0.7211  -1.3690   0.0000   0.0000   0.0000   0.3621
   4.400   0.9993   0.01029   0.00422  -0.1171  0.3524  0.7223  -1.3835   0.0000   0.0000   0.0000   0.3608
   4.500   1.0096   0.01041   0.00426  -0.1171  0.3397  0.7238  -1.3992   0.0000   0.0000   0.0000   0.3595
   4.600   1.0204   0.01048   0.00430  -0.1171  0.3297  0.7251  -1.4413   0.0000   0.0000   0.0000   0.3582
   4.700   1.0297   0.01069   0.00440  -0.1169  0.3108  0.7262  -1.4809   0.0000   0.0000   0.0000   0.3568
   4.800   1.0393   0.01088   0.00450  -0.1168  0.2922  0.7273  -1.5208   0.0000   0.0000   0.0000   0.3555
   4.900   1.0480   0.01118   0.00465  -0.1165  0.2679  0.7282  -1.5588   0.0000   0.0000   0.0000   0.3542
   5.000   1.0552   0.01162   0.00488  -0.1159  0.2324  0.7291  -1.5937   0.0000   0.0000   0.0000   0.3528
   5.100   1.0613   0.01220   0.00519  -0.1153  0.1896  0.7300  -1.6259   0.0000   0.0000   0.0000   0.3515
   5.200   1.0655   0.01298   0.00565  -0.1143  0.1343  0.7308  -1.6789   0.0000   0.0000   0.0000   0.3501
   5.300   1.0695   0.01379   0.00615  -0.1134  0.0828  0.7316  -1.7439   0.0000   0.0000   0.0000   0.3486
   5.400   1.0711   0.01485   0.00685  -0.1120  0.0183  0.7324  -1.7971   0.0000   0.0000   0.0000   0.3471
   5.500   1.0793   0.01520   0.00714  -0.1115  0.0043  0.7331  -1.8855   0.0000   0.0000   0.0000   0.3457
   5.600   1.0894   0.01534   0.00731  -0.1114  0.0038  0.7339  -2.0124   0.0000   0.0000   0.0000   0.3445
   5.700   1.0995   0.01546   0.00744  -0.1113  0.0035  0.7346  -2.1270   0.0000   0.0000   0.0000   0.3434
   5.800   1.1096   0.01559   0.00758  -0.1111  0.0034  0.7354  -2.2353   0.0000   0.0000   0.0000   0.3422
   5.900   1.1198   0.01572   0.00773  -0.1110  0.0032  0.7362  -2.3424   0.0000   0.0000   0.0000   0.3411
   6.000   1.1299   0.01585   0.00787  -0.1109  0.0031  0.7370  -2.4493   0.0000   0.0000   0.0000   0.3400
   6.100   1.1400   0.01598   0.00802  -0.1108  0.0031  0.7377  -2.5565   0.0000   0.0000   0.0000   0.3389
   6.200   1.1500   0.01610   0.00817  -0.1107  0.0030  0.7385  -2.6641   0.0000   0.0000   0.0000   0.3378
   6.300   1.1601   0.01624   0.00833  -0.1105  0.0030  0.7393  -2.7720   0.0000   0.0000   0.0000   0.3367
   6.400   1.1701   0.01637   0.00849  -0.1104  0.0030  0.7401  -2.8801   0.0000   0.0000   0.0000   0.3357
   6.500   1.1800   0.01651   0.00866  -0.1102  0.0030  0.7409  -2.9883   0.0000   0.0000   0.0000   0.3346
   6.600   1.1899   0.01666   0.00883  -0.1101  0.0030  0.7417  -3.0966   0.0000   0.0000   0.0000   0.3336
   6.700   1.1996   0.01681   0.00902  -0.1099  0.0030  0.7424  -3.2047   0.0000   0.0000   0.0000   0.3325
   6.800   1.2094   0.01697   0.00921  -0.1097  0.0030  0.7432  -3.3123   0.0000   0.0000   0.0000   0.3315
   6.900   1.2190   0.01714   0.00940  -0.1095  0.0030  0.7439  -3.4193   0.0000   0.0000   0.0000   0.3305
   7.000   1.2285   0.01731   0.00961  -0.1093  0.0030  0.7446  -3.5253   0.0000   0.0000   0.0000   0.3295
   7.100   1.2378   0.01750   0.00983  -0.1090  0.0030  0.7453  -3.6300   0.0000   0.0000   0.0000   0.3285
   7.200   1.2469   0.01770   0.01006  -0.1087  0.0031  0.7460  -3.7329   0.0000   0.0000   0.0000   0.3274
   7.300   1.2559   0.01792   0.01031  -0.1084  0.0031  0.7468  -3.8342   0.0000   0.0000   0.0000   0.3264
   7.400   1.2647   0.01815   0.01058  -0.1080  0.0031  0.7475  -3.9340   0.0000   0.0000   0.0000   0.3254
   7.500   1.2732   0.01839   0.01086  -0.1076  0.0032  0.7481  -4.0322   0.0000   0.0000   0.0000   0.3244
   7.600   1.2816   0.01864   0.01118  -0.1072  0.0032  0.7487  -4.1255   0.0000   0.0000   0.0000   0.3233
   7.700   1.2896   0.01893   0.01151  -0.1067  0.0033  0.7492  -4.2190   0.0000   0.0000   0.0000   0.3223
   7.800   1.2973   0.01924   0.01187  -0.1061  0.0033  0.7496  -4.3105   0.0000   0.0000   0.0000   0.3212
   7.900   1.3046   0.01956   0.01225  -0.1055  0.0034  0.7500  -4.3993   0.0000   0.0000   0.0000   0.3202
   8.000   1.3120   0.01989   0.01263  -0.1050  0.0035  0.7513  -4.4871   0.0000   0.0000   0.0000   0.3192
   8.100   1.3188   0.02026   0.01305  -0.1043  0.0035  0.7524  -4.5701   0.0000   0.0000   0.0000   0.3181
   8.200   1.3248   0.02065   0.01351  -0.1036  0.0036  0.7534  -4.6481   0.0000   0.0000   0.0000   0.3170
   8.300   1.3302   0.02109   0.01401  -0.1027  0.0037  0.7544  -4.7207   0.0000   0.0000   0.0000   0.3159
   8.400   1.3348   0.02156   0.01455  -0.1017  0.0037  0.7553  -4.7875   0.0000   0.0000   0.0000   0.3148
   8.500   1.3386   0.02207   0.01513  -0.1005  0.0038  0.7561  -4.8484   0.0000   0.0000   0.0000   0.3136
   8.600   1.3414   0.02262   0.01575  -0.0993  0.0039  0.7569  -4.9021   0.0000   0.0000   0.0000   0.3123
   8.700   1.3424   0.02319   0.01638  -0.0977  0.0040  0.7577  -4.9458   0.0000   0.0000   0.0000   0.3109
   8.800   1.3415   0.02377   0.01703  -0.0958  0.0040  0.7585  -4.9796   0.0000   0.0000   0.0000   0.3094
   8.900   1.3403   0.02443   0.01776  -0.0939  0.0041  0.7593  -5.0080   0.0000   0.0000   0.0000   0.3079
   9.000   1.3381   0.02517   0.01857  -0.0919  0.0042  0.7602  -5.0283   0.0000   0.0000   0.0000   0.3064
   9.100   1.3347   0.02600   0.01947  -0.0899  0.0042  0.7611  -5.0382   0.0000   0.0000   0.0000   0.3049
   9.200   1.3297   0.02697   0.02052  -0.0877  0.0043  0.7620  -5.0328   0.0000   0.0000   0.0000   0.3034
   9.300   1.3210   0.02827   0.02190  -0.0853  0.0044  0.7629  -4.9875   0.0000   0.0000   0.0000   0.3018
   9.400   1.3223   0.02890   0.02258  -0.0841  0.0045  0.7638  -5.0427   0.0000   0.0000   0.0000   0.3007
   9.500   1.3296   0.02909   0.02278  -0.0838  0.0046  0.7647  -5.1620   0.0000   0.0000   0.0000   0.2999
   9.600   1.3364   0.02934   0.02304  -0.0833  0.0047  0.7655  -5.2756   0.0000   0.0000   0.0000   0.2991
   9.700   1.3424   0.02965   0.02337  -0.0828  0.0049  0.7664  -5.3815   0.0000   0.0000   0.0000   0.2983
   9.800   1.3474   0.03004   0.02380  -0.0822  0.0051  0.7671  -5.4763   0.0000   0.0000   0.0000   0.2975
   9.900   1.3512   0.03056   0.02435  -0.0815  0.0053  0.7679  -5.5548   0.0000   0.0000   0.0000   0.2966
  10.000   1.3528   0.03127   0.02512  -0.0806  0.0055  0.7686  -5.6018   0.0000   0.0000   0.0000   0.2957
  10.100   1.3495   0.03249   0.02644  -0.0791  0.0061  0.7692  -5.5616   0.0000   0.0000   0.0000   0.2946
  10.200   1.3405   0.03446   0.02854  -0.0769  0.0070  0.7698  -5.4116   0.0000   0.0000   0.0000   0.2931
  10.300   1.3354   0.03671   0.03090  -0.0746  0.0083  0.7701  -5.2523   0.0000   0.0000   0.0000   0.2915
  16.200   1.0485   0.19744   0.19574  -0.1320  0.0164  0.7973  -3.1096   0.0000   0.0000   0.0000   0.3535
  16.300   1.0500   0.20072   0.19902  -0.1336  0.0159  0.7978  -3.0596   0.0000   0.0000   0.0000   0.3548
  16.400   1.0504   0.20401   0.20230  -0.1352  0.0155  0.7983  -3.0042   0.0000   0.0000   0.0000   0.3562
  16.500   1.0505   0.20727   0.20556  -0.1368  0.0151  0.7988  -2.9489   0.0000   0.0000   0.0000   0.3577
  16.600   1.0504   0.21052   0.20880  -0.1384  0.0148  0.7992  -2.8934   0.0000   0.0000   0.0000   0.3592
  16.700   1.0503   0.21367   0.21195  -0.1400  0.0144  0.7997  -2.8423   0.0000   0.0000   0.0000   0.3606
  16.800   1.0504   0.21665   0.21493  -0.1415  0.0141  0.8002  -2.7997   0.0000   0.0000   0.0000   0.3619
  16.900   1.0508   0.21949   0.21777  -0.1429  0.0138  0.8007  -2.7639   0.0000   0.0000   0.0000   0.3631
  17.000   1.0514   0.22221   0.22049  -0.1442  0.0136  0.8011  -2.7340   0.0000   0.0000   0.0000   0.3642
  17.100   1.0521   0.22484   0.22311  -0.1456  0.0133  0.8016  -2.7092   0.0000   0.0000   0.0000   0.3653
  17.200   1.0530   0.22737   0.22564  -0.1468  0.0131  0.8021  -2.6892   0.0000   0.0000   0.0000   0.3662
  17.300   1.0541   0.22983   0.22810  -0.1480  0.0129  0.8026  -2.6735   0.0000   0.0000   0.0000   0.3671
  17.400   1.0553   0.23221   0.23048  -0.1492  0.0127  0.8031  -2.6617   0.0000   0.0000   0.0000   0.3679
  17.500   1.0567   0.23452   0.23279  -0.1503  0.0125  0.8035  -2.6538   0.0000   0.0000   0.0000   0.3686
  17.600   1.0581   0.23677   0.23504  -0.1514  0.0123  0.8040  -2.6495   0.0000   0.0000   0.0000   0.3693
  19.200   1.0743   0.27615   0.27447  -0.1680  0.0097  0.8178  -2.4538   0.0000   0.0000   0.0000   0.3801
  19.300   1.0760   0.27872   0.27704  -0.1691  0.0097  0.8187  -2.4342   0.0000   0.0000   0.0000   0.3807
  19.400   1.0778   0.28128   0.27960  -0.1701  0.0097  0.8197  -2.4153   0.0000   0.0000   0.0000   0.3812
  19.500   1.0795   0.28382   0.28215  -0.1711  0.0097  0.8206  -2.3970   0.0000   0.0000   0.0000   0.3818
  19.600   1.0813   0.28635   0.28469  -0.1722  0.0096  0.8216  -2.3798   0.0000   0.0000   0.0000   0.3823
  19.700   1.0831   0.28886   0.28722  -0.1732  0.0096  0.8225  -2.3639   0.0000   0.0000   0.0000   0.3828
  19.800   1.0850   0.29134   0.28970  -0.1742  0.0096  0.8235  -2.3493   0.0000   0.0000   0.0000   0.3833
  19.900   1.0869   0.29379   0.29215  -0.1752  0.0096  0.8244  -2.3362   0.0000   0.0000   0.0000   0.3838
  20.000   1.0889   0.29620   0.29456  -0.1762  0.0095  0.8254  -2.3250   0.0000   0.0000   0.0000   0.3843
  20.100   1.0911   0.29855   0.29691  -0.1772  0.0095  0.8263  -2.3164   0.0000   0.0000   0.0000   0.3847
  20.200   1.0935   0.30080   0.29917  -0.1782  0.0094  0.8273  -2.3115   0.0000   0.0000   0.0000   0.3851
  20.300   1.0963   0.30293   0.30130  -0.1792  0.0092  0.8283  -2.3103   0.0000   0.0000   0.0000   0.3854
  20.400   1.0989   0.30542   0.30380  -0.1804  0.0089  0.8291  -2.2865   0.0000   0.0000   0.0000   0.3860
  21.900   1.1230   0.34174   0.34024  -0.1939  0.0057  0.8523  -2.2290   0.0000   0.0000   0.0000   0.3918


