xflr5 v6.61

 Calculated polar for: FX 61-140 AIRFOIL

 1 1 Reynolds number fixed          Mach number fixed         

 xtrf =   1.000 (top)        1.000 (bottom)
 Mach =   0.000     Re =     0.300 e 6     Ncrit =   9.000

  alpha     CL        CD       CDp       Cm    Top Xtr Bot Xtr   Cpmin    Chinge    XCp    
 ------- -------- --------- --------- -------- ------- ------- -------- --------- ---------
 -10.000  -0.3950   0.09738   0.09451  -0.0392  1.0000  0.0206  -2.1018   0.0000   0.0000   0.0000   0.1369
  -9.900  -0.3959   0.09561   0.09276  -0.0399  1.0000  0.0207  -2.1211   0.0000   0.0000   0.0000   0.1356
  -9.800  -0.3971   0.09381   0.09097  -0.0406  1.0000  0.0209  -2.1428   0.0000   0.0000   0.0000   0.1342
  -9.700  -0.3984   0.09195   0.08913  -0.0414  1.0000  0.0210  -2.1669   0.0000   0.0000   0.0000   0.1328
  -9.600  -0.4001   0.09004   0.08723  -0.0422  1.0000  0.0211  -2.1940   0.0000   0.0000   0.0000   0.1314
  -9.500  -0.4022   0.08805   0.08527  -0.0431  1.0000  0.0212  -2.2243   0.0000   0.0000   0.0000   0.1299
  -9.400  -0.4046   0.08598   0.08321  -0.0441  1.0000  0.0213  -2.2587   0.0000   0.0000   0.0000   0.1283
  -9.300  -0.4074   0.08375   0.08100  -0.0452  1.0000  0.0213  -2.2986   0.0000   0.0000   0.0000   0.1264
  -9.200  -0.4109   0.08129   0.07856  -0.0466  1.0000  0.0213  -2.3476   0.0000   0.0000   0.0000   0.1242
  -9.100  -0.4159   0.07832   0.07560  -0.0486  1.0000  0.0213  -2.4160   0.0000   0.0000   0.0000   0.1209
  -9.000  -0.4227   0.07520   0.07249  -0.0509  1.0000  0.0212  -2.4944   0.0000   0.0000   0.0000   0.1178
  -8.900  -0.4304   0.07261   0.06990  -0.0525  1.0000  0.0211  -2.5608   0.0000   0.0000   0.0000   0.1165
  -8.800  -0.4388   0.07037   0.06764  -0.0536  1.0000  0.0210  -2.6199   0.0000   0.0000   0.0000   0.1166
  -8.700  -0.4476   0.06841   0.06568  -0.0543  1.0000  0.0209  -2.6721   0.0000   0.0000   0.0000   0.1178
  -8.600  -0.4570   0.06673   0.06399  -0.0546  1.0000  0.0208  -2.7185   0.0000   0.0000   0.0000   0.1201
  -8.500  -0.4669   0.06530   0.06255  -0.0544  1.0000  0.0208  -2.7603   0.0000   0.0000   0.0000   0.1233
  -8.400  -0.4776   0.06411   0.06135  -0.0537  1.0000  0.0207  -2.7986   0.0000   0.0000   0.0000   0.1276
  -8.300  -0.4890   0.06316   0.06040  -0.0526  1.0000  0.0206  -2.8341   0.0000   0.0000   0.0000   0.1329
  -8.200  -0.5009   0.06235   0.05959  -0.0512  1.0000  0.0205  -2.8676   0.0000   0.0000   0.0000   0.1385
  -8.100  -0.5104   0.06126   0.05849  -0.0506  1.0000  0.0205  -2.8970   0.0000   0.0000   0.0000   0.1420
  -8.000  -0.5184   0.06010   0.05731  -0.0502  1.0000  0.0205  -2.9222   0.0000   0.0000   0.0000   0.1446
  -7.900  -0.5256   0.05897   0.05615  -0.0497  1.0000  0.0205  -2.9431   0.0000   0.0000   0.0000   0.1470
  -7.800  -0.5321   0.05791   0.05507  -0.0490  1.0000  0.0206  -2.9596   0.0000   0.0000   0.0000   0.1497
  -7.700  -0.5380   0.05690   0.05403  -0.0482  1.0000  0.0206  -2.9728   0.0000   0.0000   0.0000   0.1524
  -6.600  -0.4090   0.03347   0.02872  -0.0702  0.9751  0.0166  -3.1909   0.0000   0.0000   0.0000   0.0695
  -6.500  -0.3989   0.02897   0.02394  -0.0721  0.9738  0.0138  -3.3507   0.0000   0.0000   0.0000   0.0602
  -6.400  -0.3865   0.02481   0.01912  -0.0714  0.9715  0.0105  -3.8237   0.0000   0.0000   0.0000   0.0561
  -6.300  -0.3727   0.02404   0.01823  -0.0719  0.9684  0.0103  -3.7752   0.0000   0.0000   0.0000   0.0477
  -6.200  -0.3579   0.02323   0.01732  -0.0727  0.9663  0.0102  -3.7170   0.0000   0.0000   0.0000   0.0373
  -6.100  -0.3429   0.02234   0.01631  -0.0736  0.9646  0.0101  -3.6648   0.0000   0.0000   0.0000   0.0257
  -6.000  -0.3279   0.02133   0.01520  -0.0744  0.9632  0.0101  -3.6258   0.0000   0.0000   0.0000   0.0133
  -5.900  -0.3133   0.02020   0.01397  -0.0750  0.9621  0.0102  -3.6041   0.0000   0.0000   0.0000   0.0003
  -5.800  -0.3038   0.01921   0.01291  -0.0747  0.9574  0.0104  -3.5965   0.0000   0.0000   0.0000  -0.0060
  -5.700  -0.2914   0.01819   0.01184  -0.0750  0.9546  0.0108  -3.5765   0.0000   0.0000   0.0000  -0.0177
  -5.600  -0.2770   0.01750   0.01110  -0.0758  0.9523  0.0116  -3.5043   0.0000   0.0000   0.0000  -0.0345
  -5.500  -0.2614   0.01698   0.01057  -0.0769  0.9504  0.0125  -3.4112   0.0000   0.0000   0.0000  -0.0550
  -5.400  -0.2452   0.01650   0.01007  -0.0780  0.9488  0.0137  -3.3232   0.0000   0.0000   0.0000  -0.0794
  -5.300  -0.2341   0.01609   0.00965  -0.0780  0.9432  0.0149  -3.2578   0.0000   0.0000   0.0000  -0.0949
  -5.200  -0.2198   0.01572   0.00924  -0.0787  0.9396  0.0164  -3.1752   0.0000   0.0000   0.0000  -0.1199
  -5.100  -0.2042   0.01488   0.00837  -0.0799  0.9369  0.0188  -3.1190   0.0000   0.0000   0.0000  -0.1538
  -5.000  -0.1875   0.01462   0.00816  -0.0813  0.9345  0.0229  -2.9559   0.0000   0.0000   0.0000  -0.1969
  -4.900  -0.1722   0.01428   0.00780  -0.0823  0.9303  0.0280  -2.8568   0.0000   0.0000   0.0000  -0.2420
  -4.800  -0.1571   0.01367   0.00723  -0.0835  0.9248  0.0338  -2.7714   0.0000   0.0000   0.0000  -0.2966
  -4.700  -0.1392   0.01342   0.00693  -0.0850  0.9210  0.0376  -2.6430   0.0000   0.0000   0.0000  -0.3765
  -4.600  -0.1184   0.01273   0.00625  -0.0875  0.9180  0.0442  -2.5153   0.0000   0.0000   0.0000  -0.5071
  -4.500  -0.0982   0.01235   0.00583  -0.0895  0.9142  0.0500  -2.3837   0.0000   0.0000   0.0000  -0.6823
  -4.400  -0.0797   0.01181   0.00531  -0.0913  0.9078  0.0630  -2.3039   0.0000   0.0000   0.0000  -0.9219
  -4.300  -0.0452   0.00924   0.00419  -0.0997  0.9053  0.3810  -2.1696   0.0000   0.0000   0.0000  -1.9978
  -4.200  -0.0214   0.00864   0.00411  -0.1029  0.9006  0.5109  -2.0294   0.0000   0.0000   0.0000  -4.6573
  -4.100  -0.0026   0.00859   0.00417  -0.1044  0.8940  0.5569  -1.9073   0.0000   0.0000   0.0000  -40.2221
  -4.000   0.0134   0.00865   0.00426  -0.1052  0.8847  0.5807  -1.7967   0.0000   0.0000   0.0000   8.2109
  -3.900   0.0328   0.00869   0.00421  -0.1068  0.8765  0.5982  -1.6761   0.0000   0.0000   0.0000   3.5538
  -3.800   0.0456   0.00884   0.00433  -0.1068  0.8652  0.6082  -1.5870   0.0000   0.0000   0.0000   2.6283
  -3.700   0.0610   0.00898   0.00439  -0.1074  0.8549  0.6170  -1.4831   0.0000   0.0000   0.0000   2.0360
  -3.600   0.0747   0.00907   0.00439  -0.1078  0.8432  0.6246  -1.3883   0.0000   0.0000   0.0000   1.7134
  -3.500   0.0880   0.00925   0.00448  -0.1080  0.8319  0.6328  -1.2955   0.0000   0.0000   0.0000   1.4939
  -3.400   0.0965   0.00959   0.00482  -0.1069  0.8204  0.6401  -1.2196   0.0000   0.0000   0.0000   1.3716
  -3.300   0.1055   0.01000   0.00520  -0.1058  0.8090  0.6486  -1.1428   0.0000   0.0000   0.0000   1.2651
  -3.200   0.1164   0.01036   0.00547  -0.1054  0.7985  0.6576  -1.0616   0.0000   0.0000   0.0000   1.1657
  -3.100   0.1267   0.01057   0.00561  -0.1049  0.7876  0.6629  -0.9848   0.0000   0.0000   0.0000   1.0872
  -2.900   0.1448   0.01090   0.00585  -0.1034  0.7688  0.6673  -0.8441   0.0000   0.0000   0.0000   0.9712
  -2.800   0.1542   0.01104   0.00594  -0.1028  0.7596  0.6693  -0.7747   0.0000   0.0000   0.0000   0.9230
  -2.700   0.1642   0.01120   0.00602  -0.1023  0.7514  0.6713  -0.7050   0.0000   0.0000   0.0000   0.8790
  -2.600   0.1741   0.01130   0.00608  -0.1019  0.7436  0.6734  -0.6370   0.0000   0.0000   0.0000   0.8405
  -2.500   0.1843   0.01139   0.00612  -0.1016  0.7356  0.6754  -0.5948   0.0000   0.0000   0.0000   0.8059
  -2.400   0.1949   0.01148   0.00614  -0.1014  0.7279  0.6776  -0.6029   0.0000   0.0000   0.0000   0.7744
  -2.300   0.2058   0.01158   0.00615  -0.1013  0.7209  0.6799  -0.6117   0.0000   0.0000   0.0000   0.7458
  -2.200   0.2168   0.01163   0.00616  -0.1013  0.7142  0.6826  -0.6205   0.0000   0.0000   0.0000   0.7202
  -2.100   0.2281   0.01168   0.00616  -0.1013  0.7073  0.6852  -0.6294   0.0000   0.0000   0.0000   0.6969
  -2.000   0.2400   0.01174   0.00615  -0.1016  0.7005  0.6879  -0.6387   0.0000   0.0000   0.0000   0.6754
  -1.900   0.2523   0.01182   0.00612  -0.1019  0.6941  0.6901  -0.6482   0.0000   0.0000   0.0000   0.6558
  -1.800   0.2644   0.01185   0.00605  -0.1022  0.6883  0.6918  -0.6576   0.0000   0.0000   0.0000   0.6381
  -1.700   0.2745   0.01180   0.00599  -0.1020  0.6824  0.6933  -0.6660   0.0000   0.0000   0.0000   0.6228
  -1.600   0.2844   0.01182   0.00598  -0.1016  0.6764  0.6946  -0.6743   0.0000   0.0000   0.0000   0.6085
  -1.500   0.2942   0.01187   0.00599  -0.1013  0.6705  0.6959  -0.6826   0.0000   0.0000   0.0000   0.5951
  -1.400   0.3041   0.01195   0.00601  -0.1009  0.6648  0.6971  -0.6910   0.0000   0.0000   0.0000   0.5825
  -1.300   0.3142   0.01203   0.00605  -0.1006  0.6594  0.6984  -0.6994   0.0000   0.0000   0.0000   0.5707
  -1.200   0.3244   0.01206   0.00607  -0.1004  0.6546  0.6997  -0.7079   0.0000   0.0000   0.0000   0.5596
  -1.100   0.3347   0.01210   0.00610  -0.1002  0.6495  0.7011  -0.7165   0.0000   0.0000   0.0000   0.5492
  -1.000   0.3451   0.01216   0.00612  -0.1000  0.6445  0.7026  -0.7251   0.0000   0.0000   0.0000   0.5395
  -0.900   0.3556   0.01222   0.00614  -0.0998  0.6397  0.7042  -0.7338   0.0000   0.0000   0.0000   0.5303
  -0.800   0.3662   0.01229   0.00616  -0.0997  0.6351  0.7059  -0.7426   0.0000   0.0000   0.0000   0.5216
  -0.600   0.3882   0.01240   0.00620  -0.0997  0.6265  0.7094  -0.7605   0.0000   0.0000   0.0000   0.5058
  -0.500   0.3995   0.01241   0.00620  -0.0998  0.6224  0.7112  -0.7697   0.0000   0.0000   0.0000   0.4986
  -0.400   0.4111   0.01242   0.00619  -0.0999  0.6180  0.7130  -0.7790   0.0000   0.0000   0.0000   0.4919
  -0.300   0.4229   0.01244   0.00617  -0.1002  0.6135  0.7147  -0.7884   0.0000   0.0000   0.0000   0.4855
  -0.200   0.4349   0.01247   0.00616  -0.1005  0.6091  0.7165  -0.7980   0.0000   0.0000   0.0000   0.4795
  -0.100   0.4470   0.01252   0.00615  -0.1008  0.6049  0.7182  -0.8077   0.0000   0.0000   0.0000   0.4738
   0.000   0.4593   0.01261   0.00616  -0.1012  0.6005  0.7198  -0.8174   0.0000   0.0000   0.0000   0.4685
   0.100   0.4718   0.01270   0.00621  -0.1016  0.5966  0.7212  -0.8274   0.0000   0.0000   0.0000   0.4634
   0.200   0.4823   0.01260   0.00613  -0.1015  0.5937  0.7228  -0.8370   0.0000   0.0000   0.0000   0.4584
   0.300   0.4926   0.01257   0.00611  -0.1013  0.5906  0.7241  -0.8465   0.0000   0.0000   0.0000   0.4535
   0.400   0.5029   0.01257   0.00612  -0.1011  0.5873  0.7252  -0.8561   0.0000   0.0000   0.0000   0.4488
   0.500   0.5133   0.01260   0.00614  -0.1009  0.5839  0.7264  -0.8657   0.0000   0.0000   0.0000   0.4443
   0.600   0.5237   0.01263   0.00617  -0.1008  0.5805  0.7274  -0.8754   0.0000   0.0000   0.0000   0.4400
   0.700   0.5342   0.01267   0.00619  -0.1006  0.5772  0.7286  -0.8858   0.0000   0.0000   0.0000   0.4358
   0.800   0.5447   0.01272   0.00622  -0.1005  0.5739  0.7298  -0.8965   0.0000   0.0000   0.0000   0.4319
   0.900   0.5552   0.01279   0.00626  -0.1004  0.5705  0.7311  -0.9071   0.0000   0.0000   0.0000   0.4280
   1.000   0.5660   0.01289   0.00631  -0.1003  0.5667  0.7325  -0.9179   0.0000   0.0000   0.0000   0.4244
   1.100   0.5769   0.01294   0.00636  -0.1003  0.5639  0.7339  -0.9288   0.0000   0.0000   0.0000   0.4209
   1.200   0.5878   0.01296   0.00639  -0.1003  0.5616  0.7354  -0.9397   0.0000   0.0000   0.0000   0.4175
   1.300   0.5989   0.01297   0.00642  -0.1003  0.5589  0.7369  -0.9507   0.0000   0.0000   0.0000   0.4143
   1.400   0.6101   0.01299   0.00644  -0.1004  0.5559  0.7383  -0.9619   0.0000   0.0000   0.0000   0.4112
   1.500   0.6215   0.01300   0.00646  -0.1005  0.5528  0.7398  -0.9733   0.0000   0.0000   0.0000   0.4083
   1.600   0.6331   0.01303   0.00647  -0.1007  0.5496  0.7412  -0.9847   0.0000   0.0000   0.0000   0.4056
   1.700   0.6448   0.01306   0.00648  -0.1009  0.5463  0.7426  -0.9963   0.0000   0.0000   0.0000   0.4029
   1.800   0.6566   0.01310   0.00649  -0.1011  0.5431  0.7441  -1.0079   0.0000   0.0000   0.0000   0.4004
   1.900   0.6685   0.01316   0.00651  -0.1014  0.5398  0.7455  -1.0197   0.0000   0.0000   0.0000   0.3979
   2.000   0.6807   0.01324   0.00655  -0.1018  0.5363  0.7468  -1.0315   0.0000   0.0000   0.0000   0.3956
   2.100   0.6932   0.01337   0.00663  -0.1022  0.5325  0.7480  -1.0434   0.0000   0.0000   0.0000   0.3935
   2.200   0.7053   0.01338   0.00670  -0.1025  0.5307  0.7491  -1.0553   0.0000   0.0000   0.0000   0.3913
   2.300   0.7175   0.01341   0.00674  -0.1028  0.5284  0.7500  -1.0672   0.0000   0.0000   0.0000   0.3892
   2.400   0.7286   0.01333   0.00669  -0.1029  0.5259  0.7513  -1.0785   0.0000   0.0000   0.0000   0.3870
   2.500   0.7393   0.01330   0.00667  -0.1029  0.5232  0.7523  -1.0896   0.0000   0.0000   0.0000   0.3848
   2.600   0.7499   0.01329   0.00668  -0.1028  0.5203  0.7533  -1.1007   0.0000   0.0000   0.0000   0.3827
   2.700   0.7605   0.01330   0.00669  -0.1027  0.5174  0.7543  -1.1117   0.0000   0.0000   0.0000   0.3805
   2.800   0.7710   0.01332   0.00672  -0.1026  0.5145  0.7554  -1.1228   0.0000   0.0000   0.0000   0.3785
   2.900   0.7814   0.01337   0.00675  -0.1025  0.5117  0.7565  -1.1338   0.0000   0.0000   0.0000   0.3764
   3.000   0.7919   0.01342   0.00680  -0.1024  0.5089  0.7577  -1.1448   0.0000   0.0000   0.0000   0.3744
   3.100   0.8024   0.01350   0.00686  -0.1023  0.5061  0.7589  -1.1559   0.0000   0.0000   0.0000   0.3725
   3.200   0.8132   0.01361   0.00695  -0.1023  0.5029  0.7602  -1.1670   0.0000   0.0000   0.0000   0.3707
   3.300   0.8243   0.01374   0.00707  -0.1023  0.4997  0.7615  -1.1798   0.0000   0.0000   0.0000   0.3690
   3.400   0.8352   0.01375   0.00711  -0.1023  0.4980  0.7628  -1.1934   0.0000   0.0000   0.0000   0.3672
   3.500   0.8463   0.01377   0.00716  -0.1024  0.4961  0.7640  -1.2071   0.0000   0.0000   0.0000   0.3656
   3.600   0.8574   0.01379   0.00721  -0.1024  0.4939  0.7652  -1.2209   0.0000   0.0000   0.0000   0.3640
   3.700   0.8687   0.01381   0.00726  -0.1025  0.4915  0.7664  -1.2349   0.0000   0.0000   0.0000   0.3625
   3.800   0.8801   0.01384   0.00731  -0.1027  0.4891  0.7676  -1.2489   0.0000   0.0000   0.0000   0.3610
   3.900   0.8915   0.01388   0.00742  -0.1028  0.4865  0.7688  -1.2631   0.0000   0.0000   0.0000   0.3595
   4.000   0.9031   0.01392   0.00747  -0.1030  0.4839  0.7700  -1.2773   0.0000   0.0000   0.0000   0.3582
   4.100   0.9147   0.01396   0.00752  -0.1032  0.4814  0.7712  -1.2917   0.0000   0.0000   0.0000   0.3568
   4.200   0.9263   0.01402   0.00757  -0.1034  0.4788  0.7723  -1.3061   0.0000   0.0000   0.0000   0.3555
   4.300   0.9379   0.01409   0.00762  -0.1036  0.4760  0.7735  -1.3206   0.0000   0.0000   0.0000   0.3542
   4.400   0.9493   0.01419   0.00768  -0.1037  0.4713  0.7746  -1.3351   0.0000   0.0000   0.0000   0.3530
   4.500   0.9600   0.01420   0.00767  -0.1037  0.4641  0.7757  -1.3496   0.0000   0.0000   0.0000   0.3516
   4.600   0.9701   0.01404   0.00754  -0.1035  0.4543  0.7769  -1.3652   0.0000   0.0000   0.0000   0.3502
   4.700   0.9794   0.01403   0.00741  -0.1032  0.4414  0.7779  -1.3847   0.0000   0.0000   0.0000   0.3487
   4.800   0.9887   0.01395   0.00730  -0.1029  0.4296  0.7793  -1.4224   0.0000   0.0000   0.0000   0.3473
   4.900   0.9983   0.01390   0.00724  -0.1027  0.4193  0.7805  -1.4631   0.0000   0.0000   0.0000   0.3459
   5.000   1.0080   0.01392   0.00725  -0.1024  0.4133  0.7816  -1.5039   0.0000   0.0000   0.0000   0.3446
   5.100   1.0176   0.01399   0.00728  -0.1022  0.4076  0.7826  -1.5445   0.0000   0.0000   0.0000   0.3432
   5.200   1.0274   0.01407   0.00733  -0.1020  0.4019  0.7836  -1.5853   0.0000   0.0000   0.0000   0.3420
   5.300   1.0382   0.01407   0.00737  -0.1020  0.3975  0.7845  -1.6329   0.0000   0.0000   0.0000   0.3408
   5.400   1.0488   0.01410   0.00742  -0.1019  0.3918  0.7855  -1.7179   0.0000   0.0000   0.0000   0.3397
   5.500   1.0590   0.01415   0.00746  -0.1018  0.3849  0.7864  -1.8042   0.0000   0.0000   0.0000   0.3385
   5.600   1.0687   0.01424   0.00751  -0.1016  0.3772  0.7874  -1.8909   0.0000   0.0000   0.0000   0.3373
   5.700   1.0780   0.01434   0.00760  -0.1014  0.3642  0.7884  -2.0031   0.0000   0.0000   0.0000   0.3361
   5.800   1.0878   0.01443   0.00766  -0.1012  0.3517  0.7895  -2.1064   0.0000   0.0000   0.0000   0.3350
   5.900   1.0965   0.01461   0.00775  -0.1009  0.3395  0.7905  -2.2032   0.0000   0.0000   0.0000   0.3339
   6.000   1.1068   0.01470   0.00785  -0.1009  0.3286  0.7916  -2.3087   0.0000   0.0000   0.0000   0.3328
   6.100   1.1160   0.01488   0.00795  -0.1006  0.3143  0.7926  -2.4093   0.0000   0.0000   0.0000   0.3318
   6.200   1.1254   0.01505   0.00808  -0.1005  0.3017  0.7937  -2.5111   0.0000   0.0000   0.0000   0.3307
   6.300   1.1334   0.01534   0.00825  -0.1001  0.2809  0.7948  -2.6066   0.0000   0.0000   0.0000   0.3297
   6.400   1.1380   0.01594   0.00855  -0.0993  0.2339  0.7958  -2.6853   0.0000   0.0000   0.0000   0.3285
   6.500   1.1386   0.01694   0.00912  -0.0980  0.1705  0.7969  -2.7431   0.0000   0.0000   0.0000   0.3272
   6.600   1.1408   0.01785   0.00970  -0.0970  0.1208  0.7979  -2.8069   0.0000   0.0000   0.0000   0.3260
   6.700   1.1441   0.01863   0.01025  -0.0961  0.0837  0.7989  -2.8759   0.0000   0.0000   0.0000   0.3248
   7.000   1.1561   0.02071   0.01187  -0.0934  0.0088  0.8020  -3.0897   0.0000   0.0000   0.0000   0.3213
   7.100   1.1649   0.02097   0.01214  -0.0932  0.0078  0.8031  -3.1856   0.0000   0.0000   0.0000   0.3204
   7.200   1.1737   0.02122   0.01242  -0.0929  0.0071  0.8040  -3.2816   0.0000   0.0000   0.0000   0.3194
   7.300   1.1823   0.02144   0.01266  -0.0926  0.0066  0.8052  -3.3766   0.0000   0.0000   0.0000   0.3185
   7.400   1.1904   0.02163   0.01291  -0.0922  0.0063  0.8064  -3.4692   0.0000   0.0000   0.0000   0.3175
   7.500   1.1983   0.02185   0.01317  -0.0918  0.0060  0.8075  -3.5606   0.0000   0.0000   0.0000   0.3164
   7.600   1.2059   0.02208   0.01346  -0.0912  0.0058  0.8085  -3.6506   0.0000   0.0000   0.0000   0.3154
   7.700   1.2133   0.02234   0.01377  -0.0907  0.0056  0.8095  -3.7397   0.0000   0.0000   0.0000   0.3143
   7.800   1.2205   0.02260   0.01410  -0.0902  0.0055  0.8104  -3.8281   0.0000   0.0000   0.0000   0.3133
   7.900   1.2276   0.02288   0.01444  -0.0896  0.0054  0.8113  -3.9155   0.0000   0.0000   0.0000   0.3123
   8.000   1.2346   0.02316   0.01482  -0.0890  0.0053  0.8123  -3.9982   0.0000   0.0000   0.0000   0.3113
   8.100   1.2410   0.02347   0.01520  -0.0884  0.0053  0.8133  -4.0827   0.0000   0.0000   0.0000   0.3102
   8.200   1.2471   0.02381   0.01560  -0.0877  0.0052  0.8143  -4.1658   0.0000   0.0000   0.0000   0.3092
   8.300   1.2524   0.02415   0.01601  -0.0868  0.0052  0.8153  -4.2455   0.0000   0.0000   0.0000   0.3081
   8.400   1.2570   0.02451   0.01643  -0.0859  0.0052  0.8163  -4.3218   0.0000   0.0000   0.0000   0.3069
   8.500   1.2611   0.02488   0.01687  -0.0849  0.0051  0.8174  -4.3954   0.0000   0.0000   0.0000   0.3058
   8.600   1.2650   0.02530   0.01735  -0.0839  0.0051  0.8185  -4.4686   0.0000   0.0000   0.0000   0.3047
   8.700   1.2689   0.02574   0.01786  -0.0830  0.0051  0.8195  -4.5411   0.0000   0.0000   0.0000   0.3036
   8.800   1.2725   0.02621   0.01840  -0.0820  0.0051  0.8206  -4.6123   0.0000   0.0000   0.0000   0.3025
   8.900   1.2756   0.02672   0.01896  -0.0810  0.0051  0.8218  -4.6813   0.0000   0.0000   0.0000   0.3014
   9.000   1.2783   0.02725   0.01956  -0.0800  0.0051  0.8231  -4.7479   0.0000   0.0000   0.0000   0.3003
   9.100   1.2807   0.02782   0.02019  -0.0790  0.0051  0.8244  -4.8125   0.0000   0.0000   0.0000   0.2993
   9.200   1.2827   0.02841   0.02084  -0.0780  0.0051  0.8257  -4.8752   0.0000   0.0000   0.0000   0.2982
   9.300   1.2844   0.02905   0.02154  -0.0770  0.0051  0.8269  -4.9359   0.0000   0.0000   0.0000   0.2973
   9.400   1.2858   0.02972   0.02227  -0.0761  0.0052  0.8279  -4.9947   0.0000   0.0000   0.0000   0.2963
   9.500   1.2868   0.03044   0.02304  -0.0752  0.0052  0.8289  -5.0515   0.0000   0.0000   0.0000   0.2954
   9.600   1.2876   0.03118   0.02385  -0.0743  0.0052  0.8296  -5.1065   0.0000   0.0000   0.0000   0.2945
   9.700   1.2881   0.03194   0.02466  -0.0735  0.0052  0.8307  -5.1596   0.0000   0.0000   0.0000   0.2936
   9.800   1.2883   0.03274   0.02553  -0.0726  0.0052  0.8317  -5.2104   0.0000   0.0000   0.0000   0.2928
   9.900   1.2883   0.03359   0.02644  -0.0719  0.0053  0.8326  -5.2591   0.0000   0.0000   0.0000   0.2921
  10.000   1.2880   0.03449   0.02741  -0.0712  0.0053  0.8336  -5.3064   0.0000   0.0000   0.0000   0.2914
  10.100   1.2877   0.03543   0.02841  -0.0705  0.0053  0.8346  -5.3522   0.0000   0.0000   0.0000   0.2907
  10.200   1.2872   0.03642   0.02946  -0.0699  0.0054  0.8355  -5.3964   0.0000   0.0000   0.0000   0.2901
  10.300   1.2866   0.03745   0.03055  -0.0694  0.0054  0.8365  -5.4388   0.0000   0.0000   0.0000   0.2895
  10.400   1.2859   0.03852   0.03168  -0.0689  0.0054  0.8375  -5.4799   0.0000   0.0000   0.0000   0.2890
  10.500   1.2852   0.03963   0.03286  -0.0685  0.0055  0.8384  -5.5195   0.0000   0.0000   0.0000   0.2885
  10.600   1.2845   0.04078   0.03406  -0.0681  0.0055  0.8394  -5.5580   0.0000   0.0000   0.0000   0.2881
  10.700   1.2838   0.04197   0.03531  -0.0678  0.0056  0.8404  -5.5949   0.0000   0.0000   0.0000   0.2877
  10.800   1.2832   0.04317   0.03658  -0.0675  0.0056  0.8414  -5.6304   0.0000   0.0000   0.0000   0.2873
  10.900   1.2825   0.04441   0.03787  -0.0673  0.0057  0.8424  -5.6639   0.0000   0.0000   0.0000   0.2869
  11.000   1.2820   0.04565   0.03918  -0.0670  0.0057  0.8433  -5.6959   0.0000   0.0000   0.0000   0.2866
  11.100   1.2814   0.04692   0.04050  -0.0667  0.0058  0.8443  -5.7252   0.0000   0.0000   0.0000   0.2862
  11.200   1.2809   0.04819   0.04183  -0.0665  0.0059  0.8452  -5.7525   0.0000   0.0000   0.0000   0.2858
  11.300   1.2807   0.04944   0.04314  -0.0661  0.0059  0.8461  -5.7779   0.0000   0.0000   0.0000   0.2854
  11.400   1.2805   0.05069   0.04446  -0.0658  0.0060  0.8470  -5.8007   0.0000   0.0000   0.0000   0.2849
  11.500   1.2805   0.05193   0.04576  -0.0654  0.0061  0.8479  -5.8212   0.0000   0.0000   0.0000   0.2844
  11.600   1.2805   0.05314   0.04704  -0.0649  0.0062  0.8487  -5.8395   0.0000   0.0000   0.0000   0.2839
  11.700   1.2809   0.05435   0.04835  -0.0643  0.0064  0.8495  -5.8548   0.0000   0.0000   0.0000   0.2832
  11.800   1.2819   0.05553   0.04960  -0.0637  0.0065  0.8503  -5.8703   0.0000   0.0000   0.0000   0.2825
  11.900   1.2833   0.05671   0.05086  -0.0630  0.0067  0.8510  -5.8852   0.0000   0.0000   0.0000   0.2818
  12.000   1.2849   0.05794   0.05217  -0.0624  0.0069  0.8518  -5.8959   0.0000   0.0000   0.0000   0.2811
  12.100   1.2866   0.05923   0.05355  -0.0617  0.0071  0.8524  -5.9027   0.0000   0.0000   0.0000   0.2803
  12.200   1.2881   0.06058   0.05499  -0.0611  0.0073  0.8531  -5.9082   0.0000   0.0000   0.0000   0.2796
  12.500   1.2900   0.06505   0.05977  -0.0596  0.0079  0.8554  -5.9136   0.0000   0.0000   0.0000   0.2779
  12.600   1.2892   0.06672   0.06154  -0.0593  0.0081  0.8563  -5.9097   0.0000   0.0000   0.0000   0.2775
  12.700   1.2874   0.06849   0.06342  -0.0591  0.0083  0.8572  -5.9022   0.0000   0.0000   0.0000   0.2773
  12.800   1.2849   0.07036   0.06540  -0.0590  0.0084  0.8581  -5.8910   0.0000   0.0000   0.0000   0.2771
  12.900   1.2816   0.07233   0.06747  -0.0590  0.0086  0.8590  -5.8759   0.0000   0.0000   0.0000   0.2770
  13.000   1.2777   0.07438   0.06963  -0.0590  0.0087  0.8599  -5.8565   0.0000   0.0000   0.0000   0.2770
  13.100   1.2731   0.07654   0.07190  -0.0592  0.0089  0.8607  -5.8317   0.0000   0.0000   0.0000   0.2771
  13.200   1.2675   0.07880   0.07425  -0.0594  0.0090  0.8616  -5.8011   0.0000   0.0000   0.0000   0.2773
  13.300   1.2611   0.08118   0.07675  -0.0597  0.0092  0.8623  -5.7621   0.0000   0.0000   0.0000   0.2776
  13.400   1.2534   0.08391   0.07959  -0.0601  0.0093  0.8629  -5.7012   0.0000   0.0000   0.0000   0.2780
  13.500   1.2804   0.08175   0.07734  -0.0587  0.0107  0.8654  -5.9216   0.0000   0.0000   0.0000   0.2758
  13.700   1.2405   0.09214   0.08848  -0.0607  0.0141  0.8652  -5.2811   0.0000   0.0000   0.0000   0.2785
  13.800   1.2319   0.09501   0.09146  -0.0618  0.0144  0.8660  -5.2265   0.0000   0.0000   0.0000   0.2796
  13.900   1.2237   0.09787   0.09440  -0.0630  0.0147  0.8667  -5.1777   0.0000   0.0000   0.0000   0.2807
  14.000   1.2155   0.10074   0.09737  -0.0643  0.0149  0.8675  -5.1323   0.0000   0.0000   0.0000   0.2820
  14.100   1.2075   0.10364   0.10034  -0.0658  0.0151  0.8682  -5.0898   0.0000   0.0000   0.0000   0.2833
  14.200   1.1995   0.10657   0.10336  -0.0673  0.0152  0.8689  -5.0463   0.0000   0.0000   0.0000   0.2848
  14.300   1.1916   0.10955   0.10642  -0.0690  0.0153  0.8696  -5.0051   0.0000   0.0000   0.0000   0.2864
  14.400   1.1838   0.11258   0.10953  -0.0707  0.0154  0.8703  -4.9622   0.0000   0.0000   0.0000   0.2881
  14.500   1.1761   0.11566   0.11267  -0.0726  0.0155  0.8710  -4.9195   0.0000   0.0000   0.0000   0.2899
  14.600   1.1685   0.11878   0.11587  -0.0746  0.0156  0.8718  -4.8772   0.0000   0.0000   0.0000   0.2918
  14.700   1.1611   0.12195   0.11911  -0.0766  0.0157  0.8725  -4.8324   0.0000   0.0000   0.0000   0.2938
  14.800   1.1538   0.12517   0.12239  -0.0787  0.0157  0.8732  -4.7901   0.0000   0.0000   0.0000   0.2959
  14.900   1.1466   0.12844   0.12573  -0.0809  0.0157  0.8739  -4.7447   0.0000   0.0000   0.0000   0.2981
  15.000   1.1396   0.13177   0.12912  -0.0832  0.0157  0.8745  -4.6999   0.0000   0.0000   0.0000   0.3004
  15.100   1.1328   0.13517   0.13259  -0.0856  0.0157  0.8752  -4.6540   0.0000   0.0000   0.0000   0.3029
  15.900   1.0806   0.16507   0.16296  -0.1072  0.0146  0.8813  -4.1812   0.0000   0.0000   0.0000   0.3258
  16.000   1.0742   0.16942   0.16733  -0.1103  0.0143  0.8820  -4.0971   0.0000   0.0000   0.0000   0.3292
  16.100   1.0672   0.17424   0.17219  -0.1135  0.0141  0.8826  -3.9891   0.0000   0.0000   0.0000   0.3329
  16.200   1.0595   0.17964   0.17763  -0.1168  0.0139  0.8830  -3.8476   0.0000   0.0000   0.0000   0.3369
  16.300   1.0502   0.18630   0.18430  -0.1204  0.0139  0.8830  -3.6325   0.0000   0.0000   0.0000   0.3415
  16.400   1.0410   0.19339   0.19139  -0.1237  0.0146  0.8829  -3.3667   0.0000   0.0000   0.0000   0.3458
  16.500   1.0365   0.19778   0.19577  -0.1258  0.0154  0.8835  -3.2337   0.0000   0.0000   0.0000   0.3484
  17.100   1.0246   0.22500   0.22297  -0.1375  0.0231  0.8880  -2.3910   0.0000   0.0000   0.0000   0.3613
  17.200   1.0256   0.22760   0.22557  -0.1388  0.0229  0.8894  -2.3642   0.0000   0.0000   0.0000   0.3624
  17.300   1.0266   0.23016   0.22813  -0.1401  0.0226  0.8909  -2.3401   0.0000   0.0000   0.0000   0.3633
  17.400   1.0278   0.23268   0.23065  -0.1413  0.0224  0.8924  -2.3178   0.0000   0.0000   0.0000   0.3643
  17.500   1.0291   0.23515   0.23313  -0.1426  0.0221  0.8940  -2.2982   0.0000   0.0000   0.0000   0.3652
  17.600   1.0305   0.23759   0.23556  -0.1438  0.0219  0.8956  -2.2812   0.0000   0.0000   0.0000   0.3660
  18.600   1.0433   0.25811   0.25617  -0.1521  0.0197  0.9268  -2.2256   0.0000   0.0000   0.0000   0.3708
  19.600   1.0645   0.27540   0.27352  -0.1582  0.0179  1.0000  -2.4160   0.0000   0.0000   0.0000   0.3718
  19.700   1.0654   0.27796   0.27608  -0.1590  0.0176  1.0000  -2.4201   0.0000   0.0000   0.0000   0.3722
  19.800   1.0597   0.28442   0.28247  -0.1604  0.0171  1.0000  -2.2648   0.0000   0.0000   0.0000   0.3743
  19.900   1.0617   0.28700   0.28508  -0.1615  0.0171  1.0000  -2.2493   0.0000   0.0000   0.0000   0.3749
  20.000   1.0637   0.28957   0.28765  -0.1626  0.0171  1.0000  -2.2342   0.0000   0.0000   0.0000   0.3755
  20.100   1.0656   0.29213   0.29020  -0.1637  0.0171  1.0000  -2.2195   0.0000   0.0000   0.0000   0.3761
  20.200   1.0675   0.29467   0.29274  -0.1648  0.0171  1.0000  -2.2050   0.0000   0.0000   0.0000   0.3767
  20.300   1.0694   0.29720   0.29527  -0.1659  0.0170  1.0000  -2.1908   0.0000   0.0000   0.0000   0.3773
  20.400   1.0713   0.29972   0.29778  -0.1670  0.0170  1.0000  -2.1769   0.0000   0.0000   0.0000   0.3778
  20.500   1.0732   0.30221   0.30028  -0.1681  0.0170  1.0000  -2.1632   0.0000   0.0000   0.0000   0.3784
  20.600   1.0751   0.30470   0.30276  -0.1691  0.0170  1.0000  -2.1497   0.0000   0.0000   0.0000   0.3790
  20.700   1.0770   0.30716   0.30522  -0.1702  0.0169  1.0000  -2.1364   0.0000   0.0000   0.0000   0.3795
  20.800   1.0788   0.30960   0.30766  -0.1713  0.0169  1.0000  -2.1231   0.0000   0.0000   0.0000   0.3801
  20.900   1.0807   0.31201   0.31007  -0.1724  0.0168  1.0000  -2.1097   0.0000   0.0000   0.0000   0.3806
  21.000   1.0826   0.31439   0.31245  -0.1735  0.0168  1.0000  -2.0959   0.0000   0.0000   0.0000   0.3812
  21.100   1.0844   0.31680   0.31486  -0.1747  0.0166  1.0000  -2.0760   0.0000   0.0000   0.0000   0.3819
  21.200   1.0859   0.31933   0.31738  -0.1761  0.0165  1.0000  -2.0438   0.0000   0.0000   0.0000   0.3829
  21.300   1.0870   0.32204   0.32009  -0.1778  0.0162  1.0000  -1.9986   0.0000   0.0000   0.0000   0.3841
  21.400   1.0884   0.32478   0.32282  -0.1792  0.0158  1.0000  -1.9595   0.0000   0.0000   0.0000   0.3851
  21.500   1.0900   0.32744   0.32549  -0.1804  0.0155  1.0000  -1.9319   0.0000   0.0000   0.0000   0.3858
  21.600   1.0915   0.33004   0.32808  -0.1815  0.0152  1.0000  -1.9125   0.0000   0.0000   0.0000   0.3864
  21.700   1.0930   0.33257   0.33061  -0.1824  0.0149  1.0000  -1.8980   0.0000   0.0000   0.0000   0.3868
  21.800   1.0944   0.33507   0.33311  -0.1833  0.0146  1.0000  -1.8867   0.0000   0.0000   0.0000   0.3873
  21.900   1.0958   0.33754   0.33559  -0.1842  0.0144  1.0000  -1.8776   0.0000   0.0000   0.0000   0.3877
  22.000   1.0971   0.34000   0.33804  -0.1850  0.0141  1.0000  -1.8701   0.0000   0.0000   0.0000   0.3880
  22.100   1.0984   0.34243   0.34048  -0.1858  0.0139  1.0000  -1.8639   0.0000   0.0000   0.0000   0.3884
  22.200   1.0996   0.34486   0.34290  -0.1866  0.0137  1.0000  -1.8588   0.0000   0.0000   0.0000   0.3887
  22.300   1.1008   0.34726   0.34531  -0.1874  0.0135  1.0000  -1.8545   0.0000   0.0000   0.0000   0.3891
  22.400   1.1018   0.34966   0.34771  -0.1881  0.0133  1.0000  -1.8511   0.0000   0.0000   0.0000   0.3894
  22.500   1.1029   0.35205   0.35010  -0.1888  0.0131  1.0000  -1.8484   0.0000   0.0000   0.0000   0.3897
  22.600   1.1038   0.35442   0.35247  -0.1895  0.0129  1.0000  -1.8464   0.0000   0.0000   0.0000   0.3900
  22.700   1.1047   0.35678   0.35484  -0.1902  0.0127  1.0000  -1.8450   0.0000   0.0000   0.0000   0.3903
  22.800   1.1054   0.35913   0.35719  -0.1909  0.0125  1.0000  -1.8444   0.0000   0.0000   0.0000   0.3906
  22.900   1.1061   0.36147   0.35953  -0.1915  0.0124  1.0000  -1.8444   0.0000   0.0000   0.0000   0.3909
  23.000   1.1067   0.36379   0.36185  -0.1921  0.0122  1.0000  -1.8450   0.0000   0.0000   0.0000   0.3911
  23.100   1.1072   0.36609   0.36416  -0.1927  0.0120  1.0000  -1.8463   0.0000   0.0000   0.0000   0.3914
  23.200   1.1075   0.36838   0.36645  -0.1932  0.0119  1.0000  -1.8482   0.0000   0.0000   0.0000   0.3916
  23.300   1.1078   0.37065   0.36873  -0.1938  0.0118  1.0000  -1.8508   0.0000   0.0000   0.0000   0.3919
  23.400   1.1078   0.37290   0.37098  -0.1942  0.0116  1.0000  -1.8540   0.0000   0.0000   0.0000   0.3921
  23.500   1.1077   0.37513   0.37321  -0.1947  0.0115  1.0000  -1.8578   0.0000   0.0000   0.0000   0.3923
  23.600   1.1074   0.37733   0.37542  -0.1951  0.0114  1.0000  -1.8621   0.0000   0.0000   0.0000   0.3925
  23.700   1.1068   0.37951   0.37760  -0.1954  0.0112  1.0000  -1.8670   0.0000   0.0000   0.0000   0.3928
  23.800   1.1059   0.38164   0.37974  -0.1957  0.0111  1.0000  -1.8721   0.0000   0.0000   0.0000   0.3930
  23.900   1.1046   0.38374   0.38184  -0.1959  0.0110  1.0000  -1.8775   0.0000   0.0000   0.0000   0.3932
  24.000   1.1029   0.38578   0.38389  -0.1960  0.0109  1.0000  -1.8827   0.0000   0.0000   0.0000   0.3933
  24.100   1.1003   0.38774   0.38586  -0.1959  0.0108  1.0000  -1.8870   0.0000   0.0000   0.0000   0.3935
  24.200   1.0966   0.38960   0.38773  -0.1956  0.0107  1.0000  -1.8890   0.0000   0.0000   0.0000   0.3937
  24.300   1.0902   0.39121   0.38935  -0.1948  0.0106  1.0000  -1.8836   0.0000   0.0000   0.0000   0.3940


