xflr5 v6.61

 Calculated polar for: FX 61-140 AIRFOIL

 1 1 Reynolds number fixed          Mach number fixed         

 xtrf =   1.000 (top)        1.000 (bottom)
 Mach =   0.000     Re =     0.719 e 6     Ncrit =   9.000

  alpha     CL        CD       CDp       Cm    Top Xtr Bot Xtr   Cpmin    Chinge    XCp    
 ------- -------- --------- --------- -------- ------- ------- -------- --------- ---------
 -10.000  -0.3913   0.09361   0.09172  -0.0390  1.0000  0.0097  -2.5158   0.0000   0.0000   0.0000   0.1361
  -9.900  -0.3923   0.09152   0.08965  -0.0399  1.0000  0.0097  -2.5553   0.0000   0.0000   0.0000   0.1343
  -9.800  -0.3934   0.08935   0.08749  -0.0408  1.0000  0.0097  -2.5987   0.0000   0.0000   0.0000   0.1324
  -9.700  -0.3948   0.08704   0.08519  -0.0418  1.0000  0.0097  -2.6476   0.0000   0.0000   0.0000   0.1303
  -9.600  -0.3963   0.08451   0.08266  -0.0431  1.0000  0.0097  -2.7058   0.0000   0.0000   0.0000   0.1277
  -9.500  -0.3983   0.08138   0.07955  -0.0449  1.0000  0.0097  -2.7867   0.0000   0.0000   0.0000   0.1237
  -9.400  -0.4016   0.07794   0.07609  -0.0472  1.0000  0.0097  -2.8821   0.0000   0.0000   0.0000   0.1192
  -9.300  -0.4062   0.07515   0.07328  -0.0489  1.0000  0.0097  -2.9554   0.0000   0.0000   0.0000   0.1164
  -9.200  -0.4118   0.07267   0.07078  -0.0504  1.0000  0.0097  -3.0184   0.0000   0.0000   0.0000   0.1147
  -9.100  -0.4179   0.07045   0.06855  -0.0516  1.0000  0.0097  -3.0734   0.0000   0.0000   0.0000   0.1139
  -9.000  -0.4245   0.06846   0.06654  -0.0526  1.0000  0.0097  -3.1219   0.0000   0.0000   0.0000   0.1140
  -8.900  -0.4316   0.06667   0.06473  -0.0532  1.0000  0.0097  -3.1652   0.0000   0.0000   0.0000   0.1149
  -8.800  -0.4390   0.06507   0.06311  -0.0535  1.0000  0.0097  -3.2039   0.0000   0.0000   0.0000   0.1166
  -8.700  -0.4467   0.06364   0.06166  -0.0535  1.0000  0.0097  -3.2387   0.0000   0.0000   0.0000   0.1190
  -8.600  -0.4550   0.06237   0.06037  -0.0533  1.0000  0.0097  -3.2703   0.0000   0.0000   0.0000   0.1221
  -8.500  -0.4638   0.06128   0.05927  -0.0526  1.0000  0.0097  -3.2991   0.0000   0.0000   0.0000   0.1260
  -8.400  -0.4733   0.06039   0.05836  -0.0516  1.0000  0.0097  -3.3252   0.0000   0.0000   0.0000   0.1308
  -8.300  -0.4754   0.05843   0.05635  -0.0538  0.9986  0.0097  -3.3577   0.0000   0.0000   0.0000   0.1269
  -8.200  -0.4734   0.05603   0.05387  -0.0574  0.9963  0.0097  -3.3888   0.0000   0.0000   0.0000   0.1190
  -7.000  -0.3980   0.01994   0.01540  -0.0800  0.9658  0.0050  -4.8442   0.0000   0.0000   0.0000   0.0388
  -6.900  -0.3842   0.01940   0.01479  -0.0807  0.9642  0.0049  -4.7397   0.0000   0.0000   0.0000   0.0297
  -6.800  -0.3700   0.01893   0.01427  -0.0815  0.9628  0.0048  -4.6172   0.0000   0.0000   0.0000   0.0194
  -6.700  -0.3593   0.01852   0.01381  -0.0815  0.9593  0.0047  -4.5091   0.0000   0.0000   0.0000   0.0126
  -6.600  -0.3485   0.01811   0.01336  -0.0816  0.9552  0.0046  -4.4011   0.0000   0.0000   0.0000   0.0055
  -6.100  -0.2838   0.01500   0.00995  -0.0840  0.9387  0.0044  -3.9421   0.0000   0.0000   0.0000  -0.0573
  -6.000  -0.2677   0.01413   0.00901  -0.0852  0.9356  0.0044  -3.8779   0.0000   0.0000   0.0000  -0.0799
  -5.900  -0.2490   0.01352   0.00834  -0.0870  0.9330  0.0044  -3.7671   0.0000   0.0000   0.0000  -0.1115
  -5.800  -0.2322   0.01220   0.00686  -0.0887  0.9273  0.0046  -3.7919   0.0000   0.0000   0.0000  -0.1448
  -5.700  -0.2090   0.01096   0.00545  -0.0920  0.9227  0.0055  -3.7977   0.0000   0.0000   0.0000  -0.2041
  -5.600  -0.1851   0.01056   0.00502  -0.0950  0.9182  0.0069  -3.6523   0.0000   0.0000   0.0000  -0.2786
  -5.400  -0.1419   0.00997   0.00435  -0.0999  0.9029  0.0124  -3.3635   0.0000   0.0000   0.0000  -0.4730
  -5.300  -0.1220   0.00983   0.00418  -0.1020  0.8930  0.0152  -3.1876   0.0000   0.0000   0.0000  -0.6070
  -5.200  -0.1050   0.00976   0.00405  -0.1033  0.8802  0.0165  -3.0229   0.0000   0.0000   0.0000  -0.7577
  -5.100  -0.0902   0.00972   0.00395  -0.1042  0.8672  0.0171  -2.8696   0.0000   0.0000   0.0000  -0.9313
  -4.900  -0.0640   0.00946   0.00356  -0.1053  0.8400  0.0222  -2.6150   0.0000   0.0000   0.0000  -1.4294
  -4.800  -0.0524   0.00941   0.00346  -0.1055  0.8270  0.0249  -2.4856   0.0000   0.0000   0.0000  -1.8055
  -4.700  -0.0414   0.00939   0.00339  -0.1056  0.8137  0.0269  -2.3603   0.0000   0.0000   0.0000  -2.3541
  -4.600  -0.0301   0.00927   0.00325  -0.1057  0.8014  0.0345  -2.2449   0.0000   0.0000   0.0000  -3.3326
  -4.500  -0.0188   0.00914   0.00313  -0.1059  0.7892  0.0453  -2.1529   0.0000   0.0000   0.0000  -5.4921
  -4.400  -0.0073   0.00891   0.00296  -0.1064  0.7774  0.0749  -2.0630   0.0000   0.0000   0.0000  -14.6675
  -4.300   0.0061   0.00842   0.00274  -0.1076  0.7671  0.1461  -1.9667   0.0000   0.0000   0.0000  18.0999
  -4.200   0.0203   0.00787   0.00250  -0.1090  0.7563  0.2362  -1.8677   0.0000   0.0000   0.0000   5.7145
  -4.100   0.0351   0.00737   0.00228  -0.1106  0.7470  0.3262  -1.7662   0.0000   0.0000   0.0000   3.4514
  -4.000   0.0499   0.00698   0.00212  -0.1119  0.7383  0.4017  -1.6653   0.0000   0.0000   0.0000   2.5255
  -3.900   0.0639   0.00672   0.00199  -0.1129  0.7291  0.4602  -1.5724   0.0000   0.0000   0.0000   2.0426
  -3.800   0.0762   0.00663   0.00194  -0.1134  0.7204  0.4920  -1.4813   0.0000   0.0000   0.0000   1.7572
  -3.700   0.0887   0.00656   0.00192  -0.1138  0.7132  0.5152  -1.3909   0.0000   0.0000   0.0000   1.5486
  -3.600   0.1005   0.00655   0.00190  -0.1139  0.7052  0.5327  -1.3048   0.0000   0.0000   0.0000   1.3981
  -3.500   0.1122   0.00654   0.00190  -0.1141  0.6971  0.5501  -1.2199   0.0000   0.0000   0.0000   1.2790
  -3.400   0.1236   0.00656   0.00190  -0.1142  0.6897  0.5628  -1.1379   0.0000   0.0000   0.0000   1.1844
  -3.300   0.1355   0.00656   0.00191  -0.1144  0.6835  0.5745  -1.0556   0.0000   0.0000   0.0000   1.1034
  -3.200   0.1470   0.00658   0.00193  -0.1145  0.6767  0.5851  -0.9760   0.0000   0.0000   0.0000   1.0367
  -3.100   0.1583   0.00663   0.00193  -0.1145  0.6697  0.5935  -0.8986   0.0000   0.0000   0.0000   0.9804
  -2.900   0.1806   0.00674   0.00202  -0.1144  0.6570  0.6121  -0.7487   0.0000   0.0000   0.0000   0.8891
  -2.800   0.1918   0.00683   0.00210  -0.1144  0.6514  0.6226  -0.6755   0.0000   0.0000   0.0000   0.8511
  -2.700   0.2032   0.00694   0.00216  -0.1144  0.6451  0.6289  -0.6034   0.0000   0.0000   0.0000   0.8171
  -2.600   0.2140   0.00699   0.00219  -0.1143  0.6386  0.6345  -0.6080   0.0000   0.0000   0.0000   0.7877
  -2.400   0.2359   0.00711   0.00226  -0.1141  0.6266  0.6408  -0.6257   0.0000   0.0000   0.0000   0.7368
  -2.300   0.2472   0.00716   0.00229  -0.1141  0.6220  0.6433  -0.6348   0.0000   0.0000   0.0000   0.7143
  -2.200   0.2584   0.00721   0.00232  -0.1141  0.6169  0.6458  -0.6439   0.0000   0.0000   0.0000   0.6938
  -2.100   0.2696   0.00727   0.00235  -0.1141  0.6117  0.6481  -0.6530   0.0000   0.0000   0.0000   0.6752
  -2.000   0.2807   0.00733   0.00234  -0.1141  0.6064  0.6501  -0.6621   0.0000   0.0000   0.0000   0.6581
  -1.900   0.2918   0.00740   0.00236  -0.1141  0.6003  0.6519  -0.6711   0.0000   0.0000   0.0000   0.6423
  -1.800   0.3032   0.00744   0.00237  -0.1142  0.5959  0.6537  -0.6803   0.0000   0.0000   0.0000   0.6276
  -1.700   0.3148   0.00748   0.00238  -0.1143  0.5924  0.6555  -0.6897   0.0000   0.0000   0.0000   0.6137
  -1.600   0.3264   0.00752   0.00240  -0.1143  0.5883  0.6571  -0.6991   0.0000   0.0000   0.0000   0.6009
  -1.500   0.3379   0.00757   0.00241  -0.1144  0.5838  0.6585  -0.7084   0.0000   0.0000   0.0000   0.5890
  -1.400   0.3493   0.00762   0.00243  -0.1145  0.5792  0.6596  -0.7177   0.0000   0.0000   0.0000   0.5780
  -1.300   0.3606   0.00768   0.00244  -0.1145  0.5746  0.6604  -0.7270   0.0000   0.0000   0.0000   0.5676
  -1.200   0.3719   0.00771   0.00243  -0.1146  0.5697  0.6618  -0.7362   0.0000   0.0000   0.0000   0.5580
  -1.100   0.3832   0.00772   0.00242  -0.1147  0.5649  0.6642  -0.7455   0.0000   0.0000   0.0000   0.5490
  -1.000   0.3948   0.00772   0.00242  -0.1148  0.5628  0.6661  -0.7549   0.0000   0.0000   0.0000   0.5403
  -0.900   0.4063   0.00773   0.00243  -0.1149  0.5602  0.6677  -0.7643   0.0000   0.0000   0.0000   0.5321
  -0.800   0.4177   0.00776   0.00245  -0.1149  0.5572  0.6692  -0.7737   0.0000   0.0000   0.0000   0.5244
  -0.700   0.4290   0.00779   0.00248  -0.1150  0.5540  0.6705  -0.7831   0.0000   0.0000   0.0000   0.5171
  -0.600   0.4403   0.00784   0.00251  -0.1150  0.5507  0.6719  -0.7924   0.0000   0.0000   0.0000   0.5101
  -0.500   0.4514   0.00788   0.00254  -0.1150  0.5472  0.6732  -0.8017   0.0000   0.0000   0.0000   0.5035
  -0.400   0.4625   0.00794   0.00257  -0.1150  0.5436  0.6745  -0.8110   0.0000   0.0000   0.0000   0.4973
  -0.300   0.4736   0.00799   0.00260  -0.1150  0.5397  0.6758  -0.8202   0.0000   0.0000   0.0000   0.4913
  -0.200   0.4847   0.00806   0.00263  -0.1150  0.5353  0.6771  -0.8294   0.0000   0.0000   0.0000   0.4857
  -0.100   0.4960   0.00810   0.00266  -0.1151  0.5321  0.6783  -0.8388   0.0000   0.0000   0.0000   0.4803
   0.000   0.5077   0.00812   0.00268  -0.1152  0.5305  0.6795  -0.8484   0.0000   0.0000   0.0000   0.4751
   0.100   0.5193   0.00814   0.00270  -0.1153  0.5285  0.6806  -0.8581   0.0000   0.0000   0.0000   0.4701
   0.200   0.5309   0.00816   0.00272  -0.1154  0.5262  0.6818  -0.8682   0.0000   0.0000   0.0000   0.4654
   0.300   0.5424   0.00819   0.00274  -0.1155  0.5237  0.6829  -0.8787   0.0000   0.0000   0.0000   0.4608
   0.400   0.5539   0.00823   0.00277  -0.1156  0.5209  0.6841  -0.8892   0.0000   0.0000   0.0000   0.4564
   0.500   0.5652   0.00827   0.00279  -0.1157  0.5178  0.6853  -0.9004   0.0000   0.0000   0.0000   0.4523
   0.600   0.5766   0.00832   0.00282  -0.1157  0.5146  0.6864  -0.9117   0.0000   0.0000   0.0000   0.4482
   0.700   0.5878   0.00838   0.00285  -0.1158  0.5112  0.6874  -0.9231   0.0000   0.0000   0.0000   0.4444
   0.800   0.5990   0.00844   0.00289  -0.1158  0.5074  0.6884  -0.9343   0.0000   0.0000   0.0000   0.4407
   0.900   0.6101   0.00852   0.00293  -0.1158  0.5032  0.6893  -0.9455   0.0000   0.0000   0.0000   0.4371
   1.000   0.6214   0.00859   0.00298  -0.1159  0.4997  0.6901  -0.9568   0.0000   0.0000   0.0000   0.4336
   1.100   0.6330   0.00862   0.00301  -0.1160  0.4984  0.6907  -0.9685   0.0000   0.0000   0.0000   0.4303
   1.200   0.6446   0.00864   0.00304  -0.1161  0.4968  0.6912  -0.9802   0.0000   0.0000   0.0000   0.4271
   1.300   0.6566   0.00861   0.00301  -0.1164  0.4948  0.6929  -0.9921   0.0000   0.0000   0.0000   0.4240
   1.400   0.6683   0.00859   0.00299  -0.1166  0.4925  0.6945  -1.0038   0.0000   0.0000   0.0000   0.4211
   1.500   0.6799   0.00859   0.00300  -0.1167  0.4900  0.6958  -1.0155   0.0000   0.0000   0.0000   0.4182
   1.600   0.6913   0.00861   0.00302  -0.1168  0.4874  0.6969  -1.0271   0.0000   0.0000   0.0000   0.4154
   1.700   0.7026   0.00864   0.00304  -0.1168  0.4848  0.6979  -1.0387   0.0000   0.0000   0.0000   0.4127
   1.800   0.7138   0.00868   0.00307  -0.1169  0.4822  0.6989  -1.0503   0.0000   0.0000   0.0000   0.4101
   1.900   0.7250   0.00872   0.00313  -0.1169  0.4795  0.6998  -1.0618   0.0000   0.0000   0.0000   0.4075
   2.000   0.7361   0.00877   0.00316  -0.1170  0.4766  0.7007  -1.0732   0.0000   0.0000   0.0000   0.4050
   2.100   0.7471   0.00883   0.00321  -0.1170  0.4734  0.7015  -1.0846   0.0000   0.0000   0.0000   0.4026
   2.200   0.7581   0.00890   0.00326  -0.1170  0.4698  0.7024  -1.0960   0.0000   0.0000   0.0000   0.4002
   2.300   0.7693   0.00896   0.00331  -0.1170  0.4670  0.7033  -1.1075   0.0000   0.0000   0.0000   0.3979
   2.400   0.7808   0.00897   0.00334  -0.1171  0.4660  0.7042  -1.1193   0.0000   0.0000   0.0000   0.3957
   2.500   0.7923   0.00899   0.00338  -0.1172  0.4647  0.7051  -1.1312   0.0000   0.0000   0.0000   0.3936
   2.600   0.8037   0.00901   0.00341  -0.1173  0.4633  0.7060  -1.1430   0.0000   0.0000   0.0000   0.3915
   2.700   0.8152   0.00903   0.00345  -0.1174  0.4616  0.7069  -1.1549   0.0000   0.0000   0.0000   0.3894
   2.800   0.8266   0.00906   0.00348  -0.1175  0.4598  0.7078  -1.1667   0.0000   0.0000   0.0000   0.3874
   2.900   0.8379   0.00909   0.00351  -0.1175  0.4561  0.7087  -1.1787   0.0000   0.0000   0.0000   0.3855
   3.000   0.8487   0.00914   0.00351  -0.1175  0.4483  0.7096  -1.1906   0.0000   0.0000   0.0000   0.3836
   3.100   0.8586   0.00928   0.00356  -0.1173  0.4351  0.7106  -1.2017   0.0000   0.0000   0.0000   0.3817
   3.200   0.8701   0.00927   0.00354  -0.1174  0.4268  0.7116  -1.2149   0.0000   0.0000   0.0000   0.3799
   3.300   0.8804   0.00938   0.00356  -0.1173  0.4131  0.7126  -1.2287   0.0000   0.0000   0.0000   0.3781
   3.400   0.8907   0.00950   0.00361  -0.1172  0.4009  0.7136  -1.2423   0.0000   0.0000   0.0000   0.3763
   3.500   0.9020   0.00954   0.00365  -0.1173  0.3962  0.7146  -1.2567   0.0000   0.0000   0.0000   0.3746
   3.600   0.9135   0.00957   0.00376  -0.1174  0.4029  0.7155  -1.2708   0.0000   0.0000   0.0000   0.3730
   3.700   0.9249   0.00960   0.00380  -0.1175  0.3987  0.7163  -1.2853   0.0000   0.0000   0.0000   0.3714
   3.800   0.9360   0.00966   0.00383  -0.1175  0.3917  0.7171  -1.2997   0.0000   0.0000   0.0000   0.3698
   3.900   0.9469   0.00974   0.00388  -0.1175  0.3847  0.7178  -1.3139   0.0000   0.0000   0.0000   0.3683
   4.000   0.9575   0.00984   0.00393  -0.1175  0.3764  0.7184  -1.3279   0.0000   0.0000   0.0000   0.3668
   4.100   0.9682   0.00993   0.00399  -0.1175  0.3693  0.7190  -1.3419   0.0000   0.0000   0.0000   0.3653
   4.200   0.9794   0.00999   0.00404  -0.1176  0.3639  0.7195  -1.3564   0.0000   0.0000   0.0000   0.3639
   4.300   0.9902   0.01008   0.00409  -0.1176  0.3558  0.7200  -1.3707   0.0000   0.0000   0.0000   0.3624
   4.400   1.0003   0.01023   0.00416  -0.1175  0.3445  0.7204  -1.3845   0.0000   0.0000   0.0000   0.3610
   4.500   1.0108   0.01034   0.00423  -0.1174  0.3345  0.7208  -1.4014   0.0000   0.0000   0.0000   0.3597
   4.600   1.0208   0.01050   0.00431  -0.1173  0.3192  0.7213  -1.4423   0.0000   0.0000   0.0000   0.3583
   4.700   1.0310   0.01067   0.00437  -0.1173  0.3007  0.7232  -1.4832   0.0000   0.0000   0.0000   0.3570
   4.800   1.0399   0.01093   0.00449  -0.1171  0.2769  0.7246  -1.5219   0.0000   0.0000   0.0000   0.3557
   4.900   1.0481   0.01129   0.00466  -0.1167  0.2461  0.7258  -1.5587   0.0000   0.0000   0.0000   0.3544
   5.000   1.0549   0.01179   0.00493  -0.1162  0.2057  0.7269  -1.5925   0.0000   0.0000   0.0000   0.3531
   5.100   1.0597   0.01252   0.00534  -0.1153  0.1526  0.7278  -1.6217   0.0000   0.0000   0.0000   0.3517
   5.200   1.0636   0.01334   0.00584  -0.1143  0.0974  0.7287  -1.6688   0.0000   0.0000   0.0000   0.3502
   5.300   1.0654   0.01439   0.00650  -0.1130  0.0303  0.7295  -1.7221   0.0000   0.0000   0.0000   0.3487
   5.400   1.0718   0.01493   0.00692  -0.1123  0.0043  0.7302  -1.7993   0.0000   0.0000   0.0000   0.3473
   5.500   1.0821   0.01505   0.00704  -0.1121  0.0040  0.7310  -1.9009   0.0000   0.0000   0.0000   0.3461
   5.600   1.0922   0.01518   0.00719  -0.1120  0.0036  0.7317  -2.0305   0.0000   0.0000   0.0000   0.3449
   5.700   1.1024   0.01530   0.00732  -0.1119  0.0033  0.7325  -2.1431   0.0000   0.0000   0.0000   0.3437
   5.800   1.1125   0.01543   0.00747  -0.1118  0.0032  0.7332  -2.2509   0.0000   0.0000   0.0000   0.3425
   5.900   1.1227   0.01555   0.00761  -0.1117  0.0031  0.7340  -2.3579   0.0000   0.0000   0.0000   0.3414
   6.000   1.1328   0.01568   0.00776  -0.1115  0.0030  0.7347  -2.4648   0.0000   0.0000   0.0000   0.3403
   6.100   1.1428   0.01581   0.00791  -0.1114  0.0029  0.7355  -2.5720   0.0000   0.0000   0.0000   0.3392
   6.200   1.1529   0.01594   0.00806  -0.1113  0.0029  0.7363  -2.6795   0.0000   0.0000   0.0000   0.3381
   6.300   1.1629   0.01607   0.00822  -0.1111  0.0029  0.7370  -2.7875   0.0000   0.0000   0.0000   0.3370
   6.400   1.1729   0.01620   0.00838  -0.1110  0.0029  0.7378  -2.8959   0.0000   0.0000   0.0000   0.3359
   6.500   1.1828   0.01634   0.00855  -0.1108  0.0029  0.7386  -3.0045   0.0000   0.0000   0.0000   0.3349
   6.600   1.1927   0.01649   0.00872  -0.1107  0.0029  0.7394  -3.1133   0.0000   0.0000   0.0000   0.3339
   6.700   1.2024   0.01664   0.00890  -0.1105  0.0029  0.7401  -3.2219   0.0000   0.0000   0.0000   0.3328
   6.800   1.2121   0.01680   0.00909  -0.1103  0.0029  0.7409  -3.3301   0.0000   0.0000   0.0000   0.3318
   6.900   1.2217   0.01696   0.00929  -0.1101  0.0029  0.7417  -3.4377   0.0000   0.0000   0.0000   0.3308
   7.000   1.2312   0.01714   0.00949  -0.1099  0.0030  0.7424  -3.5442   0.0000   0.0000   0.0000   0.3298
   7.100   1.2406   0.01733   0.00972  -0.1096  0.0030  0.7432  -3.6494   0.0000   0.0000   0.0000   0.3287
   7.200   1.2497   0.01753   0.00995  -0.1093  0.0030  0.7440  -3.7526   0.0000   0.0000   0.0000   0.3277
   7.300   1.2587   0.01774   0.01020  -0.1090  0.0030  0.7448  -3.8541   0.0000   0.0000   0.0000   0.3267
   7.400   1.2675   0.01797   0.01046  -0.1086  0.0031  0.7456  -3.9539   0.0000   0.0000   0.0000   0.3257
   7.500   1.2761   0.01821   0.01074  -0.1082  0.0031  0.7463  -4.0517   0.0000   0.0000   0.0000   0.3246
   7.600   1.2845   0.01846   0.01106  -0.1078  0.0032  0.7470  -4.1448   0.0000   0.0000   0.0000   0.3236
   7.700   1.2926   0.01875   0.01139  -0.1073  0.0032  0.7477  -4.2382   0.0000   0.0000   0.0000   0.3226
   7.800   1.3003   0.01905   0.01174  -0.1067  0.0033  0.7482  -4.3294   0.0000   0.0000   0.0000   0.3215
   7.900   1.3076   0.01938   0.01212  -0.1061  0.0034  0.7487  -4.4176   0.0000   0.0000   0.0000   0.3205
   8.000   1.3145   0.01974   0.01253  -0.1055  0.0034  0.7492  -4.5021   0.0000   0.0000   0.0000   0.3194
   8.100   1.3209   0.02013   0.01298  -0.1047  0.0035  0.7495  -4.5825   0.0000   0.0000   0.0000   0.3183
   8.200   1.3268   0.02055   0.01346  -0.1039  0.0036  0.7499  -4.6583   0.0000   0.0000   0.0000   0.3172
   8.300   1.3322   0.02099   0.01396  -0.1030  0.0037  0.7507  -4.7297   0.0000   0.0000   0.0000   0.3160
   8.400   1.3370   0.02146   0.01450  -0.1021  0.0038  0.7519  -4.7956   0.0000   0.0000   0.0000   0.3149
   8.500   1.3408   0.02198   0.01509  -0.1009  0.0038  0.7529  -4.8541   0.0000   0.0000   0.0000   0.3137
   8.600   1.3435   0.02254   0.01572  -0.0996  0.0039  0.7539  -4.9048   0.0000   0.0000   0.0000   0.3125
   8.700   1.3442   0.02313   0.01638  -0.0980  0.0040  0.7549  -4.9446   0.0000   0.0000   0.0000   0.3111
   8.800   1.3430   0.02373   0.01705  -0.0961  0.0041  0.7558  -4.9734   0.0000   0.0000   0.0000   0.3095
   8.900   1.3411   0.02443   0.01782  -0.0941  0.0042  0.7567  -4.9949   0.0000   0.0000   0.0000   0.3080
   9.000   1.3380   0.02523   0.01869  -0.0920  0.0042  0.7577  -5.0056   0.0000   0.0000   0.0000   0.3065
   9.100   1.3331   0.02616   0.01970  -0.0898  0.0043  0.7586  -5.0002   0.0000   0.0000   0.0000   0.3049
   9.200   1.3242   0.02742   0.02105  -0.0871  0.0044  0.7595  -4.9530   0.0000   0.0000   0.0000   0.3032
   9.300   1.3258   0.02801   0.02168  -0.0860  0.0045  0.7603  -5.0099   0.0000   0.0000   0.0000   0.3021
   9.400   1.3338   0.02815   0.02183  -0.0856  0.0046  0.7612  -5.1347   0.0000   0.0000   0.0000   0.3013
   9.500   1.3410   0.02835   0.02204  -0.0852  0.0048  0.7621  -5.2519   0.0000   0.0000   0.0000   0.3005
   9.600   1.3473   0.02862   0.02234  -0.0847  0.0049  0.7630  -5.3590   0.0000   0.0000   0.0000   0.2996
   9.700   1.3522   0.02900   0.02274  -0.0840  0.0051  0.7637  -5.4521   0.0000   0.0000   0.0000   0.2987
   9.800   1.3555   0.02951   0.02330  -0.0831  0.0054  0.7645  -5.5234   0.0000   0.0000   0.0000   0.2978
   9.900   1.3556   0.03032   0.02418  -0.0819  0.0057  0.7652  -5.5458   0.0000   0.0000   0.0000   0.2967
  10.000   1.3480   0.03190   0.02589  -0.0798  0.0065  0.7658  -5.4382   0.0000   0.0000   0.0000   0.2953
  10.100   1.3390   0.03396   0.02808  -0.0774  0.0075  0.7664  -5.2822   0.0000   0.0000   0.0000   0.2938
  14.600   1.1592   0.12854   0.12628  -0.0867  0.0165  0.7887  -4.5194   0.0000   0.0000   0.0000   0.3030
  14.700   1.1511   0.13199   0.12979  -0.0891  0.0165  0.7892  -4.4679   0.0000   0.0000   0.0000   0.3054
  14.800   1.1412   0.13597   0.13382  -0.0918  0.0166  0.7896  -4.3941   0.0000   0.0000   0.0000   0.3084
  14.900   1.1326   0.13977   0.13767  -0.0944  0.0167  0.7900  -4.3295   0.0000   0.0000   0.0000   0.3112
  15.000   1.1235   0.14383   0.14179  -0.0972  0.0167  0.7904  -4.2545   0.0000   0.0000   0.0000   0.3142
  15.100   1.1162   0.14757   0.14555  -0.0999  0.0167  0.7908  -4.1955   0.0000   0.0000   0.0000   0.3171
  15.200   1.1074   0.15169   0.14972  -0.1029  0.0168  0.7912  -4.1126   0.0000   0.0000   0.0000   0.3204
  15.300   1.0996   0.15566   0.15373  -0.1058  0.0168  0.7916  -4.0350   0.0000   0.0000   0.0000   0.3237
  15.400   1.0915   0.15989   0.15800  -0.1089  0.0168  0.7919  -3.9472   0.0000   0.0000   0.0000   0.3272
  15.500   1.0846   0.16405   0.16220  -0.1120  0.0168  0.7923  -3.8652   0.0000   0.0000   0.0000   0.3306
  15.600   1.0770   0.16863   0.16682  -0.1152  0.0168  0.7926  -3.7683   0.0000   0.0000   0.0000   0.3344
  15.700   1.0701   0.17330   0.17152  -0.1185  0.0168  0.7929  -3.6689   0.0000   0.0000   0.0000   0.3381
  15.800   1.0639   0.17811   0.17636  -0.1217  0.0168  0.7932  -3.5657   0.0000   0.0000   0.0000   0.3418
  15.900   1.0588   0.18303   0.18131  -0.1248  0.0167  0.7935  -3.4591   0.0000   0.0000   0.0000   0.3453
  16.000   1.0552   0.18804   0.18635  -0.1277  0.0165  0.7938  -3.3492   0.0000   0.0000   0.0000   0.3485
  16.100   1.0541   0.19319   0.19152  -0.1301  0.0161  0.7941  -3.2254   0.0000   0.0000   0.0000   0.3511
  16.200   1.0538   0.19712   0.19545  -0.1320  0.0156  0.7945  -3.1438   0.0000   0.0000   0.0000   0.3529
  16.300   1.0532   0.20073   0.19905  -0.1338  0.0152  0.7950  -3.0733   0.0000   0.0000   0.0000   0.3546
  16.400   1.0526   0.20416   0.20247  -0.1355  0.0149  0.7954  -3.0106   0.0000   0.0000   0.0000   0.3563
  16.500   1.0521   0.20749   0.20580  -0.1372  0.0145  0.7959  -2.9516   0.0000   0.0000   0.0000   0.3579
  16.600   1.0517   0.21068   0.20899  -0.1388  0.0142  0.7964  -2.8996   0.0000   0.0000   0.0000   0.3594
  16.700   1.0517   0.21368   0.21198  -0.1403  0.0139  0.7969  -2.8564   0.0000   0.0000   0.0000   0.3607
  16.800   1.0519   0.21653   0.21484  -0.1417  0.0136  0.7974  -2.8205   0.0000   0.0000   0.0000   0.3620
  16.900   1.0524   0.21926   0.21756  -0.1431  0.0134  0.7979  -2.7911   0.0000   0.0000   0.0000   0.3631
  17.000   1.0530   0.22187   0.22017  -0.1444  0.0131  0.7985  -2.7672   0.0000   0.0000   0.0000   0.3642
  17.100   1.0539   0.22440   0.22270  -0.1457  0.0129  0.7990  -2.7482   0.0000   0.0000   0.0000   0.3651
  17.200   1.0549   0.22683   0.22513  -0.1469  0.0127  0.7996  -2.7338   0.0000   0.0000   0.0000   0.3660
  17.300   1.0561   0.22919   0.22749  -0.1481  0.0125  0.8002  -2.7238   0.0000   0.0000   0.0000   0.3668
  17.400   1.0574   0.23147   0.22976  -0.1492  0.0123  0.8007  -2.7179   0.0000   0.0000   0.0000   0.3676
  17.500   1.0588   0.23367   0.23197  -0.1503  0.0121  0.8013  -2.7162   0.0000   0.0000   0.0000   0.3683
  17.600   1.0603   0.23581   0.23411  -0.1513  0.0120  0.8018  -2.7185   0.0000   0.0000   0.0000   0.3689
  17.700   1.0620   0.23787   0.23617  -0.1524  0.0118  0.8024  -2.7248   0.0000   0.0000   0.0000   0.3694
  17.800   1.0637   0.23990   0.23820  -0.1533  0.0116  0.8029  -2.7335   0.0000   0.0000   0.0000   0.3700
  17.900   1.0655   0.24189   0.24019  -0.1543  0.0115  0.8034  -2.7452   0.0000   0.0000   0.0000   0.3705
  18.000   1.0674   0.24381   0.24211  -0.1552  0.0113  0.8039  -2.7605   0.0000   0.0000   0.0000   0.3709
  18.800   1.0682   0.26619   0.26450  -0.1643  0.0097  0.8104  -2.5251   0.0000   0.0000   0.0000   0.3781
  18.900   1.0699   0.26880   0.26712  -0.1654  0.0097  0.8113  -2.5023   0.0000   0.0000   0.0000   0.3787
  19.000   1.0716   0.27141   0.26972  -0.1664  0.0097  0.8122  -2.4802   0.0000   0.0000   0.0000   0.3794
  19.100   1.0733   0.27400   0.27232  -0.1675  0.0097  0.8131  -2.4590   0.0000   0.0000   0.0000   0.3800
  19.200   1.0750   0.27656   0.27489  -0.1686  0.0097  0.8140  -2.4391   0.0000   0.0000   0.0000   0.3805
  19.300   1.0768   0.27910   0.27744  -0.1696  0.0096  0.8150  -2.4205   0.0000   0.0000   0.0000   0.3811
  19.400   1.0787   0.28162   0.27996  -0.1707  0.0096  0.8159  -2.4034   0.0000   0.0000   0.0000   0.3816
  19.500   1.0805   0.28411   0.28245  -0.1717  0.0096  0.8169  -2.3877   0.0000   0.0000   0.0000   0.3822
  19.600   1.0825   0.28656   0.28491  -0.1727  0.0096  0.8178  -2.3738   0.0000   0.0000   0.0000   0.3827
  19.700   1.0846   0.28897   0.28734  -0.1738  0.0095  0.8188  -2.3624   0.0000   0.0000   0.0000   0.3832
  19.800   1.0868   0.29130   0.28968  -0.1748  0.0095  0.8198  -2.3542   0.0000   0.0000   0.0000   0.3836
  19.900   1.0894   0.29352   0.29190  -0.1758  0.0094  0.8209  -2.3510   0.0000   0.0000   0.0000   0.3840
  20.000   1.0924   0.29560   0.29399  -0.1768  0.0091  0.8220  -2.3521   0.0000   0.0000   0.0000   0.3843
  20.100   1.0951   0.29814   0.29653  -0.1780  0.0088  0.8231  -2.3262   0.0000   0.0000   0.0000   0.3849
  20.200   1.0970   0.30098   0.29937  -0.1793  0.0084  0.8240  -2.2875   0.0000   0.0000   0.0000   0.3856
  20.300   1.0988   0.30367   0.30206  -0.1803  0.0081  0.8249  -2.2607   0.0000   0.0000   0.0000   0.3862
  20.400   1.1005   0.30624   0.30464  -0.1813  0.0078  0.8259  -2.2428   0.0000   0.0000   0.0000   0.3867
  20.500   1.1022   0.30874   0.30714  -0.1823  0.0075  0.8268  -2.2309   0.0000   0.0000   0.0000   0.3871
  20.600   1.1039   0.31119   0.30959  -0.1832  0.0073  0.8277  -2.2234   0.0000   0.0000   0.0000   0.3875
  20.700   1.1055   0.31359   0.31199  -0.1841  0.0070  0.8286  -2.2192   0.0000   0.0000   0.0000   0.3879
  20.800   1.1072   0.31596   0.31436  -0.1850  0.0068  0.8295  -2.2179   0.0000   0.0000   0.0000   0.3883


