xflr5 v6.61

 Calculated polar for: FX 61-140 AIRFOIL

 1 1 Reynolds number fixed          Mach number fixed         

 xtrf =   1.000 (top)        1.000 (bottom)
 Mach =   0.000     Re =     1.000 e 6     Ncrit =   9.000

  alpha     CL        CD       CDp       Cm    Top Xtr Bot Xtr   Cpmin    Chinge    XCp    
 ------- -------- --------- --------- -------- ------- ------- -------- --------- ---------
 -10.000  -0.4139   0.09209   0.09051  -0.0379  1.0000  0.0069  -2.6303   0.0000   0.0000   0.0000   0.1450
  -9.900  -0.4159   0.09002   0.08844  -0.0387  1.0000  0.0069  -2.6718   0.0000   0.0000   0.0000   0.1435
  -9.800  -0.4183   0.08787   0.08631  -0.0397  1.0000  0.0069  -2.7172   0.0000   0.0000   0.0000   0.1420
  -9.700  -0.4210   0.08563   0.08408  -0.0407  1.0000  0.0070  -2.7676   0.0000   0.0000   0.0000   0.1404
  -9.600  -0.4242   0.08325   0.08171  -0.0418  1.0000  0.0070  -2.8245   0.0000   0.0000   0.0000   0.1386
  -9.500  -0.4280   0.08062   0.07909  -0.0432  1.0000  0.0069  -2.8919   0.0000   0.0000   0.0000   0.1365
  -9.400  -0.4330   0.07742   0.07590  -0.0452  1.0000  0.0069  -2.9828   0.0000   0.0000   0.0000   0.1333
  -9.300  -0.4419   0.07277   0.07125  -0.0488  1.0000  0.0068  -3.1387   0.0000   0.0000   0.0000   0.1274
  -9.200  -0.4515   0.06947   0.06793  -0.0510  1.0000  0.0067  -3.2501   0.0000   0.0000   0.0000   0.1252
  -9.100  -0.4614   0.06684   0.06528  -0.0524  1.0000  0.0066  -3.3393   0.0000   0.0000   0.0000   0.1249
  -9.000  -0.4715   0.06467   0.06309  -0.0532  1.0000  0.0066  -3.4139   0.0000   0.0000   0.0000   0.1260
  -8.900  -0.4817   0.06283   0.06123  -0.0535  1.0000  0.0065  -3.4776   0.0000   0.0000   0.0000   0.1281
  -8.800  -0.4923   0.06129   0.05967  -0.0534  1.0000  0.0065  -3.5333   0.0000   0.0000   0.0000   0.1312
  -8.700  -0.4959   0.05863   0.05696  -0.0565  0.9989  0.0065  -3.5955   0.0000   0.0000   0.0000   0.1259
  -8.600  -0.4976   0.05607   0.05433  -0.0597  0.9970  0.0065  -3.6476   0.0000   0.0000   0.0000   0.1199
  -8.500  -0.4960   0.05330   0.05148  -0.0637  0.9947  0.0065  -3.6901   0.0000   0.0000   0.0000   0.1116
  -8.400  -0.4905   0.05036   0.04844  -0.0681  0.9923  0.0066  -3.7211   0.0000   0.0000   0.0000   0.1013
  -8.300  -0.4843   0.04783   0.04582  -0.0714  0.9908  0.0067  -3.7408   0.0000   0.0000   0.0000   0.0927
  -8.200  -0.4798   0.04572   0.04361  -0.0733  0.9884  0.0068  -3.7541   0.0000   0.0000   0.0000   0.0874
  -8.100  -0.4735   0.04363   0.04142  -0.0751  0.9862  0.0070  -3.7632   0.0000   0.0000   0.0000   0.0816
  -8.000  -0.4655   0.04154   0.03922  -0.0771  0.9847  0.0071  -3.7680   0.0000   0.0000   0.0000   0.0747
  -7.900  -0.4563   0.03948   0.03705  -0.0790  0.9835  0.0073  -3.7698   0.0000   0.0000   0.0000   0.0671
  -7.800  -0.4499   0.03778   0.03525  -0.0797  0.9807  0.0075  -3.7719   0.0000   0.0000   0.0000   0.0631
  -7.700  -0.4423   0.03610   0.03346  -0.0805  0.9778  0.0077  -3.7710   0.0000   0.0000   0.0000   0.0581
  -7.200  -0.4017   0.02056   0.01656  -0.0835  0.9640  0.0049  -4.8838   0.0000   0.0000   0.0000   0.0319
  -7.100  -0.3875   0.02043   0.01641  -0.0842  0.9625  0.0047  -4.7263   0.0000   0.0000   0.0000   0.0224
  -7.000  -0.3786   0.02031   0.01628  -0.0838  0.9574  0.0047  -4.5957   0.0000   0.0000   0.0000   0.0183
  -6.900  -0.3694   0.01845   0.01429  -0.0838  0.9536  0.0040  -4.7045   0.0000   0.0000   0.0000   0.0127
  -6.800  -0.3577   0.01663   0.01227  -0.0842  0.9510  0.0039  -4.7828   0.0000   0.0000   0.0000   0.0039
  -6.600  -0.3318   0.01445   0.00987  -0.0853  0.9445  0.0037  -4.7390   0.0000   0.0000   0.0000  -0.0181
  -6.500  -0.3169   0.01358   0.00891  -0.0863  0.9402  0.0036  -4.6764   0.0000   0.0000   0.0000  -0.0335
  -6.400  -0.2986   0.01276   0.00799  -0.0881  0.9367  0.0036  -4.5845   0.0000   0.0000   0.0000  -0.0566
  -6.300  -0.2769   0.01199   0.00714  -0.0907  0.9335  0.0036  -4.4608   0.0000   0.0000   0.0000  -0.0896
  -6.200  -0.2547   0.01134   0.00640  -0.0934  0.9284  0.0036  -4.3201   0.0000   0.0000   0.0000  -0.1297
  -6.100  -0.2305   0.01077   0.00574  -0.0966  0.9225  0.0037  -4.1778   0.0000   0.0000   0.0000  -0.1830
  -5.900  -0.1855   0.01001   0.00480  -0.1021  0.9046  0.0041  -3.8729   0.0000   0.0000   0.0000  -0.3165
  -5.800  -0.1667   0.00983   0.00453  -0.1038  0.8920  0.0043  -3.7107   0.0000   0.0000   0.0000  -0.3903
  -5.700  -0.1515   0.00977   0.00440  -0.1048  0.8770  0.0044  -3.5486   0.0000   0.0000   0.0000  -0.4610
  -5.600  -0.1377   0.00924   0.00376  -0.1057  0.8619  0.0085  -3.5426   0.0000   0.0000   0.0000  -0.5380
  -5.500  -0.1260   0.00924   0.00371  -0.1059  0.8477  0.0096  -3.4019   0.0000   0.0000   0.0000  -0.6114
  -5.400  -0.1148   0.00913   0.00352  -0.1060  0.8331  0.0120  -3.2845   0.0000   0.0000   0.0000  -0.6958
  -5.300  -0.1040   0.00907   0.00342  -0.1061  0.8201  0.0135  -3.1525   0.0000   0.0000   0.0000  -0.7944
  -5.200  -0.0937   0.00905   0.00333  -0.1060  0.8062  0.0147  -3.0231   0.0000   0.0000   0.0000  -0.9079
  -5.100  -0.0829   0.00902   0.00325  -0.1060  0.7943  0.0157  -2.8928   0.0000   0.0000   0.0000  -1.0565
  -5.000  -0.0727   0.00901   0.00318  -0.1058  0.7814  0.0165  -2.7661   0.0000   0.0000   0.0000  -1.2381
  -4.900  -0.0620   0.00900   0.00312  -0.1058  0.7708  0.0170  -2.6380   0.0000   0.0000   0.0000  -1.4919
  -4.800  -0.0513   0.00897   0.00304  -0.1058  0.7595  0.0179  -2.5146   0.0000   0.0000   0.0000  -1.8534
  -4.700  -0.0407   0.00892   0.00293  -0.1058  0.7489  0.0205  -2.3981   0.0000   0.0000   0.0000  -2.3977
  -4.600  -0.0294   0.00885   0.00285  -0.1059  0.7403  0.0228  -2.2754   0.0000   0.0000   0.0000  -3.4250
  -4.500  -0.0183   0.00880   0.00278  -0.1060  0.7309  0.0251  -2.1609   0.0000   0.0000   0.0000  -5.6354
  -4.300   0.0043   0.00862   0.00261  -0.1064  0.7147  0.0431  -1.9715   0.0000   0.0000   0.0000  25.1968
  -4.200   0.0165   0.00843   0.00250  -0.1069  0.7069  0.0662  -1.8768   0.0000   0.0000   0.0000   6.8491
  -4.100   0.0294   0.00810   0.00234  -0.1078  0.6985  0.1179  -1.7818   0.0000   0.0000   0.0000   3.9727
  -4.000   0.0436   0.00763   0.00214  -0.1092  0.6904  0.2002  -1.6844   0.0000   0.0000   0.0000   2.7896
  -3.900   0.0585   0.00720   0.00194  -0.1106  0.6845  0.2743  -1.5894   0.0000   0.0000   0.0000   2.1671
  -3.800   0.0746   0.00669   0.00176  -0.1124  0.6776  0.3723  -1.4859   0.0000   0.0000   0.0000   1.7760
  -3.700   0.0889   0.00643   0.00165  -0.1134  0.6703  0.4296  -1.3900   0.0000   0.0000   0.0000   1.5432
  -3.500   0.1147   0.00620   0.00156  -0.1146  0.6573  0.4955  -1.2112   0.0000   0.0000   0.0000   1.2605
  -3.400   0.1274   0.00614   0.00154  -0.1150  0.6520  0.5152  -1.1251   0.0000   0.0000   0.0000   1.1631
  -3.300   0.1393   0.00612   0.00152  -0.1153  0.6459  0.5291  -1.0430   0.0000   0.0000   0.0000   1.0861
  -3.200   0.1511   0.00612   0.00151  -0.1155  0.6392  0.5402  -0.9629   0.0000   0.0000   0.0000   1.0217
  -3.000   0.1746   0.00613   0.00150  -0.1158  0.6267  0.5638  -0.8075   0.0000   0.0000   0.0000   0.9191
  -2.900   0.1868   0.00612   0.00151  -0.1161  0.6219  0.5768  -0.7308   0.0000   0.0000   0.0000   0.8766
  -2.800   0.1985   0.00613   0.00154  -0.1162  0.6165  0.5897  -0.6568   0.0000   0.0000   0.0000   0.8400
  -2.700   0.2100   0.00617   0.00155  -0.1163  0.6108  0.6003  -0.6034   0.0000   0.0000   0.0000   0.8078
  -2.600   0.2213   0.00622   0.00162  -0.1163  0.6046  0.6131  -0.6121   0.0000   0.0000   0.0000   0.7791
  -2.500   0.2325   0.00629   0.00167  -0.1163  0.5980  0.6205  -0.6211   0.0000   0.0000   0.0000   0.7534
  -2.400   0.2441   0.00633   0.00168  -0.1164  0.5948  0.6246  -0.6304   0.0000   0.0000   0.0000   0.7295
  -2.300   0.2558   0.00636   0.00169  -0.1165  0.5911  0.6271  -0.6398   0.0000   0.0000   0.0000   0.7078
  -2.200   0.2674   0.00640   0.00170  -0.1166  0.5867  0.6288  -0.6491   0.0000   0.0000   0.0000   0.6881
  -2.100   0.2789   0.00643   0.00170  -0.1167  0.5819  0.6313  -0.6584   0.0000   0.0000   0.0000   0.6701
  -2.000   0.2903   0.00646   0.00168  -0.1167  0.5768  0.6352  -0.6676   0.0000   0.0000   0.0000   0.6537
  -1.900   0.3015   0.00650   0.00170  -0.1168  0.5712  0.6383  -0.6767   0.0000   0.0000   0.0000   0.6386
  -1.700   0.3244   0.00657   0.00174  -0.1169  0.5632  0.6425  -0.6953   0.0000   0.0000   0.0000   0.6112
  -1.600   0.3360   0.00659   0.00175  -0.1170  0.5606  0.6444  -0.7048   0.0000   0.0000   0.0000   0.5988
  -1.500   0.3476   0.00662   0.00177  -0.1171  0.5576  0.6462  -0.7142   0.0000   0.0000   0.0000   0.5873
  -1.400   0.3591   0.00665   0.00178  -0.1172  0.5543  0.6481  -0.7236   0.0000   0.0000   0.0000   0.5765
  -1.300   0.3706   0.00669   0.00180  -0.1173  0.5508  0.6500  -0.7329   0.0000   0.0000   0.0000   0.5664
  -1.200   0.3820   0.00674   0.00182  -0.1173  0.5471  0.6517  -0.7423   0.0000   0.0000   0.0000   0.5570
  -1.100   0.3933   0.00679   0.00184  -0.1174  0.5431  0.6532  -0.7517   0.0000   0.0000   0.0000   0.5481
  -1.000   0.4047   0.00684   0.00185  -0.1174  0.5386  0.6545  -0.7610   0.0000   0.0000   0.0000   0.5397
  -0.800   0.4277   0.00691   0.00188  -0.1176  0.5316  0.6568  -0.7799   0.0000   0.0000   0.0000   0.5242
  -0.700   0.4394   0.00693   0.00190  -0.1178  0.5299  0.6579  -0.7895   0.0000   0.0000   0.0000   0.5171
  -0.600   0.4511   0.00696   0.00191  -0.1179  0.5279  0.6588  -0.7991   0.0000   0.0000   0.0000   0.5103
  -0.500   0.4627   0.00699   0.00193  -0.1180  0.5255  0.6596  -0.8087   0.0000   0.0000   0.0000   0.5038
  -0.400   0.4742   0.00703   0.00195  -0.1181  0.5229  0.6602  -0.8182   0.0000   0.0000   0.0000   0.4977
  -0.300   0.4857   0.00707   0.00197  -0.1182  0.5201  0.6608  -0.8278   0.0000   0.0000   0.0000   0.4918
  -0.200   0.4974   0.00706   0.00195  -0.1184  0.5172  0.6634  -0.8374   0.0000   0.0000   0.0000   0.4863
  -0.100   0.5088   0.00708   0.00195  -0.1185  0.5140  0.6655  -0.8470   0.0000   0.0000   0.0000   0.4811
   0.000   0.5202   0.00711   0.00197  -0.1185  0.5104  0.6673  -0.8564   0.0000   0.0000   0.0000   0.4760
   0.100   0.5314   0.00715   0.00199  -0.1186  0.5060  0.6687  -0.8659   0.0000   0.0000   0.0000   0.4712
   0.200   0.5426   0.00720   0.00202  -0.1186  0.5014  0.6700  -0.8756   0.0000   0.0000   0.0000   0.4665
   0.300   0.5542   0.00723   0.00205  -0.1187  0.4993  0.6711  -0.8861   0.0000   0.0000   0.0000   0.4621
   0.400   0.5658   0.00724   0.00207  -0.1188  0.4979  0.6722  -0.8972   0.0000   0.0000   0.0000   0.4578
   0.500   0.5775   0.00726   0.00209  -0.1190  0.4962  0.6732  -0.9088   0.0000   0.0000   0.0000   0.4536
   0.600   0.5890   0.00728   0.00211  -0.1191  0.4942  0.6742  -0.9203   0.0000   0.0000   0.0000   0.4496
   0.700   0.6005   0.00731   0.00214  -0.1191  0.4919  0.6754  -0.9319   0.0000   0.0000   0.0000   0.4458
   0.800   0.6119   0.00734   0.00217  -0.1192  0.4894  0.6765  -0.9434   0.0000   0.0000   0.0000   0.4421
   0.900   0.6233   0.00738   0.00220  -0.1193  0.4866  0.6777  -0.9549   0.0000   0.0000   0.0000   0.4386
   1.000   0.6346   0.00743   0.00223  -0.1193  0.4836  0.6789  -0.9663   0.0000   0.0000   0.0000   0.4351
   1.100   0.6458   0.00748   0.00226  -0.1194  0.4805  0.6801  -0.9778   0.0000   0.0000   0.0000   0.4318
   1.200   0.6570   0.00753   0.00229  -0.1194  0.4772  0.6813  -0.9892   0.0000   0.0000   0.0000   0.4286
   1.300   0.6682   0.00758   0.00233  -0.1194  0.4736  0.6824  -1.0006   0.0000   0.0000   0.0000   0.4255
   1.400   0.6794   0.00764   0.00237  -0.1195  0.4699  0.6835  -1.0120   0.0000   0.0000   0.0000   0.4226
   1.500   0.6908   0.00769   0.00241  -0.1196  0.4671  0.6844  -1.0235   0.0000   0.0000   0.0000   0.4197
   1.600   0.7024   0.00771   0.00243  -0.1197  0.4662  0.6853  -1.0353   0.0000   0.0000   0.0000   0.4169
   1.700   0.7141   0.00773   0.00246  -0.1198  0.4651  0.6861  -1.0472   0.0000   0.0000   0.0000   0.4142
   1.800   0.7257   0.00775   0.00248  -0.1199  0.4638  0.6868  -1.0590   0.0000   0.0000   0.0000   0.4116
   1.900   0.7373   0.00777   0.00253  -0.1200  0.4623  0.6875  -1.0709   0.0000   0.0000   0.0000   0.4090
   2.000   0.7488   0.00780   0.00255  -0.1202  0.4606  0.6882  -1.0827   0.0000   0.0000   0.0000   0.4066
   2.100   0.7603   0.00783   0.00258  -0.1203  0.4587  0.6888  -1.0945   0.0000   0.0000   0.0000   0.4042
   2.200   0.7718   0.00786   0.00261  -0.1204  0.4566  0.6893  -1.1063   0.0000   0.0000   0.0000   0.4019
   2.300   0.7832   0.00790   0.00264  -0.1204  0.4544  0.6898  -1.1182   0.0000   0.0000   0.0000   0.3996
   2.400   0.7945   0.00794   0.00268  -0.1205  0.4520  0.6903  -1.1299   0.0000   0.0000   0.0000   0.3974
   2.500   0.8058   0.00800   0.00271  -0.1206  0.4488  0.6907  -1.1417   0.0000   0.0000   0.0000   0.3953
   2.600   0.8164   0.00810   0.00275  -0.1205  0.4395  0.6910  -1.1531   0.0000   0.0000   0.0000   0.3931
   2.700   0.8276   0.00814   0.00276  -0.1206  0.4315  0.6913  -1.1652   0.0000   0.0000   0.0000   0.3911
   2.800   0.8389   0.00817   0.00274  -0.1207  0.4195  0.6929  -1.1775   0.0000   0.0000   0.0000   0.3892
   2.900   0.8491   0.00830   0.00275  -0.1206  0.4020  0.6944  -1.1888   0.0000   0.0000   0.0000   0.3873
   3.000   0.8604   0.00833   0.00276  -0.1207  0.3929  0.6958  -1.2010   0.0000   0.0000   0.0000   0.3854
   3.100   0.8714   0.00839   0.00279  -0.1207  0.3850  0.6970  -1.2128   0.0000   0.0000   0.0000   0.3836
   3.200   0.8821   0.00849   0.00283  -0.1207  0.3766  0.6980  -1.2251   0.0000   0.0000   0.0000   0.3818
   3.300   0.8931   0.00856   0.00288  -0.1208  0.3693  0.6990  -1.2391   0.0000   0.0000   0.0000   0.3800
   3.400   0.9043   0.00861   0.00292  -0.1208  0.3640  0.7000  -1.2533   0.0000   0.0000   0.0000   0.3783
   3.500   0.9151   0.00869   0.00297  -0.1208  0.3559  0.7010  -1.2673   0.0000   0.0000   0.0000   0.3766
   3.600   0.9272   0.00864   0.00304  -0.1210  0.3672  0.7019  -1.2822   0.0000   0.0000   0.0000   0.3750
   3.700   0.9383   0.00870   0.00309  -0.1210  0.3626  0.7028  -1.2964   0.0000   0.0000   0.0000   0.3734
   3.800   0.9491   0.00878   0.00314  -0.1210  0.3554  0.7037  -1.3105   0.0000   0.0000   0.0000   0.3718
   3.900   0.9595   0.00891   0.00321  -0.1209  0.3453  0.7046  -1.3243   0.0000   0.0000   0.0000   0.3702
   4.000   0.9702   0.00901   0.00327  -0.1209  0.3365  0.7054  -1.3383   0.0000   0.0000   0.0000   0.3687
   4.100   0.9808   0.00911   0.00334  -0.1208  0.3261  0.7062  -1.3524   0.0000   0.0000   0.0000   0.3672
   4.200   0.9904   0.00932   0.00344  -0.1207  0.3082  0.7070  -1.3656   0.0000   0.0000   0.0000   0.3657
   4.300   1.0003   0.00950   0.00354  -0.1205  0.2918  0.7078  -1.3792   0.0000   0.0000   0.0000   0.3642
   4.400   1.0095   0.00976   0.00367  -0.1203  0.2697  0.7085  -1.3923   0.0000   0.0000   0.0000   0.3628
   4.500   1.0175   0.01015   0.00386  -0.1199  0.2368  0.7093  -1.4129   0.0000   0.0000   0.0000   0.3614
   4.700   1.0288   0.01147   0.00459  -0.1184  0.1347  0.7108  -1.4756   0.0000   0.0000   0.0000   0.3584
   4.800   1.0336   0.01223   0.00504  -0.1175  0.0807  0.7116  -1.5045   0.0000   0.0000   0.0000   0.3569
   4.900   1.0353   0.01336   0.00578  -0.1160  0.0043  0.7124  -1.5203   0.0000   0.0000   0.0000   0.3552
   5.000   1.0458   0.01347   0.00587  -0.1159  0.0039  0.7132  -1.5851   0.0000   0.0000   0.0000   0.3539
   5.100   1.0562   0.01359   0.00597  -0.1159  0.0035  0.7141  -1.6391   0.0000   0.0000   0.0000   0.3526
   5.200   1.0667   0.01369   0.00606  -0.1158  0.0030  0.7148  -1.6825   0.0000   0.0000   0.0000   0.3513
   5.300   1.0774   0.01377   0.00616  -0.1158  0.0027  0.7156  -1.7852   0.0000   0.0000   0.0000   0.3501
   5.400   1.0879   0.01388   0.00628  -0.1157  0.0026  0.7162  -1.8882   0.0000   0.0000   0.0000   0.3489
   5.500   1.0983   0.01400   0.00643  -0.1156  0.0024  0.7169  -2.0079   0.0000   0.0000   0.0000   0.3477
   5.600   1.1087   0.01411   0.00656  -0.1155  0.0023  0.7174  -2.1226   0.0000   0.0000   0.0000   0.3465
   5.700   1.1190   0.01423   0.00668  -0.1155  0.0023  0.7179  -2.2304   0.0000   0.0000   0.0000   0.3454
   5.800   1.1294   0.01435   0.00682  -0.1154  0.0023  0.7184  -2.3375   0.0000   0.0000   0.0000   0.3442
   5.900   1.1397   0.01447   0.00695  -0.1153  0.0022  0.7189  -2.4448   0.0000   0.0000   0.0000   0.3431
   6.000   1.1499   0.01459   0.00709  -0.1152  0.0022  0.7193  -2.5527   0.0000   0.0000   0.0000   0.3420
   6.100   1.1602   0.01471   0.00723  -0.1151  0.0022  0.7197  -2.6611   0.0000   0.0000   0.0000   0.3409
   6.200   1.1704   0.01484   0.00737  -0.1149  0.0023  0.7201  -2.7702   0.0000   0.0000   0.0000   0.3398
   6.300   1.1805   0.01497   0.00752  -0.1148  0.0023  0.7204  -2.8800   0.0000   0.0000   0.0000   0.3387
   6.400   1.1906   0.01511   0.00768  -0.1147  0.0023  0.7207  -2.9903   0.0000   0.0000   0.0000   0.3376
   6.500   1.2005   0.01525   0.00784  -0.1145  0.0023  0.7210  -3.1012   0.0000   0.0000   0.0000   0.3366
   6.600   1.2105   0.01539   0.00800  -0.1144  0.0024  0.7215  -3.2128   0.0000   0.0000   0.0000   0.3355
   6.700   1.2207   0.01552   0.00816  -0.1143  0.0024  0.7229  -3.3260   0.0000   0.0000   0.0000   0.3345
   6.800   1.2307   0.01567   0.00833  -0.1142  0.0024  0.7241  -3.4385   0.0000   0.0000   0.0000   0.3336
   6.900   1.2405   0.01583   0.00852  -0.1140  0.0025  0.7253  -3.5502   0.0000   0.0000   0.0000   0.3325
   7.000   1.2501   0.01600   0.00872  -0.1138  0.0025  0.7263  -3.6608   0.0000   0.0000   0.0000   0.3315
   7.100   1.2596   0.01617   0.00893  -0.1135  0.0026  0.7272  -3.7695   0.0000   0.0000   0.0000   0.3305
   7.200   1.2689   0.01637   0.00917  -0.1133  0.0027  0.7281  -3.8752   0.0000   0.0000   0.0000   0.3295
   7.300   1.2780   0.01658   0.00941  -0.1130  0.0028  0.7290  -3.9769   0.0000   0.0000   0.0000   0.3285
   7.400   1.2870   0.01680   0.00968  -0.1126  0.0029  0.7299  -4.0734   0.0000   0.0000   0.0000   0.3275
   7.500   1.2958   0.01703   0.00997  -0.1122  0.0029  0.7308  -4.1655   0.0000   0.0000   0.0000   0.3264
   7.600   1.3042   0.01730   0.01029  -0.1117  0.0031  0.7317  -4.2543   0.0000   0.0000   0.0000   0.3254
   7.700   1.3122   0.01759   0.01064  -0.1112  0.0032  0.7325  -4.3384   0.0000   0.0000   0.0000   0.3243
   7.800   1.3198   0.01793   0.01103  -0.1106  0.0033  0.7333  -4.4176   0.0000   0.0000   0.0000   0.3232
   7.900   1.3267   0.01830   0.01147  -0.1099  0.0035  0.7341  -4.4909   0.0000   0.0000   0.0000   0.3221
   8.000   1.3330   0.01873   0.01197  -0.1090  0.0036  0.7349  -4.5565   0.0000   0.0000   0.0000   0.3209
   8.100   1.3384   0.01922   0.01253  -0.1081  0.0038  0.7356  -4.6125   0.0000   0.0000   0.0000   0.3197
   8.200   1.3423   0.01980   0.01320  -0.1068  0.0040  0.7363  -4.6551   0.0000   0.0000   0.0000   0.3185
   8.300   1.3441   0.02052   0.01401  -0.1053  0.0041  0.7370  -4.6771   0.0000   0.0000   0.0000   0.3171
   8.400   1.3412   0.02154   0.01514  -0.1030  0.0043  0.7377  -4.6534   0.0000   0.0000   0.0000   0.3154
   8.500   1.3420   0.02224   0.01591  -0.1014  0.0045  0.7383  -4.6762   0.0000   0.0000   0.0000   0.3140
   8.600   1.3542   0.02215   0.01579  -0.1016  0.0048  0.7390  -4.8292   0.0000   0.0000   0.0000   0.3133
   8.700   1.3643   0.02219   0.01584  -0.1014  0.0051  0.7397  -4.9614   0.0000   0.0000   0.0000   0.3125
   8.800   1.3716   0.02242   0.01609  -0.1008  0.0054  0.7403  -5.0616   0.0000   0.0000   0.0000   0.3115
   8.900   1.3706   0.02302   0.01678  -0.0986  0.0061  0.7410  -5.0583   0.0000   0.0000   0.0000   0.3098
   9.000   1.3563   0.02448   0.01841  -0.0943  0.0073  0.7417  -4.8880   0.0000   0.0000   0.0000   0.3072
   9.100   1.3443   0.02601   0.02006  -0.0907  0.0083  0.7424  -4.7692   0.0000   0.0000   0.0000   0.3050


