xflr5 v6.61

 Calculated polar for: FX 60-100 AIRFOIL

 1 1 Reynolds number fixed          Mach number fixed         

 xtrf =   1.000 (top)        1.000 (bottom)
 Mach =   0.000     Re =     0.625 e 6     Ncrit =   9.000

  alpha     CL        CD       CDp       Cm    Top Xtr Bot Xtr   Cpmin    Chinge    XCp    
 ------- -------- --------- --------- -------- ------- ------- -------- --------- ---------
 -10.000  -0.3675   0.10560   0.10347  -0.0306  1.0000  0.0097  -2.0142   0.0000   0.0000   0.0000   0.1574
  -9.900  -0.3660   0.10405   0.10193  -0.0312  1.0000  0.0097  -2.0331   0.0000   0.0000   0.0000   0.1554
  -9.800  -0.3644   0.10249   0.10038  -0.0319  1.0000  0.0097  -2.0532   0.0000   0.0000   0.0000   0.1534
  -9.700  -0.3630   0.10093   0.09880  -0.0325  1.0000  0.0097  -2.0767   0.0000   0.0000   0.0000   0.1514
  -9.600  -0.3617   0.09938   0.09725  -0.0331  1.0000  0.0097  -2.0976   0.0000   0.0000   0.0000   0.1494
  -9.500  -0.3605   0.09782   0.09570  -0.0337  1.0000  0.0097  -2.1195   0.0000   0.0000   0.0000   0.1475
  -9.400  -0.3594   0.09626   0.09415  -0.0343  1.0000  0.0097  -2.1423   0.0000   0.0000   0.0000   0.1455
  -9.300  -0.3583   0.09468   0.09258  -0.0350  1.0000  0.0097  -2.1661   0.0000   0.0000   0.0000   0.1435
  -9.200  -0.3573   0.09308   0.09099  -0.0356  1.0000  0.0098  -2.1909   0.0000   0.0000   0.0000   0.1415
  -9.100  -0.3565   0.09148   0.08940  -0.0362  1.0000  0.0098  -2.2169   0.0000   0.0000   0.0000   0.1396
  -9.000  -0.3558   0.08987   0.08781  -0.0368  1.0000  0.0098  -2.2440   0.0000   0.0000   0.0000   0.1377
  -8.900  -0.3553   0.08827   0.08622  -0.0375  1.0000  0.0098  -2.2724   0.0000   0.0000   0.0000   0.1359
  -8.800  -0.3550   0.08667   0.08463  -0.0380  1.0000  0.0098  -2.3020   0.0000   0.0000   0.0000   0.1343
  -8.700  -0.3550   0.08508   0.08305  -0.0386  1.0000  0.0098  -2.3330   0.0000   0.0000   0.0000   0.1328
  -8.600  -0.3554   0.08350   0.08149  -0.0391  1.0000  0.0098  -2.3653   0.0000   0.0000   0.0000   0.1316
  -8.500  -0.3561   0.08194   0.07994  -0.0395  1.0000  0.0098  -2.3990   0.0000   0.0000   0.0000   0.1308
  -8.400  -0.3573   0.08041   0.07842  -0.0398  1.0000  0.0098  -2.4338   0.0000   0.0000   0.0000   0.1304
  -8.300  -0.3592   0.07893   0.07696  -0.0400  1.0000  0.0098  -2.4698   0.0000   0.0000   0.0000   0.1305
  -8.200  -0.3621   0.07755   0.07561  -0.0400  1.0000  0.0098  -2.5060   0.0000   0.0000   0.0000   0.1317
  -8.100  -0.3666   0.07640   0.07448  -0.0394  1.0000  0.0098  -2.5409   0.0000   0.0000   0.0000   0.1347
  -8.000  -0.3738   0.07563   0.07374  -0.0381  1.0000  0.0098  -2.5717   0.0000   0.0000   0.0000   0.1405
  -7.900  -0.3807   0.07482   0.07296  -0.0370  0.9998  0.0098  -2.6039   0.0000   0.0000   0.0000   0.1455
  -7.800  -0.3748   0.07181   0.06994  -0.0405  0.9980  0.0098  -2.6723   0.0000   0.0000   0.0000   0.1344
  -7.700  -0.3685   0.06843   0.06657  -0.0446  0.9960  0.0098  -2.7576   0.0000   0.0000   0.0000   0.1214
  -7.500  -0.3519   0.05762   0.05574  -0.0588  0.9906  0.0098  -3.0817   0.0000   0.0000   0.0000   0.0749
  -7.400  -0.3382   0.05081   0.04880  -0.0725  0.9862  0.0098  -3.2506   0.0000   0.0000   0.0000   0.0274
  -7.300  -0.3191   0.04479   0.04256  -0.0868  0.9836  0.0098  -3.3740   0.0000   0.0000   0.0000  -0.0304
  -7.200  -0.3106   0.03547   0.03276  -0.1003  0.9780  0.0101  -3.8231   0.0000   0.0000   0.0000  -0.0818
  -7.100  -0.2986   0.03058   0.02752  -0.1060  0.9756  0.0103  -4.0136   0.0000   0.0000   0.0000  -0.1143
  -7.000  -0.2852   0.02749   0.02417  -0.1094  0.9741  0.0105  -4.0990   0.0000   0.0000   0.0000  -0.1433
  -6.800  -0.2633   0.02466   0.02111  -0.1122  0.9690  0.0115  -3.9728   0.0000   0.0000   0.0000  -0.1863
  -6.700  -0.2518   0.02495   0.02146  -0.1127  0.9673  0.0123  -3.7434   0.0000   0.0000   0.0000  -0.2079
  -6.600  -0.2394   0.02456   0.02103  -0.1136  0.9656  0.0132  -3.6065   0.0000   0.0000   0.0000  -0.2349
  -6.500  -0.2264   0.02418   0.02058  -0.1143  0.9640  0.0146  -3.4915   0.0000   0.0000   0.0000  -0.2656
  -6.400  -0.2124   0.02313   0.01921  -0.1159  0.9624  0.0184  -3.4382   0.0000   0.0000   0.0000  -0.3070
  -6.300  -0.2030   0.02211   0.01817  -0.1164  0.9593  0.0194  -3.3387   0.0000   0.0000   0.0000  -0.3352
  -6.200  -0.1928   0.02173   0.01781  -0.1167  0.9565  0.0201  -3.2104   0.0000   0.0000   0.0000  -0.3670
  -6.100  -0.1817   0.02134   0.01739  -0.1170  0.9540  0.0210  -3.0884   0.0000   0.0000   0.0000  -0.4063
  -6.000  -0.1702   0.02092   0.01691  -0.1174  0.9519  0.0221  -2.9781   0.0000   0.0000   0.0000  -0.4525
  -5.900  -0.1583   0.02049   0.01641  -0.1177  0.9501  0.0233  -2.8775   0.0000   0.0000   0.0000  -0.5073
  -5.800  -0.1459   0.02018   0.01602  -0.1180  0.9485  0.0245  -2.7790   0.0000   0.0000   0.0000  -0.5727
  -5.700  -0.1358   0.01917   0.01479  -0.1187  0.9453  0.0288  -2.7004   0.0000   0.0000   0.0000  -0.6388
  -5.600  -0.1256   0.01858   0.01420  -0.1188  0.9426  0.0297  -2.5952   0.0000   0.0000   0.0000  -0.7123
  -5.500  -0.1152   0.01831   0.01397  -0.1189  0.9402  0.0311  -2.4709   0.0000   0.0000   0.0000  -0.7996
  -5.400  -0.1044   0.01822   0.01388  -0.1191  0.9379  0.0331  -2.3457   0.0000   0.0000   0.0000  -0.9088
  -5.100  -0.0659   0.01402   0.00898  -0.1182  0.9318  0.0182  -2.4945   0.0000   0.0000   0.0000  -1.5723
  -5.000  -0.0550   0.01380   0.00879  -0.1179  0.9289  0.0165  -2.4453   0.0000   0.0000   0.0000  -1.9250
  -4.900  -0.0442   0.01282   0.00773  -0.1179  0.9260  0.0157  -2.4507   0.0000   0.0000   0.0000  -2.4595
  -4.800  -0.0331   0.01218   0.00704  -0.1179  0.9233  0.0151  -2.4297   0.0000   0.0000   0.0000  -3.3644
  -4.700  -0.0218   0.01166   0.00646  -0.1179  0.9208  0.0145  -2.4022   0.0000   0.0000   0.0000  -5.2302
  -4.600  -0.0103   0.01120   0.00594  -0.1179  0.9184  0.0140  -2.3698   0.0000   0.0000   0.0000  -11.3432
  -4.500   0.0014   0.01080   0.00548  -0.1179  0.9161  0.0136  -2.3326   0.0000   0.0000   0.0000  87.4460
  -4.400   0.0128   0.01046   0.00509  -0.1180  0.9133  0.0133  -2.2901   0.0000   0.0000   0.0000   9.6076
  -4.300   0.0242   0.01016   0.00474  -0.1180  0.9103  0.0130  -2.2437   0.0000   0.0000   0.0000   5.1844
  -4.200   0.0357   0.00989   0.00442  -0.1181  0.9074  0.0128  -2.1938   0.0000   0.0000   0.0000   3.5932
  -4.100   0.0474   0.00964   0.00408  -0.1181  0.9047  0.0126  -2.1516   0.0000   0.0000   0.0000   2.7724
  -4.000   0.0590   0.00943   0.00382  -0.1182  0.9021  0.0125  -2.0942   0.0000   0.0000   0.0000   2.2758
  -3.900   0.0706   0.00925   0.00359  -0.1182  0.8997  0.0124  -2.0346   0.0000   0.0000   0.0000   1.9419
  -3.800   0.0823   0.00909   0.00338  -0.1182  0.8972  0.0124  -1.9736   0.0000   0.0000   0.0000   1.7019
  -3.700   0.0938   0.00894   0.00319  -0.1183  0.8944  0.0124  -1.9121   0.0000   0.0000   0.0000   1.5236
  -3.600   0.1053   0.00880   0.00301  -0.1183  0.8914  0.0125  -1.8507   0.0000   0.0000   0.0000   1.3847
  -3.500   0.1167   0.00867   0.00285  -0.1183  0.8881  0.0126  -1.7899   0.0000   0.0000   0.0000   1.2732
  -3.400   0.1281   0.00856   0.00269  -0.1182  0.8850  0.0129  -1.7302   0.0000   0.0000   0.0000   1.1814
  -3.300   0.1395   0.00845   0.00253  -0.1182  0.8818  0.0133  -1.6725   0.0000   0.0000   0.0000   1.1045
  -3.200   0.1510   0.00836   0.00238  -0.1181  0.8787  0.0140  -1.6182   0.0000   0.0000   0.0000   1.0391
  -3.100   0.1625   0.00827   0.00224  -0.1181  0.8754  0.0154  -1.5713   0.0000   0.0000   0.0000   0.9827
  -3.000   0.1748   0.00783   0.00198  -0.1185  0.8722  0.0741  -1.5938   0.0000   0.0000   0.0000   0.9330
  -2.900   0.1864   0.00755   0.00187  -0.1187  0.8684  0.1178  -1.5228   0.0000   0.0000   0.0000   0.8917
  -2.800   0.1978   0.00732   0.00177  -0.1189  0.8644  0.1602  -1.4390   0.0000   0.0000   0.0000   0.8554
  -2.700   0.2092   0.00708   0.00168  -0.1191  0.8604  0.2093  -1.3525   0.0000   0.0000   0.0000   0.8231
  -2.600   0.2205   0.00689   0.00162  -0.1192  0.8565  0.2537  -1.2654   0.0000   0.0000   0.0000   0.7941
  -2.500   0.2318   0.00679   0.00157  -0.1193  0.8527  0.2785  -1.1784   0.0000   0.0000   0.0000   0.7676
  -2.400   0.2432   0.00669   0.00155  -0.1194  0.8489  0.3038  -1.0918   0.0000   0.0000   0.0000   0.7436
  -2.300   0.2545   0.00659   0.00153  -0.1194  0.8449  0.3290  -1.0059   0.0000   0.0000   0.0000   0.7217
  -2.200   0.2657   0.00652   0.00152  -0.1195  0.8407  0.3527  -0.9207   0.0000   0.0000   0.0000   0.7017
  -2.100   0.2769   0.00650   0.00148  -0.1194  0.8365  0.3637  -0.8353   0.0000   0.0000   0.0000   0.6831
  -2.000   0.2879   0.00661   0.00138  -0.1191  0.8322  0.3271  -0.7375   0.0000   0.0000   0.0000   0.6655
  -1.900   0.2992   0.00653   0.00137  -0.1192  0.8279  0.3547  -0.6601   0.0000   0.0000   0.0000   0.6498
  -1.800   0.3105   0.00646   0.00137  -0.1192  0.8234  0.3799  -0.5839   0.0000   0.0000   0.0000   0.6352
  -1.700   0.3217   0.00642   0.00137  -0.1192  0.8182  0.4013  -0.5094   0.0000   0.0000   0.0000   0.6216
  -1.600   0.3329   0.00637   0.00138  -0.1192  0.8129  0.4194  -0.5138   0.0000   0.0000   0.0000   0.6090
  -1.500   0.3439   0.00638   0.00136  -0.1191  0.8077  0.4302  -0.5221   0.0000   0.0000   0.0000   0.5970
  -1.400   0.3550   0.00639   0.00134  -0.1190  0.8028  0.4345  -0.5305   0.0000   0.0000   0.0000   0.5857
  -1.300   0.3664   0.00637   0.00133  -0.1190  0.7978  0.4400  -0.5389   0.0000   0.0000   0.0000   0.5752
  -1.200   0.3776   0.00636   0.00132  -0.1189  0.7924  0.4456  -0.5473   0.0000   0.0000   0.0000   0.5653
  -1.100   0.3888   0.00635   0.00131  -0.1189  0.7871  0.4508  -0.5557   0.0000   0.0000   0.0000   0.5560
  -1.000   0.3998   0.00637   0.00129  -0.1188  0.7819  0.4559  -0.5641   0.0000   0.0000   0.0000   0.5472
  -0.900   0.4110   0.00638   0.00128  -0.1187  0.7769  0.4606  -0.5725   0.0000   0.0000   0.0000   0.5388
  -0.800   0.4223   0.00638   0.00128  -0.1187  0.7721  0.4646  -0.5815   0.0000   0.0000   0.0000   0.5309
  -0.700   0.4336   0.00639   0.00127  -0.1187  0.7666  0.4680  -0.5915   0.0000   0.0000   0.0000   0.5235
  -0.600   0.4448   0.00638   0.00127  -0.1187  0.7609  0.4737  -0.6016   0.0000   0.0000   0.0000   0.5164
  -0.500   0.4559   0.00639   0.00127  -0.1186  0.7553  0.4797  -0.6115   0.0000   0.0000   0.0000   0.5096
  -0.400   0.4670   0.00641   0.00127  -0.1185  0.7499  0.4859  -0.6215   0.0000   0.0000   0.0000   0.5032
  -0.300   0.4783   0.00641   0.00128  -0.1185  0.7449  0.4918  -0.6317   0.0000   0.0000   0.0000   0.4971
  -0.200   0.4895   0.00643   0.00128  -0.1185  0.7382  0.4969  -0.6418   0.0000   0.0000   0.0000   0.4912
  -0.100   0.5005   0.00647   0.00128  -0.1184  0.7300  0.5009  -0.6518   0.0000   0.0000   0.0000   0.4856
   0.000   0.5112   0.00650   0.00128  -0.1182  0.7214  0.5075  -0.6617   0.0000   0.0000   0.0000   0.4803
   0.100   0.5224   0.00650   0.00129  -0.1182  0.7135  0.5131  -0.6718   0.0000   0.0000   0.0000   0.4751
   0.200   0.5334   0.00653   0.00130  -0.1181  0.7033  0.5179  -0.6832   0.0000   0.0000   0.0000   0.4702
   0.300   0.5440   0.00659   0.00131  -0.1180  0.6928  0.5222  -0.6950   0.0000   0.0000   0.0000   0.4655
   0.400   0.5551   0.00662   0.00132  -0.1179  0.6839  0.5263  -0.7089   0.0000   0.0000   0.0000   0.4610
   0.500   0.5660   0.00666   0.00133  -0.1178  0.6739  0.5302  -0.7275   0.0000   0.0000   0.0000   0.4566
   0.700   0.5878   0.00675   0.00137  -0.1176  0.6569  0.5408  -0.7648   0.0000   0.0000   0.0000   0.4485
   0.800   0.5989   0.00677   0.00140  -0.1176  0.6485  0.5471  -0.7837   0.0000   0.0000   0.0000   0.4446
   0.900   0.6098   0.00682   0.00143  -0.1175  0.6389  0.5531  -0.8026   0.0000   0.0000   0.0000   0.4409
   1.000   0.6204   0.00690   0.00146  -0.1174  0.6293  0.5587  -0.8213   0.0000   0.0000   0.0000   0.4372
   1.100   0.6316   0.00694   0.00148  -0.1174  0.6214  0.5637  -0.8405   0.0000   0.0000   0.0000   0.4338
   1.200   0.6425   0.00698   0.00151  -0.1173  0.6118  0.5699  -0.8597   0.0000   0.0000   0.0000   0.4304
   1.300   0.6531   0.00705   0.00155  -0.1172  0.6016  0.5770  -0.8786   0.0000   0.0000   0.0000   0.4272
   1.400   0.6640   0.00710   0.00159  -0.1171  0.5932  0.5836  -0.8979   0.0000   0.0000   0.0000   0.4240
   1.500   0.6750   0.00714   0.00163  -0.1170  0.5844  0.5897  -0.9173   0.0000   0.0000   0.0000   0.4210
   1.600   0.6858   0.00721   0.00166  -0.1170  0.5746  0.5949  -0.9367   0.0000   0.0000   0.0000   0.4180
   1.700   0.6964   0.00730   0.00170  -0.1168  0.5650  0.6000  -0.9559   0.0000   0.0000   0.0000   0.4152
   1.800   0.7075   0.00732   0.00174  -0.1168  0.5577  0.6066  -0.9756   0.0000   0.0000   0.0000   0.4124
   1.900   0.7184   0.00737   0.00178  -0.1168  0.5492  0.6126  -0.9952   0.0000   0.0000   0.0000   0.4097
   2.000   0.7291   0.00745   0.00183  -0.1167  0.5403  0.6183  -1.0148   0.0000   0.0000   0.0000   0.4071
   2.100   0.7399   0.00753   0.00188  -0.1166  0.5318  0.6237  -1.0344   0.0000   0.0000   0.0000   0.4046
   2.200   0.7510   0.00757   0.00191  -0.1165  0.5249  0.6283  -1.0545   0.0000   0.0000   0.0000   0.4022
   2.300   0.7619   0.00762   0.00195  -0.1165  0.5160  0.6343  -1.0744   0.0000   0.0000   0.0000   0.3998
   2.400   0.7725   0.00769   0.00204  -0.1164  0.5057  0.6406  -1.0982   0.0000   0.0000   0.0000   0.3974
   2.500   0.7832   0.00776   0.00209  -0.1163  0.4967  0.6468  -1.1243   0.0000   0.0000   0.0000   0.3952
   2.600   0.7942   0.00782   0.00214  -0.1163  0.4881  0.6529  -1.1509   0.0000   0.0000   0.0000   0.3930
   2.700   0.8049   0.00790   0.00219  -0.1162  0.4786  0.6585  -1.1773   0.0000   0.0000   0.0000   0.3908
   2.800   0.8154   0.00799   0.00225  -0.1161  0.4690  0.6647  -1.2036   0.0000   0.0000   0.0000   0.3888
   2.900   0.8264   0.00803   0.00230  -0.1160  0.4620  0.6719  -1.2306   0.0000   0.0000   0.0000   0.3867
   3.000   0.8373   0.00808   0.00235  -0.1160  0.4529  0.6789  -1.2577   0.0000   0.0000   0.0000   0.3847
   3.100   0.8478   0.00817   0.00241  -0.1159  0.4416  0.6858  -1.2845   0.0000   0.0000   0.0000   0.3828
   3.300   0.8691   0.00832   0.00254  -0.1157  0.4221  0.7013  -1.3386   0.0000   0.0000   0.0000   0.3791
   3.400   0.8795   0.00842   0.00261  -0.1156  0.4112  0.7106  -1.3721   0.0000   0.0000   0.0000   0.3773
   3.500   0.8900   0.00852   0.00268  -0.1155  0.4007  0.7198  -1.4105   0.0000   0.0000   0.0000   0.3755
   3.600   0.9007   0.00856   0.00275  -0.1154  0.3917  0.7307  -1.4497   0.0000   0.0000   0.0000   0.3738
   3.700   0.9111   0.00866   0.00283  -0.1153  0.3795  0.7431  -1.4886   0.0000   0.0000   0.0000   0.3721
   3.800   0.9213   0.00876   0.00291  -0.1151  0.3679  0.7559  -1.5341   0.0000   0.0000   0.0000   0.3704
   3.900   0.9316   0.00882   0.00299  -0.1150  0.3581  0.7723  -1.5815   0.0000   0.0000   0.0000   0.3688
   4.000   0.9415   0.00891   0.00308  -0.1148  0.3468  0.7929  -1.6280   0.0000   0.0000   0.0000   0.3671
   4.100   0.9510   0.00895   0.00316  -0.1144  0.3371  0.8217  -1.6743   0.0000   0.0000   0.0000   0.3655
   4.200   0.9569   0.00883   0.00326  -0.1132  0.3287  0.8946  -1.7136   0.0000   0.0000   0.0000   0.3633
   4.400   0.9755   0.00914   0.00343  -0.1125  0.2929  1.0000  -1.8071   0.0000   0.0000   0.0000   0.3602
   4.500   0.9854   0.00936   0.00355  -0.1124  0.2751  1.0000  -1.8555   0.0000   0.0000   0.0000   0.3588
   4.700   1.0047   0.00987   0.00382  -0.1120  0.2326  1.0000  -1.9520   0.0000   0.0000   0.0000   0.3560
   4.800   1.0147   0.01006   0.00394  -0.1119  0.2189  1.0000  -2.0019   0.0000   0.0000   0.0000   0.3547
   4.900   1.0246   0.01028   0.00408  -0.1118  0.2011  1.0000  -2.0516   0.0000   0.0000   0.0000   0.3534
   5.000   1.0341   0.01056   0.00424  -0.1116  0.1829  1.0000  -2.1005   0.0000   0.0000   0.0000   0.3521
   5.100   1.0436   0.01081   0.00439  -0.1114  0.1659  1.0000  -2.1501   0.0000   0.0000   0.0000   0.3508
   5.200   1.0525   0.01117   0.00459  -0.1112  0.1414  1.0000  -2.1980   0.0000   0.0000   0.0000   0.3496
   5.300   1.0616   0.01148   0.00477  -0.1109  0.1253  1.0000  -2.2471   0.0000   0.0000   0.0000   0.3483
   5.400   1.0716   0.01167   0.00491  -0.1108  0.1121  1.0000  -2.2990   0.0000   0.0000   0.0000   0.3471
   5.500   1.0806   0.01201   0.00511  -0.1105  0.0969  1.0000  -2.3485   0.0000   0.0000   0.0000   0.3459
   5.600   1.0902   0.01224   0.00526  -0.1104  0.0885  1.0000  -2.3999   0.0000   0.0000   0.0000   0.3447
   5.700   1.1006   0.01237   0.00538  -0.1103  0.0840  1.0000  -2.4535   0.0000   0.0000   0.0000   0.3436
   5.800   1.1112   0.01247   0.00549  -0.1102  0.0825  1.0000  -2.5083   0.0000   0.0000   0.0000   0.3424
   5.900   1.1217   0.01258   0.00560  -0.1101  0.0797  1.0000  -2.5632   0.0000   0.0000   0.0000   0.3413
   6.000   1.1309   0.01286   0.00581  -0.1099  0.0658  1.0000  -2.6143   0.0000   0.0000   0.0000   0.3402
   6.100   1.1406   0.01307   0.00597  -0.1097  0.0615  1.0000  -2.6671   0.0000   0.0000   0.0000   0.3391
   6.200   1.1504   0.01327   0.00612  -0.1095  0.0577  1.0000  -2.7205   0.0000   0.0000   0.0000   0.3380
   6.300   1.1605   0.01343   0.00626  -0.1094  0.0540  1.0000  -2.7746   0.0000   0.0000   0.0000   0.3369
   6.400   1.1707   0.01356   0.00638  -0.1093  0.0515  1.0000  -2.8295   0.0000   0.0000   0.0000   0.3359
   6.500   1.1811   0.01367   0.00651  -0.1092  0.0505  1.0000  -2.8858   0.0000   0.0000   0.0000   0.3348
   6.600   1.1914   0.01379   0.00664  -0.1090  0.0488  1.0000  -2.9418   0.0000   0.0000   0.0000   0.3338
   6.700   1.2014   0.01394   0.00678  -0.1089  0.0454  1.0000  -2.9974   0.0000   0.0000   0.0000   0.3328
   6.800   1.2104   0.01423   0.00700  -0.1086  0.0380  1.0000  -3.0510   0.0000   0.0000   0.0000   0.3318
   6.900   1.2198   0.01446   0.00719  -0.1084  0.0333  1.0000  -3.1396   0.0000   0.0000   0.0000   0.3308
   7.000   1.2289   0.01473   0.00739  -0.1081  0.0283  1.0000  -3.2612   0.0000   0.0000   0.0000   0.3298
   7.100   1.2385   0.01492   0.00756  -0.1079  0.0250  1.0000  -3.3861   0.0000   0.0000   0.0000   0.3288
   7.200   1.2478   0.01515   0.00776  -0.1077  0.0214  1.0000  -3.5078   0.0000   0.0000   0.0000   0.3278
   7.300   1.2565   0.01546   0.00801  -0.1074  0.0163  1.0000  -3.6235   0.0000   0.0000   0.0000   0.3268
   7.400   1.2638   0.01595   0.00843  -0.1069  0.0065  1.0000  -3.7268   0.0000   0.0000   0.0000   0.3258
   7.500   1.2730   0.01619   0.00867  -0.1066  0.0043  1.0000  -3.8409   0.0000   0.0000   0.0000   0.3248
   7.600   1.2825   0.01638   0.00888  -0.1063  0.0040  1.0000  -3.9598   0.0000   0.0000   0.0000   0.3239
   7.700   1.2920   0.01658   0.00910  -0.1061  0.0038  1.0000  -4.0795   0.0000   0.0000   0.0000   0.3229
   7.800   1.3014   0.01679   0.00932  -0.1058  0.0036  1.0000  -4.2000   0.0000   0.0000   0.0000   0.3220
   7.900   1.3107   0.01699   0.00955  -0.1055  0.0035  1.0000  -4.3216   0.0000   0.0000   0.0000   0.3211
   8.000   1.3202   0.01717   0.00979  -0.1053  0.0034  1.0000  -4.4592   0.0000   0.0000   0.0000   0.3202
   8.100   1.3295   0.01737   0.01002  -0.1050  0.0034  1.0000  -4.5856   0.0000   0.0000   0.0000   0.3192
   8.200   1.3387   0.01758   0.01026  -0.1047  0.0033  1.0000  -4.7107   0.0000   0.0000   0.0000   0.3183
   8.300   1.3479   0.01780   0.01051  -0.1044  0.0032  1.0000  -4.8354   0.0000   0.0000   0.0000   0.3174
   8.400   1.3569   0.01802   0.01077  -0.1041  0.0032  1.0000  -4.9599   0.0000   0.0000   0.0000   0.3165
   8.500   1.3658   0.01826   0.01104  -0.1037  0.0031  1.0000  -5.0843   0.0000   0.0000   0.0000   0.3156
   8.600   1.3746   0.01850   0.01132  -0.1034  0.0031  1.0000  -5.2084   0.0000   0.0000   0.0000   0.3147
   8.700   1.3833   0.01875   0.01161  -0.1030  0.0031  1.0000  -5.3321   0.0000   0.0000   0.0000   0.3139
   8.800   1.3919   0.01901   0.01191  -0.1026  0.0030  1.0000  -5.4550   0.0000   0.0000   0.0000   0.3130
   8.900   1.4003   0.01929   0.01223  -0.1022  0.0030  1.0000  -5.5771   0.0000   0.0000   0.0000   0.3121
   9.000   1.4086   0.01958   0.01255  -0.1018  0.0030  1.0000  -5.6983   0.0000   0.0000   0.0000   0.3112
   9.100   1.4167   0.01987   0.01289  -0.1013  0.0030  1.0000  -5.8186   0.0000   0.0000   0.0000   0.3103
   9.200   1.4246   0.02019   0.01325  -0.1008  0.0030  1.0000  -5.9411   0.0000   0.0000   0.0000   0.3094
   9.300   1.4324   0.02052   0.01363  -0.1003  0.0030  1.0000  -6.0624   0.0000   0.0000   0.0000   0.3085
   9.400   1.4399   0.02087   0.01402  -0.0998  0.0030  1.0000  -6.1821   0.0000   0.0000   0.0000   0.3076
   9.500   1.4471   0.02123   0.01443  -0.0992  0.0031  1.0000  -6.2996   0.0000   0.0000   0.0000   0.3067
   9.600   1.4541   0.02161   0.01486  -0.0986  0.0031  1.0000  -6.4149   0.0000   0.0000   0.0000   0.3058
   9.700   1.4608   0.02201   0.01532  -0.0979  0.0031  1.0000  -6.5274   0.0000   0.0000   0.0000   0.3049
   9.800   1.4672   0.02243   0.01580  -0.0972  0.0031  1.0000  -6.6372   0.0000   0.0000   0.0000   0.3040
   9.900   1.4731   0.02288   0.01630  -0.0965  0.0032  1.0000  -6.7435   0.0000   0.0000   0.0000   0.3030
  10.000   1.4787   0.02335   0.01684  -0.0957  0.0032  1.0000  -6.8462   0.0000   0.0000   0.0000   0.3021
  10.100   1.4838   0.02384   0.01739  -0.0948  0.0032  1.0000  -6.9452   0.0000   0.0000   0.0000   0.3011
  10.200   1.4885   0.02436   0.01798  -0.0939  0.0032  1.0000  -7.0400   0.0000   0.0000   0.0000   0.3002
  10.300   1.4923   0.02489   0.01858  -0.0928  0.0033  1.0000  -7.1287   0.0000   0.0000   0.0000   0.2991
  10.400   1.4947   0.02548   0.01926  -0.0916  0.0033  1.0000  -7.2100   0.0000   0.0000   0.0000   0.2980
  10.500   1.4968   0.02606   0.01991  -0.0903  0.0034  1.0000  -7.2853   0.0000   0.0000   0.0000   0.2969
  10.600   1.4984   0.02666   0.02058  -0.0889  0.0034  1.0000  -7.3560   0.0000   0.0000   0.0000   0.2958
  10.700   1.4996   0.02731   0.02130  -0.0876  0.0034  1.0000  -7.4222   0.0000   0.0000   0.0000   0.2947
  10.800   1.5003   0.02799   0.02205  -0.0862  0.0035  1.0000  -7.4844   0.0000   0.0000   0.0000   0.2936
  10.900   1.5006   0.02871   0.02285  -0.0849  0.0035  1.0000  -7.5425   0.0000   0.0000   0.0000   0.2926
  11.000   1.5007   0.02948   0.02369  -0.0835  0.0036  1.0000  -7.5974   0.0000   0.0000   0.0000   0.2915
  11.100   1.5004   0.03029   0.02459  -0.0822  0.0036  1.0000  -7.6488   0.0000   0.0000   0.0000   0.2905
  11.200   1.4997   0.03116   0.02553  -0.0809  0.0036  1.0000  -7.6956   0.0000   0.0000   0.0000   0.2895
  11.300   1.4987   0.03207   0.02652  -0.0797  0.0037  1.0000  -7.7391   0.0000   0.0000   0.0000   0.2885
  11.400   1.4974   0.03304   0.02758  -0.0785  0.0037  1.0000  -7.7789   0.0000   0.0000   0.0000   0.2876
  11.500   1.4959   0.03408   0.02870  -0.0773  0.0038  1.0000  -7.8152   0.0000   0.0000   0.0000   0.2867
  11.600   1.4940   0.03517   0.02988  -0.0762  0.0038  1.0000  -7.8471   0.0000   0.0000   0.0000   0.2859
  11.700   1.4917   0.03633   0.03113  -0.0751  0.0039  1.0000  -7.8744   0.0000   0.0000   0.0000   0.2850
  11.800   1.4889   0.03755   0.03243  -0.0740  0.0039  1.0000  -7.8962   0.0000   0.0000   0.0000   0.2842
  11.900   1.4856   0.03884   0.03382  -0.0730  0.0040  1.0000  -7.9132   0.0000   0.0000   0.0000   0.2835
  12.000   1.4820   0.04022   0.03529  -0.0720  0.0040  1.0000  -7.9248   0.0000   0.0000   0.0000   0.2828
  12.100   1.4780   0.04170   0.03686  -0.0711  0.0041  1.0000  -7.9305   0.0000   0.0000   0.0000   0.2821
  12.200   1.4734   0.04327   0.03854  -0.0703  0.0041  1.0000  -7.9290   0.0000   0.0000   0.0000   0.2816
  12.300   1.4682   0.04497   0.04033  -0.0695  0.0041  1.0000  -7.9194   0.0000   0.0000   0.0000   0.2810
  12.400   1.4622   0.04680   0.04227  -0.0688  0.0042  1.0000  -7.8997   0.0000   0.0000   0.0000   0.2806
  12.500   1.4551   0.04880   0.04438  -0.0682  0.0042  1.0000  -7.8666   0.0000   0.0000   0.0000   0.2802
  12.600   1.4465   0.05102   0.04673  -0.0677  0.0043  1.0000  -7.8136   0.0000   0.0000   0.0000   0.2800
  12.700   1.4339   0.05377   0.04961  -0.0672  0.0043  1.0000  -7.7099   0.0000   0.0000   0.0000   0.2798
  12.800   1.4287   0.05566   0.05157  -0.0668  0.0046  1.0000  -7.6815   0.0000   0.0000   0.0000   0.2796
  12.900   1.4318   0.05641   0.05235  -0.0668  0.0046  1.0000  -7.7873   0.0000   0.0000   0.0000   0.2793
  13.000   1.4340   0.05729   0.05325  -0.0668  0.0047  1.0000  -7.8836   0.0000   0.0000   0.0000   0.2790
  13.100   1.4360   0.05823   0.05422  -0.0668  0.0048  1.0000  -7.9760   0.0000   0.0000   0.0000   0.2788
  13.200   1.4376   0.05925   0.05527  -0.0669  0.0049  1.0000  -8.0629   0.0000   0.0000   0.0000   0.2785
  13.300   1.4381   0.06044   0.05650  -0.0670  0.0050  1.0000  -8.1363   0.0000   0.0000   0.0000   0.2784
  13.400   1.4381   0.06172   0.05783  -0.0671  0.0051  1.0000  -8.2024   0.0000   0.0000   0.0000   0.2783
  13.500   1.4376   0.06312   0.05927  -0.0673  0.0052  1.0000  -8.2588   0.0000   0.0000   0.0000   0.2782
  13.600   1.4356   0.06476   0.06098  -0.0676  0.0053  1.0000  -8.2955   0.0000   0.0000   0.0000   0.2783
  13.700   1.4327   0.06657   0.06286  -0.0679  0.0054  1.0000  -8.3161   0.0000   0.0000   0.0000   0.2784
  13.800   1.4280   0.06870   0.06509  -0.0683  0.0056  1.0000  -8.3086   0.0000   0.0000   0.0000   0.2787
  13.900   1.4211   0.07124   0.06774  -0.0689  0.0058  1.0000  -8.2633   0.0000   0.0000   0.0000   0.2791
  14.000   1.4113   0.07432   0.07096  -0.0696  0.0060  1.0000  -8.1701   0.0000   0.0000   0.0000   0.2798
  14.100   1.3995   0.07782   0.07461  -0.0706  0.0062  1.0000  -8.0461   0.0000   0.0000   0.0000   0.2807
  14.200   1.3884   0.08129   0.07820  -0.0718  0.0064  1.0000  -7.9423   0.0000   0.0000   0.0000   0.2818
  14.300   1.3777   0.08469   0.08171  -0.0731  0.0065  1.0000  -7.8478   0.0000   0.0000   0.0000   0.2830
  14.400   1.3682   0.08793   0.08504  -0.0745  0.0066  1.0000  -7.7786   0.0000   0.0000   0.0000   0.2842
  14.500   1.3590   0.09122   0.08841  -0.0761  0.0067  1.0000  -7.7125   0.0000   0.0000   0.0000   0.2855
  14.600   1.3503   0.09453   0.09181  -0.0777  0.0067  1.0000  -7.6531   0.0000   0.0000   0.0000   0.2870
  14.700   1.3421   0.09786   0.09521  -0.0795  0.0068  1.0000  -7.5989   0.0000   0.0000   0.0000   0.2884
  14.800   1.3341   0.10122   0.09864  -0.0813  0.0068  1.0000  -7.5469   0.0000   0.0000   0.0000   0.2900
  14.900   1.3266   0.10457   0.10207  -0.0832  0.0068  1.0000  -7.5032   0.0000   0.0000   0.0000   0.2916
  15.000   1.3192   0.10798   0.10553  -0.0852  0.0068  1.0000  -7.4553   0.0000   0.0000   0.0000   0.2933
  15.100   1.3124   0.11135   0.10897  -0.0872  0.0067  1.0000  -7.4175   0.0000   0.0000   0.0000   0.2950
  15.200   1.3055   0.11476   0.11244  -0.0893  0.0067  1.0000  -7.3747   0.0000   0.0000   0.0000   0.2968
  15.300   1.2993   0.11815   0.11587  -0.0914  0.0067  1.0000  -7.3429   0.0000   0.0000   0.0000   0.2986
  15.400   1.2929   0.12156   0.11934  -0.0935  0.0066  1.0000  -7.3022   0.0000   0.0000   0.0000   0.3004
  15.500   1.2871   0.12493   0.12275  -0.0956  0.0066  1.0000  -7.2735   0.0000   0.0000   0.0000   0.3023
  15.600   1.2813   0.12833   0.12620  -0.0977  0.0065  1.0000  -7.2372   0.0000   0.0000   0.0000   0.3041
  15.700   1.2760   0.13168   0.12959  -0.0999  0.0064  1.0000  -7.2115   0.0000   0.0000   0.0000   0.3060
  15.800   1.2705   0.13507   0.13301  -0.1019  0.0064  1.0000  -7.1749   0.0000   0.0000   0.0000   0.3078
  15.900   1.2655   0.13841   0.13639  -0.1041  0.0063  1.0000  -7.1477   0.0000   0.0000   0.0000   0.3097
  16.000   1.2604   0.14179   0.13980  -0.1061  0.0062  1.0000  -7.1125   0.0000   0.0000   0.0000   0.3115
  16.100   1.2556   0.14512   0.14317  -0.1082  0.0061  1.0000  -7.0834   0.0000   0.0000   0.0000   0.3134
  16.200   1.2506   0.14853   0.14660  -0.1103  0.0061  1.0000  -7.0434   0.0000   0.0000   0.0000   0.3153
  16.300   1.2456   0.15194   0.15004  -0.1124  0.0060  1.0000  -7.0025   0.0000   0.0000   0.0000   0.3172
  16.400   1.2407   0.15540   0.15353  -0.1145  0.0059  1.0000  -6.9577   0.0000   0.0000   0.0000   0.3192
  16.500   1.2356   0.15892   0.15708  -0.1166  0.0058  1.0000  -6.9057   0.0000   0.0000   0.0000   0.3212
  16.600   1.2304   0.16253   0.16071  -0.1188  0.0058  1.0000  -6.8460   0.0000   0.0000   0.0000   0.3233
  16.700   1.2249   0.16623   0.16444  -0.1210  0.0057  1.0000  -6.7728   0.0000   0.0000   0.0000   0.3254
  16.800   1.2190   0.17009   0.16833  -0.1233  0.0056  1.0000  -6.6904   0.0000   0.0000   0.0000   0.3277
  16.900   1.2129   0.17395   0.17221  -0.1258  0.0055  1.0000  -6.5901   0.0000   0.0000   0.0000   0.3302
  17.000   1.2058   0.17812   0.17641  -0.1284  0.0054  1.0000  -6.4627   0.0000   0.0000   0.0000   0.3330
  17.100   1.1984   0.18250   0.18082  -0.1311  0.0053  1.0000  -6.3129   0.0000   0.0000   0.0000   0.3359
  17.200   1.1869   0.18843   0.18678  -0.1347  0.0051  1.0000  -6.0623   0.0000   0.0000   0.0000   0.3401
  17.300   1.1671   0.19773   0.19613  -0.1399  0.0049  1.0000  -5.5746   0.0000   0.0000   0.0000   0.3469
  17.400   1.1432   0.20983   0.20823  -0.1459  0.0048  1.0000  -4.8774   0.0000   0.0000   0.0000   0.3552
  17.500   1.1423   0.21280   0.21120  -0.1473  0.0048  1.0000  -4.8178   0.0000   0.0000   0.0000   0.3565
  17.600   1.1412   0.21592   0.21433  -0.1487  0.0049  1.0000  -4.7444   0.0000   0.0000   0.0000   0.3578
  17.700   1.1379   0.22023   0.21864  -0.1506  0.0051  1.0000  -4.5796   0.0000   0.0000   0.0000   0.3598
  18.000   1.0998   0.25568   0.25400  -0.1620  0.0127  1.0000  -2.2922   0.0000   0.0000   0.0000   0.3764
  18.100   1.1016   0.25779   0.25611  -0.1629  0.0125  1.0000  -2.2907   0.0000   0.0000   0.0000   0.3768
  18.200   1.1034   0.25985   0.25818  -0.1637  0.0123  1.0000  -2.2919   0.0000   0.0000   0.0000   0.3772
  18.300   1.1052   0.26189   0.26021  -0.1646  0.0122  1.0000  -2.2957   0.0000   0.0000   0.0000   0.3776
  18.400   1.1071   0.26388   0.26221  -0.1654  0.0120  1.0000  -2.3019   0.0000   0.0000   0.0000   0.3779
  18.500   1.1090   0.26585   0.26418  -0.1662  0.0118  1.0000  -2.3105   0.0000   0.0000   0.0000   0.3782
  18.600   1.1110   0.26778   0.26611  -0.1670  0.0117  1.0000  -2.3214   0.0000   0.0000   0.0000   0.3785
  18.700   1.1130   0.26967   0.26800  -0.1678  0.0115  1.0000  -2.3347   0.0000   0.0000   0.0000   0.3787
  18.800   1.1150   0.27154   0.26987  -0.1685  0.0114  1.0000  -2.3505   0.0000   0.0000   0.0000   0.3789
  18.900   1.1171   0.27337   0.27170  -0.1692  0.0112  1.0000  -2.3686   0.0000   0.0000   0.0000   0.3791
  19.000   1.1191   0.27516   0.27350  -0.1699  0.0111  1.0000  -2.3894   0.0000   0.0000   0.0000   0.3792
  19.100   1.1213   0.27693   0.27526  -0.1706  0.0110  1.0000  -2.4127   0.0000   0.0000   0.0000   0.3793
  19.200   1.1234   0.27865   0.27699  -0.1712  0.0109  1.0000  -2.4389   0.0000   0.0000   0.0000   0.3794
  19.300   1.1256   0.28037   0.27871  -0.1718  0.0108  1.0000  -2.4666   0.0000   0.0000   0.0000   0.3794
  19.400   1.1276   0.28210   0.28045  -0.1724  0.0107  1.0000  -2.4944   0.0000   0.0000   0.0000   0.3795
  19.500   1.1297   0.28382   0.28217  -0.1730  0.0106  1.0000  -2.5240   0.0000   0.0000   0.0000   0.3795
  19.600   1.1313   0.28576   0.28411  -0.1736  0.0104  1.0000  -2.5429   0.0000   0.0000   0.0000   0.3797
  19.700   1.1321   0.28803   0.28639  -0.1744  0.0102  1.0000  -2.5478   0.0000   0.0000   0.0000   0.3800
  19.800   1.1246   0.29588   0.29420  -0.1762  0.0097  1.0000  -2.2687   0.0000   0.0000   0.0000   0.3828
  19.900   1.1261   0.29831   0.29664  -0.1770  0.0097  1.0000  -2.2544   0.0000   0.0000   0.0000   0.3831
  20.000   1.1276   0.30074   0.29907  -0.1778  0.0097  1.0000  -2.2405   0.0000   0.0000   0.0000   0.3835
  20.100   1.1291   0.30317   0.30150  -0.1787  0.0097  1.0000  -2.2270   0.0000   0.0000   0.0000   0.3839
  20.200   1.1306   0.30559   0.30392  -0.1795  0.0097  1.0000  -2.2138   0.0000   0.0000   0.0000   0.3842
  20.300   1.1321   0.30801   0.30634  -0.1803  0.0097  1.0000  -2.2010   0.0000   0.0000   0.0000   0.3846
  20.400   1.1336   0.31042   0.30875  -0.1811  0.0097  1.0000  -2.1887   0.0000   0.0000   0.0000   0.3849
  20.500   1.1351   0.31282   0.31115  -0.1819  0.0097  1.0000  -2.1768   0.0000   0.0000   0.0000   0.3853
  20.600   1.1365   0.31521   0.31354  -0.1828  0.0096  1.0000  -2.1653   0.0000   0.0000   0.0000   0.3856
  20.700   1.1380   0.31759   0.31592  -0.1836  0.0096  1.0000  -2.1544   0.0000   0.0000   0.0000   0.3860
  20.800   1.1394   0.31995   0.31829  -0.1844  0.0096  1.0000  -2.1438   0.0000   0.0000   0.0000   0.3863
  20.900   1.1409   0.32229   0.32063  -0.1852  0.0096  1.0000  -2.1340   0.0000   0.0000   0.0000   0.3867
  21.000   1.1424   0.32461   0.32294  -0.1860  0.0095  1.0000  -2.1248   0.0000   0.0000   0.0000   0.3870
  21.100   1.1440   0.32688   0.32522  -0.1869  0.0095  1.0000  -2.1163   0.0000   0.0000   0.0000   0.3873
  21.200   1.1458   0.32910   0.32745  -0.1877  0.0094  1.0000  -2.1084   0.0000   0.0000   0.0000   0.3877
  21.300   1.1475   0.33144   0.32978  -0.1887  0.0092  1.0000  -2.0899   0.0000   0.0000   0.0000   0.3882
  21.400   1.1492   0.33408   0.33243  -0.1899  0.0090  1.0000  -2.0526   0.0000   0.0000   0.0000   0.3888
  21.500   1.1507   0.33677   0.33511  -0.1908  0.0087  1.0000  -2.0194   0.0000   0.0000   0.0000   0.3893
  21.600   1.1520   0.33939   0.33773  -0.1917  0.0084  1.0000  -1.9953   0.0000   0.0000   0.0000   0.3897
  21.700   1.1531   0.34193   0.34028  -0.1924  0.0082  1.0000  -1.9776   0.0000   0.0000   0.0000   0.3900
  21.800   1.1542   0.34444   0.34281  -0.1931  0.0080  1.0000  -1.9641   0.0000   0.0000   0.0000   0.3903
  21.900   1.1551   0.34691   0.34528  -0.1938  0.0078  1.0000  -1.9531   0.0000   0.0000   0.0000   0.3906
  22.000   1.1559   0.34936   0.34773  -0.1945  0.0076  1.0000  -1.9439   0.0000   0.0000   0.0000   0.3908
  22.100   1.1567   0.35179   0.35016  -0.1951  0.0075  1.0000  -1.9361   0.0000   0.0000   0.0000   0.3911
  22.200   1.1574   0.35420   0.35258  -0.1957  0.0073  1.0000  -1.9294   0.0000   0.0000   0.0000   0.3914
  22.300   1.1580   0.35661   0.35499  -0.1963  0.0072  1.0000  -1.9234   0.0000   0.0000   0.0000   0.3916
  22.400   1.1585   0.35900   0.35739  -0.1969  0.0071  1.0000  -1.9182   0.0000   0.0000   0.0000   0.3919
  22.500   1.1589   0.36138   0.35977  -0.1975  0.0069  1.0000  -1.9135   0.0000   0.0000   0.0000   0.3921
  22.600   1.1592   0.36376   0.36215  -0.1980  0.0068  1.0000  -1.9093   0.0000   0.0000   0.0000   0.3923
  22.700   1.1595   0.36612   0.36452  -0.1985  0.0067  1.0000  -1.9055   0.0000   0.0000   0.0000   0.3926
  22.800   1.1595   0.36847   0.36687  -0.1990  0.0066  1.0000  -1.9021   0.0000   0.0000   0.0000   0.3928
  22.900   1.1595   0.37081   0.36922  -0.1995  0.0065  1.0000  -1.8989   0.0000   0.0000   0.0000   0.3930
  23.000   1.1592   0.37314   0.37155  -0.1999  0.0064  1.0000  -1.8959   0.0000   0.0000   0.0000   0.3933
  23.100   1.1588   0.37546   0.37387  -0.2003  0.0063  1.0000  -1.8930   0.0000   0.0000   0.0000   0.3935
  23.200   1.1582   0.37775   0.37617  -0.2007  0.0062  1.0000  -1.8901   0.0000   0.0000   0.0000   0.3937
  23.300   1.1573   0.38003   0.37845  -0.2010  0.0061  1.0000  -1.8871   0.0000   0.0000   0.0000   0.3940
  23.400   1.1562   0.38222   0.38064  -0.2013  0.0060  1.0000  -1.8884   0.0000   0.0000   0.0000   0.3942
  23.500   1.1547   0.38435   0.38278  -0.2015  0.0059  1.0000  -1.8909   0.0000   0.0000   0.0000   0.3944
  23.600   1.1527   0.38643   0.38487  -0.2016  0.0058  1.0000  -1.8930   0.0000   0.0000   0.0000   0.3946
  23.700   1.1500   0.38844   0.38689  -0.2016  0.0057  1.0000  -1.8942   0.0000   0.0000   0.0000   0.3948
  23.800   1.1462   0.39034   0.38880  -0.2014  0.0056  1.0000  -1.8931   0.0000   0.0000   0.0000   0.3951
  23.900   1.1401   0.39203   0.39050  -0.2008  0.0056  1.0000  -1.8859   0.0000   0.0000   0.0000   0.3954
  24.300   0.9291   0.34303   0.34168  -0.1664  0.0059  1.0000  -1.3186   0.0000   0.0000   0.0000   0.4009
  24.400   0.9264   0.34292   0.34158  -0.1663  0.0058  1.0000  -1.3171   0.0000   0.0000   0.0000   0.4012
  24.500   0.9238   0.34283   0.34149  -0.1661  0.0057  1.0000  -1.3167   0.0000   0.0000   0.0000   0.4014
  24.600   0.9213   0.34273   0.34140  -0.1660  0.0056  1.0000  -1.3175   0.0000   0.0000   0.0000   0.4016
  24.700   0.9190   0.34266   0.34134  -0.1660  0.0055  1.0000  -1.3196   0.0000   0.0000   0.0000   0.4018
  24.800   0.9168   0.34261   0.34129  -0.1659  0.0055  1.0000  -1.3230   0.0000   0.0000   0.0000   0.4021
  24.900   0.9147   0.34256   0.34125  -0.1658  0.0054  1.0000  -1.3276   0.0000   0.0000   0.0000   0.4022
  25.000   0.9128   0.34252   0.34121  -0.1658  0.0053  1.0000  -1.3335   0.0000   0.0000   0.0000   0.4024
  25.100   0.9109   0.34247   0.34117  -0.1658  0.0052  1.0000  -1.3407   0.0000   0.0000   0.0000   0.4026
  25.200   0.9091   0.34243   0.34113  -0.1657  0.0052  1.0000  -1.3492   0.0000   0.0000   0.0000   0.4028
  25.300   0.9073   0.34238   0.34109  -0.1657  0.0051  1.0000  -1.3588   0.0000   0.0000   0.0000   0.4029
  25.400   0.9057   0.34235   0.34107  -0.1657  0.0050  1.0000  -1.3699   0.0000   0.0000   0.0000   0.4031
  25.500   0.9041   0.34228   0.34100  -0.1657  0.0050  1.0000  -1.3819   0.0000   0.0000   0.0000   0.4032
  25.600   0.9024   0.34219   0.34092  -0.1657  0.0049  1.0000  -1.3950   0.0000   0.0000   0.0000   0.4033
  25.700   0.9008   0.34208   0.34081  -0.1656  0.0049  1.0000  -1.4088   0.0000   0.0000   0.0000   0.4034
  25.800   0.8991   0.34192   0.34066  -0.1655  0.0048  1.0000  -1.4229   0.0000   0.0000   0.0000   0.4034
  25.900   0.8972   0.34174   0.34049  -0.1654  0.0047  1.0000  -1.4316   0.0000   0.0000   0.0000   0.4035


