xflr5 v6.61

 Calculated polar for: FX 61-140 AIRFOIL

 1 1 Reynolds number fixed          Mach number fixed         

 xtrf =   1.000 (top)        1.000 (bottom)
 Mach =   0.000     Re =     0.400 e 6     Ncrit =   9.000

  alpha     CL        CD       CDp       Cm    Top Xtr Bot Xtr   Cpmin    Chinge    XCp    
 ------- -------- --------- --------- -------- ------- ------- -------- --------- ---------
 -10.000  -0.3895   0.09515   0.09264  -0.0413  1.0000  0.0169  -2.3250   0.0000   0.0000   0.0000   0.1298
  -9.900  -0.3903   0.09306   0.09057  -0.0423  1.0000  0.0169  -2.3619   0.0000   0.0000   0.0000   0.1277
  -9.800  -0.3913   0.09085   0.08837  -0.0433  1.0000  0.0170  -2.4034   0.0000   0.0000   0.0000   0.1254
  -9.700  -0.3926   0.08846   0.08599  -0.0446  1.0000  0.0170  -2.4518   0.0000   0.0000   0.0000   0.1227
  -9.600  -0.3944   0.08570   0.08325  -0.0462  1.0000  0.0170  -2.5132   0.0000   0.0000   0.0000   0.1192
  -9.500  -0.3973   0.08276   0.08030  -0.0481  1.0000  0.0170  -2.5832   0.0000   0.0000   0.0000   0.1155
  -9.400  -0.4014   0.08019   0.07772  -0.0497  1.0000  0.0170  -2.6427   0.0000   0.0000   0.0000   0.1128
  -9.300  -0.4062   0.07781   0.07533  -0.0512  1.0000  0.0170  -2.6964   0.0000   0.0000   0.0000   0.1110
  -9.200  -0.4117   0.07563   0.07314  -0.0524  1.0000  0.0170  -2.7451   0.0000   0.0000   0.0000   0.1100
  -9.100  -0.4178   0.07363   0.07112  -0.0534  1.0000  0.0170  -2.7894   0.0000   0.0000   0.0000   0.1098
  -9.000  -0.4243   0.07181   0.06928  -0.0542  1.0000  0.0170  -2.8296   0.0000   0.0000   0.0000   0.1102
  -8.900  -0.4312   0.07015   0.06761  -0.0547  1.0000  0.0170  -2.8662   0.0000   0.0000   0.0000   0.1115
  -8.800  -0.4384   0.06864   0.06608  -0.0549  1.0000  0.0170  -2.8997   0.0000   0.0000   0.0000   0.1133
  -8.700  -0.4461   0.06727   0.06470  -0.0549  1.0000  0.0170  -2.9305   0.0000   0.0000   0.0000   0.1159
  -8.600  -0.4543   0.06606   0.06349  -0.0546  1.0000  0.0170  -2.9587   0.0000   0.0000   0.0000   0.1192
  -8.500  -0.4631   0.06502   0.06243  -0.0539  1.0000  0.0169  -2.9848   0.0000   0.0000   0.0000   0.1233
  -8.400  -0.4727   0.06415   0.06155  -0.0528  1.0000  0.0169  -3.0090   0.0000   0.0000   0.0000   0.1282
  -8.300  -0.4832   0.06344   0.06084  -0.0514  1.0000  0.0169  -3.0318   0.0000   0.0000   0.0000   0.1340
  -8.200  -0.4938   0.06276   0.06017  -0.0499  1.0000  0.0169  -3.0537   0.0000   0.0000   0.0000   0.1396
  -8.100  -0.5019   0.06180   0.05919  -0.0492  1.0000  0.0169  -3.0745   0.0000   0.0000   0.0000   0.1429
  -8.000  -0.5094   0.06082   0.05819  -0.0486  1.0000  0.0169  -3.0938   0.0000   0.0000   0.0000   0.1458
  -7.900  -0.5060   0.05878   0.05606  -0.0513  0.9985  0.0170  -3.1096   0.0000   0.0000   0.0000   0.1399
  -7.800  -0.4981   0.05649   0.05364  -0.0546  0.9963  0.0170  -3.1194   0.0000   0.0000   0.0000   0.1317
  -7.700  -0.4902   0.05432   0.05134  -0.0574  0.9940  0.0171  -3.1247   0.0000   0.0000   0.0000   0.1241
  -7.600  -0.4814   0.05220   0.04909  -0.0600  0.9918  0.0171  -3.1259   0.0000   0.0000   0.0000   0.1166
  -7.500  -0.4720   0.05014   0.04689  -0.0624  0.9898  0.0171  -3.1229   0.0000   0.0000   0.0000   0.1090
  -7.400  -0.4631   0.04820   0.04483  -0.0643  0.9870  0.0171  -3.1169   0.0000   0.0000   0.0000   0.1024
  -7.300  -0.4527   0.04625   0.04273  -0.0663  0.9849  0.0171  -3.1069   0.0000   0.0000   0.0000   0.0946
  -6.800  -0.4076   0.02824   0.02347  -0.0740  0.9740  0.0102  -3.8262   0.0000   0.0000   0.0000   0.0590
  -6.700  -0.3958   0.02766   0.02295  -0.0742  0.9714  0.0093  -3.7347   0.0000   0.0000   0.0000   0.0531
  -6.600  -0.3858   0.02527   0.02034  -0.0749  0.9683  0.0088  -3.8028   0.0000   0.0000   0.0000   0.0463
  -6.500  -0.3729   0.02356   0.01844  -0.0757  0.9663  0.0085  -3.8182   0.0000   0.0000   0.0000   0.0373
  -6.400  -0.3591   0.02211   0.01682  -0.0765  0.9647  0.0083  -3.8236   0.0000   0.0000   0.0000   0.0272
  -6.300  -0.3449   0.02084   0.01540  -0.0772  0.9634  0.0081  -3.8168   0.0000   0.0000   0.0000   0.0162
  -6.200  -0.3304   0.01972   0.01416  -0.0779  0.9622  0.0080  -3.7981   0.0000   0.0000   0.0000   0.0042
  -6.100  -0.3208   0.01889   0.01324  -0.0775  0.9577  0.0079  -3.7755   0.0000   0.0000   0.0000  -0.0019
  -6.000  -0.3084   0.01806   0.01232  -0.0777  0.9548  0.0079  -3.7414   0.0000   0.0000   0.0000  -0.0125
  -5.900  -0.2949   0.01728   0.01148  -0.0782  0.9525  0.0080  -3.6980   0.0000   0.0000   0.0000  -0.0257
  -5.600  -0.2555   0.01549   0.00949  -0.0794  0.9436  0.0089  -3.5349   0.0000   0.0000   0.0000  -0.0723
  -5.500  -0.2421   0.01507   0.00903  -0.0799  0.9396  0.0094  -3.4556   0.0000   0.0000   0.0000  -0.0917
  -5.400  -0.2266   0.01485   0.00878  -0.0808  0.9366  0.0097  -3.3381   0.0000   0.0000   0.0000  -0.1187
  -5.300  -0.2096   0.01342   0.00730  -0.0828  0.9343  0.0123  -3.3463   0.0000   0.0000   0.0000  -0.1578
  -5.200  -0.1946   0.01313   0.00701  -0.0838  0.9296  0.0140  -3.2300   0.0000   0.0000   0.0000  -0.1938
  -5.000  -0.1593   0.01225   0.00610  -0.0870  0.9208  0.0222  -3.0094   0.0000   0.0000   0.0000  -0.3113
  -4.900  -0.1394   0.01226   0.00612  -0.0888  0.9174  0.0264  -2.8248   0.0000   0.0000   0.0000  -0.4038
  -4.800  -0.1190   0.01166   0.00552  -0.0913  0.9125  0.0321  -2.6891   0.0000   0.0000   0.0000  -0.5365
  -4.700  -0.1003   0.01148   0.00532  -0.0930  0.9061  0.0364  -2.5341   0.0000   0.0000   0.0000  -0.6996
  -4.600  -0.0784   0.01104   0.00483  -0.0955  0.9004  0.0422  -2.3949   0.0000   0.0000   0.0000  -0.9963
  -4.500  -0.0576   0.01070   0.00447  -0.0978  0.8935  0.0511  -2.2737   0.0000   0.0000   0.0000  -1.4834
  -4.400  -0.0349   0.00957   0.00387  -0.1016  0.8848  0.1636  -2.1705   0.0000   0.0000   0.0000  -2.7187
  -4.300  -0.0056   0.00802   0.00322  -0.1076  0.8771  0.3993  -2.0176   0.0000   0.0000   0.0000  -19.2649
  -4.200   0.0135   0.00760   0.00311  -0.1098  0.8662  0.4871  -1.8959   0.0000   0.0000   0.0000   8.5472
  -4.000   0.0432   0.00751   0.00311  -0.1114  0.8420  0.5537  -1.6872   0.0000   0.0000   0.0000   2.8663
  -3.800   0.0680   0.00765   0.00315  -0.1117  0.8174  0.5881  -1.5076   0.0000   0.0000   0.0000   1.9164
  -3.600   0.0908   0.00783   0.00320  -0.1116  0.7941  0.6057  -1.3347   0.0000   0.0000   0.0000   1.4951
  -3.500   0.1015   0.00794   0.00325  -0.1114  0.7828  0.6116  -1.2528   0.0000   0.0000   0.0000   1.3609
  -3.400   0.1124   0.00805   0.00330  -0.1112  0.7729  0.6185  -1.1714   0.0000   0.0000   0.0000   1.2508
  -3.300   0.1238   0.00819   0.00335  -0.1112  0.7627  0.6275  -1.0897   0.0000   0.0000   0.0000   1.1580
  -3.200   0.1330   0.00840   0.00354  -0.1105  0.7534  0.6359  -1.0158   0.0000   0.0000   0.0000   1.0894
  -3.100   0.1417   0.00868   0.00382  -0.1095  0.7452  0.6433  -0.9446   0.0000   0.0000   0.0000   1.0312
  -3.000   0.1510   0.00893   0.00404  -0.1088  0.7366  0.6500  -0.8729   0.0000   0.0000   0.0000   0.9781
  -2.900   0.1613   0.00911   0.00416  -0.1085  0.7281  0.6550  -0.7998   0.0000   0.0000   0.0000   0.9289
  -2.800   0.1725   0.00923   0.00418  -0.1085  0.7203  0.6579  -0.7262   0.0000   0.0000   0.0000   0.8844
  -2.700   0.1841   0.00932   0.00421  -0.1085  0.7131  0.6602  -0.6530   0.0000   0.0000   0.0000   0.8446
  -2.600   0.1947   0.00934   0.00419  -0.1084  0.7057  0.6628  -0.5978   0.0000   0.0000   0.0000   0.8111
  -2.500   0.2048   0.00940   0.00421  -0.1081  0.6984  0.6650  -0.6055   0.0000   0.0000   0.0000   0.7817
  -2.300   0.2254   0.00955   0.00428  -0.1076  0.6857  0.6682  -0.6224   0.0000   0.0000   0.0000   0.7303
  -2.200   0.2358   0.00962   0.00433  -0.1074  0.6794  0.6698  -0.6310   0.0000   0.0000   0.0000   0.7079
  -2.100   0.2461   0.00970   0.00437  -0.1071  0.6729  0.6715  -0.6395   0.0000   0.0000   0.0000   0.6874
  -2.000   0.2564   0.00980   0.00442  -0.1068  0.6665  0.6733  -0.6481   0.0000   0.0000   0.0000   0.6687
  -1.900   0.2668   0.00990   0.00443  -0.1066  0.6602  0.6751  -0.6567   0.0000   0.0000   0.0000   0.6513
  -1.800   0.2778   0.00995   0.00446  -0.1066  0.6552  0.6770  -0.6656   0.0000   0.0000   0.0000   0.6350
  -1.700   0.2889   0.00999   0.00447  -0.1065  0.6497  0.6787  -0.6746   0.0000   0.0000   0.0000   0.6199
  -1.600   0.3000   0.01004   0.00447  -0.1066  0.6439  0.6805  -0.6837   0.0000   0.0000   0.0000   0.6060
  -1.500   0.3112   0.01010   0.00447  -0.1066  0.6384  0.6823  -0.6927   0.0000   0.0000   0.0000   0.5931
  -1.400   0.3224   0.01017   0.00448  -0.1066  0.6329  0.6842  -0.7018   0.0000   0.0000   0.0000   0.5811
  -1.300   0.3339   0.01023   0.00449  -0.1067  0.6281  0.6860  -0.7110   0.0000   0.0000   0.0000   0.5698
  -1.200   0.3457   0.01026   0.00450  -0.1069  0.6242  0.6877  -0.7204   0.0000   0.0000   0.0000   0.5592
  -1.100   0.3574   0.01030   0.00451  -0.1071  0.6198  0.6892  -0.7298   0.0000   0.0000   0.0000   0.5494
  -1.000   0.3690   0.01035   0.00452  -0.1072  0.6151  0.6905  -0.7391   0.0000   0.0000   0.0000   0.5401
  -0.900   0.3805   0.01039   0.00452  -0.1073  0.6104  0.6918  -0.7485   0.0000   0.0000   0.0000   0.5315
  -0.800   0.3913   0.01036   0.00445  -0.1073  0.6057  0.6937  -0.7575   0.0000   0.0000   0.0000   0.5235
  -0.700   0.4018   0.01040   0.00445  -0.1072  0.6008  0.6951  -0.7663   0.0000   0.0000   0.0000   0.5158
  -0.600   0.4125   0.01045   0.00447  -0.1071  0.5965  0.6963  -0.7751   0.0000   0.0000   0.0000   0.5085
  -0.500   0.4233   0.01046   0.00450  -0.1070  0.5934  0.6974  -0.7841   0.0000   0.0000   0.0000   0.5016
  -0.400   0.4342   0.01048   0.00452  -0.1069  0.5898  0.6985  -0.7932   0.0000   0.0000   0.0000   0.4949
  -0.300   0.4451   0.01051   0.00454  -0.1069  0.5862  0.6996  -0.8022   0.0000   0.0000   0.0000   0.4887
  -0.200   0.4561   0.01055   0.00456  -0.1068  0.5826  0.7007  -0.8113   0.0000   0.0000   0.0000   0.4827
  -0.100   0.4670   0.01059   0.00458  -0.1068  0.5789  0.7018  -0.8204   0.0000   0.0000   0.0000   0.4770
   0.000   0.4778   0.01065   0.00461  -0.1067  0.5753  0.7031  -0.8295   0.0000   0.0000   0.0000   0.4716
   0.100   0.4887   0.01072   0.00464  -0.1067  0.5716  0.7044  -0.8385   0.0000   0.0000   0.0000   0.4664
   0.200   0.4995   0.01080   0.00469  -0.1066  0.5675  0.7058  -0.8484   0.0000   0.0000   0.0000   0.4614
   0.300   0.5107   0.01086   0.00473  -0.1067  0.5643  0.7073  -0.8585   0.0000   0.0000   0.0000   0.4567
   0.400   0.5221   0.01088   0.00476  -0.1067  0.5620  0.7088  -0.8687   0.0000   0.0000   0.0000   0.4522
   0.500   0.5335   0.01090   0.00479  -0.1068  0.5593  0.7103  -0.8790   0.0000   0.0000   0.0000   0.4479
   0.600   0.5450   0.01093   0.00481  -0.1069  0.5565  0.7117  -0.8899   0.0000   0.0000   0.0000   0.4437
   0.700   0.5566   0.01096   0.00484  -0.1071  0.5535  0.7132  -0.9012   0.0000   0.0000   0.0000   0.4398
   0.800   0.5681   0.01100   0.00486  -0.1072  0.5504  0.7147  -0.9125   0.0000   0.0000   0.0000   0.4360
   0.900   0.5795   0.01105   0.00488  -0.1073  0.5473  0.7162  -0.9239   0.0000   0.0000   0.0000   0.4324
   1.000   0.5910   0.01110   0.00491  -0.1074  0.5441  0.7175  -0.9353   0.0000   0.0000   0.0000   0.4289
   1.100   0.6025   0.01117   0.00494  -0.1076  0.5407  0.7188  -0.9467   0.0000   0.0000   0.0000   0.4255
   1.200   0.6139   0.01126   0.00498  -0.1077  0.5369  0.7198  -0.9580   0.0000   0.0000   0.0000   0.4223
   1.300   0.6256   0.01137   0.00505  -0.1079  0.5326  0.7207  -0.9695   0.0000   0.0000   0.0000   0.4193
   1.400   0.6374   0.01135   0.00504  -0.1081  0.5308  0.7217  -0.9812   0.0000   0.0000   0.0000   0.4163
   1.500   0.6490   0.01128   0.00499  -0.1083  0.5285  0.7231  -0.9927   0.0000   0.0000   0.0000   0.4135
   1.600   0.6602   0.01125   0.00498  -0.1083  0.5261  0.7242  -1.0040   0.0000   0.0000   0.0000   0.4106
   1.700   0.6713   0.01125   0.00499  -0.1084  0.5235  0.7253  -1.0153   0.0000   0.0000   0.0000   0.4078
   1.800   0.6823   0.01127   0.00501  -0.1084  0.5209  0.7262  -1.0265   0.0000   0.0000   0.0000   0.4051
   1.900   0.6932   0.01129   0.00503  -0.1083  0.5181  0.7272  -1.0378   0.0000   0.0000   0.0000   0.4025
   2.000   0.7041   0.01133   0.00506  -0.1083  0.5152  0.7281  -1.0490   0.0000   0.0000   0.0000   0.4000
   2.100   0.7150   0.01137   0.00512  -0.1083  0.5123  0.7290  -1.0603   0.0000   0.0000   0.0000   0.3975
   2.200   0.7258   0.01142   0.00516  -0.1083  0.5092  0.7300  -1.0715   0.0000   0.0000   0.0000   0.3951
   2.300   0.7366   0.01149   0.00520  -0.1082  0.5058  0.7310  -1.0827   0.0000   0.0000   0.0000   0.3927
   2.400   0.7476   0.01159   0.00527  -0.1082  0.5020  0.7320  -1.0939   0.0000   0.0000   0.0000   0.3905
   2.500   0.7588   0.01165   0.00533  -0.1083  0.4993  0.7330  -1.1054   0.0000   0.0000   0.0000   0.3884
   2.600   0.7701   0.01166   0.00537  -0.1084  0.4977  0.7340  -1.1169   0.0000   0.0000   0.0000   0.3863
   2.700   0.7814   0.01168   0.00540  -0.1085  0.4958  0.7351  -1.1285   0.0000   0.0000   0.0000   0.3842
   2.800   0.7927   0.01170   0.00544  -0.1085  0.4938  0.7362  -1.1401   0.0000   0.0000   0.0000   0.3822
   2.900   0.8040   0.01173   0.00549  -0.1086  0.4916  0.7374  -1.1517   0.0000   0.0000   0.0000   0.3803
   3.000   0.8153   0.01176   0.00553  -0.1087  0.4893  0.7387  -1.1633   0.0000   0.0000   0.0000   0.3784
   3.100   0.8266   0.01180   0.00558  -0.1088  0.4868  0.7400  -1.1749   0.0000   0.0000   0.0000   0.3766
   3.200   0.8378   0.01185   0.00562  -0.1088  0.4843  0.7414  -1.1867   0.0000   0.0000   0.0000   0.3748
   3.300   0.8491   0.01190   0.00567  -0.1089  0.4818  0.7426  -1.2007   0.0000   0.0000   0.0000   0.3731
   3.400   0.8604   0.01195   0.00571  -0.1090  0.4792  0.7438  -1.2147   0.0000   0.0000   0.0000   0.3714
   3.500   0.8717   0.01202   0.00576  -0.1091  0.4766  0.7450  -1.2288   0.0000   0.0000   0.0000   0.3698
   3.600   0.8830   0.01210   0.00582  -0.1092  0.4736  0.7460  -1.2428   0.0000   0.0000   0.0000   0.3682
   3.700   0.8942   0.01225   0.00592  -0.1093  0.4677  0.7469  -1.2568   0.0000   0.0000   0.0000   0.3667
   3.800   0.9061   0.01233   0.00607  -0.1096  0.4670  0.7478  -1.2711   0.0000   0.0000   0.0000   0.3653
   3.900   0.9177   0.01235   0.00612  -0.1097  0.4656  0.7486  -1.2855   0.0000   0.0000   0.0000   0.3638
   4.000   0.9290   0.01233   0.00613  -0.1098  0.4626  0.7493  -1.3000   0.0000   0.0000   0.0000   0.3623
   4.100   0.9398   0.01227   0.00608  -0.1098  0.4555  0.7499  -1.3147   0.0000   0.0000   0.0000   0.3608
   4.200   0.9499   0.01222   0.00594  -0.1097  0.4440  0.7511  -1.3292   0.0000   0.0000   0.0000   0.3593
   4.300   0.9596   0.01222   0.00588  -0.1095  0.4313  0.7523  -1.3432   0.0000   0.0000   0.0000   0.3578
   4.400   0.9698   0.01218   0.00581  -0.1093  0.4188  0.7534  -1.3577   0.0000   0.0000   0.0000   0.3563
   4.500   0.9793   0.01225   0.00582  -0.1091  0.4086  0.7544  -1.3712   0.0000   0.0000   0.0000   0.3549
   4.600   0.9892   0.01234   0.00587  -0.1089  0.4022  0.7555  -1.3864   0.0000   0.0000   0.0000   0.3535
   4.700   1.0001   0.01235   0.00592  -0.1088  0.3982  0.7565  -1.4239   0.0000   0.0000   0.0000   0.3521
   4.800   1.0107   0.01238   0.00596  -0.1088  0.3927  0.7576  -1.4661   0.0000   0.0000   0.0000   0.3508
   4.900   1.0210   0.01244   0.00601  -0.1087  0.3861  0.7586  -1.5079   0.0000   0.0000   0.0000   0.3495
   5.000   1.0310   0.01254   0.00607  -0.1085  0.3787  0.7596  -1.5490   0.0000   0.0000   0.0000   0.3482
   5.100   1.0407   0.01266   0.00613  -0.1083  0.3705  0.7606  -1.5894   0.0000   0.0000   0.0000   0.3469
   5.200   1.0515   0.01270   0.00618  -0.1083  0.3637  0.7616  -1.6322   0.0000   0.0000   0.0000   0.3457
   5.300   1.0617   0.01280   0.00625  -0.1082  0.3531  0.7625  -1.7176   0.0000   0.0000   0.0000   0.3445
   5.400   1.0709   0.01297   0.00632  -0.1080  0.3401  0.7635  -1.8025   0.0000   0.0000   0.0000   0.3433
   5.500   1.0812   0.01308   0.00640  -0.1079  0.3282  0.7644  -1.8956   0.0000   0.0000   0.0000   0.3421
   5.600   1.0891   0.01338   0.00657  -0.1075  0.3014  0.7654  -2.0075   0.0000   0.0000   0.0000   0.3409
   5.700   1.0971   0.01370   0.00674  -0.1071  0.2783  0.7663  -2.1066   0.0000   0.0000   0.0000   0.3397
   5.800   1.1055   0.01400   0.00692  -0.1068  0.2535  0.7673  -2.2046   0.0000   0.0000   0.0000   0.3386
   5.900   1.1130   0.01440   0.00716  -0.1064  0.2261  0.7683  -2.2973   0.0000   0.0000   0.0000   0.3374
   6.000   1.1197   0.01489   0.00746  -0.1059  0.1943  0.7692  -2.3857   0.0000   0.0000   0.0000   0.3363
   6.100   1.1211   0.01592   0.00808  -0.1047  0.1298  0.7701  -2.4459   0.0000   0.0000   0.0000   0.3350
   6.200   1.1207   0.01711   0.00885  -0.1032  0.0642  0.7711  -2.4952   0.0000   0.0000   0.0000   0.3336
   6.300   1.1202   0.01829   0.00968  -0.1016  0.0091  0.7719  -2.5424   0.0000   0.0000   0.0000   0.3321
   6.400   1.1296   0.01850   0.00990  -0.1014  0.0071  0.7728  -2.6427   0.0000   0.0000   0.0000   0.3311
   6.500   1.1391   0.01869   0.01010  -0.1012  0.0060  0.7736  -2.7437   0.0000   0.0000   0.0000   0.3300
   6.600   1.1488   0.01886   0.01028  -0.1011  0.0053  0.7744  -2.8451   0.0000   0.0000   0.0000   0.3290
   6.700   1.1585   0.01903   0.01048  -0.1009  0.0048  0.7752  -2.9446   0.0000   0.0000   0.0000   0.3280
   6.800   1.1681   0.01921   0.01069  -0.1007  0.0046  0.7759  -3.0426   0.0000   0.0000   0.0000   0.3270
   6.900   1.1775   0.01941   0.01090  -0.1005  0.0044  0.7766  -3.1389   0.0000   0.0000   0.0000   0.3260
   7.000   1.1867   0.01961   0.01114  -0.1003  0.0043  0.7773  -3.2382   0.0000   0.0000   0.0000   0.3250
   7.100   1.1959   0.01981   0.01138  -0.1000  0.0043  0.7783  -3.3382   0.0000   0.0000   0.0000   0.3240
   7.200   1.2051   0.01998   0.01160  -0.0998  0.0042  0.7796  -3.4380   0.0000   0.0000   0.0000   0.3231
   7.300   1.2137   0.02018   0.01185  -0.0995  0.0042  0.7808  -3.5356   0.0000   0.0000   0.0000   0.3221
   7.400   1.2220   0.02040   0.01212  -0.0991  0.0042  0.7819  -3.6314   0.0000   0.0000   0.0000   0.3211
   7.500   1.2300   0.02063   0.01242  -0.0986  0.0042  0.7830  -3.7259   0.0000   0.0000   0.0000   0.3200
   7.600   1.2377   0.02089   0.01273  -0.0981  0.0042  0.7839  -3.8192   0.0000   0.0000   0.0000   0.3190
   7.700   1.2452   0.02116   0.01306  -0.0975  0.0042  0.7849  -3.9110   0.0000   0.0000   0.0000   0.3179
   7.800   1.2526   0.02144   0.01343  -0.0970  0.0042  0.7857  -3.9972   0.0000   0.0000   0.0000   0.3169
   7.900   1.2596   0.02175   0.01381  -0.0964  0.0042  0.7866  -4.0841   0.0000   0.0000   0.0000   0.3158
   8.000   1.2661   0.02209   0.01421  -0.0957  0.0042  0.7875  -4.1696   0.0000   0.0000   0.0000   0.3148
   8.100   1.2722   0.02245   0.01463  -0.0950  0.0042  0.7884  -4.2526   0.0000   0.0000   0.0000   0.3137
   8.200   1.2778   0.02284   0.01509  -0.0942  0.0042  0.7893  -4.3322   0.0000   0.0000   0.0000   0.3126
   8.300   1.2827   0.02326   0.01557  -0.0933  0.0042  0.7902  -4.4081   0.0000   0.0000   0.0000   0.3115
   8.400   1.2869   0.02370   0.01608  -0.0923  0.0042  0.7911  -4.4792   0.0000   0.0000   0.0000   0.3103
   8.500   1.2895   0.02415   0.01659  -0.0910  0.0042  0.7920  -4.5422   0.0000   0.0000   0.0000   0.3090
   8.600   1.2913   0.02463   0.01713  -0.0896  0.0043  0.7930  -4.6003   0.0000   0.0000   0.0000   0.3077
   8.700   1.2931   0.02516   0.01772  -0.0883  0.0043  0.7940  -4.6570   0.0000   0.0000   0.0000   0.3065
   8.800   1.2945   0.02573   0.01836  -0.0870  0.0043  0.7949  -4.7102   0.0000   0.0000   0.0000   0.3052
   8.900   1.2952   0.02636   0.01904  -0.0856  0.0043  0.7960  -4.7592   0.0000   0.0000   0.0000   0.3040
   9.000   1.2952   0.02703   0.01978  -0.0842  0.0043  0.7971  -4.8034   0.0000   0.0000   0.0000   0.3027
   9.100   1.2947   0.02775   0.02056  -0.0827  0.0043  0.7982  -4.8433   0.0000   0.0000   0.0000   0.3015
   9.200   1.2936   0.02853   0.02140  -0.0813  0.0044  0.7993  -4.8791   0.0000   0.0000   0.0000   0.3003
   9.300   1.2920   0.02937   0.02231  -0.0800  0.0044  0.8003  -4.9103   0.0000   0.0000   0.0000   0.2992
   9.400   1.2897   0.03028   0.02328  -0.0786  0.0044  0.8013  -4.9362   0.0000   0.0000   0.0000   0.2981
   9.500   1.2884   0.03118   0.02425  -0.0775  0.0044  0.8021  -4.9706   0.0000   0.0000   0.0000   0.2971
   9.600   1.2895   0.03192   0.02504  -0.0767  0.0044  0.8029  -5.0303   0.0000   0.0000   0.0000   0.2962
   9.700   1.2908   0.03268   0.02584  -0.0759  0.0045  0.8035  -5.0911   0.0000   0.0000   0.0000   0.2954
   9.800   1.2921   0.03347   0.02667  -0.0752  0.0045  0.8041  -5.1523   0.0000   0.0000   0.0000   0.2947
   9.900   1.2936   0.03426   0.02750  -0.0747  0.0046  0.8049  -5.2148   0.0000   0.0000   0.0000   0.2940
  10.000   1.2952   0.03506   0.02835  -0.0741  0.0046  0.8059  -5.2778   0.0000   0.0000   0.0000   0.2933
  10.100   1.2965   0.03588   0.02922  -0.0736  0.0046  0.8068  -5.3398   0.0000   0.0000   0.0000   0.2927
  10.200   1.2978   0.03672   0.03011  -0.0731  0.0047  0.8077  -5.4014   0.0000   0.0000   0.0000   0.2921
  10.300   1.2991   0.03759   0.03103  -0.0727  0.0047  0.8086  -5.4627   0.0000   0.0000   0.0000   0.2915
  10.400   1.3004   0.03848   0.03196  -0.0723  0.0048  0.8095  -5.5241   0.0000   0.0000   0.0000   0.2910
  10.500   1.3017   0.03940   0.03293  -0.0719  0.0049  0.8103  -5.5848   0.0000   0.0000   0.0000   0.2904
  10.600   1.3030   0.04033   0.03391  -0.0715  0.0049  0.8112  -5.6452   0.0000   0.0000   0.0000   0.2899
  10.700   1.3043   0.04129   0.03492  -0.0712  0.0050  0.8120  -5.7043   0.0000   0.0000   0.0000   0.2894
  10.800   1.3056   0.04228   0.03596  -0.0709  0.0051  0.8129  -5.7617   0.0000   0.0000   0.0000   0.2890
  10.900   1.3068   0.04328   0.03702  -0.0706  0.0051  0.8137  -5.8173   0.0000   0.0000   0.0000   0.2885
  11.000   1.3078   0.04433   0.03812  -0.0703  0.0052  0.8146  -5.8687   0.0000   0.0000   0.0000   0.2881
  11.100   1.3087   0.04540   0.03924  -0.0700  0.0053  0.8154  -5.9154   0.0000   0.0000   0.0000   0.2876
  11.200   1.3095   0.04649   0.04039  -0.0696  0.0054  0.8163  -5.9551   0.0000   0.0000   0.0000   0.2871
  11.300   1.3099   0.04766   0.04166  -0.0692  0.0056  0.8171  -5.9804   0.0000   0.0000   0.0000   0.2866
  11.400   1.3101   0.04887   0.04295  -0.0685  0.0058  0.8179  -5.9863   0.0000   0.0000   0.0000   0.2859
  11.500   1.3102   0.05013   0.04430  -0.0676  0.0061  0.8186  -5.9684   0.0000   0.0000   0.0000   0.2850
  11.600   1.3109   0.05139   0.04566  -0.0664  0.0065  0.8192  -5.9345   0.0000   0.0000   0.0000   0.2839
  11.700   1.3126   0.05272   0.04710  -0.0650  0.0070  0.8197  -5.8909   0.0000   0.0000   0.0000   0.2826
  11.800   1.3153   0.05417   0.04866  -0.0637  0.0075  0.8203  -5.8516   0.0000   0.0000   0.0000   0.2814
  11.900   1.3174   0.05579   0.05039  -0.0626  0.0080  0.8208  -5.8214   0.0000   0.0000   0.0000   0.2803
  12.000   1.3183   0.05764   0.05236  -0.0617  0.0084  0.8214  -5.7890   0.0000   0.0000   0.0000   0.2795
  12.100   1.3173   0.05996   0.05482  -0.0608  0.0089  0.8219  -5.7331   0.0000   0.0000   0.0000   0.2787
  13.300   1.2492   0.09269   0.08951  -0.0602  0.0242  0.8275  -4.6328   0.0000   0.0000   0.0000   0.2786
  13.400   1.2413   0.09504   0.09192  -0.0612  0.0241  0.8280  -4.6127   0.0000   0.0000   0.0000   0.2796
  13.500   1.2332   0.09749   0.09444  -0.0625  0.0240  0.8286  -4.5897   0.0000   0.0000   0.0000   0.2807
  13.600   1.2253   0.09999   0.09701  -0.0638  0.0240  0.8291  -4.5658   0.0000   0.0000   0.0000   0.2819
  13.700   1.2170   0.10261   0.09970  -0.0652  0.0239  0.8296  -4.5388   0.0000   0.0000   0.0000   0.2833
  13.800   1.2090   0.10528   0.10244  -0.0667  0.0239  0.8303  -4.5112   0.0000   0.0000   0.0000   0.2847
  13.900   1.2006   0.10807   0.10530  -0.0684  0.0238  0.8310  -4.4800   0.0000   0.0000   0.0000   0.2864
  14.000   1.1925   0.11091   0.10821  -0.0702  0.0238  0.8318  -4.4483   0.0000   0.0000   0.0000   0.2880
  14.100   1.1840   0.11390   0.11127  -0.0721  0.0237  0.8325  -4.4122   0.0000   0.0000   0.0000   0.2899
  14.200   1.1759   0.11693   0.11437  -0.0740  0.0237  0.8332  -4.3758   0.0000   0.0000   0.0000   0.2918
  14.300   1.1673   0.12014   0.11764  -0.0762  0.0237  0.8339  -4.3343   0.0000   0.0000   0.0000   0.2940
  14.400   1.1590   0.12338   0.12095  -0.0784  0.0236  0.8345  -4.2924   0.0000   0.0000   0.0000   0.2962
  14.500   1.1503   0.12683   0.12446  -0.0808  0.0236  0.8351  -4.2446   0.0000   0.0000   0.0000   0.2987
  14.600   1.1422   0.13027   0.12793  -0.0832  0.0235  0.8357  -4.1977   0.0000   0.0000   0.0000   0.3011
  14.700   1.1333   0.13400   0.13172  -0.0859  0.0235  0.8363  -4.1416   0.0000   0.0000   0.0000   0.3039
  14.800   1.1247   0.13780   0.13558  -0.0886  0.0234  0.8368  -4.0836   0.0000   0.0000   0.0000   0.3068
  14.900   1.1156   0.14189   0.13973  -0.0916  0.0234  0.8373  -4.0170   0.0000   0.0000   0.0000   0.3100
  15.000   1.1069   0.14606   0.14395  -0.0945  0.0233  0.8378  -3.9472   0.0000   0.0000   0.0000   0.3133
  15.100   1.0977   0.15054   0.14848  -0.0978  0.0233  0.8382  -3.8675   0.0000   0.0000   0.0000   0.3169
  15.200   1.0885   0.15523   0.15322  -0.1011  0.0231  0.8386  -3.7782   0.0000   0.0000   0.0000   0.3207
  15.300   1.0792   0.16009   0.15812  -0.1047  0.0230  0.8389  -3.6782   0.0000   0.0000   0.0000   0.3248
  15.400   1.0697   0.16538   0.16345  -0.1084  0.0228  0.8392  -3.5608   0.0000   0.0000   0.0000   0.3292
  15.500   1.0603   0.17109   0.16919  -0.1122  0.0224  0.8394  -3.4259   0.0000   0.0000   0.0000   0.3338
  15.600   1.0523   0.17693   0.17504  -0.1158  0.0220  0.8395  -3.2824   0.0000   0.0000   0.0000   0.3381
  15.700   1.0469   0.18198   0.18010  -0.1186  0.0215  0.8399  -3.1646   0.0000   0.0000   0.0000   0.3414
  15.800   1.0439   0.18591   0.18402  -0.1207  0.0213  0.8404  -3.0876   0.0000   0.0000   0.0000   0.3438
  15.900   1.0418   0.18940   0.18751  -0.1227  0.0210  0.8410  -3.0268   0.0000   0.0000   0.0000   0.3458
  16.000   1.0403   0.19264   0.19074  -0.1244  0.0208  0.8416  -2.9760   0.0000   0.0000   0.0000   0.3476
  16.100   1.0393   0.19569   0.19379  -0.1261  0.0206  0.8423  -2.9328   0.0000   0.0000   0.0000   0.3492
  16.200   1.0388   0.19858   0.19668  -0.1277  0.0204  0.8430  -2.8957   0.0000   0.0000   0.0000   0.3507
  16.300   1.0385   0.20135   0.19944  -0.1291  0.0202  0.8438  -2.8642   0.0000   0.0000   0.0000   0.3521
  16.400   1.0386   0.20401   0.20210  -0.1305  0.0201  0.8446  -2.8375   0.0000   0.0000   0.0000   0.3533
  16.500   1.0389   0.20656   0.20466  -0.1319  0.0199  0.8454  -2.8153   0.0000   0.0000   0.0000   0.3545
  16.600   1.0395   0.20903   0.20713  -0.1332  0.0197  0.8463  -2.7973   0.0000   0.0000   0.0000   0.3555
  16.700   1.0403   0.21142   0.20952  -0.1344  0.0196  0.8472  -2.7833   0.0000   0.0000   0.0000   0.3565
  16.800   1.0412   0.21373   0.21182  -0.1356  0.0194  0.8481  -2.7732   0.0000   0.0000   0.0000   0.3574
  16.900   1.0424   0.21596   0.21405  -0.1368  0.0193  0.8490  -2.7670   0.0000   0.0000   0.0000   0.3582
  17.000   1.0437   0.21811   0.21621  -0.1379  0.0191  0.8499  -2.7646   0.0000   0.0000   0.0000   0.3589
  17.100   1.0452   0.22020   0.21829  -0.1389  0.0190  0.8508  -2.7661   0.0000   0.0000   0.0000   0.3596
  17.200   1.0469   0.22221   0.22031  -0.1399  0.0188  0.8517  -2.7715   0.0000   0.0000   0.0000   0.3602
  17.300   1.0487   0.22415   0.22225  -0.1409  0.0187  0.8527  -2.7808   0.0000   0.0000   0.0000   0.3607
  17.900   1.0432   0.24280   0.24089  -0.1485  0.0171  0.8578  -2.5205   0.0000   0.0000   0.0000   0.3680
  18.000   1.0446   0.24547   0.24356  -0.1497  0.0171  0.8590  -2.4942   0.0000   0.0000   0.0000   0.3688
  18.100   1.0461   0.24810   0.24620  -0.1509  0.0171  0.8601  -2.4692   0.0000   0.0000   0.0000   0.3696
  18.200   1.0476   0.25072   0.24882  -0.1520  0.0171  0.8614  -2.4454   0.0000   0.0000   0.0000   0.3704
  18.300   1.0492   0.25331   0.25141  -0.1532  0.0170  0.8626  -2.4228   0.0000   0.0000   0.0000   0.3711
  18.400   1.0508   0.25587   0.25399  -0.1543  0.0170  0.8639  -2.4012   0.0000   0.0000   0.0000   0.3719
  18.500   1.0526   0.25842   0.25653  -0.1555  0.0170  0.8653  -2.3806   0.0000   0.0000   0.0000   0.3726
  18.600   1.0544   0.26093   0.25906  -0.1566  0.0170  0.8667  -2.3610   0.0000   0.0000   0.0000   0.3733
  18.700   1.0562   0.26342   0.26155  -0.1578  0.0169  0.8681  -2.3424   0.0000   0.0000   0.0000   0.3740
  18.800   1.0583   0.26588   0.26401  -0.1589  0.0169  0.8696  -2.3248   0.0000   0.0000   0.0000   0.3747
  18.900   1.0605   0.26828   0.26642  -0.1601  0.0167  0.8712  -2.3082   0.0000   0.0000   0.0000   0.3753
  19.000   1.0630   0.27062   0.26876  -0.1614  0.0166  0.8728  -2.2920   0.0000   0.0000   0.0000   0.3760
  19.100   1.0655   0.27319   0.27133  -0.1629  0.0162  0.8743  -2.2605   0.0000   0.0000   0.0000   0.3769
  19.200   1.0674   0.27605   0.27420  -0.1644  0.0157  0.8758  -2.2162   0.0000   0.0000   0.0000   0.3780
  19.300   1.0688   0.27881   0.27696  -0.1658  0.0154  0.8774  -2.1791   0.0000   0.0000   0.0000   0.3789
  19.400   1.0703   0.28142   0.27958  -0.1670  0.0150  0.8792  -2.1523   0.0000   0.0000   0.0000   0.3797
  19.500   1.0719   0.28392   0.28209  -0.1680  0.0147  0.8812  -2.1323   0.0000   0.0000   0.0000   0.3803
  19.600   1.0735   0.28636   0.28454  -0.1691  0.0144  0.8834  -2.1167   0.0000   0.0000   0.0000   0.3809
  19.700   1.0752   0.28875   0.28694  -0.1701  0.0141  0.8857  -2.1043   0.0000   0.0000   0.0000   0.3814
  19.800   1.0769   0.29111   0.28931  -0.1710  0.0139  0.8882  -2.0942   0.0000   0.0000   0.0000   0.3819
  19.900   1.0785   0.29344   0.29166  -0.1720  0.0136  0.8909  -2.0862   0.0000   0.0000   0.0000   0.3823
  20.000   1.0802   0.29575   0.29397  -0.1729  0.0134  0.8938  -2.0799   0.0000   0.0000   0.0000   0.3828
  23.200   1.1092   0.36962   0.36797  -0.1927  0.0097  1.0000  -2.0546   0.0000   0.0000   0.0000   0.3906
  23.300   1.1090   0.37211   0.37047  -0.1932  0.0096  1.0000  -2.0414   0.0000   0.0000   0.0000   0.3909
  23.400   1.1086   0.37459   0.37295  -0.1938  0.0096  1.0000  -2.0280   0.0000   0.0000   0.0000   0.3913
  23.500   1.1079   0.37705   0.37541  -0.1943  0.0096  1.0000  -2.0141   0.0000   0.0000   0.0000   0.3917
  23.600   1.1070   0.37949   0.37785  -0.1947  0.0096  1.0000  -1.9998   0.0000   0.0000   0.0000   0.3921
  23.700   1.1057   0.38189   0.38025  -0.1951  0.0096  1.0000  -1.9849   0.0000   0.0000   0.0000   0.3924
  23.800   1.1039   0.38424   0.38261  -0.1953  0.0096  1.0000  -1.9690   0.0000   0.0000   0.0000   0.3928
  23.900   1.1014   0.38653   0.38491  -0.1955  0.0096  1.0000  -1.9516   0.0000   0.0000   0.0000   0.3932
  24.000   1.0978   0.38871   0.38710  -0.1955  0.0096  1.0000  -1.9319   0.0000   0.0000   0.0000   0.3937
  24.100   1.0919   0.39066   0.38905  -0.1950  0.0096  1.0000  -1.9073   0.0000   0.0000   0.0000   0.3942


