xflr5 v6.61

 Calculated polar for: FX 61-140 AIRFOIL

 1 1 Reynolds number fixed          Mach number fixed         

 xtrf =   1.000 (top)        1.000 (bottom)
 Mach =   0.000     Re =     0.200 e 6     Ncrit =   9.000

  alpha     CL        CD       CDp       Cm    Top Xtr Bot Xtr   Cpmin    Chinge    XCp    
 ------- -------- --------- --------- -------- ------- ------- -------- --------- ---------
 -10.000  -0.3903   0.10041   0.09691  -0.0401  1.0000  0.0358  -1.9314   0.0000   0.0000   0.0000   0.1335
  -9.900  -0.3921   0.09832   0.09485  -0.0415  1.0000  0.0363  -1.9791   0.0000   0.0000   0.0000   0.1307
  -9.800  -0.3945   0.09604   0.09259  -0.0432  1.0000  0.0368  -2.0397   0.0000   0.0000   0.0000   0.1270
  -9.700  -0.3978   0.09351   0.09008  -0.0453  1.0000  0.0372  -2.1099   0.0000   0.0000   0.0000   0.1228
  -9.600  -0.4018   0.09075   0.08734  -0.0476  1.0000  0.0373  -2.1811   0.0000   0.0000   0.0000   0.1185
  -9.500  -0.4057   0.08806   0.08465  -0.0497  1.0000  0.0375  -2.2438   0.0000   0.0000   0.0000   0.1146
  -9.400  -0.4105   0.08571   0.08231  -0.0515  1.0000  0.0375  -2.2964   0.0000   0.0000   0.0000   0.1121
  -9.300  -0.4161   0.08361   0.08020  -0.0529  1.0000  0.0376  -2.3423   0.0000   0.0000   0.0000   0.1107
  -9.200  -0.4222   0.08169   0.07828  -0.0540  1.0000  0.0376  -2.3834   0.0000   0.0000   0.0000   0.1102
  -9.100  -0.4288   0.07995   0.07653  -0.0548  1.0000  0.0376  -2.4205   0.0000   0.0000   0.0000   0.1105
  -9.000  -0.4357   0.07836   0.07494  -0.0554  1.0000  0.0376  -2.4544   0.0000   0.0000   0.0000   0.1116
  -8.900  -0.4431   0.07691   0.07348  -0.0557  1.0000  0.0377  -2.4855   0.0000   0.0000   0.0000   0.1133
  -8.800  -0.4509   0.07561   0.07218  -0.0557  1.0000  0.0377  -2.5139   0.0000   0.0000   0.0000   0.1158
  -8.700  -0.4592   0.07444   0.07101  -0.0554  1.0000  0.0377  -2.5398   0.0000   0.0000   0.0000   0.1190
  -8.600  -0.4679   0.07341   0.06997  -0.0548  1.0000  0.0377  -2.5636   0.0000   0.0000   0.0000   0.1229
  -8.500  -0.4771   0.07248   0.06905  -0.0539  1.0000  0.0376  -2.5856   0.0000   0.0000   0.0000   0.1273
  -8.400  -0.4861   0.07156   0.06813  -0.0530  1.0000  0.0376  -2.6069   0.0000   0.0000   0.0000   0.1314
  -8.300  -0.4938   0.07051   0.06707  -0.0528  1.0000  0.0377  -2.6294   0.0000   0.0000   0.0000   0.1339
  -8.200  -0.5010   0.06953   0.06605  -0.0526  1.0000  0.0377  -2.6507   0.0000   0.0000   0.0000   0.1361
  -8.100  -0.5078   0.06866   0.06515  -0.0521  1.0000  0.0378  -2.6696   0.0000   0.0000   0.0000   0.1387
  -8.000  -0.5140   0.06784   0.06429  -0.0515  1.0000  0.0379  -2.6862   0.0000   0.0000   0.0000   0.1414
  -7.900  -0.5197   0.06703   0.06343  -0.0508  1.0000  0.0379  -2.7007   0.0000   0.0000   0.0000   0.1440
  -7.800  -0.5249   0.06621   0.06256  -0.0501  1.0000  0.0380  -2.7134   0.0000   0.0000   0.0000   0.1465
  -7.700  -0.5295   0.06538   0.06168  -0.0493  1.0000  0.0380  -2.7243   0.0000   0.0000   0.0000   0.1489
  -7.600  -0.5336   0.06454   0.06078  -0.0485  1.0000  0.0381  -2.7337   0.0000   0.0000   0.0000   0.1513
  -7.500  -0.5373   0.06368   0.05986  -0.0478  1.0000  0.0381  -2.7416   0.0000   0.0000   0.0000   0.1534
  -7.400  -0.5405   0.06281   0.05893  -0.0470  1.0000  0.0382  -2.7480   0.0000   0.0000   0.0000   0.1555
  -7.300  -0.5433   0.06193   0.05799  -0.0463  1.0000  0.0382  -2.7533   0.0000   0.0000   0.0000   0.1574
  -7.200  -0.5485   0.05440   0.05039  -0.0498  0.9983  0.0394  -2.8740   0.0000   0.0000   0.0000   0.1519
  -7.100  -0.5378   0.05213   0.04818  -0.0512  0.9969  0.0401  -2.8114   0.0000   0.0000   0.0000   0.1474
  -6.300  -0.4255   0.03146   0.02553  -0.0635  0.9799  0.0179  -3.4198   0.0000   0.0000   0.0000   0.0925
  -6.200  -0.4078   0.03117   0.02514  -0.0646  0.9772  0.0175  -3.3439   0.0000   0.0000   0.0000   0.0831
  -6.100  -0.3923   0.02967   0.02354  -0.0657  0.9755  0.0168  -3.3199   0.0000   0.0000   0.0000   0.0738
  -6.000  -0.3767   0.02768   0.02135  -0.0670  0.9742  0.0165  -3.3395   0.0000   0.0000   0.0000   0.0633
  -5.900  -0.3622   0.02627   0.01978  -0.0679  0.9715  0.0164  -3.3360   0.0000   0.0000   0.0000   0.0537
  -5.800  -0.3477   0.02511   0.01847  -0.0685  0.9683  0.0165  -3.3232   0.0000   0.0000   0.0000   0.0438
  -5.700  -0.3316   0.02412   0.01733  -0.0694  0.9660  0.0167  -3.2991   0.0000   0.0000   0.0000   0.0314
  -5.600  -0.3141   0.02347   0.01655  -0.0705  0.9640  0.0171  -3.2506   0.0000   0.0000   0.0000   0.0160
  -5.500  -0.3010   0.02150   0.01441  -0.0708  0.9628  0.0181  -3.3242   0.0000   0.0000   0.0000   0.0052
  -5.400  -0.2883   0.02049   0.01342  -0.0712  0.9597  0.0193  -3.2840   0.0000   0.0000   0.0000  -0.0068
  -5.300  -0.2746   0.01993   0.01286  -0.0718  0.9556  0.0208  -3.2051   0.0000   0.0000   0.0000  -0.0216
  -5.200  -0.2578   0.01969   0.01261  -0.0731  0.9528  0.0238  -3.0750   0.0000   0.0000   0.0000  -0.0441
  -5.100  -0.2406   0.01929   0.01216  -0.0744  0.9506  0.0279  -2.9639   0.0000   0.0000   0.0000  -0.0703
  -5.000  -0.2242   0.01857   0.01152  -0.0759  0.9490  0.0318  -2.8559   0.0000   0.0000   0.0000  -0.0998
  -4.900  -0.2119   0.01802   0.01097  -0.0760  0.9437  0.0344  -2.8127   0.0000   0.0000   0.0000  -0.1205
  -4.800  -0.1962   0.01757   0.01047  -0.0767  0.9399  0.0380  -2.7667   0.0000   0.0000   0.0000  -0.1531
  -4.700  -0.1799   0.01641   0.00938  -0.0783  0.9375  0.0442  -2.7114   0.0000   0.0000   0.0000  -0.1980
  -4.600  -0.1620   0.01617   0.00913  -0.0796  0.9351  0.0509  -2.5811   0.0000   0.0000   0.0000  -0.2554
  -4.500  -0.1423   0.01521   0.00818  -0.0819  0.9335  0.0572  -2.4895   0.0000   0.0000   0.0000  -0.3411
  -4.400  -0.1278   0.01475   0.00770  -0.0828  0.9273  0.0639  -2.4124   0.0000   0.0000   0.0000  -0.4140
  -4.300  -0.1086   0.01402   0.00701  -0.0848  0.9234  0.0820  -2.3472   0.0000   0.0000   0.0000  -0.5501
  -4.200  -0.0736   0.01105   0.00627  -0.0933  0.9239  0.5334  -2.2245   0.0000   0.0000   0.0000  -1.0427
  -4.100  -0.0591   0.01122   0.00661  -0.0932  0.9195  0.5782  -2.1182   0.0000   0.0000   0.0000  -1.3581
  -4.000  -0.0405   0.01137   0.00672  -0.0942  0.9162  0.6024  -1.9959   0.0000   0.0000   0.0000  -2.1208
  -3.900  -0.0295   0.01159   0.00694  -0.0936  0.9077  0.6129  -1.9038   0.0000   0.0000   0.0000  -2.9845
  -3.800  -0.0109   0.01169   0.00693  -0.0948  0.9023  0.6263  -1.7845   0.0000   0.0000   0.0000  -8.6241
  -3.700   0.0056   0.01192   0.00713  -0.0952  0.8976  0.6346  -1.6736   0.0000   0.0000   0.0000  17.6892
  -3.600   0.0151   0.01234   0.00750  -0.0940  0.8887  0.6420  -1.5945   0.0000   0.0000   0.0000   6.5766
  -3.500   0.0291   0.01285   0.00797  -0.0936  0.8816  0.6539  -1.4921   0.0000   0.0000   0.0000   3.5151
  -3.400   0.0435   0.01340   0.00847  -0.0932  0.8753  0.6645  -1.3894   0.0000   0.0000   0.0000   2.4274
  -3.300   0.0491   0.01398   0.00908  -0.0907  0.8652  0.6689  -1.3196   0.0000   0.0000   0.0000   2.1273
  -3.200   0.0597   0.01450   0.00956  -0.0894  0.8572  0.6736  -1.2333   0.0000   0.0000   0.0000   1.7698
  -3.100   0.0715   0.01478   0.00978  -0.0888  0.8486  0.6779  -1.1475   0.0000   0.0000   0.0000   1.5113
  -3.000   0.0846   0.01489   0.00982  -0.0890  0.8390  0.6820  -1.0607   0.0000   0.0000   0.0000   1.3168
  -2.900   0.1025   0.01492   0.00971  -0.0905  0.8309  0.6874  -0.9607   0.0000   0.0000   0.0000   1.1444
  -2.800   0.1175   0.01489   0.00958  -0.0917  0.8208  0.6921  -0.8741   0.0000   0.0000   0.0000   1.0399
  -2.700   0.1276   0.01493   0.00955  -0.0911  0.8115  0.6936  -0.8019   0.0000   0.0000   0.0000   0.9724
  -2.600   0.1386   0.01501   0.00955  -0.0907  0.8034  0.6950  -0.7281   0.0000   0.0000   0.0000   0.9117
  -2.500   0.1469   0.01509   0.00959  -0.0898  0.7939  0.6965  -0.6646   0.0000   0.0000   0.0000   0.8680
  -2.400   0.1567   0.01518   0.00961  -0.0892  0.7852  0.6981  -0.5972   0.0000   0.0000   0.0000   0.8252
  -2.200   0.1758   0.01537   0.00968  -0.0881  0.7695  0.7019  -0.5981   0.0000   0.0000   0.0000   0.7553
  -2.100   0.1852   0.01545   0.00971  -0.0875  0.7617  0.7039  -0.6061   0.0000   0.0000   0.0000   0.7262
  -2.000   0.1958   0.01552   0.00970  -0.0872  0.7548  0.7062  -0.6147   0.0000   0.0000   0.0000   0.6988
  -1.900   0.2072   0.01558   0.00967  -0.0872  0.7484  0.7087  -0.6236   0.0000   0.0000   0.0000   0.6740
  -1.800   0.2179   0.01557   0.00963  -0.0873  0.7411  0.7114  -0.6320   0.0000   0.0000   0.0000   0.6531
  -1.700   0.2302   0.01555   0.00955  -0.0877  0.7341  0.7144  -0.6413   0.0000   0.0000   0.0000   0.6332
  -1.600   0.2446   0.01555   0.00939  -0.0888  0.7277  0.7180  -0.6518   0.0000   0.0000   0.0000   0.6146
  -1.500   0.2606   0.01559   0.00929  -0.0903  0.7218  0.7215  -0.6631   0.0000   0.0000   0.0000   0.5976
  -1.400   0.2687   0.01552   0.00922  -0.0895  0.7160  0.7229  -0.6702   0.0000   0.0000   0.0000   0.5842
  -1.300   0.2770   0.01550   0.00919  -0.0888  0.7100  0.7242  -0.6776   0.0000   0.0000   0.0000   0.5713
  -1.200   0.2859   0.01552   0.00917  -0.0882  0.7042  0.7255  -0.6853   0.0000   0.0000   0.0000   0.5590
  -1.100   0.2954   0.01555   0.00915  -0.0877  0.6988  0.7269  -0.6934   0.0000   0.0000   0.0000   0.5473
  -1.000   0.3053   0.01561   0.00914  -0.0873  0.6936  0.7283  -0.7017   0.0000   0.0000   0.0000   0.5362
  -0.900   0.3146   0.01566   0.00915  -0.0869  0.6885  0.7299  -0.7096   0.0000   0.0000   0.0000   0.5260
  -0.800   0.3236   0.01568   0.00917  -0.0863  0.6831  0.7316  -0.7173   0.0000   0.0000   0.0000   0.5166
  -0.700   0.3331   0.01570   0.00917  -0.0860  0.6778  0.7334  -0.7253   0.0000   0.0000   0.0000   0.5076
  -0.600   0.3432   0.01572   0.00915  -0.0857  0.6727  0.7354  -0.7337   0.0000   0.0000   0.0000   0.4991
  -0.500   0.3541   0.01576   0.00912  -0.0857  0.6679  0.7375  -0.7425   0.0000   0.0000   0.0000   0.4912
  -0.400   0.3659   0.01580   0.00909  -0.0860  0.6633  0.7397  -0.7518   0.0000   0.0000   0.0000   0.4839
  -0.300   0.3781   0.01583   0.00907  -0.0864  0.6590  0.7418  -0.7612   0.0000   0.0000   0.0000   0.4773
  -0.200   0.3904   0.01580   0.00903  -0.0869  0.6547  0.7441  -0.7705   0.0000   0.0000   0.0000   0.4712
  -0.100   0.4037   0.01578   0.00899  -0.0877  0.6501  0.7465  -0.7804   0.0000   0.0000   0.0000   0.4657
   0.000   0.4182   0.01580   0.00897  -0.0887  0.6454  0.7489  -0.7911   0.0000   0.0000   0.0000   0.4606
   0.100   0.4300   0.01578   0.00890  -0.0891  0.6410  0.7508  -0.8007   0.0000   0.0000   0.0000   0.4554
   0.200   0.4389   0.01574   0.00883  -0.0885  0.6370  0.7522  -0.8094   0.0000   0.0000   0.0000   0.4498
   0.300   0.4481   0.01576   0.00880  -0.0880  0.6330  0.7535  -0.8182   0.0000   0.0000   0.0000   0.4444
   0.400   0.4577   0.01583   0.00882  -0.0876  0.6289  0.7549  -0.8273   0.0000   0.0000   0.0000   0.4394
   0.500   0.4666   0.01581   0.00883  -0.0871  0.6254  0.7563  -0.8358   0.0000   0.0000   0.0000   0.4345
   0.600   0.4758   0.01581   0.00884  -0.0867  0.6216  0.7577  -0.8445   0.0000   0.0000   0.0000   0.4299
   0.700   0.4855   0.01581   0.00885  -0.0864  0.6178  0.7592  -0.8535   0.0000   0.0000   0.0000   0.4255
   0.800   0.4956   0.01581   0.00885  -0.0862  0.6141  0.7606  -0.8631   0.0000   0.0000   0.0000   0.4214
   0.900   0.5062   0.01582   0.00884  -0.0862  0.6105  0.7622  -0.8736   0.0000   0.0000   0.0000   0.4175
   1.000   0.5170   0.01585   0.00884  -0.0862  0.6071  0.7638  -0.8844   0.0000   0.0000   0.0000   0.4138
   1.100   0.5282   0.01590   0.00884  -0.0862  0.6038  0.7657  -0.8953   0.0000   0.0000   0.0000   0.4103
   1.200   0.5399   0.01598   0.00887  -0.0865  0.6003  0.7678  -0.9065   0.0000   0.0000   0.0000   0.4071
   1.300   0.5521   0.01607   0.00893  -0.0869  0.5968  0.7699  -0.9180   0.0000   0.0000   0.0000   0.4042
   1.400   0.5642   0.01607   0.00894  -0.0873  0.5940  0.7721  -0.9293   0.0000   0.0000   0.0000   0.4014
   1.500   0.5770   0.01609   0.00897  -0.0879  0.5908  0.7741  -0.9411   0.0000   0.0000   0.0000   0.3989
   1.600   0.5904   0.01611   0.00899  -0.0886  0.5875  0.7759  -0.9533   0.0000   0.0000   0.0000   0.3967
   1.700   0.6044   0.01616   0.00903  -0.0895  0.5841  0.7775  -0.9658   0.0000   0.0000   0.0000   0.3946
   1.800   0.6151   0.01611   0.00897  -0.0895  0.5808  0.7787  -0.9766   0.0000   0.0000   0.0000   0.3919
   1.900   0.6247   0.01606   0.00891  -0.0892  0.5777  0.7798  -0.9867   0.0000   0.0000   0.0000   0.3891
   2.000   0.6345   0.01605   0.00889  -0.0890  0.5746  0.7810  -0.9970   0.0000   0.0000   0.0000   0.3864
   2.100   0.6446   0.01607   0.00888  -0.0888  0.5714  0.7821  -1.0075   0.0000   0.0000   0.0000   0.3838
   2.200   0.6550   0.01615   0.00892  -0.0886  0.5680  0.7833  -1.0182   0.0000   0.0000   0.0000   0.3813
   2.300   0.6656   0.01624   0.00899  -0.0886  0.5646  0.7845  -1.0288   0.0000   0.0000   0.0000   0.3790
   2.400   0.6754   0.01622   0.00906  -0.0884  0.5621  0.7857  -1.0389   0.0000   0.0000   0.0000   0.3766
   2.500   0.6854   0.01622   0.00908  -0.0882  0.5593  0.7870  -1.0492   0.0000   0.0000   0.0000   0.3744
   2.600   0.6958   0.01623   0.00911  -0.0881  0.5564  0.7884  -1.0597   0.0000   0.0000   0.0000   0.3722
   2.700   0.7065   0.01624   0.00915  -0.0881  0.5535  0.7898  -1.0705   0.0000   0.0000   0.0000   0.3702
   2.800   0.7175   0.01626   0.00917  -0.0882  0.5505  0.7912  -1.0815   0.0000   0.0000   0.0000   0.3683
   2.900   0.7286   0.01629   0.00920  -0.0883  0.5475  0.7928  -1.0926   0.0000   0.0000   0.0000   0.3664
   3.000   0.7398   0.01632   0.00922  -0.0884  0.5445  0.7946  -1.1039   0.0000   0.0000   0.0000   0.3647
   3.100   0.7515   0.01637   0.00925  -0.0886  0.5415  0.7964  -1.1155   0.0000   0.0000   0.0000   0.3630
   3.200   0.7637   0.01645   0.00930  -0.0890  0.5384  0.7983  -1.1275   0.0000   0.0000   0.0000   0.3615
   3.300   0.7765   0.01659   0.00940  -0.0895  0.5350  0.8001  -1.1403   0.0000   0.0000   0.0000   0.3602
   3.400   0.7894   0.01673   0.00953  -0.0901  0.5317  0.8017  -1.1546   0.0000   0.0000   0.0000   0.3589
   3.500   0.8021   0.01676   0.00959  -0.0906  0.5292  0.8032  -1.1691   0.0000   0.0000   0.0000   0.3577
   3.600   0.8150   0.01681   0.00967  -0.0912  0.5265  0.8044  -1.1839   0.0000   0.0000   0.0000   0.3565
   3.700   0.8250   0.01676   0.00966  -0.0911  0.5238  0.8055  -1.1965   0.0000   0.0000   0.0000   0.3549
   3.800   0.8349   0.01674   0.00968  -0.0909  0.5211  0.8065  -1.2092   0.0000   0.0000   0.0000   0.3533
   3.900   0.8449   0.01674   0.00970  -0.0907  0.5184  0.8076  -1.2220   0.0000   0.0000   0.0000   0.3517
   4.000   0.8550   0.01676   0.00973  -0.0906  0.5157  0.8087  -1.2350   0.0000   0.0000   0.0000   0.3501
   4.100   0.8653   0.01678   0.00984  -0.0904  0.5130  0.8098  -1.2481   0.0000   0.0000   0.0000   0.3486
   4.200   0.8758   0.01682   0.00989  -0.0904  0.5104  0.8110  -1.2615   0.0000   0.0000   0.0000   0.3471
   4.300   0.8865   0.01688   0.00994  -0.0903  0.5078  0.8121  -1.2750   0.0000   0.0000   0.0000   0.3458
   4.400   0.8975   0.01697   0.01002  -0.0904  0.5051  0.8133  -1.2887   0.0000   0.0000   0.0000   0.3445
   4.500   0.9086   0.01713   0.01016  -0.0905  0.5021  0.8146  -1.3024   0.0000   0.0000   0.0000   0.3432
   4.600   0.9195   0.01730   0.01034  -0.0906  0.4992  0.8161  -1.3158   0.0000   0.0000   0.0000   0.3420
   4.700   0.9297   0.01731   0.01041  -0.0905  0.4971  0.8176  -1.3300   0.0000   0.0000   0.0000   0.3408
   4.800   0.9403   0.01733   0.01049  -0.0905  0.4946  0.8193  -1.3465   0.0000   0.0000   0.0000   0.3395
   4.900   0.9511   0.01736   0.01057  -0.0905  0.4917  0.8210  -1.3673   0.0000   0.0000   0.0000   0.3384
   5.000   0.9624   0.01740   0.01065  -0.0907  0.4886  0.8226  -1.4047   0.0000   0.0000   0.0000   0.3373
   5.100   0.9738   0.01741   0.01068  -0.0908  0.4850  0.8241  -1.4482   0.0000   0.0000   0.0000   0.3363
   5.200   0.9848   0.01728   0.01050  -0.0908  0.4782  0.8255  -1.4923   0.0000   0.0000   0.0000   0.3351
   5.300   0.9962   0.01731   0.01035  -0.0909  0.4674  0.8267  -1.5381   0.0000   0.0000   0.0000   0.3340
   5.400   1.0051   0.01700   0.01010  -0.0905  0.4577  0.8279  -1.5790   0.0000   0.0000   0.0000   0.3327
   5.500   1.0148   0.01679   0.00984  -0.0903  0.4451  0.8290  -1.6404   0.0000   0.0000   0.0000   0.3314
   5.600   1.0245   0.01681   0.00971  -0.0901  0.4336  0.8299  -1.7221   0.0000   0.0000   0.0000   0.3303
   5.700   1.0334   0.01667   0.00965  -0.0897  0.4264  0.8310  -1.8009   0.0000   0.0000   0.0000   0.3290
   5.800   1.0430   0.01664   0.00967  -0.0895  0.4214  0.8320  -1.8838   0.0000   0.0000   0.0000   0.3279
   5.900   1.0519   0.01662   0.00968  -0.0891  0.4137  0.8331  -1.9838   0.0000   0.0000   0.0000   0.3266
   6.000   1.0608   0.01665   0.00967  -0.0888  0.4073  0.8342  -2.0785   0.0000   0.0000   0.0000   0.3255
   6.100   1.0701   0.01672   0.00971  -0.0885  0.4015  0.8353  -2.1726   0.0000   0.0000   0.0000   0.3243
   6.200   1.0802   0.01671   0.00977  -0.0883  0.3958  0.8364  -2.2710   0.0000   0.0000   0.0000   0.3233
   6.300   1.0900   0.01672   0.00983  -0.0882  0.3890  0.8376  -2.3698   0.0000   0.0000   0.0000   0.3223
   6.400   1.0995   0.01677   0.00987  -0.0879  0.3814  0.8388  -2.4687   0.0000   0.0000   0.0000   0.3213
   6.500   1.1085   0.01687   0.00992  -0.0877  0.3737  0.8399  -2.5669   0.0000   0.0000   0.0000   0.3202
   6.600   1.1185   0.01693   0.01002  -0.0875  0.3666  0.8411  -2.6702   0.0000   0.0000   0.0000   0.3193
   6.700   1.1286   0.01699   0.01011  -0.0875  0.3581  0.8424  -2.7756   0.0000   0.0000   0.0000   0.3184
   6.800   1.1379   0.01709   0.01021  -0.0872  0.3487  0.8438  -2.8778   0.0000   0.0000   0.0000   0.3174
   6.900   1.1458   0.01725   0.01029  -0.0868  0.3322  0.8454  -2.9737   0.0000   0.0000   0.0000   0.3164
   7.000   1.1515   0.01754   0.01040  -0.0861  0.3019  0.8469  -3.0597   0.0000   0.0000   0.0000   0.3152
   7.100   1.1572   0.01793   0.01061  -0.0854  0.2716  0.8485  -3.1443   0.0000   0.0000   0.0000   0.3142
   7.200   1.1639   0.01832   0.01087  -0.0850  0.2465  0.8500  -3.2323   0.0000   0.0000   0.0000   0.3132
   7.300   1.1698   0.01881   0.01120  -0.0845  0.2185  0.8513  -3.3149   0.0000   0.0000   0.0000   0.3123
   7.400   1.1743   0.01946   0.01164  -0.0838  0.1821  0.8525  -3.3881   0.0000   0.0000   0.0000   0.3113
   7.600   1.1710   0.02159   0.01308  -0.0809  0.0858  0.8546  -3.4704   0.0000   0.0000   0.0000   0.3088
   7.700   1.1691   0.02253   0.01378  -0.0792  0.0514  0.8557  -3.5087   0.0000   0.0000   0.0000   0.3073
   7.800   1.1664   0.02349   0.01453  -0.0775  0.0220  0.8568  -3.5432   0.0000   0.0000   0.0000   0.3059
   7.900   1.1698   0.02399   0.01501  -0.0765  0.0149  0.8580  -3.6049   0.0000   0.0000   0.0000   0.3047
   8.000   1.1747   0.02437   0.01542  -0.0756  0.0124  0.8591  -3.6727   0.0000   0.0000   0.0000   0.3035
   8.100   1.1791   0.02476   0.01584  -0.0747  0.0108  0.8603  -3.7365   0.0000   0.0000   0.0000   0.3024
   8.200   1.1832   0.02514   0.01629  -0.0737  0.0099  0.8615  -3.7941   0.0000   0.0000   0.0000   0.3012
   8.300   1.1879   0.02549   0.01669  -0.0728  0.0095  0.8628  -3.8604   0.0000   0.0000   0.0000   0.3001
   8.400   1.1932   0.02584   0.01716  -0.0721  0.0093  0.8640  -3.9268   0.0000   0.0000   0.0000   0.2990
   8.500   1.1984   0.02623   0.01763  -0.0714  0.0091  0.8653  -3.9978   0.0000   0.0000   0.0000   0.2980
   8.600   1.2033   0.02665   0.01813  -0.0707  0.0089  0.8666  -4.0685   0.0000   0.0000   0.0000   0.2971
   8.700   1.2080   0.02710   0.01866  -0.0700  0.0087  0.8680  -4.1377   0.0000   0.0000   0.0000   0.2961
   8.800   1.2122   0.02759   0.01922  -0.0692  0.0086  0.8695  -4.2050   0.0000   0.0000   0.0000   0.2952
   8.900   1.2161   0.02811   0.01982  -0.0685  0.0084  0.8711  -4.2708   0.0000   0.0000   0.0000   0.2942
   9.000   1.2198   0.02866   0.02045  -0.0678  0.0083  0.8727  -4.3351   0.0000   0.0000   0.0000   0.2933
   9.100   1.2230   0.02926   0.02113  -0.0671  0.0082  0.8742  -4.3970   0.0000   0.0000   0.0000   0.2924
   9.200   1.2258   0.02991   0.02186  -0.0664  0.0082  0.8755  -4.4563   0.0000   0.0000   0.0000   0.2916
   9.300   1.2274   0.03054   0.02257  -0.0655  0.0081  0.8769  -4.5097   0.0000   0.0000   0.0000   0.2906
   9.400   1.2282   0.03119   0.02331  -0.0645  0.0080  0.8782  -4.5592   0.0000   0.0000   0.0000   0.2896
   9.500   1.2287   0.03190   0.02410  -0.0636  0.0080  0.8795  -4.6061   0.0000   0.0000   0.0000   0.2887
   9.600   1.2288   0.03267   0.02495  -0.0628  0.0080  0.8808  -4.6509   0.0000   0.0000   0.0000   0.2879
   9.700   1.2288   0.03350   0.02585  -0.0620  0.0079  0.8821  -4.6944   0.0000   0.0000   0.0000   0.2871
   9.800   1.2287   0.03439   0.02682  -0.0613  0.0079  0.8834  -4.7365   0.0000   0.0000   0.0000   0.2863
   9.900   1.2283   0.03534   0.02785  -0.0607  0.0079  0.8847  -4.7765   0.0000   0.0000   0.0000   0.2857
  10.000   1.2277   0.03636   0.02894  -0.0602  0.0079  0.8860  -4.8149   0.0000   0.0000   0.0000   0.2852
  10.100   1.2272   0.03742   0.03007  -0.0598  0.0079  0.8874  -4.8527   0.0000   0.0000   0.0000   0.2847
  10.200   1.2264   0.03854   0.03125  -0.0595  0.0079  0.8887  -4.8886   0.0000   0.0000   0.0000   0.2842
  10.300   1.2255   0.03971   0.03249  -0.0592  0.0079  0.8900  -4.9227   0.0000   0.0000   0.0000   0.2839
  10.400   1.2246   0.04091   0.03376  -0.0590  0.0078  0.8913  -4.9565   0.0000   0.0000   0.0000   0.2835
  10.500   1.2239   0.04216   0.03507  -0.0588  0.0078  0.8926  -4.9899   0.0000   0.0000   0.0000   0.2833
  10.600   1.2232   0.04343   0.03640  -0.0587  0.0079  0.8938  -5.0232   0.0000   0.0000   0.0000   0.2830
  10.700   1.2226   0.04473   0.03776  -0.0587  0.0079  0.8950  -5.0558   0.0000   0.0000   0.0000   0.2828
  10.800   1.2221   0.04604   0.03913  -0.0586  0.0079  0.8961  -5.0888   0.0000   0.0000   0.0000   0.2826
  10.900   1.2215   0.04732   0.04047  -0.0585  0.0079  0.8973  -5.1205   0.0000   0.0000   0.0000   0.2823
  11.000   1.2207   0.04853   0.04174  -0.0582  0.0079  0.8985  -5.1514   0.0000   0.0000   0.0000   0.2820
  11.100   1.2200   0.04975   0.04301  -0.0580  0.0079  0.8998  -5.1822   0.0000   0.0000   0.0000   0.2816
  11.200   1.2195   0.05096   0.04428  -0.0577  0.0079  0.9011  -5.2129   0.0000   0.0000   0.0000   0.2812
  11.300   1.2193   0.05215   0.04553  -0.0574  0.0080  0.9025  -5.2447   0.0000   0.0000   0.0000   0.2808
  11.400   1.2194   0.05331   0.04674  -0.0571  0.0080  0.9038  -5.2775   0.0000   0.0000   0.0000   0.2804
  11.500   1.2197   0.05445   0.04792  -0.0568  0.0080  0.9052  -5.3104   0.0000   0.0000   0.0000   0.2799
  11.600   1.2202   0.05557   0.04911  -0.0564  0.0080  0.9066  -5.3435   0.0000   0.0000   0.0000   0.2795
  11.700   1.2211   0.05668   0.05027  -0.0560  0.0081  0.9080  -5.3776   0.0000   0.0000   0.0000   0.2789
  11.800   1.2224   0.05778   0.05142  -0.0557  0.0081  0.9094  -5.4126   0.0000   0.0000   0.0000   0.2784
  11.900   1.2240   0.05887   0.05256  -0.0553  0.0082  0.9108  -5.4481   0.0000   0.0000   0.0000   0.2779
  12.000   1.2259   0.05996   0.05371  -0.0549  0.0082  0.9123  -5.4838   0.0000   0.0000   0.0000   0.2773
  12.100   1.2280   0.06105   0.05487  -0.0544  0.0083  0.9139  -5.5194   0.0000   0.0000   0.0000   0.2767
  12.200   1.2302   0.06219   0.05607  -0.0541  0.0084  0.9154  -5.5536   0.0000   0.0000   0.0000   0.2761
  12.300   1.2316   0.06330   0.05729  -0.0535  0.0084  0.9171  -5.5845   0.0000   0.0000   0.0000   0.2755
  12.400   1.2326   0.06442   0.05849  -0.0529  0.0085  0.9190  -5.6125   0.0000   0.0000   0.0000   0.2748
  12.500   1.2336   0.06560   0.05975  -0.0524  0.0086  0.9210  -5.6383   0.0000   0.0000   0.0000   0.2742
  12.600   1.2344   0.06685   0.06109  -0.0520  0.0086  0.9230  -5.6618   0.0000   0.0000   0.0000   0.2736
  12.700   1.2349   0.06819   0.06251  -0.0516  0.0087  0.9251  -5.6821   0.0000   0.0000   0.0000   0.2732
  12.800   1.2350   0.06962   0.06403  -0.0514  0.0088  0.9271  -5.6987   0.0000   0.0000   0.0000   0.2728
  12.900   1.2345   0.07115   0.06565  -0.0512  0.0089  0.9290  -5.7113   0.0000   0.0000   0.0000   0.2725
  13.000   1.2335   0.07277   0.06737  -0.0512  0.0089  0.9309  -5.7196   0.0000   0.0000   0.0000   0.2724
  13.100   1.2320   0.07449   0.06918  -0.0512  0.0090  0.9327  -5.7240   0.0000   0.0000   0.0000   0.2723
  13.200   1.2295   0.07617   0.07096  -0.0512  0.0091  0.9348  -5.7236   0.0000   0.0000   0.0000   0.2721
  13.300   1.2265   0.07791   0.07280  -0.0512  0.0092  0.9371  -5.7195   0.0000   0.0000   0.0000   0.2720
  13.400   1.2229   0.07972   0.07471  -0.0512  0.0092  0.9394  -5.7112   0.0000   0.0000   0.0000   0.2720
  13.500   1.2187   0.08163   0.07672  -0.0514  0.0093  0.9419  -5.6984   0.0000   0.0000   0.0000   0.2722
  13.600   1.2142   0.08364   0.07883  -0.0517  0.0093  0.9446  -5.6814   0.0000   0.0000   0.0000   0.2724
  13.700   1.2094   0.08575   0.08103  -0.0520  0.0094  0.9474  -5.6592   0.0000   0.0000   0.0000   0.2726
  14.400   1.1901   0.09870   0.09452  -0.0561  0.0100  1.0000  -5.6760   0.0000   0.0000   0.0000   0.2755
  14.500   1.1892   0.10054   0.09643  -0.0574  0.0101  1.0000  -5.7012   0.0000   0.0000   0.0000   0.2764
  14.600   1.1881   0.10245   0.09841  -0.0586  0.0102  1.0000  -5.7218   0.0000   0.0000   0.0000   0.2773
  14.700   1.1860   0.10455   0.10059  -0.0600  0.0103  1.0000  -5.7314   0.0000   0.0000   0.0000   0.2784
  14.800   1.1834   0.10680   0.10291  -0.0615  0.0104  1.0000  -5.7321   0.0000   0.0000   0.0000   0.2796
  14.900   1.1803   0.10917   0.10537  -0.0631  0.0105  1.0000  -5.7233   0.0000   0.0000   0.0000   0.2808
  15.000   1.1760   0.11179   0.10810  -0.0649  0.0106  1.0000  -5.6993   0.0000   0.0000   0.0000   0.2823
  15.100   1.1707   0.11466   0.11107  -0.0668  0.0108  1.0000  -5.6607   0.0000   0.0000   0.0000   0.2840
  15.200   1.1647   0.11775   0.11427  -0.0688  0.0109  1.0000  -5.6064   0.0000   0.0000   0.0000   0.2859
  15.300   1.1577   0.12110   0.11774  -0.0710  0.0111  1.0000  -5.5407   0.0000   0.0000   0.0000   0.2880
  15.400   1.1503   0.12463   0.12139  -0.0734  0.0112  1.0000  -5.4615   0.0000   0.0000   0.0000   0.2903
  15.500   1.1426   0.12829   0.12516  -0.0758  0.0114  1.0000  -5.3789   0.0000   0.0000   0.0000   0.2927
  15.600   1.1348   0.13203   0.12900  -0.0783  0.0115  1.0000  -5.2966   0.0000   0.0000   0.0000   0.2953
  15.700   1.1272   0.13583   0.13289  -0.0809  0.0116  1.0000  -5.2152   0.0000   0.0000   0.0000   0.2979
  15.800   1.1193   0.13974   0.13689  -0.0837  0.0117  1.0000  -5.1360   0.0000   0.0000   0.0000   0.3008
  15.900   1.1113   0.14381   0.14104  -0.0866  0.0118  1.0000  -5.0512   0.0000   0.0000   0.0000   0.3039
  16.000   1.1036   0.14788   0.14519  -0.0896  0.0118  1.0000  -4.9677   0.0000   0.0000   0.0000   0.3070
  16.100   1.0959   0.15200   0.14938  -0.0927  0.0118  1.0000  -4.8774   0.0000   0.0000   0.0000   0.3103
  16.200   1.0882   0.15624   0.15369  -0.0958  0.0119  1.0000  -4.7829   0.0000   0.0000   0.0000   0.3138
  16.300   1.0804   0.16069   0.15820  -0.0991  0.0119  1.0000  -4.6782   0.0000   0.0000   0.0000   0.3174
  16.400   1.0722   0.16546   0.16304  -0.1025  0.0119  1.0000  -4.5581   0.0000   0.0000   0.0000   0.3213
  16.500   1.0633   0.17071   0.16834  -0.1061  0.0119  1.0000  -4.4163   0.0000   0.0000   0.0000   0.3255
  16.600   1.0529   0.17687   0.17455  -0.1100  0.0120  1.0000  -4.2252   0.0000   0.0000   0.0000   0.3303
  16.700   1.0372   0.18577   0.18347  -0.1149  0.0123  1.0000  -3.8739   0.0000   0.0000   0.0000   0.3370
  16.800   1.0194   0.19716   0.19486  -0.1197  0.0133  1.0000  -3.3346   0.0000   0.0000   0.0000   0.3441
  16.900   1.0156   0.20204   0.19972  -0.1220  0.0140  1.0000  -3.1693   0.0000   0.0000   0.0000   0.3468
  17.000   1.0140   0.20585   0.20352  -0.1239  0.0146  1.0000  -3.0676   0.0000   0.0000   0.0000   0.3488
  17.100   1.0134   0.20913   0.20678  -0.1255  0.0151  1.0000  -2.9972   0.0000   0.0000   0.0000   0.3504
  17.200   1.0133   0.21205   0.20970  -0.1270  0.0157  1.0000  -2.9470   0.0000   0.0000   0.0000   0.3518
  17.300   1.0129   0.21461   0.21225  -0.1282  0.0164  1.0000  -2.9140   0.0000   0.0000   0.0000   0.3529
  18.100   1.0174   0.24601   0.24362  -0.1418  0.0304  1.0000  -2.0795   0.0000   0.0000   0.0000   0.3654
  18.200   1.0198   0.24814   0.24576  -0.1428  0.0301  1.0000  -2.0802   0.0000   0.0000   0.0000   0.3660
  18.300   1.0224   0.25022   0.24784  -0.1438  0.0298  1.0000  -2.0842   0.0000   0.0000   0.0000   0.3665
  18.400   1.0251   0.25224   0.24986  -0.1448  0.0295  1.0000  -2.0916   0.0000   0.0000   0.0000   0.3668
  18.500   1.0279   0.25421   0.25182  -0.1457  0.0292  1.0000  -2.1026   0.0000   0.0000   0.0000   0.3671
  18.600   1.0308   0.25611   0.25372  -0.1465  0.0290  1.0000  -2.1173   0.0000   0.0000   0.0000   0.3673
  18.700   1.0338   0.25796   0.25557  -0.1472  0.0287  1.0000  -2.1359   0.0000   0.0000   0.0000   0.3674
  18.800   1.0369   0.25976   0.25738  -0.1479  0.0284  1.0000  -2.1579   0.0000   0.0000   0.0000   0.3675
  18.900   1.0401   0.26153   0.25914  -0.1485  0.0282  1.0000  -2.1842   0.0000   0.0000   0.0000   0.3674
  19.000   1.0433   0.26327   0.26089  -0.1490  0.0279  1.0000  -2.2134   0.0000   0.0000   0.0000   0.3672
  19.100   1.0464   0.26507   0.26269  -0.1494  0.0277  1.0000  -2.2443   0.0000   0.0000   0.0000   0.3670
  19.200   1.0494   0.26695   0.26457  -0.1496  0.0274  1.0000  -2.2795   0.0000   0.0000   0.0000   0.3666
  19.400   1.0468   0.27528   0.27286  -0.1514  0.0266  1.0000  -2.1894   0.0000   0.0000   0.0000   0.3684
  19.500   1.0487   0.27779   0.27537  -0.1526  0.0266  1.0000  -2.1735   0.0000   0.0000   0.0000   0.3691
  19.600   1.0506   0.28029   0.27787  -0.1538  0.0265  1.0000  -2.1577   0.0000   0.0000   0.0000   0.3698
  19.700   1.0524   0.28277   0.28034  -0.1549  0.0265  1.0000  -2.1421   0.0000   0.0000   0.0000   0.3705
  19.800   1.0543   0.28523   0.28280  -0.1561  0.0265  1.0000  -2.1265   0.0000   0.0000   0.0000   0.3712
  19.900   1.0561   0.28765   0.28522  -0.1573  0.0264  1.0000  -2.1108   0.0000   0.0000   0.0000   0.3720
  20.000   1.0580   0.29005   0.28762  -0.1585  0.0264  1.0000  -2.0947   0.0000   0.0000   0.0000   0.3727
  20.100   1.0598   0.29241   0.28998  -0.1597  0.0263  1.0000  -2.0781   0.0000   0.0000   0.0000   0.3734
  20.500   1.0640   0.30228   0.29982  -0.1667  0.0252  1.0000  -1.9217   0.0000   0.0000   0.0000   0.3788
  20.600   1.0652   0.30491   0.30245  -0.1683  0.0247  1.0000  -1.8841   0.0000   0.0000   0.0000   0.3800
  20.700   1.0668   0.30746   0.30502  -0.1696  0.0242  1.0000  -1.8609   0.0000   0.0000   0.0000   0.3809
  20.800   1.0684   0.30992   0.30748  -0.1707  0.0238  1.0000  -1.8453   0.0000   0.0000   0.0000   0.3815
  20.900   1.0701   0.31235   0.30991  -0.1717  0.0233  1.0000  -1.8341   0.0000   0.0000   0.0000   0.3820
  21.000   1.0718   0.31474   0.31230  -0.1727  0.0230  1.0000  -1.8257   0.0000   0.0000   0.0000   0.3825
  21.100   1.0735   0.31710   0.31466  -0.1736  0.0226  1.0000  -1.8194   0.0000   0.0000   0.0000   0.3829
  21.200   1.0751   0.31944   0.31700  -0.1745  0.0222  1.0000  -1.8147   0.0000   0.0000   0.0000   0.3834
  21.300   1.0768   0.32176   0.31932  -0.1754  0.0219  1.0000  -1.8115   0.0000   0.0000   0.0000   0.3837
  21.400   1.0784   0.32406   0.32162  -0.1762  0.0216  1.0000  -1.8096   0.0000   0.0000   0.0000   0.3841
  21.500   1.0801   0.32634   0.32391  -0.1770  0.0213  1.0000  -1.8090   0.0000   0.0000   0.0000   0.3844
  21.600   1.0816   0.32861   0.32617  -0.1778  0.0210  1.0000  -1.8096   0.0000   0.0000   0.0000   0.3847
  21.700   1.0832   0.33086   0.32842  -0.1786  0.0207  1.0000  -1.8113   0.0000   0.0000   0.0000   0.3850
  21.800   1.0847   0.33309   0.33065  -0.1794  0.0204  1.0000  -1.8144   0.0000   0.0000   0.0000   0.3853
  21.900   1.0862   0.33529   0.33286  -0.1801  0.0202  1.0000  -1.8187   0.0000   0.0000   0.0000   0.3855
  22.000   1.0877   0.33748   0.33506  -0.1808  0.0199  1.0000  -1.8244   0.0000   0.0000   0.0000   0.3857
  22.100   1.0891   0.33965   0.33723  -0.1815  0.0197  1.0000  -1.8316   0.0000   0.0000   0.0000   0.3859
  22.200   1.0905   0.34180   0.33937  -0.1821  0.0194  1.0000  -1.8404   0.0000   0.0000   0.0000   0.3861
  22.300   1.0919   0.34392   0.34150  -0.1827  0.0192  1.0000  -1.8510   0.0000   0.0000   0.0000   0.3862
  22.400   1.0933   0.34602   0.34360  -0.1832  0.0190  1.0000  -1.8635   0.0000   0.0000   0.0000   0.3863
  22.500   1.0946   0.34809   0.34568  -0.1837  0.0188  1.0000  -1.8782   0.0000   0.0000   0.0000   0.3864
  22.600   1.0958   0.35015   0.34774  -0.1842  0.0186  1.0000  -1.8953   0.0000   0.0000   0.0000   0.3864
  22.700   1.0971   0.35219   0.34979  -0.1846  0.0184  1.0000  -1.9152   0.0000   0.0000   0.0000   0.3863
  22.800   1.0983   0.35422   0.35182  -0.1849  0.0182  1.0000  -1.9385   0.0000   0.0000   0.0000   0.3862
  22.900   1.0996   0.35624   0.35386  -0.1850  0.0181  1.0000  -1.9661   0.0000   0.0000   0.0000   0.3859
  23.000   1.1009   0.35832   0.35594  -0.1850  0.0179  1.0000  -1.9991   0.0000   0.0000   0.0000   0.3855
  23.100   1.1024   0.36056   0.35820  -0.1847  0.0177  1.0000  -2.0402   0.0000   0.0000   0.0000   0.3847
  23.200   1.1025   0.36372   0.36136  -0.1841  0.0174  1.0000  -2.0682   0.0000   0.0000   0.0000   0.3840
  23.300   1.0973   0.36932   0.36693  -0.1841  0.0171  1.0000  -1.9902   0.0000   0.0000   0.0000   0.3847
  23.400   1.0969   0.37174   0.36936  -0.1846  0.0171  1.0000  -1.9767   0.0000   0.0000   0.0000   0.3851
  23.500   1.0963   0.37413   0.37175  -0.1852  0.0171  1.0000  -1.9627   0.0000   0.0000   0.0000   0.3856
  23.600   1.0955   0.37649   0.37412  -0.1857  0.0171  1.0000  -1.9483   0.0000   0.0000   0.0000   0.3860
  23.700   1.0943   0.37882   0.37645  -0.1861  0.0171  1.0000  -1.9333   0.0000   0.0000   0.0000   0.3864
  23.800   1.0926   0.38110   0.37874  -0.1864  0.0171  1.0000  -1.9174   0.0000   0.0000   0.0000   0.3868
  23.900   1.0904   0.38331   0.38096  -0.1867  0.0171  1.0000  -1.9004   0.0000   0.0000   0.0000   0.3873
  24.000   1.0873   0.38543   0.38309  -0.1868  0.0170  1.0000  -1.8816   0.0000   0.0000   0.0000   0.3877
  24.100   1.0828   0.38738   0.38505  -0.1866  0.0170  1.0000  -1.8598   0.0000   0.0000   0.0000   0.3882
  24.200   1.0744   0.38888   0.38657  -0.1858  0.0170  1.0000  -1.8299   0.0000   0.0000   0.0000   0.3887


