xflr5 v6.61

 Calculated polar for: FX 60-100 (126) AIRFOIL

 1 1 Reynolds number fixed          Mach number fixed         

 xtrf =   1.000 (top)        1.000 (bottom)
 Mach =   0.000     Re =     1.000 e 6     Ncrit =   9.000

  alpha     CL        CD       CDp       Cm    Top Xtr Bot Xtr   Cpmin    Chinge    XCp    
 ------- -------- --------- --------- -------- ------- ------- -------- --------- ---------
 -10.000  -0.2884   0.10408   0.10222  -0.0339  0.9982  0.0093  -1.4941   0.0000   0.0000   0.0000   0.1227
  -9.900  -0.2842   0.10232   0.10047  -0.0352  0.9978  0.0094  -1.5041   0.0000   0.0000   0.0000   0.1164
  -9.800  -0.2802   0.10058   0.09872  -0.0365  0.9975  0.0094  -1.5146   0.0000   0.0000   0.0000   0.1100
  -9.700  -0.2763   0.09885   0.09699  -0.0377  0.9972  0.0094  -1.5257   0.0000   0.0000   0.0000   0.1036
  -9.600  -0.2726   0.09712   0.09527  -0.0390  0.9968  0.0094  -1.5374   0.0000   0.0000   0.0000   0.0971
  -9.500  -0.2689   0.09541   0.09356  -0.0402  0.9965  0.0094  -1.5497   0.0000   0.0000   0.0000   0.0904
  -9.400  -0.2654   0.09371   0.09186  -0.0415  0.9961  0.0094  -1.5627   0.0000   0.0000   0.0000   0.0836
  -9.300  -0.2620   0.09203   0.09018  -0.0427  0.9957  0.0095  -1.5768   0.0000   0.0000   0.0000   0.0769
  -9.200  -0.2589   0.09036   0.08851  -0.0439  0.9953  0.0095  -1.5919   0.0000   0.0000   0.0000   0.0702
  -9.100  -0.2556   0.08863   0.08678  -0.0452  0.9948  0.0095  -1.6079   0.0000   0.0000   0.0000   0.0631
  -9.000  -0.2524   0.08688   0.08504  -0.0465  0.9943  0.0095  -1.6249   0.0000   0.0000   0.0000   0.0556
  -8.900  -0.2492   0.08512   0.08327  -0.0478  0.9938  0.0095  -1.6427   0.0000   0.0000   0.0000   0.0478
  -8.800  -0.2461   0.08333   0.08149  -0.0492  0.9932  0.0095  -1.6617   0.0000   0.0000   0.0000   0.0397
  -8.700  -0.2430   0.08153   0.07969  -0.0507  0.9926  0.0095  -1.6819   0.0000   0.0000   0.0000   0.0313
  -8.600  -0.2400   0.07970   0.07786  -0.0521  0.9919  0.0096  -1.7033   0.0000   0.0000   0.0000   0.0225
  -8.500  -0.2370   0.07784   0.07601  -0.0536  0.9912  0.0096  -1.7262   0.0000   0.0000   0.0000   0.0134
  -8.400  -0.2342   0.07596   0.07413  -0.0552  0.9904  0.0096  -1.7506   0.0000   0.0000   0.0000   0.0039
  -8.300  -0.2314   0.07405   0.07222  -0.0568  0.9895  0.0096  -1.7769   0.0000   0.0000   0.0000  -0.0060
  -8.200  -0.2288   0.07210   0.07027  -0.0585  0.9885  0.0096  -1.8051   0.0000   0.0000   0.0000  -0.0162
  -8.100  -0.2263   0.07012   0.06830  -0.0603  0.9874  0.0096  -1.8356   0.0000   0.0000   0.0000  -0.0269
  -8.000  -0.2240   0.06810   0.06628  -0.0622  0.9861  0.0096  -1.8687   0.0000   0.0000   0.0000  -0.0379
  -7.900  -0.2219   0.06600   0.06418  -0.0641  0.9847  0.0096  -1.9051   0.0000   0.0000   0.0000  -0.0494
  -7.800  -0.2200   0.06377   0.06195  -0.0662  0.9831  0.0096  -1.9457   0.0000   0.0000   0.0000  -0.0614
  -7.700  -0.2183   0.06140   0.05959  -0.0685  0.9812  0.0096  -1.9919   0.0000   0.0000   0.0000  -0.0741
  -7.600  -0.2169   0.05881   0.05699  -0.0710  0.9791  0.0096  -2.0470   0.0000   0.0000   0.0000  -0.0877
  -7.500  -0.2158   0.05559   0.05377  -0.0742  0.9766  0.0096  -2.1254   0.0000   0.0000   0.0000  -0.1042
  -7.400  -0.2157   0.05217   0.05032  -0.0777  0.9737  0.0096  -2.2148   0.0000   0.0000   0.0000  -0.1209
  -7.300  -0.2181   0.04939   0.04751  -0.0812  0.9698  0.0096  -2.2837   0.0000   0.0000   0.0000  -0.1327
  -7.200  -0.2214   0.04703   0.04511  -0.0845  0.9653  0.0096  -2.3399   0.0000   0.0000   0.0000  -0.1416
  -7.100  -0.2206   0.04385   0.04186  -0.0909  0.9618  0.0096  -2.4047   0.0000   0.0000   0.0000  -0.1715
  -7.000  -0.2167   0.04093   0.03883  -0.0966  0.9589  0.0096  -2.4555   0.0000   0.0000   0.0000  -0.2050
  -6.900  -0.2117   0.03851   0.03630  -0.1000  0.9553  0.0097  -2.4891   0.0000   0.0000   0.0000  -0.2320
  -6.800  -0.2060   0.03631   0.03398  -0.1028  0.9501  0.0097  -2.5136   0.0000   0.0000   0.0000  -0.2584
  -6.700  -0.2041   0.03469   0.03226  -0.1036  0.9465  0.0097  -2.5296   0.0000   0.0000   0.0000  -0.2672
  -6.600  -0.2023   0.03318   0.03065  -0.1039  0.9435  0.0097  -2.5414   0.0000   0.0000   0.0000  -0.2732
  -6.500  -0.1990   0.03162   0.02899  -0.1043  0.9394  0.0097  -2.5492   0.0000   0.0000   0.0000  -0.2837
  -6.400  -0.1942   0.03004   0.02728  -0.1048  0.9345  0.0097  -2.5526   0.0000   0.0000   0.0000  -0.2993
  -6.300  -0.1878   0.02843   0.02555  -0.1054  0.9290  0.0097  -2.5509   0.0000   0.0000   0.0000  -0.3208
  -6.200  -0.1804   0.02685   0.02382  -0.1060  0.9231  0.0098  -2.5435   0.0000   0.0000   0.0000  -0.3477
  -6.100  -0.1720   0.02532   0.02215  -0.1066  0.9170  0.0098  -2.5297   0.0000   0.0000   0.0000  -0.3797
  -6.000  -0.1632   0.02387   0.02055  -0.1072  0.9105  0.0098  -2.5105   0.0000   0.0000   0.0000  -0.4169
  -5.900  -0.1586   0.01549   0.01135  -0.1099  0.9001  0.0133  -2.9112   0.0000   0.0000   0.0000  -0.4538
  -5.800  -0.1481   0.01534   0.01122  -0.1102  0.8955  0.0149  -2.7659   0.0000   0.0000   0.0000  -0.5059
  -5.700  -0.1375   0.01543   0.01133  -0.1105  0.8940  0.0165  -2.6095   0.0000   0.0000   0.0000  -0.5655
  -5.600  -0.1270   0.01559   0.01151  -0.1108  0.8921  0.0186  -2.4553   0.0000   0.0000   0.0000  -0.6349
  -5.300  -0.0966   0.01536   0.01134  -0.1120  0.8835  0.0340  -2.0269   0.0000   0.0000   0.0000  -0.9243
  -5.200  -0.0872   0.01647   0.01259  -0.1121  0.8783  0.0410  -1.8373   0.0000   0.0000   0.0000  -1.0517
  -4.800  -0.0332   0.00848   0.00322  -0.1110  0.8421  0.0146  -2.1191   0.0000   0.0000   0.0000  -3.1295
  -4.700  -0.0219   0.00828   0.00290  -0.1110  0.8267  0.0131  -2.0259   0.0000   0.0000   0.0000  -4.8816
  -4.600  -0.0101   0.00811   0.00263  -0.1111  0.8122  0.0121  -1.9278   0.0000   0.0000   0.0000  -10.8442
  -4.500   0.0018   0.00793   0.00234  -0.1112  0.8037  0.0114  -1.8333   0.0000   0.0000   0.0000  61.5883
  -4.400   0.0138   0.00775   0.00205  -0.1113  0.8027  0.0111  -1.7496   0.0000   0.0000   0.0000   8.4090
  -4.300   0.0265   0.00754   0.00171  -0.1112  0.8016  0.0202  -1.7057   0.0000   0.0000   0.0000   4.4814
  -4.200   0.0378   0.00742   0.00169  -0.1114  0.7998  0.0248  -1.5966   0.0000   0.0000   0.0000   3.2255
  -4.100   0.0491   0.00721   0.00162  -0.1117  0.7973  0.0439  -1.4867   0.0000   0.0000   0.0000   2.5456
  -4.000   0.0602   0.00716   0.00158  -0.1119  0.7941  0.0476  -1.3784   0.0000   0.0000   0.0000   2.1246
  -3.900   0.0712   0.00713   0.00154  -0.1120  0.7900  0.0494  -1.2721   0.0000   0.0000   0.0000   1.8353
  -3.800   0.0822   0.00711   0.00150  -0.1121  0.7847  0.0503  -1.2231   0.0000   0.0000   0.0000   1.6245
  -3.700   0.0930   0.00710   0.00146  -0.1121  0.7775  0.0509  -1.1776   0.0000   0.0000   0.0000   1.4645
  -3.600   0.1037   0.00711   0.00143  -0.1122  0.7678  0.0512  -1.1330   0.0000   0.0000   0.0000   1.3391
  -3.500   0.1143   0.00713   0.00141  -0.1122  0.7566  0.0514  -1.0890   0.0000   0.0000   0.0000   1.2379
  -3.400   0.1248   0.00717   0.00140  -0.1122  0.7442  0.0515  -1.0455   0.0000   0.0000   0.0000   1.1546
  -3.300   0.1353   0.00722   0.00139  -0.1122  0.7309  0.0516  -1.0026   0.0000   0.0000   0.0000   1.0843
  -3.100   0.1566   0.00727   0.00139  -0.1123  0.7020  0.0531  -0.9184   0.0000   0.0000   0.0000   0.9709
  -3.000   0.1685   0.00705   0.00116  -0.1125  0.6906  0.0776  -0.8944   0.0000   0.0000   0.0000   0.9216
  -2.900   0.1800   0.00679   0.00109  -0.1130  0.6872  0.1164  -0.8565   0.0000   0.0000   0.0000   0.8807
  -2.800   0.1916   0.00650   0.00100  -0.1135  0.6822  0.1756  -0.8193   0.0000   0.0000   0.0000   0.8451
  -2.700   0.2028   0.00634   0.00093  -0.1138  0.6740  0.2170  -0.7824   0.0000   0.0000   0.0000   0.8136
  -2.600   0.2135   0.00624   0.00088  -0.1139  0.6606  0.2448  -0.7462   0.0000   0.0000   0.0000   0.7860
  -2.500   0.2238   0.00629   0.00086  -0.1139  0.6435  0.2563  -0.7128   0.0000   0.0000   0.0000   0.7612
  -2.400   0.2341   0.00621   0.00083  -0.1141  0.6222  0.2863  -0.6874   0.0000   0.0000   0.0000   0.7391
  -2.300   0.2448   0.00616   0.00083  -0.1142  0.6002  0.3288  -0.6613   0.0000   0.0000   0.0000   0.7182
  -2.200   0.2558   0.00603   0.00092  -0.1144  0.5936  0.4143  -0.6347   0.0000   0.0000   0.0000   0.6989
  -2.100   0.2668   0.00604   0.00093  -0.1145  0.5886  0.4248  -0.6083   0.0000   0.0000   0.0000   0.6806
  -2.000   0.2777   0.00606   0.00094  -0.1146  0.5827  0.4303  -0.5822   0.0000   0.0000   0.0000   0.6639
  -1.900   0.2886   0.00610   0.00095  -0.1147  0.5759  0.4344  -0.5562   0.0000   0.0000   0.0000   0.6484
  -1.800   0.2994   0.00614   0.00095  -0.1147  0.5684  0.4376  -0.5305   0.0000   0.0000   0.0000   0.6341
  -1.700   0.3101   0.00620   0.00096  -0.1148  0.5602  0.4399  -0.5050   0.0000   0.0000   0.0000   0.6208
  -1.600   0.3208   0.00626   0.00096  -0.1148  0.5513  0.4416  -0.5049   0.0000   0.0000   0.0000   0.6085
  -1.500   0.3315   0.00630   0.00097  -0.1148  0.5417  0.4488  -0.5116   0.0000   0.0000   0.0000   0.5969
  -1.400   0.3423   0.00633   0.00100  -0.1149  0.5326  0.4581  -0.5199   0.0000   0.0000   0.0000   0.5861
  -1.300   0.3533   0.00635   0.00101  -0.1150  0.5248  0.4621  -0.5283   0.0000   0.0000   0.0000   0.5758
  -1.200   0.3643   0.00637   0.00101  -0.1151  0.5175  0.4627  -0.5367   0.0000   0.0000   0.0000   0.5661
  -1.100   0.3753   0.00639   0.00103  -0.1152  0.5101  0.4674  -0.5451   0.0000   0.0000   0.0000   0.5569
  -1.000   0.3864   0.00640   0.00101  -0.1153  0.5035  0.4651  -0.5536   0.0000   0.0000   0.0000   0.5483
  -0.900   0.3976   0.00642   0.00100  -0.1154  0.4996  0.4633  -0.5621   0.0000   0.0000   0.0000   0.5401
  -0.800   0.4087   0.00643   0.00100  -0.1155  0.4986  0.4628  -0.5707   0.0000   0.0000   0.0000   0.5324
  -0.700   0.4199   0.00643   0.00099  -0.1156  0.4976  0.4622  -0.5802   0.0000   0.0000   0.0000   0.5250
  -0.600   0.4311   0.00644   0.00099  -0.1157  0.4967  0.4616  -0.5903   0.0000   0.0000   0.0000   0.5180
  -0.500   0.4423   0.00645   0.00099  -0.1158  0.4959  0.4613  -0.6005   0.0000   0.0000   0.0000   0.5114
  -0.400   0.4534   0.00646   0.00099  -0.1159  0.4950  0.4613  -0.6107   0.0000   0.0000   0.0000   0.5051
  -0.300   0.4646   0.00647   0.00099  -0.1160  0.4940  0.4622  -0.6252   0.0000   0.0000   0.0000   0.4991
  -0.200   0.4757   0.00647   0.00100  -0.1161  0.4929  0.4632  -0.6404   0.0000   0.0000   0.0000   0.4934
  -0.100   0.4869   0.00648   0.00101  -0.1162  0.4918  0.4642  -0.6556   0.0000   0.0000   0.0000   0.4880
   0.000   0.4980   0.00650   0.00102  -0.1163  0.4903  0.4647  -0.6709   0.0000   0.0000   0.0000   0.4827
   0.100   0.5091   0.00651   0.00102  -0.1164  0.4883  0.4643  -0.6862   0.0000   0.0000   0.0000   0.4778
   0.200   0.5202   0.00654   0.00103  -0.1165  0.4855  0.4627  -0.7015   0.0000   0.0000   0.0000   0.4730
   0.300   0.5311   0.00658   0.00104  -0.1165  0.4808  0.4614  -0.7168   0.0000   0.0000   0.0000   0.4684
   0.400   0.5417   0.00664   0.00107  -0.1166  0.4725  0.4641  -0.7320   0.0000   0.0000   0.0000   0.4640
   0.500   0.5541   0.00649   0.00109  -0.1169  0.4950  0.4751  -0.7486   0.0000   0.0000   0.0000   0.4597
   0.600   0.5654   0.00649   0.00110  -0.1170  0.4964  0.4766  -0.7643   0.0000   0.0000   0.0000   0.4556
   0.700   0.5766   0.00650   0.00112  -0.1171  0.4972  0.4779  -0.7801   0.0000   0.0000   0.0000   0.4517
   0.800   0.5878   0.00650   0.00113  -0.1172  0.4976  0.4792  -0.7959   0.0000   0.0000   0.0000   0.4479
   0.900   0.5990   0.00651   0.00115  -0.1173  0.4979  0.4804  -0.8117   0.0000   0.0000   0.0000   0.4443
   1.000   0.6102   0.00652   0.00116  -0.1174  0.4983  0.4815  -0.8276   0.0000   0.0000   0.0000   0.4408
   1.100   0.6214   0.00653   0.00118  -0.1175  0.4986  0.4825  -0.8436   0.0000   0.0000   0.0000   0.4374
   1.200   0.6326   0.00654   0.00120  -0.1176  0.4988  0.4836  -0.8596   0.0000   0.0000   0.0000   0.4342
   1.300   0.6438   0.00655   0.00122  -0.1176  0.4990  0.4846  -0.8756   0.0000   0.0000   0.0000   0.4310
   1.400   0.6549   0.00657   0.00124  -0.1177  0.4991  0.4855  -0.8917   0.0000   0.0000   0.0000   0.4279
   1.500   0.6661   0.00658   0.00126  -0.1178  0.4992  0.4865  -0.9078   0.0000   0.0000   0.0000   0.4250
   1.600   0.6773   0.00659   0.00128  -0.1179  0.4992  0.4873  -0.9240   0.0000   0.0000   0.0000   0.4221
   1.700   0.6884   0.00661   0.00130  -0.1180  0.4992  0.4882  -0.9403   0.0000   0.0000   0.0000   0.4193
   1.800   0.6996   0.00662   0.00133  -0.1181  0.4991  0.4890  -0.9565   0.0000   0.0000   0.0000   0.4167
   1.900   0.7107   0.00664   0.00135  -0.1182  0.4994  0.4897  -0.9729   0.0000   0.0000   0.0000   0.4140
   2.000   0.7219   0.00666   0.00138  -0.1182  0.4998  0.4904  -0.9892   0.0000   0.0000   0.0000   0.4115
   2.100   0.7331   0.00667   0.00141  -0.1183  0.5029  0.4911  -1.0056   0.0000   0.0000   0.0000   0.4091
   2.200   0.7444   0.00668   0.00143  -0.1184  0.5068  0.4918  -1.0222   0.0000   0.0000   0.0000   0.4067
   2.300   0.7555   0.00670   0.00146  -0.1185  0.5060  0.4924  -1.0386   0.0000   0.0000   0.0000   0.4044
   2.400   0.7665   0.00674   0.00150  -0.1186  0.5015  0.4930  -1.0550   0.0000   0.0000   0.0000   0.4021
   2.500   0.7776   0.00676   0.00153  -0.1186  0.4998  0.4937  -1.0716   0.0000   0.0000   0.0000   0.3999
   2.600   0.7887   0.00678   0.00156  -0.1187  0.4993  0.4945  -1.0883   0.0000   0.0000   0.0000   0.3977
   2.700   0.7998   0.00680   0.00160  -0.1187  0.4986  0.4954  -1.1050   0.0000   0.0000   0.0000   0.3956
   2.800   0.8108   0.00683   0.00164  -0.1188  0.4976  0.4964  -1.1217   0.0000   0.0000   0.0000   0.3935
   2.900   0.8218   0.00686   0.00170  -0.1188  0.4962  0.4973  -1.1385   0.0000   0.0000   0.0000   0.3915
   3.000   0.8327   0.00691   0.00177  -0.1188  0.4942  0.4982  -1.1552   0.0000   0.0000   0.0000   0.3895
   3.100   0.8434   0.00697   0.00185  -0.1187  0.4910  0.4989  -1.1718   0.0000   0.0000   0.0000   0.3875
   3.200   0.8540   0.00705   0.00195  -0.1186  0.4856  0.4994  -1.1884   0.0000   0.0000   0.0000   0.3856
   3.300   0.8639   0.00718   0.00206  -0.1184  0.4746  0.4999  -1.2072   0.0000   0.0000   0.0000   0.3837
   3.400   0.8727   0.00741   0.00214  -0.1181  0.4546  0.5020  -1.2437   0.0000   0.0000   0.0000   0.3818
   3.500   0.8826   0.00752   0.00217  -0.1180  0.4398  0.5059  -1.2823   0.0000   0.0000   0.0000   0.3800
   3.600   0.8932   0.00757   0.00219  -0.1180  0.4342  0.5097  -1.3228   0.0000   0.0000   0.0000   0.3784
   3.700   0.9023   0.00778   0.00224  -0.1177  0.4081  0.5130  -1.3607   0.0000   0.0000   0.0000   0.3767
   3.800   0.9101   0.00815   0.00231  -0.1173  0.3421  0.5161  -1.3963   0.0000   0.0000   0.0000   0.3751
   3.900   0.9190   0.00840   0.00241  -0.1171  0.2938  0.5192  -1.4346   0.0000   0.0000   0.0000   0.3734
   4.000   0.9246   0.00902   0.00267  -0.1164  0.2525  0.5216  -1.4662   0.0000   0.0000   0.0000   0.3718
   4.100   0.9343   0.00917   0.00275  -0.1163  0.2419  0.5242  -1.5065   0.0000   0.0000   0.0000   0.3703
   4.200   0.9431   0.00943   0.00288  -0.1160  0.2260  0.5263  -1.5453   0.0000   0.0000   0.0000   0.3687
   4.300   0.9519   0.00971   0.00301  -0.1158  0.2028  0.5278  -1.5844   0.0000   0.0000   0.0000   0.3672
   4.400   0.9620   0.00983   0.00308  -0.1157  0.1912  0.5286  -1.6267   0.0000   0.0000   0.0000   0.3658
   4.500   0.9718   0.00997   0.00317  -0.1155  0.1819  0.5289  -1.6689   0.0000   0.0000   0.0000   0.3643
   4.600   0.9812   0.01017   0.00328  -0.1154  0.1707  0.5292  -1.7105   0.0000   0.0000   0.0000   0.3629
   4.700   0.9907   0.01034   0.00338  -0.1152  0.1579  0.5294  -1.7529   0.0000   0.0000   0.0000   0.3615
   4.800   1.0008   0.01045   0.00345  -0.1151  0.1460  0.5297  -1.7969   0.0000   0.0000   0.0000   0.3601
   4.900   1.0112   0.01053   0.00351  -0.1150  0.1436  0.5299  -1.8422   0.0000   0.0000   0.0000   0.3588
   5.000   1.0213   0.01062   0.00358  -0.1149  0.1399  0.5301  -1.8877   0.0000   0.0000   0.0000   0.3575
   5.400   1.0525   0.01202   0.00439  -0.1132  0.0564  0.5309  -2.0516   0.0000   0.0000   0.0000   0.3521
   5.700   1.0784   0.01276   0.00488  -0.1122  0.0231  0.5314  -2.1899   0.0000   0.0000   0.0000   0.3482
   5.800   1.0878   0.01292   0.00501  -0.1119  0.0210  0.5316  -2.2680   0.0000   0.0000   0.0000   0.3470
   5.900   1.0971   0.01308   0.00512  -0.1117  0.0189  0.5317  -2.3817   0.0000   0.0000   0.0000   0.3458
   6.000   1.1067   0.01321   0.00521  -0.1115  0.0163  0.5319  -2.4983   0.0000   0.0000   0.0000   0.3446
   6.100   1.1167   0.01331   0.00528  -0.1113  0.0128  0.5320  -2.6142   0.0000   0.0000   0.0000   0.3434
   6.700   1.1624   0.01560   0.00832  -0.1063  0.0101  0.5327  -3.0433   0.0000   0.0000   0.0000   0.3344
   6.800   1.1728   0.01565   0.00835  -0.1060  0.0110  0.5328  -3.1586   0.0000   0.0000   0.0000   0.3333
   6.900   1.1829   0.01573   0.00842  -0.1057  0.0123  0.5329  -3.2709   0.0000   0.0000   0.0000   0.3321
   7.000   1.1915   0.01595   0.00867  -0.1051  0.0143  0.5330  -3.3669   0.0000   0.0000   0.0000   0.3308
   7.100   1.1898   0.01742   0.01057  -0.1015  0.0218  0.5331  -3.2349   0.0000   0.0000   0.0000   0.3278
   8.100   1.2486   0.02381   0.01741  -0.0920  0.0161  0.5338  -3.9710   0.0000   0.0000   0.0000   0.3149
   8.600   1.2648   0.03869   0.03371  -0.0836  0.0233  0.5343  -3.8086   0.0000   0.0000   0.0000   0.3067
   8.700   1.2624   0.04079   0.03595  -0.0818  0.0236  0.5344  -3.7980   0.0000   0.0000   0.0000   0.3053
   8.800   1.2594   0.04275   0.03804  -0.0799  0.0239  0.5344  -3.7898   0.0000   0.0000   0.0000   0.3039
   8.900   1.2559   0.04459   0.03999  -0.0781  0.0241  0.5344  -3.7837   0.0000   0.0000   0.0000   0.3025
   9.000   1.2520   0.04630   0.04181  -0.0763  0.0242  0.5345  -3.7796   0.0000   0.0000   0.0000   0.3011
   9.100   1.2476   0.04789   0.04349  -0.0745  0.0243  0.5345  -3.7772   0.0000   0.0000   0.0000   0.2998
   9.200   1.2428   0.04936   0.04505  -0.0726  0.0243  0.5345  -3.7763   0.0000   0.0000   0.0000   0.2984
   9.300   1.2377   0.05071   0.04648  -0.0708  0.0243  0.5345  -3.7768   0.0000   0.0000   0.0000   0.2971
   9.400   1.2318   0.05186   0.04769  -0.0688  0.0243  0.5346  -3.7783   0.0000   0.0000   0.0000   0.2956
   9.500   1.2239   0.05256   0.04844  -0.0663  0.0243  0.5346  -3.7794   0.0000   0.0000   0.0000   0.2938
   9.600   1.2161   0.05328   0.04920  -0.0639  0.0242  0.5346  -3.7808   0.0000   0.0000   0.0000   0.2921
   9.700   1.2088   0.05411   0.05008  -0.0618  0.0242  0.5346  -3.7827   0.0000   0.0000   0.0000   0.2905
   9.800   1.2013   0.05493   0.05094  -0.0597  0.0241  0.5346  -3.7843   0.0000   0.0000   0.0000   0.2891
   9.900   1.1938   0.05579   0.05184  -0.0579  0.0240  0.5346  -3.7857   0.0000   0.0000   0.0000   0.2877
  10.000   1.1868   0.05674   0.05284  -0.0563  0.0240  0.5347  -3.7878   0.0000   0.0000   0.0000   0.2865
  10.100   1.1795   0.05771   0.05385  -0.0548  0.0239  0.5347  -3.7891   0.0000   0.0000   0.0000   0.2854
  10.200   1.1719   0.05868   0.05486  -0.0534  0.0238  0.5347  -3.7892   0.0000   0.0000   0.0000   0.2844
  10.300   1.1649   0.05976   0.05599  -0.0522  0.0237  0.5347  -3.7903   0.0000   0.0000   0.0000   0.2835
  10.400   1.1583   0.06092   0.05719  -0.0513  0.0236  0.5348  -3.7919   0.0000   0.0000   0.0000   0.2828
  10.500   1.1519   0.06213   0.05845  -0.0504  0.0235  0.5348  -3.7935   0.0000   0.0000   0.0000   0.2822
  10.600   1.1445   0.06334   0.05970  -0.0496  0.0234  0.5348  -3.7917   0.0000   0.0000   0.0000   0.2816
  10.700   1.1363   0.06456   0.06095  -0.0490  0.0233  0.5349  -3.7866   0.0000   0.0000   0.0000   0.2813
  10.800   1.1294   0.06591   0.06234  -0.0486  0.0231  0.5349  -3.7842   0.0000   0.0000   0.0000   0.2810
  10.900   1.1230   0.06734   0.06382  -0.0482  0.0230  0.5350  -3.7826   0.0000   0.0000   0.0000   0.2808
  11.000   1.1167   0.06884   0.06537  -0.0480  0.0229  0.5350  -3.7806   0.0000   0.0000   0.0000   0.2807
  11.100   1.1104   0.07040   0.06697  -0.0479  0.0227  0.5351  -3.7773   0.0000   0.0000   0.0000   0.2807
  11.200   1.1031   0.07200   0.06861  -0.0480  0.0226  0.5352  -3.7692   0.0000   0.0000   0.0000   0.2809
  11.300   1.0946   0.07364   0.07029  -0.0482  0.0225  0.5353  -3.7554   0.0000   0.0000   0.0000   0.2813
  11.400   1.0874   0.07540   0.07208  -0.0486  0.0224  0.5353  -3.7450   0.0000   0.0000   0.0000   0.2818
  11.500   1.0808   0.07723   0.07395  -0.0490  0.0222  0.5354  -3.7351   0.0000   0.0000   0.0000   0.2823
  11.600   1.0742   0.07913   0.07589  -0.0497  0.0221  0.5355  -3.7236   0.0000   0.0000   0.0000   0.2830
  11.700   1.0656   0.08113   0.07793  -0.0506  0.0220  0.5357  -3.7029   0.0000   0.0000   0.0000   0.2841
  11.800   1.0580   0.08322   0.08005  -0.0516  0.0218  0.5358  -3.6844   0.0000   0.0000   0.0000   0.2853
  11.900   1.0514   0.08540   0.08226  -0.0526  0.0217  0.5359  -3.6680   0.0000   0.0000   0.0000   0.2864
  12.000   1.0450   0.08765   0.08455  -0.0537  0.0215  0.5360  -3.6509   0.0000   0.0000   0.0000   0.2876
  12.100   1.0380   0.09000   0.08694  -0.0550  0.0214  0.5361  -3.6296   0.0000   0.0000   0.0000   0.2891
  12.200   1.0303   0.09249   0.08945  -0.0566  0.0212  0.5363  -3.6036   0.0000   0.0000   0.0000   0.2909
  12.300   1.0237   0.09502   0.09202  -0.0581  0.0210  0.5364  -3.5804   0.0000   0.0000   0.0000   0.2926
  12.400   1.0168   0.09768   0.09471  -0.0598  0.0208  0.5365  -3.5542   0.0000   0.0000   0.0000   0.2945
  12.500   1.0093   0.10052   0.09758  -0.0618  0.0206  0.5365  -3.5237   0.0000   0.0000   0.0000   0.2967
  12.600   1.0038   0.10328   0.10036  -0.0635  0.0204  0.5366  -3.4992   0.0000   0.0000   0.0000   0.2987
  12.700   0.9990   0.10604   0.10314  -0.0652  0.0201  0.5366  -3.4754   0.0000   0.0000   0.0000   0.3005
  12.800   0.9946   0.10884   0.10597  -0.0668  0.0198  0.5366  -3.4508   0.0000   0.0000   0.0000   0.3023
  12.900   0.9902   0.11171   0.10886  -0.0686  0.0195  0.5367  -3.4244   0.0000   0.0000   0.0000   0.3043
  13.000   0.9855   0.11479   0.11197  -0.0706  0.0192  0.5366  -3.3935   0.0000   0.0000   0.0000   0.3066
  13.100   0.9808   0.11804   0.11524  -0.0728  0.0188  0.5366  -3.3602   0.0000   0.0000   0.0000   0.3091
  13.200   0.9769   0.12127   0.11849  -0.0748  0.0184  0.5366  -3.3278   0.0000   0.0000   0.0000   0.3115
  13.300   0.9733   0.12457   0.12180  -0.0769  0.0179  0.5366  -3.2945   0.0000   0.0000   0.0000   0.3139
  13.400   0.9703   0.12779   0.12503  -0.0788  0.0175  0.5366  -3.2625   0.0000   0.0000   0.0000   0.3161
  13.500   0.9676   0.13105   0.12830  -0.0807  0.0171  0.5367  -3.2298   0.0000   0.0000   0.0000   0.3182
  13.600   0.9655   0.13426   0.13152  -0.0825  0.0166  0.5367  -3.1972   0.0000   0.0000   0.0000   0.3202
  13.700   0.9636   0.13734   0.13460  -0.0841  0.0162  0.5368  -3.1670   0.0000   0.0000   0.0000   0.3220
  13.800   0.9617   0.14028   0.13753  -0.0857  0.0159  0.5368  -3.1389   0.0000   0.0000   0.0000   0.3238
  13.900   0.9600   0.14311   0.14036  -0.0872  0.0156  0.5369  -3.1122   0.0000   0.0000   0.0000   0.3254
  14.000   0.9583   0.14586   0.14311  -0.0886  0.0154  0.5370  -3.0864   0.0000   0.0000   0.0000   0.3270
  14.100   0.9568   0.14856   0.14580  -0.0900  0.0151  0.5370  -3.0613   0.0000   0.0000   0.0000   0.3286
  14.200   0.9554   0.15120   0.14844  -0.0914  0.0149  0.5371  -3.0368   0.0000   0.0000   0.0000   0.3301
  14.300   0.9542   0.15380   0.15103  -0.0927  0.0147  0.5372  -3.0129   0.0000   0.0000   0.0000   0.3315
  14.400   0.9531   0.15634   0.15358  -0.0941  0.0145  0.5373  -2.9895   0.0000   0.0000   0.0000   0.3329
  14.500   0.9522   0.15883   0.15606  -0.0953  0.0143  0.5374  -2.9667   0.0000   0.0000   0.0000   0.3343
  14.600   0.9514   0.16115   0.15837  -0.0966  0.0142  0.5375  -2.9449   0.0000   0.0000   0.0000   0.3356
  14.700   0.9507   0.16336   0.16058  -0.0978  0.0140  0.5376  -2.9229   0.0000   0.0000   0.0000   0.3369
  14.800   0.9501   0.16552   0.16274  -0.0990  0.0138  0.5377  -2.9017   0.0000   0.0000   0.0000   0.3381
  14.900   0.9496   0.16767   0.16488  -0.1002  0.0136  0.5378  -2.8813   0.0000   0.0000   0.0000   0.3393
  15.000   0.9493   0.16981   0.16702  -0.1013  0.0135  0.5380  -2.8618   0.0000   0.0000   0.0000   0.3404
  15.100   0.9491   0.17196   0.16916  -0.1024  0.0133  0.5381  -2.8433   0.0000   0.0000   0.0000   0.3416
  15.200   0.9490   0.17411   0.17130  -0.1035  0.0131  0.5383  -2.8261   0.0000   0.0000   0.0000   0.3426
  15.300   0.9491   0.17624   0.17343  -0.1046  0.0130  0.5384  -2.8102   0.0000   0.0000   0.0000   0.3437
  15.400   0.9493   0.17837   0.17556  -0.1057  0.0128  0.5386  -2.7958   0.0000   0.0000   0.0000   0.3447
  15.500   0.9495   0.18048   0.17766  -0.1067  0.0127  0.5387  -2.7833   0.0000   0.0000   0.0000   0.3456
  15.600   0.9499   0.18258   0.17976  -0.1078  0.0125  0.5389  -2.7727   0.0000   0.0000   0.0000   0.3466
  15.700   0.9504   0.18466   0.18183  -0.1088  0.0123  0.5391  -2.7642   0.0000   0.0000   0.0000   0.3474
  15.800   0.9509   0.18673   0.18389  -0.1097  0.0121  0.5393  -2.7575   0.0000   0.0000   0.0000   0.3483
  15.900   0.9515   0.18879   0.18595  -0.1107  0.0119  0.5396  -2.7519   0.0000   0.0000   0.0000   0.3491
  16.000   0.9519   0.19089   0.18805  -0.1117  0.0117  0.5400  -2.7450   0.0000   0.0000   0.0000   0.3500
  16.100   0.9512   0.19331   0.19047  -0.1128  0.0112  0.5404  -2.7187   0.0000   0.0000   0.0000   0.3512
  16.400   0.9359   0.20754   0.20461  -0.1196  0.0094  0.5397  -2.0049   0.0000   0.0000   0.0000   0.3606
  16.500   0.9374   0.20975   0.20682  -0.1205  0.0094  0.5400  -1.9884   0.0000   0.0000   0.0000   0.3612
  16.600   0.9389   0.21196   0.20903  -0.1214  0.0093  0.5405  -1.9734   0.0000   0.0000   0.0000   0.3619
  16.700   0.9405   0.21416   0.21124  -0.1223  0.0093  0.5412  -1.9593   0.0000   0.0000   0.0000   0.3625


