xflr5 v6.61

 Calculated polar for: FX 61-140 AIRFOIL

 1 1 Reynolds number fixed          Mach number fixed         

 xtrf =   1.000 (top)        1.000 (bottom)
 Mach =   0.000     Re =     0.500 e 6     Ncrit =   9.000

  alpha     CL        CD       CDp       Cm    Top Xtr Bot Xtr   Cpmin    Chinge    XCp    
 ------- -------- --------- --------- -------- ------- ------- -------- --------- ---------
 -10.000  -0.4044   0.09395   0.09172  -0.0392  1.0000  0.0120  -2.4007   0.0000   0.0000   0.0000   0.1394
  -9.900  -0.4058   0.09205   0.08983  -0.0400  1.0000  0.0121  -2.4284   0.0000   0.0000   0.0000   0.1380
  -9.800  -0.4075   0.09008   0.08788  -0.0408  1.0000  0.0121  -2.4595   0.0000   0.0000   0.0000   0.1365
  -9.700  -0.4095   0.08805   0.08586  -0.0417  1.0000  0.0122  -2.4942   0.0000   0.0000   0.0000   0.1350
  -9.600  -0.4119   0.08592   0.08374  -0.0427  1.0000  0.0122  -2.5337   0.0000   0.0000   0.0000   0.1334
  -9.500  -0.4148   0.08364   0.08147  -0.0438  1.0000  0.0122  -2.5801   0.0000   0.0000   0.0000   0.1316
  -9.400  -0.4182   0.08110   0.07895  -0.0451  1.0000  0.0122  -2.6373   0.0000   0.0000   0.0000   0.1294
  -9.300  -0.4230   0.07793   0.07580  -0.0472  1.0000  0.0122  -2.7214   0.0000   0.0000   0.0000   0.1260
  -9.200  -0.4311   0.07378   0.07164  -0.0503  1.0000  0.0120  -2.8536   0.0000   0.0000   0.0000   0.1211
  -9.100  -0.4401   0.07066   0.06850  -0.0524  1.0000  0.0120  -2.9544   0.0000   0.0000   0.0000   0.1192
  -9.000  -0.4495   0.06810   0.06592  -0.0537  1.0000  0.0119  -3.0381   0.0000   0.0000   0.0000   0.1190
  -8.900  -0.4592   0.06594   0.06375  -0.0545  1.0000  0.0118  -3.1092   0.0000   0.0000   0.0000   0.1201
  -8.800  -0.4691   0.06411   0.06189  -0.0549  1.0000  0.0118  -3.1704   0.0000   0.0000   0.0000   0.1222
  -8.700  -0.4793   0.06256   0.06033  -0.0547  1.0000  0.0117  -3.2243   0.0000   0.0000   0.0000   0.1254
  -8.600  -0.4902   0.06128   0.05903  -0.0541  1.0000  0.0117  -3.2730   0.0000   0.0000   0.0000   0.1295
  -8.500  -0.5016   0.06026   0.05800  -0.0530  1.0000  0.0117  -3.3167   0.0000   0.0000   0.0000   0.1346
  -8.400  -0.5141   0.05949   0.05723  -0.0513  1.0000  0.0116  -3.3578   0.0000   0.0000   0.0000   0.1407
  -8.300  -0.5262   0.05872   0.05645  -0.0498  1.0000  0.0116  -3.3962   0.0000   0.0000   0.0000   0.1463
  -8.200  -0.5301   0.05704   0.05473  -0.0509  0.9994  0.0116  -3.4201   0.0000   0.0000   0.0000   0.1450
  -8.100  -0.5218   0.05421   0.05180  -0.0556  0.9971  0.0118  -3.4186   0.0000   0.0000   0.0000   0.1345
  -8.000  -0.5142   0.05189   0.04938  -0.0589  0.9951  0.0119  -3.4084   0.0000   0.0000   0.0000   0.1266
  -7.900  -0.5064   0.04976   0.04715  -0.0615  0.9929  0.0121  -3.3934   0.0000   0.0000   0.0000   0.1197
  -7.800  -0.4974   0.04767   0.04495  -0.0641  0.9911  0.0123  -3.3744   0.0000   0.0000   0.0000   0.1122
  -7.700  -0.4887   0.04571   0.04289  -0.0662  0.9889  0.0125  -3.3551   0.0000   0.0000   0.0000   0.1056
  -7.600  -0.4796   0.04382   0.04090  -0.0681  0.9865  0.0127  -3.3350   0.0000   0.0000   0.0000   0.0991
  -7.500  -0.4690   0.04193   0.03888  -0.0701  0.9846  0.0130  -3.3134   0.0000   0.0000   0.0000   0.0916
  -7.400  -0.4574   0.04006   0.03688  -0.0721  0.9833  0.0133  -3.2917   0.0000   0.0000   0.0000   0.0834
  -7.300  -0.4486   0.03844   0.03514  -0.0731  0.9802  0.0136  -3.2751   0.0000   0.0000   0.0000   0.0781
  -7.200  -0.4380   0.03678   0.03336  -0.0743  0.9776  0.0139  -3.2579   0.0000   0.0000   0.0000   0.0712
  -7.100  -0.4259   0.03511   0.03154  -0.0758  0.9758  0.0142  -3.2402   0.0000   0.0000   0.0000   0.0630
  -7.000  -0.4128   0.03346   0.02975  -0.0772  0.9744  0.0145  -3.2207   0.0000   0.0000   0.0000   0.0537
  -6.800  -0.3932   0.02604   0.02162  -0.0773  0.9682  0.0084  -3.8352   0.0000   0.0000   0.0000   0.0438
  -6.700  -0.3813   0.02384   0.01919  -0.0781  0.9661  0.0078  -3.9052   0.0000   0.0000   0.0000   0.0353
  -6.600  -0.3684   0.02185   0.01698  -0.0788  0.9645  0.0072  -3.9800   0.0000   0.0000   0.0000   0.0262
  -6.500  -0.3551   0.02005   0.01496  -0.0792  0.9633  0.0068  -4.0549   0.0000   0.0000   0.0000   0.0168
  -6.400  -0.3417   0.01856   0.01330  -0.0795  0.9622  0.0064  -4.1000   0.0000   0.0000   0.0000   0.0069
  -6.300  -0.3333   0.01766   0.01231  -0.0789  0.9573  0.0063  -4.0993   0.0000   0.0000   0.0000   0.0029
  -6.200  -0.3214   0.01680   0.01136  -0.0790  0.9544  0.0062  -4.0748   0.0000   0.0000   0.0000  -0.0064
  -6.100  -0.3083   0.01604   0.01053  -0.0795  0.9520  0.0062  -4.0269   0.0000   0.0000   0.0000  -0.0184
  -6.000  -0.2945   0.01538   0.00981  -0.0801  0.9501  0.0063  -3.9612   0.0000   0.0000   0.0000  -0.0329
  -5.900  -0.2801   0.01478   0.00916  -0.0809  0.9481  0.0064  -3.8836   0.0000   0.0000   0.0000  -0.0499
  -5.800  -0.2702   0.01432   0.00867  -0.0808  0.9419  0.0066  -3.8151   0.0000   0.0000   0.0000  -0.0601
  -5.700  -0.2557   0.01389   0.00817  -0.0816  0.9384  0.0070  -3.7252   0.0000   0.0000   0.0000  -0.0807
  -5.600  -0.2392   0.01337   0.00760  -0.0829  0.9356  0.0075  -3.6373   0.0000   0.0000   0.0000  -0.1085
  -5.500  -0.2211   0.01289   0.00707  -0.0845  0.9332  0.0083  -3.5421   0.0000   0.0000   0.0000  -0.1450
  -5.400  -0.2064   0.01261   0.00676  -0.0854  0.9273  0.0092  -3.4364   0.0000   0.0000   0.0000  -0.1767
  -5.300  -0.1872   0.01191   0.00600  -0.0875  0.9229  0.0110  -3.3588   0.0000   0.0000   0.0000  -0.2315
  -5.200  -0.1659   0.01151   0.00559  -0.0899  0.9192  0.0143  -3.2211   0.0000   0.0000   0.0000  -0.3075
  -5.000  -0.1241   0.01086   0.00491  -0.0945  0.9086  0.0224  -2.9200   0.0000   0.0000   0.0000  -0.5309
  -4.900  -0.1037   0.01077   0.00481  -0.0967  0.9017  0.0258  -2.7317   0.0000   0.0000   0.0000  -0.7045
  -4.800  -0.0826   0.01047   0.00449  -0.0991  0.8943  0.0314  -2.5658   0.0000   0.0000   0.0000  -0.9770
  -4.700  -0.0645   0.01030   0.00430  -0.1007  0.8838  0.0363  -2.4121   0.0000   0.0000   0.0000  -1.3444
  -4.600  -0.0459   0.01004   0.00398  -0.1025  0.8735  0.0435  -2.2823   0.0000   0.0000   0.0000  -2.0298
  -4.500  -0.0298   0.00969   0.00369  -0.1038  0.8611  0.0651  -2.1897   0.0000   0.0000   0.0000  -3.3043
  -4.400  -0.0116   0.00880   0.00327  -0.1065  0.8494  0.1815  -2.0829   0.0000   0.0000   0.0000  -9.0881
  -4.300   0.0069   0.00790   0.00288  -0.1094  0.8367  0.3246  -1.9680   0.0000   0.0000   0.0000  16.3492
  -4.200   0.0242   0.00735   0.00265  -0.1115  0.8247  0.4283  -1.8553   0.0000   0.0000   0.0000   4.9418
  -4.100   0.0382   0.00713   0.00258  -0.1124  0.8118  0.4838  -1.7547   0.0000   0.0000   0.0000   3.2409
  -4.000   0.0507   0.00708   0.00255  -0.1128  0.8002  0.5159  -1.6613   0.0000   0.0000   0.0000   2.5081
  -3.900   0.0625   0.00706   0.00250  -0.1130  0.7882  0.5390  -1.5763   0.0000   0.0000   0.0000   2.0838
  -3.800   0.0739   0.00710   0.00251  -0.1130  0.7771  0.5586  -1.4882   0.0000   0.0000   0.0000   1.8005
  -3.700   0.0852   0.00713   0.00254  -0.1130  0.7670  0.5738  -1.4019   0.0000   0.0000   0.0000   1.5945
  -3.600   0.0961   0.00720   0.00259  -0.1129  0.7568  0.5869  -1.3180   0.0000   0.0000   0.0000   1.4396
  -3.500   0.1074   0.00727   0.00257  -0.1129  0.7479  0.5954  -1.2347   0.0000   0.0000   0.0000   1.3143
  -3.400   0.1185   0.00731   0.00259  -0.1129  0.7393  0.6019  -1.1533   0.0000   0.0000   0.0000   1.2134
  -3.300   0.1291   0.00739   0.00264  -0.1127  0.7304  0.6082  -1.0747   0.0000   0.0000   0.0000   1.1322
  -3.200   0.1396   0.00751   0.00271  -0.1124  0.7220  0.6162  -0.9980   0.0000   0.0000   0.0000   1.0640
  -3.100   0.1508   0.00763   0.00279  -0.1124  0.7147  0.6261  -0.9197   0.0000   0.0000   0.0000   1.0024
  -3.000   0.1612   0.00776   0.00291  -0.1120  0.7070  0.6348  -0.8457   0.0000   0.0000   0.0000   0.9518
  -2.900   0.1705   0.00796   0.00310  -0.1114  0.6993  0.6415  -0.7759   0.0000   0.0000   0.0000   0.9094
  -2.700   0.1911   0.00822   0.00329  -0.1108  0.6859  0.6496  -0.6354   0.0000   0.0000   0.0000   0.8344
  -2.600   0.2022   0.00829   0.00332  -0.1107  0.6794  0.6524  -0.6018   0.0000   0.0000   0.0000   0.8018
  -2.500   0.2133   0.00838   0.00335  -0.1107  0.6726  0.6551  -0.6102   0.0000   0.0000   0.0000   0.7727
  -2.400   0.2243   0.00847   0.00337  -0.1106  0.6659  0.6574  -0.6191   0.0000   0.0000   0.0000   0.7465
  -2.300   0.2355   0.00855   0.00339  -0.1107  0.6595  0.6591  -0.6281   0.0000   0.0000   0.0000   0.7227
  -2.200   0.2472   0.00860   0.00340  -0.1108  0.6541  0.6604  -0.6374   0.0000   0.0000   0.0000   0.7006
  -2.100   0.2584   0.00859   0.00336  -0.1108  0.6482  0.6627  -0.6465   0.0000   0.0000   0.0000   0.6809
  -2.000   0.2692   0.00861   0.00335  -0.1107  0.6422  0.6649  -0.6553   0.0000   0.0000   0.0000   0.6631
  -1.900   0.2797   0.00868   0.00334  -0.1106  0.6362  0.6667  -0.6640   0.0000   0.0000   0.0000   0.6467
  -1.700   0.3011   0.00881   0.00342  -0.1103  0.6259  0.6699  -0.6816   0.0000   0.0000   0.0000   0.6173
  -1.600   0.3121   0.00885   0.00345  -0.1102  0.6216  0.6713  -0.6907   0.0000   0.0000   0.0000   0.6039
  -1.500   0.3232   0.00889   0.00347  -0.1102  0.6169  0.6727  -0.6997   0.0000   0.0000   0.0000   0.5915
  -1.400   0.3341   0.00895   0.00349  -0.1102  0.6120  0.6742  -0.7087   0.0000   0.0000   0.0000   0.5800
  -1.300   0.3450   0.00901   0.00351  -0.1101  0.6071  0.6757  -0.7177   0.0000   0.0000   0.0000   0.5692
  -1.200   0.3558   0.00908   0.00354  -0.1100  0.6018  0.6772  -0.7266   0.0000   0.0000   0.0000   0.5591
  -1.100   0.3668   0.00915   0.00357  -0.1100  0.5968  0.6788  -0.7357   0.0000   0.0000   0.0000   0.5496
  -1.000   0.3783   0.00918   0.00359  -0.1101  0.5936  0.6804  -0.7450   0.0000   0.0000   0.0000   0.5405
  -0.900   0.3897   0.00921   0.00361  -0.1101  0.5899  0.6820  -0.7543   0.0000   0.0000   0.0000   0.5320
  -0.800   0.4012   0.00925   0.00362  -0.1102  0.5859  0.6836  -0.7637   0.0000   0.0000   0.0000   0.5240
  -0.700   0.4126   0.00930   0.00364  -0.1103  0.5819  0.6852  -0.7730   0.0000   0.0000   0.0000   0.5164
  -0.600   0.4240   0.00935   0.00365  -0.1104  0.5780  0.6866  -0.7824   0.0000   0.0000   0.0000   0.5093
  -0.500   0.4354   0.00941   0.00367  -0.1105  0.5740  0.6879  -0.7917   0.0000   0.0000   0.0000   0.5025
  -0.400   0.4467   0.00948   0.00369  -0.1105  0.5698  0.6891  -0.8010   0.0000   0.0000   0.0000   0.4961
  -0.300   0.4581   0.00956   0.00373  -0.1106  0.5652  0.6900  -0.8103   0.0000   0.0000   0.0000   0.4901
  -0.200   0.4698   0.00958   0.00375  -0.1108  0.5631  0.6908  -0.8199   0.0000   0.0000   0.0000   0.4842
  -0.100   0.4817   0.00958   0.00374  -0.1110  0.5606  0.6918  -0.8295   0.0000   0.0000   0.0000   0.4787
   0.000   0.4935   0.00952   0.00368  -0.1112  0.5577  0.6936  -0.8391   0.0000   0.0000   0.0000   0.4735
   0.100   0.5048   0.00952   0.00368  -0.1113  0.5547  0.6951  -0.8485   0.0000   0.0000   0.0000   0.4685
   0.200   0.5158   0.00954   0.00369  -0.1113  0.5516  0.6964  -0.8586   0.0000   0.0000   0.0000   0.4637
   0.300   0.5268   0.00958   0.00372  -0.1112  0.5484  0.6976  -0.8686   0.0000   0.0000   0.0000   0.4590
   0.400   0.5376   0.00962   0.00375  -0.1112  0.5452  0.6987  -0.8787   0.0000   0.0000   0.0000   0.4545
   0.500   0.5484   0.00968   0.00379  -0.1111  0.5419  0.6999  -0.8887   0.0000   0.0000   0.0000   0.4502
   0.600   0.5591   0.00975   0.00384  -0.1110  0.5383  0.7010  -0.8996   0.0000   0.0000   0.0000   0.4461
   0.700   0.5699   0.00983   0.00389  -0.1110  0.5342  0.7022  -0.9105   0.0000   0.0000   0.0000   0.4421
   0.800   0.5811   0.00988   0.00394  -0.1110  0.5316  0.7034  -0.9216   0.0000   0.0000   0.0000   0.4383
   0.900   0.5923   0.00990   0.00397  -0.1110  0.5297  0.7046  -0.9329   0.0000   0.0000   0.0000   0.4346
   1.000   0.6036   0.00992   0.00400  -0.1110  0.5274  0.7058  -0.9443   0.0000   0.0000   0.0000   0.4310
   1.100   0.6149   0.00995   0.00404  -0.1111  0.5248  0.7071  -0.9556   0.0000   0.0000   0.0000   0.4276
   1.200   0.6262   0.00999   0.00406  -0.1111  0.5219  0.7083  -0.9670   0.0000   0.0000   0.0000   0.4244
   1.300   0.6375   0.01002   0.00409  -0.1112  0.5190  0.7095  -0.9784   0.0000   0.0000   0.0000   0.4212
   1.400   0.6489   0.01006   0.00411  -0.1113  0.5161  0.7107  -0.9899   0.0000   0.0000   0.0000   0.4182
   1.500   0.6602   0.01010   0.00414  -0.1114  0.5132  0.7118  -1.0014   0.0000   0.0000   0.0000   0.4153
   1.600   0.6715   0.01016   0.00417  -0.1115  0.5102  0.7129  -1.0128   0.0000   0.0000   0.0000   0.4125
   1.700   0.6827   0.01022   0.00420  -0.1115  0.5067  0.7140  -1.0242   0.0000   0.0000   0.0000   0.4098
   1.800   0.6940   0.01030   0.00425  -0.1116  0.5028  0.7150  -1.0356   0.0000   0.0000   0.0000   0.4071
   1.900   0.7055   0.01037   0.00430  -0.1118  0.4995  0.7160  -1.0471   0.0000   0.0000   0.0000   0.4046
   2.000   0.7172   0.01038   0.00435  -0.1119  0.4979  0.7170  -1.0589   0.0000   0.0000   0.0000   0.4022
   2.100   0.7288   0.01039   0.00437  -0.1121  0.4961  0.7179  -1.0707   0.0000   0.0000   0.0000   0.3998
   2.200   0.7404   0.01042   0.00440  -0.1122  0.4940  0.7187  -1.0825   0.0000   0.0000   0.0000   0.3975
   2.300   0.7520   0.01045   0.00444  -0.1123  0.4919  0.7194  -1.0943   0.0000   0.0000   0.0000   0.3952
   2.400   0.7636   0.01048   0.00448  -0.1125  0.4896  0.7201  -1.1060   0.0000   0.0000   0.0000   0.3930
   2.500   0.7750   0.01053   0.00452  -0.1126  0.4872  0.7207  -1.1178   0.0000   0.0000   0.0000   0.3909
   2.600   0.7865   0.01057   0.00455  -0.1127  0.4847  0.7213  -1.1295   0.0000   0.0000   0.0000   0.3888
   2.700   0.7984   0.01053   0.00450  -0.1130  0.4822  0.7230  -1.1416   0.0000   0.0000   0.0000   0.3869
   2.800   0.8097   0.01054   0.00450  -0.1131  0.4796  0.7242  -1.1533   0.0000   0.0000   0.0000   0.3850
   2.900   0.8207   0.01057   0.00453  -0.1131  0.4769  0.7254  -1.1648   0.0000   0.0000   0.0000   0.3830
   3.000   0.8315   0.01063   0.00458  -0.1131  0.4739  0.7264  -1.1761   0.0000   0.0000   0.0000   0.3811
   3.100   0.8422   0.01071   0.00465  -0.1130  0.4705  0.7275  -1.1873   0.0000   0.0000   0.0000   0.3792
   3.200   0.8531   0.01081   0.00474  -0.1130  0.4672  0.7285  -1.1991   0.0000   0.0000   0.0000   0.3774
   3.300   0.8642   0.01082   0.00478  -0.1130  0.4659  0.7295  -1.2131   0.0000   0.0000   0.0000   0.3756
   3.400   0.8752   0.01080   0.00479  -0.1130  0.4627  0.7305  -1.2273   0.0000   0.0000   0.0000   0.3738
   3.500   0.8859   0.01077   0.00476  -0.1129  0.4557  0.7315  -1.2416   0.0000   0.0000   0.0000   0.3721
   3.600   0.8959   0.01081   0.00474  -0.1127  0.4452  0.7325  -1.2555   0.0000   0.0000   0.0000   0.3703
   3.700   0.9087   0.01089   0.00498  -0.1131  0.4563  0.7334  -1.2695   0.0000   0.0000   0.0000   0.3689
   3.800   0.9193   0.01091   0.00498  -0.1130  0.4501  0.7344  -1.2838   0.0000   0.0000   0.0000   0.3672
   3.900   0.9290   0.01100   0.00498  -0.1128  0.4390  0.7353  -1.2974   0.0000   0.0000   0.0000   0.3656
   4.000   0.9397   0.01100   0.00496  -0.1127  0.4284  0.7362  -1.3119   0.0000   0.0000   0.0000   0.3640
   4.100   0.9499   0.01105   0.00494  -0.1126  0.4145  0.7372  -1.3262   0.0000   0.0000   0.0000   0.3625
   4.200   0.9595   0.01118   0.00498  -0.1124  0.4021  0.7381  -1.3396   0.0000   0.0000   0.0000   0.3610
   4.300   0.9709   0.01120   0.00502  -0.1125  0.3980  0.7391  -1.3543   0.0000   0.0000   0.0000   0.3596
   4.400   0.9820   0.01125   0.00506  -0.1126  0.3922  0.7401  -1.3688   0.0000   0.0000   0.0000   0.3582
   4.500   0.9928   0.01132   0.00510  -0.1126  0.3854  0.7412  -1.3831   0.0000   0.0000   0.0000   0.3569
   4.600   1.0032   0.01142   0.00515  -0.1125  0.3778  0.7423  -1.4087   0.0000   0.0000   0.0000   0.3555
   4.700   1.0136   0.01153   0.00522  -0.1124  0.3700  0.7433  -1.4502   0.0000   0.0000   0.0000   0.3542
   4.800   1.0247   0.01159   0.00528  -0.1125  0.3638  0.7444  -1.4933   0.0000   0.0000   0.0000   0.3529
   4.900   1.0352   0.01169   0.00534  -0.1125  0.3539  0.7454  -1.5354   0.0000   0.0000   0.0000   0.3517
   5.000   1.0448   0.01186   0.00542  -0.1123  0.3409  0.7463  -1.5756   0.0000   0.0000   0.0000   0.3504
   5.100   1.0553   0.01198   0.00549  -0.1122  0.3289  0.7471  -1.6173   0.0000   0.0000   0.0000   0.3492
   5.200   1.0643   0.01222   0.00560  -0.1120  0.3100  0.7478  -1.6785   0.0000   0.0000   0.0000   0.3479
   5.300   1.0739   0.01243   0.00572  -0.1119  0.2916  0.7484  -1.7665   0.0000   0.0000   0.0000   0.3467
   5.400   1.0826   0.01272   0.00587  -0.1116  0.2694  0.7489  -1.8541   0.0000   0.0000   0.0000   0.3455
   5.500   1.0901   0.01314   0.00610  -0.1111  0.2381  0.7495  -1.9394   0.0000   0.0000   0.0000   0.3443
   5.600   1.0920   0.01416   0.00669  -0.1099  0.1668  0.7499  -2.0283   0.0000   0.0000   0.0000   0.3429
   5.700   1.0953   0.01503   0.00721  -0.1090  0.1079  0.7510  -2.1009   0.0000   0.0000   0.0000   0.3417
   5.800   1.1005   0.01569   0.00764  -0.1083  0.0695  0.7521  -2.1810   0.0000   0.0000   0.0000   0.3404
   5.900   1.1045   0.01645   0.00817  -0.1073  0.0286  0.7531  -2.2528   0.0000   0.0000   0.0000   0.3391
   6.000   1.1105   0.01699   0.00860  -0.1066  0.0066  0.7541  -2.3348   0.0000   0.0000   0.0000   0.3378
   6.100   1.1201   0.01715   0.00877  -0.1064  0.0043  0.7549  -2.4373   0.0000   0.0000   0.0000   0.3367
   6.200   1.1300   0.01728   0.00892  -0.1063  0.0042  0.7557  -2.5426   0.0000   0.0000   0.0000   0.3356
   6.300   1.1397   0.01741   0.00908  -0.1061  0.0041  0.7565  -2.6474   0.0000   0.0000   0.0000   0.3345
   6.400   1.1495   0.01755   0.00924  -0.1059  0.0040  0.7573  -2.7517   0.0000   0.0000   0.0000   0.3334
   6.500   1.1591   0.01769   0.00942  -0.1057  0.0039  0.7582  -2.8555   0.0000   0.0000   0.0000   0.3324
   6.600   1.1687   0.01785   0.00960  -0.1055  0.0038  0.7590  -2.9587   0.0000   0.0000   0.0000   0.3313
   6.700   1.1781   0.01801   0.00979  -0.1053  0.0038  0.7598  -3.0615   0.0000   0.0000   0.0000   0.3303
   6.800   1.1875   0.01817   0.00998  -0.1050  0.0037  0.7606  -3.1640   0.0000   0.0000   0.0000   0.3292
   6.900   1.1968   0.01835   0.01019  -0.1048  0.0037  0.7615  -3.2661   0.0000   0.0000   0.0000   0.3282
   7.000   1.2060   0.01853   0.01041  -0.1045  0.0037  0.7624  -3.3677   0.0000   0.0000   0.0000   0.3272
   7.100   1.2150   0.01873   0.01064  -0.1042  0.0037  0.7634  -3.4687   0.0000   0.0000   0.0000   0.3261
   7.200   1.2238   0.01893   0.01089  -0.1038  0.0037  0.7644  -3.5689   0.0000   0.0000   0.0000   0.3251
   7.300   1.2325   0.01915   0.01116  -0.1034  0.0037  0.7655  -3.6684   0.0000   0.0000   0.0000   0.3241
   7.400   1.2410   0.01939   0.01144  -0.1030  0.0037  0.7665  -3.7670   0.0000   0.0000   0.0000   0.3230
   7.500   1.2493   0.01963   0.01173  -0.1026  0.0037  0.7676  -3.8648   0.0000   0.0000   0.0000   0.3220
   7.600   1.2575   0.01989   0.01204  -0.1022  0.0037  0.7686  -3.9613   0.0000   0.0000   0.0000   0.3210
   7.700   1.2655   0.02016   0.01238  -0.1017  0.0037  0.7695  -4.0523   0.0000   0.0000   0.0000   0.3200
   7.800   1.2731   0.02045   0.01273  -0.1012  0.0037  0.7704  -4.1447   0.0000   0.0000   0.0000   0.3189
   7.900   1.2805   0.02077   0.01310  -0.1007  0.0038  0.7713  -4.2358   0.0000   0.0000   0.0000   0.3179
   8.000   1.2873   0.02111   0.01350  -0.1000  0.0038  0.7721  -4.3242   0.0000   0.0000   0.0000   0.3169
   8.100   1.2938   0.02149   0.01392  -0.0994  0.0038  0.7728  -4.4096   0.0000   0.0000   0.0000   0.3158
   8.200   1.2997   0.02188   0.01437  -0.0986  0.0039  0.7736  -4.4918   0.0000   0.0000   0.0000   0.3147
   8.300   1.3052   0.02230   0.01485  -0.0978  0.0039  0.7743  -4.5700   0.0000   0.0000   0.0000   0.3136
   8.400   1.3099   0.02275   0.01536  -0.0968  0.0039  0.7750  -4.6438   0.0000   0.0000   0.0000   0.3125
   8.500   1.3139   0.02323   0.01590  -0.0958  0.0040  0.7756  -4.7128   0.0000   0.0000   0.0000   0.3113
   8.600   1.3163   0.02371   0.01644  -0.0944  0.0040  0.7762  -4.7733   0.0000   0.0000   0.0000   0.3101
   8.700   1.3175   0.02420   0.01699  -0.0929  0.0040  0.7768  -4.8270   0.0000   0.0000   0.0000   0.3087
   8.800   1.3186   0.02475   0.01760  -0.0914  0.0041  0.7773  -4.8787   0.0000   0.0000   0.0000   0.3074
   9.000   1.3198   0.02597   0.01894  -0.0886  0.0041  0.7793  -4.9722   0.0000   0.0000   0.0000   0.3048
   9.100   1.3194   0.02664   0.01968  -0.0870  0.0042  0.7806  -5.0118   0.0000   0.0000   0.0000   0.3036
   9.200   1.3182   0.02737   0.02047  -0.0855  0.0042  0.7818  -5.0463   0.0000   0.0000   0.0000   0.3023
   9.300   1.3166   0.02817   0.02134  -0.0840  0.0042  0.7828  -5.0762   0.0000   0.0000   0.0000   0.3011
   9.400   1.3142   0.02903   0.02227  -0.0825  0.0043  0.7838  -5.1007   0.0000   0.0000   0.0000   0.2998
   9.500   1.3113   0.02997   0.02327  -0.0810  0.0043  0.7848  -5.1193   0.0000   0.0000   0.0000   0.2987
   9.600   1.3077   0.03101   0.02438  -0.0795  0.0043  0.7856  -5.1309   0.0000   0.0000   0.0000   0.2976
   9.700   1.3034   0.03219   0.02563  -0.0781  0.0044  0.7864  -5.1319   0.0000   0.0000   0.0000   0.2966
   9.800   1.2986   0.03348   0.02701  -0.0768  0.0044  0.7872  -5.1248   0.0000   0.0000   0.0000   0.2956
   9.900   1.3021   0.03408   0.02764  -0.0763  0.0045  0.7880  -5.2077   0.0000   0.0000   0.0000   0.2949
  10.000   1.3055   0.03469   0.02829  -0.0759  0.0045  0.7888  -5.2904   0.0000   0.0000   0.0000   0.2942
  10.100   1.3088   0.03532   0.02895  -0.0754  0.0046  0.7896  -5.3723   0.0000   0.0000   0.0000   0.2935
  10.200   1.3119   0.03598   0.02965  -0.0750  0.0047  0.7904  -5.4527   0.0000   0.0000   0.0000   0.2929
  10.300   1.3150   0.03666   0.03036  -0.0745  0.0048  0.7912  -5.5322   0.0000   0.0000   0.0000   0.2923
  10.400   1.3179   0.03739   0.03113  -0.0742  0.0048  0.7921  -5.6093   0.0000   0.0000   0.0000   0.2917
  10.500   1.3207   0.03815   0.03192  -0.0738  0.0049  0.7929  -5.6840   0.0000   0.0000   0.0000   0.2911
  10.600   1.3232   0.03895   0.03277  -0.0734  0.0050  0.7937  -5.7547   0.0000   0.0000   0.0000   0.2906
  10.700   1.3254   0.03981   0.03368  -0.0731  0.0052  0.7945  -5.8188   0.0000   0.0000   0.0000   0.2900
  10.800   1.3272   0.04073   0.03465  -0.0727  0.0053  0.7953  -5.8736   0.0000   0.0000   0.0000   0.2895
  10.900   1.3282   0.04177   0.03574  -0.0722  0.0055  0.7961  -5.9099   0.0000   0.0000   0.0000   0.2889
  11.000   1.3280   0.04298   0.03704  -0.0715  0.0058  0.7968  -5.9067   0.0000   0.0000   0.0000   0.2882
  11.100   1.3264   0.04451   0.03868  -0.0700  0.0064  0.7973  -5.8247   0.0000   0.0000   0.0000   0.2870
  11.200   1.3278   0.04623   0.04053  -0.0679  0.0074  0.7976  -5.6994   0.0000   0.0000   0.0000   0.2852
  17.900   1.0524   0.24504   0.24319  -0.1528  0.0155  0.8337  -2.4478   0.0000   0.0000   0.0000   0.3710
  18.000   1.0539   0.24781   0.24597  -0.1541  0.0151  0.8346  -2.4130   0.0000   0.0000   0.0000   0.3720
  18.100   1.0553   0.25050   0.24866  -0.1554  0.0147  0.8356  -2.3840   0.0000   0.0000   0.0000   0.3729
  18.200   1.0568   0.25310   0.25127  -0.1566  0.0144  0.8366  -2.3595   0.0000   0.0000   0.0000   0.3737
  18.300   1.0583   0.25562   0.25380  -0.1577  0.0142  0.8376  -2.3394   0.0000   0.0000   0.0000   0.3744
  18.400   1.0598   0.25810   0.25628  -0.1589  0.0139  0.8386  -2.3223   0.0000   0.0000   0.0000   0.3751
  18.500   1.0614   0.26052   0.25871  -0.1600  0.0136  0.8396  -2.3080   0.0000   0.0000   0.0000   0.3758
  18.600   1.0631   0.26291   0.26110  -0.1611  0.0134  0.8407  -2.2961   0.0000   0.0000   0.0000   0.3765
  18.700   1.0647   0.26526   0.26345  -0.1621  0.0132  0.8418  -2.2868   0.0000   0.0000   0.0000   0.3771
  18.800   1.0665   0.26757   0.26577  -0.1632  0.0130  0.8430  -2.2797   0.0000   0.0000   0.0000   0.3776
  18.900   1.0683   0.26985   0.26805  -0.1642  0.0128  0.8441  -2.2749   0.0000   0.0000   0.0000   0.3781
  19.000   1.0701   0.27210   0.27031  -0.1652  0.0126  0.8453  -2.2722   0.0000   0.0000   0.0000   0.3786
  19.100   1.0720   0.27431   0.27253  -0.1661  0.0124  0.8466  -2.2716   0.0000   0.0000   0.0000   0.3791
  19.200   1.0739   0.27650   0.27472  -0.1671  0.0122  0.8478  -2.2731   0.0000   0.0000   0.0000   0.3795
  19.300   1.0758   0.27866   0.27688  -0.1680  0.0120  0.8491  -2.2770   0.0000   0.0000   0.0000   0.3799
  19.400   1.0778   0.28079   0.27901  -0.1689  0.0119  0.8503  -2.2832   0.0000   0.0000   0.0000   0.3803
  19.500   1.0799   0.28288   0.28111  -0.1698  0.0117  0.8516  -2.2916   0.0000   0.0000   0.0000   0.3807
  19.600   1.0820   0.28494   0.28317  -0.1707  0.0116  0.8528  -2.3024   0.0000   0.0000   0.0000   0.3810
  20.300   1.0970   0.29838   0.29672  -0.1759  0.0107  0.8654  -2.4452   0.0000   0.0000   0.0000   0.3821
  20.400   1.0990   0.30024   0.29859  -0.1765  0.0106  0.8676  -2.4721   0.0000   0.0000   0.0000   0.3822
  20.500   1.1011   0.30210   0.30046  -0.1772  0.0105  0.8699  -2.5008   0.0000   0.0000   0.0000   0.3823
  20.600   1.1030   0.30398   0.30236  -0.1778  0.0104  0.8722  -2.5305   0.0000   0.0000   0.0000   0.3823
  20.700   1.1039   0.30644   0.30482  -0.1785  0.0102  0.8743  -2.5333   0.0000   0.0000   0.0000   0.3827
  21.800   1.1026   0.33583   0.33436  -0.1851  0.0096  1.0000  -2.1625   0.0000   0.0000   0.0000   0.3873
  21.900   1.1040   0.33838   0.33692  -0.1860  0.0096  1.0000  -2.1509   0.0000   0.0000   0.0000   0.3877
  22.000   1.1053   0.34092   0.33946  -0.1869  0.0096  1.0000  -2.1394   0.0000   0.0000   0.0000   0.3881
  22.100   1.1066   0.34346   0.34199  -0.1878  0.0096  1.0000  -2.1282   0.0000   0.0000   0.0000   0.3885
  22.200   1.1079   0.34597   0.34451  -0.1886  0.0096  1.0000  -2.1173   0.0000   0.0000   0.0000   0.3889
  22.300   1.1090   0.34848   0.34701  -0.1895  0.0095  1.0000  -2.1065   0.0000   0.0000   0.0000   0.3893
  22.400   1.1102   0.35097   0.34950  -0.1903  0.0095  1.0000  -2.0959   0.0000   0.0000   0.0000   0.3897
  22.500   1.1113   0.35344   0.35198  -0.1911  0.0095  1.0000  -2.0855   0.0000   0.0000   0.0000   0.3901
  22.600   1.1123   0.35590   0.35443  -0.1919  0.0095  1.0000  -2.0752   0.0000   0.0000   0.0000   0.3905
  22.700   1.1133   0.35833   0.35686  -0.1928  0.0094  1.0000  -2.0649   0.0000   0.0000   0.0000   0.3909
  22.800   1.1143   0.36077   0.35931  -0.1937  0.0093  1.0000  -2.0507   0.0000   0.0000   0.0000   0.3914
  22.900   1.1151   0.36339   0.36193  -0.1948  0.0092  1.0000  -2.0215   0.0000   0.0000   0.0000   0.3921
  23.000   1.1161   0.36608   0.36462  -0.1959  0.0090  1.0000  -1.9879   0.0000   0.0000   0.0000   0.3928
  23.100   1.1170   0.36881   0.36734  -0.1968  0.0087  1.0000  -1.9555   0.0000   0.0000   0.0000   0.3933
  23.200   1.1176   0.37149   0.37003  -0.1976  0.0085  1.0000  -1.9299   0.0000   0.0000   0.0000   0.3938
  23.300   1.1179   0.37411   0.37265  -0.1983  0.0082  1.0000  -1.9107   0.0000   0.0000   0.0000   0.3942
  23.400   1.1179   0.37667   0.37521  -0.1989  0.0080  1.0000  -1.8955   0.0000   0.0000   0.0000   0.3945
  23.500   1.1177   0.37919   0.37773  -0.1994  0.0078  1.0000  -1.8828   0.0000   0.0000   0.0000   0.3948
  23.600   1.1171   0.38168   0.38022  -0.1998  0.0076  1.0000  -1.8717   0.0000   0.0000   0.0000   0.3952
  23.700   1.1163   0.38413   0.38268  -0.2002  0.0075  1.0000  -1.8615   0.0000   0.0000   0.0000   0.3955
  23.800   1.1151   0.38654   0.38509  -0.2006  0.0073  1.0000  -1.8516   0.0000   0.0000   0.0000   0.3958
  23.900   1.1133   0.38890   0.38746  -0.2008  0.0071  1.0000  -1.8415   0.0000   0.0000   0.0000   0.3962
  24.000   1.1109   0.39120   0.38976  -0.2009  0.0070  1.0000  -1.8307   0.0000   0.0000   0.0000   0.3965
  24.100   1.1074   0.39339   0.39196  -0.2008  0.0069  1.0000  -1.8180   0.0000   0.0000   0.0000   0.3969
  24.200   1.1019   0.39539   0.39397  -0.2004  0.0068  1.0000  -1.8008   0.0000   0.0000   0.0000   0.3973


