xflr5 v6.61

 Calculated polar for: GOE 417 AIRFOIL

 1 1 Reynolds number fixed          Mach number fixed         

 xtrf =   1.000 (top)        1.000 (bottom)
 Mach =   0.000     Re =     0.100 e 6     Ncrit =   9.000

  alpha     CL        CD       CDp       Cm    Top Xtr Bot Xtr   Cpmin    Chinge    XCp    
 ------- -------- --------- --------- -------- ------- ------- -------- --------- ---------
  -8.800  -0.2804   0.13391   0.12865  -0.0203  1.0000  0.0260  -1.2325   0.0000   0.0000   0.0000   0.1744
  -8.700  -0.2780   0.12860   0.12333  -0.0200  1.0000  0.0267  -1.2472   0.0000   0.0000   0.0000   0.1751
  -8.600  -0.2676   0.12294   0.11768  -0.0190  1.0000  0.0274  -1.1895   0.0000   0.0000   0.0000   0.1755
  -8.500  -0.2639   0.12047   0.11522  -0.0183  1.0000  0.0278  -1.1598   0.0000   0.0000   0.0000   0.1771
  -8.400  -0.2619   0.11870   0.11347  -0.0177  1.0000  0.0282  -1.1390   0.0000   0.0000   0.0000   0.1790
  -8.300  -0.2606   0.11724   0.11203  -0.0171  1.0000  0.0285  -1.1224   0.0000   0.0000   0.0000   0.1809
  -8.200  -0.2599   0.11597   0.11078  -0.0165  1.0000  0.0288  -1.1089   0.0000   0.0000   0.0000   0.1829
  -8.100  -0.2595   0.11483   0.10967  -0.0160  1.0000  0.0291  -1.0976   0.0000   0.0000   0.0000   0.1850
  -8.000  -0.2594   0.11379   0.10865  -0.0154  1.0000  0.0295  -1.0881   0.0000   0.0000   0.0000   0.1871
  -7.900  -0.2596   0.11281   0.10770  -0.0149  1.0000  0.0298  -1.0800   0.0000   0.0000   0.0000   0.1892
  -7.800  -0.2599   0.11190   0.10681  -0.0144  1.0000  0.0300  -1.0731   0.0000   0.0000   0.0000   0.1914
  -7.700  -0.2605   0.11103   0.10597  -0.0138  1.0000  0.0303  -1.0673   0.0000   0.0000   0.0000   0.1937
  -7.600  -0.2612   0.11021   0.10518  -0.0133  1.0000  0.0306  -1.0624   0.0000   0.0000   0.0000   0.1961
  -7.500  -0.2622   0.10943   0.10442  -0.0127  1.0000  0.0309  -1.0583   0.0000   0.0000   0.0000   0.1985
  -7.400  -0.2634   0.10869   0.10370  -0.0121  1.0000  0.0312  -1.0551   0.0000   0.0000   0.0000   0.2010
  -7.300  -0.2649   0.10798   0.10302  -0.0115  1.0000  0.0315  -1.0525   0.0000   0.0000   0.0000   0.2037
  -7.200  -0.2665   0.10730   0.10237  -0.0109  1.0000  0.0318  -1.0506   0.0000   0.0000   0.0000   0.2064
  -7.100  -0.2684   0.10665   0.10174  -0.0103  1.0000  0.0320  -1.0493   0.0000   0.0000   0.0000   0.2092
  -7.000  -0.2704   0.10602   0.10114  -0.0096  1.0000  0.0323  -1.0486   0.0000   0.0000   0.0000   0.2120
  -6.900  -0.2726   0.10541   0.10055  -0.0089  1.0000  0.0326  -1.0483   0.0000   0.0000   0.0000   0.2149
  -6.800  -0.2750   0.10482   0.09999  -0.0082  1.0000  0.0328  -1.0485   0.0000   0.0000   0.0000   0.2179
  -6.700  -0.2775   0.10424   0.09944  -0.0075  1.0000  0.0331  -1.0491   0.0000   0.0000   0.0000   0.2209
  -6.600  -0.2802   0.10369   0.09891  -0.0067  1.0000  0.0333  -1.0501   0.0000   0.0000   0.0000   0.2238
  -6.500  -0.2830   0.10314   0.09839  -0.0060  1.0000  0.0336  -1.0516   0.0000   0.0000   0.0000   0.2269
  -6.400  -0.2861   0.10261   0.09788  -0.0052  1.0000  0.0338  -1.0534   0.0000   0.0000   0.0000   0.2299
  -6.300  -0.2893   0.10209   0.09739  -0.0044  1.0000  0.0341  -1.0556   0.0000   0.0000   0.0000   0.2329
  -6.200  -0.2927   0.10159   0.09692  -0.0036  1.0000  0.0343  -1.0583   0.0000   0.0000   0.0000   0.2360
  -6.100  -0.2964   0.10111   0.09646  -0.0028  1.0000  0.0345  -1.0614   0.0000   0.0000   0.0000   0.2391
  -6.000  -0.3000   0.10061   0.09599  -0.0019  1.0000  0.0347  -1.0647   0.0000   0.0000   0.0000   0.2420
  -5.900  -0.3033   0.10007   0.09547  -0.0012  1.0000  0.0350  -1.0677   0.0000   0.0000   0.0000   0.2446
  -5.800  -0.3056   0.09942   0.09484  -0.0007  1.0000  0.0353  -1.0697   0.0000   0.0000   0.0000   0.2463
  -5.700  -0.3072   0.09868   0.09413  -0.0004  1.0000  0.0356  -1.0710   0.0000   0.0000   0.0000   0.2475
  -5.600  -0.3085   0.09792   0.09339  -0.0001  1.0000  0.0359  -1.0721   0.0000   0.0000   0.0000   0.2484
  -5.500  -0.3096   0.09714   0.09263   0.0001  1.0000  0.0363  -1.0732   0.0000   0.0000   0.0000   0.2492
  -5.400  -0.3106   0.09635   0.09186   0.0003  1.0000  0.0366  -1.0743   0.0000   0.0000   0.0000   0.2500
  -5.300  -0.3115   0.09555   0.09108   0.0005  1.0000  0.0370  -1.0753   0.0000   0.0000   0.0000   0.2506
  -5.200  -0.3121   0.09474   0.09029   0.0006  1.0000  0.0374  -1.0764   0.0000   0.0000   0.0000   0.2510
  -5.100  -0.3126   0.09391   0.08948   0.0007  1.0000  0.0378  -1.0773   0.0000   0.0000   0.0000   0.2512
  -5.000  -0.3128   0.09305   0.08864   0.0007  1.0000  0.0380  -1.0797   0.0000   0.0000   0.0000   0.2512
  -4.900  -0.3128   0.09218   0.08779   0.0006  1.0000  0.0381  -1.0818   0.0000   0.0000   0.0000   0.2510
  -4.800  -0.3124   0.09129   0.08691   0.0005  1.0000  0.0383  -1.0838   0.0000   0.0000   0.0000   0.2506
  -4.700  -0.3119   0.09038   0.08602   0.0003  1.0000  0.0385  -1.0856   0.0000   0.0000   0.0000   0.2500
  -4.600  -0.3111   0.08946   0.08512   0.0000  1.0000  0.0387  -1.0871   0.0000   0.0000   0.0000   0.2493
  -4.500  -0.2979   0.08762   0.08327  -0.0030  0.9973  0.0391  -1.0802   0.0000   0.0000   0.0000   0.2389
  -4.400  -0.2853   0.08586   0.08149  -0.0059  0.9942  0.0396  -1.0739   0.0000   0.0000   0.0000   0.2283
  -4.300  -0.2736   0.08418   0.07981  -0.0086  0.9910  0.0401  -1.0682   0.0000   0.0000   0.0000   0.2177
  -4.200  -0.2617   0.08253   0.07814  -0.0112  0.9876  0.0407  -1.0625   0.0000   0.0000   0.0000   0.2060
  -4.100  -0.2487   0.08084   0.07644  -0.0140  0.9840  0.0413  -1.0564   0.0000   0.0000   0.0000   0.1922
  -4.000  -0.2344   0.07910   0.07468  -0.0172  0.9801  0.0420  -1.0498   0.0000   0.0000   0.0000   0.1753
  -3.900  -0.2185   0.07730   0.07286  -0.0206  0.9760  0.0429  -1.0427   0.0000   0.0000   0.0000   0.1541
  -3.800  -0.2005   0.07546   0.07098  -0.0244  0.9719  0.0440  -1.0358   0.0000   0.0000   0.0000   0.1264
  -3.700  -0.1792   0.07359   0.06907  -0.0289  0.9679  0.0453  -1.0303   0.0000   0.0000   0.0000   0.0862
  -3.600  -0.1496   0.07192   0.06732  -0.0354  0.9640  0.0472  -1.0330   0.0000   0.0000   0.0000   0.0105
  -3.500  -0.0953   0.07185   0.06700  -0.0469  0.9600  0.0498  -1.0599   0.0000   0.0000   0.0000  -0.2475
  -3.400  -0.0617   0.07057   0.06559  -0.0529  0.9569  0.0504  -1.0507   0.0000   0.0000   0.0000  -0.6169
  -3.300  -0.0417   0.06659   0.06158  -0.0574  0.9548  0.0512  -1.0780   0.0000   0.0000   0.0000  -1.1404
  -3.200  -0.0363   0.06234   0.05741  -0.0585  0.9528  0.0530  -1.0431   0.0000   0.0000   0.0000  -1.3757
  -3.100  -0.0241   0.06024   0.05537  -0.0597  0.9505  0.0553  -0.9646   0.0000   0.0000   0.0000  -2.2539
  -3.000  -0.0268   0.05893   0.05408  -0.0577  0.9441  0.0561  -0.9486   0.0000   0.0000   0.0000  -1.9244
  -2.900  -0.0230   0.05761   0.05277  -0.0571  0.9380  0.0577  -0.9198   0.0000   0.0000   0.0000  -2.2609
  -2.800  -0.0123   0.05619   0.05134  -0.0580  0.9327  0.0604  -0.8861   0.0000   0.0000   0.0000  -4.5100
  -2.700   0.0041   0.05468   0.04978  -0.0600  0.9281  0.0643  -0.8595   0.0000   0.0000   0.0000  15.1805
  -2.600   0.0650   0.05637   0.05092  -0.0696  0.9238  0.0754  -0.9055   0.0000   0.0000   0.0000   1.3280
  -2.500   0.0692   0.05140   0.04607  -0.0708  0.9211  0.0776  -0.9051   0.0000   0.0000   0.0000   1.2819
  -2.400   0.0742   0.04922   0.04401  -0.0706  0.9178  0.0808  -0.8422   0.0000   0.0000   0.0000   1.2080
  -2.300   0.0887   0.04816   0.04297  -0.0714  0.9148  0.0882  -0.7879   0.0000   0.0000   0.0000   1.0614
  -2.200   0.1254   0.04675   0.04124  -0.0770  0.9127  0.1057  -0.8313   0.0000   0.0000   0.0000   0.8682
  -2.100   0.1289   0.04410   0.03878  -0.0763  0.9104  0.1149  -0.7835   0.0000   0.0000   0.0000   0.8464
  -2.000   0.1451   0.04342   0.03812  -0.0774  0.9080  0.1344  -0.7121   0.0000   0.0000   0.0000   0.7868
  -1.900   0.1678   0.04257   0.03721  -0.0806  0.9059  0.1616  -0.6284   0.0000   0.0000   0.0000   0.7334
  -1.800   0.1807   0.04192   0.03665  -0.0810  0.9040  0.1717  -0.5266   0.0000   0.0000   0.0000   0.7010
  -1.700   0.2012   0.04165   0.03637  -0.0830  0.9023  0.1791  -0.5208   0.0000   0.0000   0.0000   0.6648
  -1.600   0.2243   0.04216   0.03683  -0.0851  0.9006  0.1880  -0.5376   0.0000   0.0000   0.0000   0.6312
  -1.500   0.2224   0.04239   0.03706  -0.0827  0.8957  0.1908  -0.5391   0.0000   0.0000   0.0000   0.6233
  -1.400   0.2195   0.04276   0.03743  -0.0799  0.8892  0.1933  -0.5400   0.0000   0.0000   0.0000   0.6158
  -1.300   0.2243   0.04419   0.03886  -0.0780  0.8825  0.1973  -0.5460   0.0000   0.0000   0.0000   0.5993
  -1.200   0.2331   0.04532   0.03998  -0.0771  0.8762  0.1994  -0.5542   0.0000   0.0000   0.0000   0.5821
  -1.100   0.2429   0.03911   0.03363  -0.0814  0.8737  0.2125  -0.5592   0.0000   0.0000   0.0000   0.5862
  -1.000   0.2493   0.03752   0.03206  -0.0815  0.8691  0.2190  -0.5659   0.0000   0.0000   0.0000   0.5779
  -0.900   0.2570   0.03654   0.03112  -0.0814  0.8643  0.2249  -0.5737   0.0000   0.0000   0.0000   0.5676
  -0.800   0.2655   0.03574   0.03037  -0.0813  0.8596  0.2310  -0.5822   0.0000   0.0000   0.0000   0.5569
  -0.700   0.2753   0.03507   0.02972  -0.0813  0.8550  0.2383  -0.5914   0.0000   0.0000   0.0000   0.5462
  -0.600   0.2866   0.03449   0.02916  -0.0817  0.8506  0.2472  -0.6015   0.0000   0.0000   0.0000   0.5355
  -0.500   0.2996   0.03402   0.02870  -0.0823  0.8464  0.2582  -0.6126   0.0000   0.0000   0.0000   0.5250
  -0.400   0.3147   0.03376   0.02843  -0.0831  0.8423  0.2716  -0.6249   0.0000   0.0000   0.0000   0.5145
  -0.300   0.3320   0.03418   0.02883  -0.0840  0.8383  0.2875  -0.6389   0.0000   0.0000   0.0000   0.5031
  -0.200   0.3449   0.03207   0.02669  -0.0858  0.8355  0.3216  -0.6496   0.0000   0.0000   0.0000   0.4990
  -0.100   0.3553   0.03084   0.02556  -0.0859  0.8324  0.3368  -0.6602   0.0000   0.0000   0.0000   0.4918
   0.000   0.3680   0.03009   0.02488  -0.0861  0.8293  0.3561  -0.6723   0.0000   0.0000   0.0000   0.4839
   0.100   0.3843   0.02987   0.02469  -0.0868  0.8263  0.3807  -0.6864   0.0000   0.0000   0.0000   0.4755
   0.200   0.3943   0.02799   0.02287  -0.0872  0.8238  0.4314  -0.6969   0.0000   0.0000   0.0000   0.4708
   0.300   0.4066   0.02697   0.02197  -0.0870  0.8210  0.4579  -0.7091   0.0000   0.0000   0.0000   0.4634
   0.400   0.4241   0.02662   0.02166  -0.0876  0.8183  0.4864  -0.7240   0.0000   0.0000   0.0000   0.4560
   0.500   0.4442   0.02544   0.02044  -0.0897  0.8160  0.5145  -0.7396   0.0000   0.0000   0.0000   0.4513
   0.600   0.4609   0.02397   0.01903  -0.0909  0.8136  0.5356  -0.7536   0.0000   0.0000   0.0000   0.4463
   0.700   0.4802   0.02315   0.01825  -0.0922  0.8108  0.5530  -0.7691   0.0000   0.0000   0.0000   0.4410
   0.800   0.5048   0.02253   0.01761  -0.0948  0.8077  0.5620  -0.7873   0.0000   0.0000   0.0000   0.4368
   0.900   0.5408   0.02228   0.01715  -0.1004  0.8044  0.5394  -0.8174   0.0000   0.0000   0.0000   0.4346
   1.500   0.6558   0.02517   0.01865  -0.1073  0.7716  0.2002  -0.9477   0.0000   0.0000   0.0000   0.4119
   1.700   0.6942   0.02261   0.01539  -0.1092  0.7610  0.1448  -0.9909   0.0000   0.0000   0.0000   0.4056
   1.800   0.7106   0.02183   0.01453  -0.1099  0.7551  0.1385  -1.0147   0.0000   0.0000   0.0000   0.4029
   1.900   0.7281   0.02118   0.01380  -0.1107  0.7492  0.1318  -1.0399   0.0000   0.0000   0.0000   0.4001
   2.000   0.7464   0.02057   0.01308  -0.1115  0.7433  0.1246  -1.0661   0.0000   0.0000   0.0000   0.3974
   2.100   0.7666   0.01997   0.01236  -0.1126  0.7373  0.1163  -1.0943   0.0000   0.0000   0.0000   0.3948
   2.200   0.7903   0.01946   0.01179  -0.1143  0.7293  0.1095  -1.1264   0.0000   0.0000   0.0000   0.3924
   2.300   0.8131   0.01905   0.01130  -0.1160  0.7208  0.1059  -1.1592   0.0000   0.0000   0.0000   0.3904
   2.400   0.8358   0.01877   0.01093  -0.1178  0.7092  0.1032  -1.1919   0.0000   0.0000   0.0000   0.3886
   2.500   0.8505   0.01875   0.01087  -0.1184  0.6975  0.1014  -1.2160   0.0000   0.0000   0.0000   0.3868
   2.600   0.8573   0.01866   0.01076  -0.1175  0.6904  0.1002  -1.2318   0.0000   0.0000   0.0000   0.3845
   2.700   0.8653   0.01838   0.01045  -0.1167  0.6816  0.0990  -1.2484   0.0000   0.0000   0.0000   0.3822
   2.800   0.8752   0.01815   0.01015  -0.1162  0.6710  0.0976  -1.2674   0.0000   0.0000   0.0000   0.3800
   2.900   0.8874   0.01789   0.00979  -0.1161  0.6589  0.0961  -1.2890   0.0000   0.0000   0.0000   0.3779
   3.000   0.9013   0.01765   0.00939  -0.1163  0.6458  0.0946  -1.3127   0.0000   0.0000   0.0000   0.3760
   3.100   0.9163   0.01747   0.00899  -0.1166  0.6310  0.0932  -1.3375   0.0000   0.0000   0.0000   0.3741
   3.200   0.9338   0.01753   0.00879  -0.1176  0.6076  0.0917  -1.3641   0.0000   0.0000   0.0000   0.3727
   3.300   0.9430   0.01763   0.00881  -0.1172  0.5957  0.0907  -1.3821   0.0000   0.0000   0.0000   0.3710
   3.400   0.9498   0.01763   0.00877  -0.1163  0.5876  0.0899  -1.3983   0.0000   0.0000   0.0000   0.3690
   3.500   0.9571   0.01763   0.00873  -0.1155  0.5768  0.0892  -1.4151   0.0000   0.0000   0.0000   0.3671
   3.600   0.9652   0.01765   0.00866  -0.1148  0.5642  0.0885  -1.4330   0.0000   0.0000   0.0000   0.3652
   3.700   0.9743   0.01768   0.00854  -0.1142  0.5505  0.0878  -1.4521   0.0000   0.0000   0.0000   0.3634
   3.800   0.9839   0.01776   0.00841  -0.1138  0.5362  0.0872  -1.4719   0.0000   0.0000   0.0000   0.3617
   3.900   0.9945   0.01800   0.00841  -0.1136  0.5182  0.0867  -1.4920   0.0000   0.0000   0.0000   0.3601
   4.000   1.0071   0.01848   0.00874  -0.1140  0.4988  0.0863  -1.5123   0.0000   0.0000   0.0000   0.3590
   4.100   1.0152   0.01853   0.00878  -0.1135  0.4949  0.0861  -1.5302   0.0000   0.0000   0.0000   0.3575
   4.200   1.0235   0.01863   0.00886  -0.1130  0.4902  0.0860  -1.5480   0.0000   0.0000   0.0000   0.3560
   4.300   1.0320   0.01874   0.00897  -0.1126  0.4848  0.0860  -1.5660   0.0000   0.0000   0.0000   0.3546
   4.400   1.0406   0.01887   0.00908  -0.1122  0.4791  0.0862  -1.5841   0.0000   0.0000   0.0000   0.3531
   4.500   1.0492   0.01900   0.00919  -0.1117  0.4733  0.0865  -1.6024   0.0000   0.0000   0.0000   0.3518
   4.600   1.0579   0.01915   0.00930  -0.1114  0.4675  0.0870  -1.6209   0.0000   0.0000   0.0000   0.3504
   4.700   1.0667   0.01929   0.00940  -0.1110  0.4617  0.0878  -1.6396   0.0000   0.0000   0.0000   0.3490
   4.800   1.0757   0.01945   0.00950  -0.1106  0.4560  0.0889  -1.6586   0.0000   0.0000   0.0000   0.3477
   4.900   1.0847   0.01961   0.00961  -0.1103  0.4503  0.0906  -1.6777   0.0000   0.0000   0.0000   0.3464
   5.000   1.0938   0.01979   0.00972  -0.1100  0.4448  0.0932  -1.6969   0.0000   0.0000   0.0000   0.3452
   5.100   1.1030   0.01998   0.00986  -0.1097  0.4391  0.0981  -1.7162   0.0000   0.0000   0.0000   0.3439
   5.300   1.1229   0.01934   0.01038  -0.1097  0.4269  1.0000  -1.7557   0.0000   0.0000   0.0000   0.3419
   5.400   1.1328   0.01972   0.01069  -0.1096  0.4203  1.0000  -1.7747   0.0000   0.0000   0.0000   0.3409
   5.500   1.1425   0.02019   0.01114  -0.1096  0.4137  1.0000  -1.7930   0.0000   0.0000   0.0000   0.3399
   5.600   1.1520   0.02079   0.01174  -0.1096  0.4072  1.0000  -1.8100   0.0000   0.0000   0.0000   0.3390
   5.700   1.1604   0.02157   0.01259  -0.1095  0.4009  1.0000  -1.8249   0.0000   0.0000   0.0000   0.3382
   5.800   1.1689   0.02180   0.01279  -0.1092  0.3993  1.0000  -1.8434   0.0000   0.0000   0.0000   0.3371
   5.900   1.1775   0.02192   0.01292  -0.1088  0.3982  1.0000  -1.8624   0.0000   0.0000   0.0000   0.3359
   6.000   1.1859   0.02205   0.01306  -0.1084  0.3968  1.0000  -1.8813   0.0000   0.0000   0.0000   0.3348
   6.100   1.1941   0.02218   0.01320  -0.1079  0.3952  1.0000  -1.9000   0.0000   0.0000   0.0000   0.3337
   6.200   1.2022   0.02233   0.01336  -0.1075  0.3934  1.0000  -1.9184   0.0000   0.0000   0.0000   0.3325
   6.300   1.2102   0.02248   0.01353  -0.1070  0.3911  1.0000  -1.9367   0.0000   0.0000   0.0000   0.3314
   6.400   1.2181   0.02264   0.01371  -0.1065  0.3885  1.0000  -1.9547   0.0000   0.0000   0.0000   0.3303
   6.500   1.2259   0.02281   0.01390  -0.1060  0.3856  1.0000  -1.9726   0.0000   0.0000   0.0000   0.3292
   6.600   1.2336   0.02299   0.01409  -0.1055  0.3822  1.0000  -1.9902   0.0000   0.0000   0.0000   0.3281
   6.700   1.2413   0.02318   0.01429  -0.1049  0.3784  1.0000  -2.0210   0.0000   0.0000   0.0000   0.3270
   6.800   1.2490   0.02337   0.01449  -0.1044  0.3741  1.0000  -2.0589   0.0000   0.0000   0.0000   0.3259
   6.900   1.2567   0.02356   0.01469  -0.1038  0.3695  1.0000  -2.0973   0.0000   0.0000   0.0000   0.3248
   7.000   1.2645   0.02376   0.01488  -0.1033  0.3646  1.0000  -2.1365   0.0000   0.0000   0.0000   0.3237
   7.100   1.2723   0.02396   0.01506  -0.1027  0.3595  1.0000  -2.1763   0.0000   0.0000   0.0000   0.3226
   7.200   1.2801   0.02402   0.01507  -0.1021  0.3532  1.0000  -2.2185   0.0000   0.0000   0.0000   0.3215
   7.300   1.2880   0.02382   0.01468  -0.1013  0.3434  1.0000  -2.2658   0.0000   0.0000   0.0000   0.3202
   7.400   1.2950   0.02372   0.01428  -0.1004  0.3288  1.0000  -2.3127   0.0000   0.0000   0.0000   0.3189
   7.500   1.3028   0.02485   0.01524  -0.1002  0.3041  1.0000  -2.3533   0.0000   0.0000   0.0000   0.3182
   7.600   1.3091   0.02440   0.01465  -0.0993  0.2982  1.0000  -2.4016   0.0000   0.0000   0.0000   0.3169
   7.700   1.3146   0.02388   0.01405  -0.0982  0.2953  1.0000  -2.4481   0.0000   0.0000   0.0000   0.3156
   7.800   1.3207   0.02377   0.01392  -0.0973  0.2926  1.0000  -2.4930   0.0000   0.0000   0.0000   0.3144
   7.900   1.3268   0.02374   0.01389  -0.0964  0.2893  1.0000  -2.5382   0.0000   0.0000   0.0000   0.3133
   8.000   1.3328   0.02373   0.01390  -0.0955  0.2853  1.0000  -2.5839   0.0000   0.0000   0.0000   0.3121
   8.100   1.3387   0.02375   0.01392  -0.0946  0.2803  1.0000  -2.6306   0.0000   0.0000   0.0000   0.3110
   8.200   1.3444   0.02379   0.01396  -0.0937  0.2744  1.0000  -2.6785   0.0000   0.0000   0.0000   0.3098
   8.300   1.3500   0.02384   0.01399  -0.0928  0.2677  1.0000  -2.7278   0.0000   0.0000   0.0000   0.3087
   8.400   1.3551   0.02390   0.01401  -0.0917  0.2600  1.0000  -2.8044   0.0000   0.0000   0.0000   0.3075
   8.500   1.3584   0.02396   0.01394  -0.0904  0.2487  1.0000  -2.8901   0.0000   0.0000   0.0000   0.3062
   8.600   1.3583   0.02409   0.01384  -0.0885  0.2329  1.0000  -2.9581   0.0000   0.0000   0.0000   0.3046
   8.700   1.3551   0.02439   0.01387  -0.0861  0.2164  1.0000  -3.0052   0.0000   0.0000   0.0000   0.3029
   8.800   1.3513   0.02474   0.01409  -0.0837  0.2003  1.0000  -3.0456   0.0000   0.0000   0.0000   0.3011
   8.900   1.3517   0.02494   0.01417  -0.0819  0.1890  1.0000  -3.1099   0.0000   0.0000   0.0000   0.2996
   9.000   1.3482   0.02531   0.01431  -0.0796  0.1752  1.0000  -3.1504   0.0000   0.0000   0.0000   0.2979
   9.100   1.3423   0.02581   0.01455  -0.0770  0.1629  1.0000  -3.1756   0.0000   0.0000   0.0000   0.2961
   9.200   1.3368   0.02637   0.01490  -0.0746  0.1492  1.0000  -3.1995   0.0000   0.0000   0.0000   0.2944
   9.300   1.3349   0.02703   0.01536  -0.0728  0.1213  1.0000  -3.2337   0.0000   0.0000   0.0000   0.2929
   9.400   1.3289   0.02794   0.01599  -0.0705  0.0929  1.0000  -3.2444   0.0000   0.0000   0.0000   0.2914
   9.500   1.3217   0.02902   0.01675  -0.0682  0.0653  1.0000  -3.2483   0.0000   0.0000   0.0000   0.2898
   9.600   1.3165   0.03004   0.01761  -0.0661  0.0497  1.0000  -3.2466   0.0000   0.0000   0.0000   0.2882
   9.700   1.3151   0.03075   0.01840  -0.0643  0.0450  1.0000  -3.2653   0.0000   0.0000   0.0000   0.2867
   9.800   1.3137   0.03148   0.01921  -0.0625  0.0418  1.0000  -3.2864   0.0000   0.0000   0.0000   0.2853
   9.900   1.3120   0.03223   0.02003  -0.0608  0.0395  1.0000  -3.3085   0.0000   0.0000   0.0000   0.2839
  10.000   1.3100   0.03298   0.02086  -0.0592  0.0378  1.0000  -3.3303   0.0000   0.0000   0.0000   0.2826
  10.100   1.3076   0.03376   0.02172  -0.0575  0.0365  1.0000  -3.3517   0.0000   0.0000   0.0000   0.2812
  10.200   1.3054   0.03455   0.02260  -0.0560  0.0355  1.0000  -3.3740   0.0000   0.0000   0.0000   0.2799
  10.300   1.3033   0.03537   0.02351  -0.0545  0.0346  1.0000  -3.3970   0.0000   0.0000   0.0000   0.2787
  10.400   1.3013   0.03620   0.02444  -0.0531  0.0339  1.0000  -3.4199   0.0000   0.0000   0.0000   0.2775
  10.500   1.2991   0.03707   0.02541  -0.0517  0.0333  1.0000  -3.4495   0.0000   0.0000   0.0000   0.2764
  10.600   1.2968   0.03797   0.02640  -0.0503  0.0328  1.0000  -3.4779   0.0000   0.0000   0.0000   0.2752
  10.700   1.2942   0.03889   0.02743  -0.0491  0.0325  1.0000  -3.5044   0.0000   0.0000   0.0000   0.2741
  10.800   1.2911   0.03985   0.02848  -0.0478  0.0322  1.0000  -3.5278   0.0000   0.0000   0.0000   0.2731
  10.900   1.2876   0.04084   0.02955  -0.0466  0.0321  1.0000  -3.5491   0.0000   0.0000   0.0000   0.2721
  11.000   1.2832   0.04188   0.03068  -0.0454  0.0319  1.0000  -3.5653   0.0000   0.0000   0.0000   0.2711
  11.100   1.2787   0.04296   0.03185  -0.0444  0.0318  1.0000  -3.5808   0.0000   0.0000   0.0000   0.2702
  11.200   1.2749   0.04407   0.03304  -0.0434  0.0318  1.0000  -3.5983   0.0000   0.0000   0.0000   0.2694
  11.300   1.2714   0.04520   0.03425  -0.0425  0.0317  1.0000  -3.6168   0.0000   0.0000   0.0000   0.2686
  11.400   1.2680   0.04636   0.03549  -0.0416  0.0317  1.0000  -3.6351   0.0000   0.0000   0.0000   0.2678
  11.500   1.2649   0.04755   0.03676  -0.0409  0.0317  1.0000  -3.6540   0.0000   0.0000   0.0000   0.2671
  11.600   1.2621   0.04875   0.03803  -0.0402  0.0317  1.0000  -3.6735   0.0000   0.0000   0.0000   0.2665
  11.700   1.2596   0.04996   0.03931  -0.0395  0.0318  1.0000  -3.6937   0.0000   0.0000   0.0000   0.2658
  11.800   1.2573   0.05120   0.04061  -0.0389  0.0319  1.0000  -3.7135   0.0000   0.0000   0.0000   0.2652
  11.900   1.2549   0.05247   0.04194  -0.0384  0.0320  1.0000  -3.7326   0.0000   0.0000   0.0000   0.2646
  12.000   1.2541   0.05367   0.04320  -0.0378  0.0322  1.0000  -3.7572   0.0000   0.0000   0.0000   0.2640
  12.100   1.2557   0.05474   0.04433  -0.0372  0.0325  1.0000  -3.7911   0.0000   0.0000   0.0000   0.2633
  12.200   1.2614   0.05565   0.04530  -0.0364  0.0331  1.0000  -3.8387   0.0000   0.0000   0.0000   0.2623
  12.300   1.2683   0.05665   0.04639  -0.0356  0.0338  1.0000  -3.8847   0.0000   0.0000   0.0000   0.2614
  12.400   1.2803   0.05772   0.04762  -0.0348  0.0351  1.0000  -3.9385   0.0000   0.0000   0.0000   0.2602
  12.500   1.2914   0.05921   0.04932  -0.0341  0.0366  1.0000  -3.9775   0.0000   0.0000   0.0000   0.2592
  12.600   1.2960   0.06098   0.05130  -0.0336  0.0378  1.0000  -3.9929   0.0000   0.0000   0.0000   0.2586
  12.700   1.2959   0.06283   0.05332  -0.0332  0.0387  1.0000  -3.9948   0.0000   0.0000   0.0000   0.2581
  12.800   1.2921   0.06469   0.05533  -0.0329  0.0393  1.0000  -3.9873   0.0000   0.0000   0.0000   0.2578
  12.900   1.2877   0.06660   0.05739  -0.0328  0.0398  1.0000  -3.9774   0.0000   0.0000   0.0000   0.2576
  13.000   1.2828   0.06855   0.05949  -0.0327  0.0403  1.0000  -3.9655   0.0000   0.0000   0.0000   0.2575
  13.100   1.2776   0.07057   0.06164  -0.0328  0.0408  1.0000  -3.9519   0.0000   0.0000   0.0000   0.2574
  13.200   1.2720   0.07264   0.06384  -0.0329  0.0412  1.0000  -3.9365   0.0000   0.0000   0.0000   0.2575
  13.300   1.2660   0.07476   0.06610  -0.0332  0.0416  1.0000  -3.9195   0.0000   0.0000   0.0000   0.2576
  13.400   1.2594   0.07694   0.06839  -0.0336  0.0419  1.0000  -3.9007   0.0000   0.0000   0.0000   0.2579
  13.500   1.2517   0.07916   0.07072  -0.0341  0.0421  1.0000  -3.8797   0.0000   0.0000   0.0000   0.2583
  13.600   1.2441   0.08146   0.07311  -0.0348  0.0423  1.0000  -3.8577   0.0000   0.0000   0.0000   0.2589
  13.700   1.2368   0.08382   0.07558  -0.0355  0.0424  1.0000  -3.8348   0.0000   0.0000   0.0000   0.2595
  13.800   1.2295   0.08625   0.07811  -0.0364  0.0426  1.0000  -3.8106   0.0000   0.0000   0.0000   0.2602
  13.900   1.2220   0.08873   0.08069  -0.0373  0.0428  1.0000  -3.7851   0.0000   0.0000   0.0000   0.2609
  14.000   1.2142   0.09127   0.08333  -0.0384  0.0429  1.0000  -3.7579   0.0000   0.0000   0.0000   0.2619
  14.100   1.2056   0.09392   0.08605  -0.0397  0.0428  1.0000  -3.7285   0.0000   0.0000   0.0000   0.2630
  14.200   1.1973   0.09663   0.08885  -0.0411  0.0428  1.0000  -3.6978   0.0000   0.0000   0.0000   0.2642
  14.300   1.1893   0.09939   0.09169  -0.0425  0.0428  1.0000  -3.6659   0.0000   0.0000   0.0000   0.2655
  14.400   1.1813   0.10221   0.09459  -0.0440  0.0428  1.0000  -3.6326   0.0000   0.0000   0.0000   0.2669
  14.500   1.1733   0.10510   0.09756  -0.0456  0.0427  1.0000  -3.5972   0.0000   0.0000   0.0000   0.2683
  14.600   1.1647   0.10812   0.10065  -0.0474  0.0426  1.0000  -3.5590   0.0000   0.0000   0.0000   0.2700
  14.700   1.1558   0.11127   0.10386  -0.0493  0.0424  1.0000  -3.5180   0.0000   0.0000   0.0000   0.2719
  14.800   1.1476   0.11441   0.10707  -0.0512  0.0423  1.0000  -3.4760   0.0000   0.0000   0.0000   0.2737
  14.900   1.1395   0.11758   0.11031  -0.0531  0.0422  1.0000  -3.4320   0.0000   0.0000   0.0000   0.2756
  15.000   1.1315   0.12083   0.11363  -0.0551  0.0421  1.0000  -3.3855   0.0000   0.0000   0.0000   0.2776
  15.100   1.1233   0.12417   0.11703  -0.0572  0.0420  1.0000  -3.3357   0.0000   0.0000   0.0000   0.2797
  15.200   1.1143   0.12776   0.12068  -0.0595  0.0417  1.0000  -3.2796   0.0000   0.0000   0.0000   0.2821
  15.300   1.1059   0.13135   0.12431  -0.0618  0.0415  1.0000  -3.2217   0.0000   0.0000   0.0000   0.2846
  15.400   1.0982   0.13490   0.12792  -0.0640  0.0414  1.0000  -3.1627   0.0000   0.0000   0.0000   0.2868
  15.500   1.0909   0.13843   0.13150  -0.0661  0.0414  1.0000  -3.1012   0.0000   0.0000   0.0000   0.2891
  15.600   1.0837   0.14193   0.13504  -0.0682  0.0414  1.0000  -3.0365   0.0000   0.0000   0.0000   0.2914
  15.700   1.0768   0.14546   0.13861  -0.0703  0.0415  1.0000  -2.9681   0.0000   0.0000   0.0000   0.2938
  15.800   1.0699   0.14912   0.14231  -0.0724  0.0415  1.0000  -2.8948   0.0000   0.0000   0.0000   0.2962
  15.900   1.0630   0.15307   0.14629  -0.0746  0.0416  1.0000  -2.8142   0.0000   0.0000   0.0000   0.2988
  16.000   1.0569   0.15693   0.15018  -0.0767  0.0418  1.0000  -2.7351   0.0000   0.0000   0.0000   0.3012
  16.100   1.0513   0.16081   0.15408  -0.0787  0.0421  1.0000  -2.6549   0.0000   0.0000   0.0000   0.3035
  16.200   1.0464   0.16461   0.15790  -0.0806  0.0425  1.0000  -2.5774   0.0000   0.0000   0.0000   0.3057
  16.300   1.0422   0.16826   0.16156  -0.0823  0.0430  1.0000  -2.5053   0.0000   0.0000   0.0000   0.3077
  16.400   1.0385   0.17175   0.16507  -0.0839  0.0435  1.0000  -2.4392   0.0000   0.0000   0.0000   0.3095
  16.500   1.0354   0.17513   0.16845  -0.0854  0.0442  1.0000  -2.3786   0.0000   0.0000   0.0000   0.3112
  16.600   1.0327   0.17840   0.17172  -0.0868  0.0449  1.0000  -2.3228   0.0000   0.0000   0.0000   0.3127
  16.700   1.0304   0.18158   0.17491  -0.0882  0.0457  1.0000  -2.2713   0.0000   0.0000   0.0000   0.3142
  16.800   1.0284   0.18473   0.17806  -0.0895  0.0466  1.0000  -2.2230   0.0000   0.0000   0.0000   0.3155
  16.900   1.0266   0.18791   0.18126  -0.0907  0.0477  1.0000  -2.1760   0.0000   0.0000   0.0000   0.3168
  17.000   1.0244   0.19153   0.18488  -0.0919  0.0491  1.0000  -2.1212   0.0000   0.0000   0.0000   0.3181
  17.100   1.0295   0.19496   0.18840  -0.0928  0.0565  1.0000  -2.0375   0.0000   0.0000   0.0000   0.3187
  17.200   1.0228   0.19978   0.19324  -0.0953  0.0587  1.0000  -1.9150   0.0000   0.0000   0.0000   0.3218
  17.300   1.0179   0.20419   0.19767  -0.0974  0.0618  1.0000  -1.8130   0.0000   0.0000   0.0000   0.3244
  17.400   1.0172   0.20820   0.20169  -0.0987  0.0677  1.0000  -1.7482   0.0000   0.0000   0.0000   0.3257
  18.300   1.0470   0.24383   0.23752  -0.1053  0.1039  1.0000  -1.5897   0.0000   0.0000   0.0000   0.3286
  18.400   1.0349   0.26102   0.25468  -0.1097  0.1002  1.0000  -1.4670   0.0000   0.0000   0.0000   0.3341
  18.500   1.0362   0.26338   0.25705  -0.1105  0.1002  1.0000  -1.4619   0.0000   0.0000   0.0000   0.3345
  18.600   1.0375   0.26567   0.25934  -0.1113  0.1001  1.0000  -1.4570   0.0000   0.0000   0.0000   0.3350
  18.700   1.0387   0.26786   0.26153  -0.1121  0.1000  1.0000  -1.4522   0.0000   0.0000   0.0000   0.3355
  18.800   1.0399   0.26995   0.26362  -0.1129  0.1000  1.0000  -1.4476   0.0000   0.0000   0.0000   0.3360
  18.900   1.0410   0.27190   0.26557  -0.1137  0.0999  1.0000  -1.4432   0.0000   0.0000   0.0000   0.3365
  19.000   1.0420   0.27369   0.26736  -0.1145  0.0998  1.0000  -1.4390   0.0000   0.0000   0.0000   0.3370
  19.100   1.0430   0.27527   0.26895  -0.1152  0.0996  1.0000  -1.4351   0.0000   0.0000   0.0000   0.3375
  19.200   1.0438   0.27661   0.27029  -0.1160  0.0994  1.0000  -1.4314   0.0000   0.0000   0.0000   0.3379
  19.300   1.0445   0.27760   0.27128  -0.1167  0.0991  1.0000  -1.4281   0.0000   0.0000   0.0000   0.3384
  19.400   1.0450   0.27808   0.27175  -0.1174  0.0987  1.0000  -1.4250   0.0000   0.0000   0.0000   0.3389
  19.500   1.0452   0.27785   0.27153  -0.1181  0.0981  1.0000  -1.4217   0.0000   0.0000   0.0000   0.3393
  19.600   1.0430   0.27643   0.27010  -0.1190  0.0971  1.0000  -1.4101   0.0000   0.0000   0.0000   0.3402
  19.700   1.0394   0.27457   0.26823  -0.1200  0.0957  1.0000  -1.3906   0.0000   0.0000   0.0000   0.3414
  19.800   1.0369   0.27375   0.26741  -0.1211  0.0939  1.0000  -1.3725   0.0000   0.0000   0.0000   0.3426
  19.900   1.0361   0.27424   0.26790  -0.1221  0.0921  1.0000  -1.3599   0.0000   0.0000   0.0000   0.3435
  20.000   1.0364   0.27555   0.26922  -0.1230  0.0903  1.0000  -1.3526   0.0000   0.0000   0.0000   0.3441
  20.100   1.0375   0.27729   0.27096  -0.1239  0.0887  1.0000  -1.3495   0.0000   0.0000   0.0000   0.3447
  20.200   1.0389   0.27926   0.27293  -0.1247  0.0872  1.0000  -1.3496   0.0000   0.0000   0.0000   0.3451
  20.300   1.0408   0.28137   0.27504  -0.1254  0.0858  1.0000  -1.3524   0.0000   0.0000   0.0000   0.3454
  20.400   1.0429   0.28358   0.27726  -0.1261  0.0845  1.0000  -1.3578   0.0000   0.0000   0.0000   0.3456
  20.500   1.0453   0.28589   0.27957  -0.1268  0.0833  1.0000  -1.3660   0.0000   0.0000   0.0000   0.3458
  20.600   1.0482   0.28830   0.28199  -0.1274  0.0821  1.0000  -1.3775   0.0000   0.0000   0.0000   0.3458
  20.700   1.0515   0.29087   0.28456  -0.1279  0.0810  1.0000  -1.3931   0.0000   0.0000   0.0000   0.3457
  20.800   1.0556   0.29368   0.28738  -0.1284  0.0799  1.0000  -1.4145   0.0000   0.0000   0.0000   0.3454
  20.900   1.0610   0.29699   0.29070  -0.1287  0.0789  1.0000  -1.4454   0.0000   0.0000   0.0000   0.3448
  21.000   1.0701   0.30180   0.29552  -0.1285  0.0777  1.0000  -1.4984   0.0000   0.0000   0.0000   0.3434
  21.100   1.0907   0.32117   0.31488  -0.1283  0.0753  1.0000  -1.5749   0.0000   0.0000   0.0000   0.3407
  21.200   1.0904   0.32308   0.31680  -0.1295  0.0752  1.0000  -1.5615   0.0000   0.0000   0.0000   0.3416
  21.300   1.0898   0.32483   0.31856  -0.1307  0.0751  1.0000  -1.5460   0.0000   0.0000   0.0000   0.3427
  21.400   1.0874   0.32618   0.31993  -0.1322  0.0750  1.0000  -1.5218   0.0000   0.0000   0.0000   0.3441
  21.500   1.0847   0.32741   0.32117  -0.1338  0.0748  1.0000  -1.4953   0.0000   0.0000   0.0000   0.3457
  21.600   1.0798   0.32803   0.32180  -0.1359  0.0745  1.0000  -1.4573   0.0000   0.0000   0.0000   0.3480
  21.700   1.0740   0.32842   0.32222  -0.1382  0.0739  1.0000  -1.4115   0.0000   0.0000   0.0000   0.3506
  21.800   1.0686   0.32902   0.32285  -0.1406  0.0730  1.0000  -1.3624   0.0000   0.0000   0.0000   0.3534
  21.900   1.0650   0.33090   0.32476  -0.1431  0.0711  1.0000  -1.3190   0.0000   0.0000   0.0000   0.3560
  22.300   0.9841   0.33901   0.33475  -0.1939  0.0384  1.0000  -0.8048   0.0000   0.0000   0.0000   0.4171
  22.400   0.9843   0.34007   0.33582  -0.1945  0.0369  1.0000  -0.8063   0.0000   0.0000   0.0000   0.4175
  22.500   0.9845   0.34108   0.33684  -0.1951  0.0354  1.0000  -0.8097   0.0000   0.0000   0.0000   0.4178
  22.600   0.9847   0.34204   0.33781  -0.1956  0.0341  1.0000  -0.8154   0.0000   0.0000   0.0000   0.4181
  22.700   0.9850   0.34294   0.33872  -0.1961  0.0328  1.0000  -0.8236   0.0000   0.0000   0.0000   0.4183
  22.800   0.9853   0.34377   0.33956  -0.1965  0.0316  1.0000  -0.8352   0.0000   0.0000   0.0000   0.4184
  22.900   0.9857   0.34451   0.34030  -0.1969  0.0305  1.0000  -0.8513   0.0000   0.0000   0.0000   0.4184
  23.000   0.9863   0.34512   0.34092  -0.1971  0.0294  1.0000  -0.8740   0.0000   0.0000   0.0000   0.4183
  23.100   0.9873   0.34562   0.34141  -0.1972  0.0283  1.0000  -0.9076   0.0000   0.0000   0.0000   0.4178
  23.200   0.9898   0.34651   0.34230  -0.1966  0.0270  1.0000  -0.9696   0.0000   0.0000   0.0000   0.4164
  23.300   0.9891   0.35360   0.34936  -0.1967  0.0254  1.0000  -0.9234   0.0000   0.0000   0.0000   0.4165
  23.400   0.9884   0.35424   0.35001  -0.1974  0.0254  1.0000  -0.9142   0.0000   0.0000   0.0000   0.4171
  23.500   0.9878   0.35483   0.35061  -0.1981  0.0253  1.0000  -0.9052   0.0000   0.0000   0.0000   0.4178
  23.600   0.9870   0.35536   0.35116  -0.1988  0.0252  1.0000  -0.8961   0.0000   0.0000   0.0000   0.4184
  23.700   0.9864   0.35587   0.35167  -0.1995  0.0251  1.0000  -0.8875   0.0000   0.0000   0.0000   0.4190
  23.800   0.9857   0.35632   0.35213  -0.2002  0.0249  1.0000  -0.8782   0.0000   0.0000   0.0000   0.4197
  23.900   0.9846   0.35672   0.35255  -0.2011  0.0247  1.0000  -0.8629   0.0000   0.0000   0.0000   0.4206
  24.000   0.9839   0.35734   0.35318  -0.2021  0.0244  1.0000  -0.8470   0.0000   0.0000   0.0000   0.4215
  24.100   0.9837   0.35831   0.35416  -0.2030  0.0239  1.0000  -0.8307   0.0000   0.0000   0.0000   0.4223
  24.200   0.9840   0.35960   0.35547  -0.2039  0.0233  1.0000  -0.8150   0.0000   0.0000   0.0000   0.4229
  24.300   0.9845   0.36103   0.35691  -0.2047  0.0227  1.0000  -0.8021   0.0000   0.0000   0.0000   0.4234
  25.600   0.9822   0.38143   0.37753  -0.2108  0.0482  1.0000  -0.6460   0.0000   0.0000   0.0000   0.4274
  25.700   0.9827   0.38245   0.37856  -0.2117  0.0469  1.0000  -0.6355   0.0000   0.0000   0.0000   0.4280
  25.800   0.9834   0.38369   0.37982  -0.2124  0.0446  1.0000  -0.6303   0.0000   0.0000   0.0000   0.4283
  25.900   0.9838   0.38485   0.38098  -0.2130  0.0418  1.0000  -0.6303   0.0000   0.0000   0.0000   0.4285
  26.000   0.9840   0.38588   0.38201  -0.2134  0.0390  1.0000  -0.6340   0.0000   0.0000   0.0000   0.4286
  26.100   0.9842   0.38680   0.38294  -0.2138  0.0364  1.0000  -0.6409   0.0000   0.0000   0.0000   0.4287
  26.200   0.9844   0.38759   0.38374  -0.2141  0.0340  1.0000  -0.6523   0.0000   0.0000   0.0000   0.4287
  26.300   0.9846   0.38822   0.38437  -0.2143  0.0318  1.0000  -0.6698   0.0000   0.0000   0.0000   0.4285
  26.400   0.9849   0.38856   0.38471  -0.2144  0.0298  1.0000  -0.6985   0.0000   0.0000   0.0000   0.4282
  26.500   0.9863   0.38848   0.38462  -0.2134  0.0273  1.0000  -0.7738   0.0000   0.0000   0.0000   0.4265
  27.000   0.9847   0.39536   0.39158  -0.2173  0.0206  1.0000  -0.6926   0.0000   0.0000   0.0000   0.4295
  27.100   0.9850   0.39652   0.39276  -0.2177  0.0191  1.0000  -0.6964   0.0000   0.0000   0.0000   0.4296
  27.200   0.9851   0.39757   0.39382  -0.2181  0.0180  1.0000  -0.7038   0.0000   0.0000   0.0000   0.4297
  27.300   0.9851   0.39852   0.39479  -0.2185  0.0170  1.0000  -0.7149   0.0000   0.0000   0.0000   0.4297
  27.400   0.9850   0.39937   0.39564  -0.2188  0.0161  1.0000  -0.7308   0.0000   0.0000   0.0000   0.4297
  27.500   0.9849   0.40004   0.39631  -0.2190  0.0153  1.0000  -0.7535   0.0000   0.0000   0.0000   0.4297
  27.600   0.9847   0.40045   0.39673  -0.2191  0.0146  1.0000  -0.7870   0.0000   0.0000   0.0000   0.4295
  27.700   0.9846   0.40052   0.39679  -0.2187  0.0138  1.0000  -0.8454   0.0000   0.0000   0.0000   0.4287
  27.800   0.9858   0.40458   0.40077  -0.2176  0.0130  1.0000  -0.8592   0.0000   0.0000   0.0000   0.4270
  27.900   0.9852   0.40555   0.40176  -0.2181  0.0130  1.0000  -0.8482   0.0000   0.0000   0.0000   0.4274
  28.000   0.9845   0.40656   0.40277  -0.2186  0.0129  1.0000  -0.8377   0.0000   0.0000   0.0000   0.4278
  28.100   0.9840   0.40759   0.40382  -0.2190  0.0129  1.0000  -0.8277   0.0000   0.0000   0.0000   0.4281
  28.200   0.9834   0.40864   0.40488  -0.2195  0.0129  1.0000  -0.8183   0.0000   0.0000   0.0000   0.4284
  28.300   0.9829   0.40971   0.40597  -0.2200  0.0128  1.0000  -0.8092   0.0000   0.0000   0.0000   0.4287
  28.400   0.9823   0.41079   0.40705  -0.2205  0.0128  1.0000  -0.7988   0.0000   0.0000   0.0000   0.4291
  28.500   0.9818   0.41188   0.40816  -0.2210  0.0128  1.0000  -0.7888   0.0000   0.0000   0.0000   0.4294
  28.600   0.9813   0.41300   0.40929  -0.2215  0.0127  1.0000  -0.7793   0.0000   0.0000   0.0000   0.4298
  28.700   0.9808   0.41414   0.41044  -0.2220  0.0127  1.0000  -0.7704   0.0000   0.0000   0.0000   0.4301
  28.800   0.9804   0.41530   0.41161  -0.2224  0.0127  1.0000  -0.7619   0.0000   0.0000   0.0000   0.4303
  28.900   0.9800   0.41648   0.41280  -0.2229  0.0127  1.0000  -0.7539   0.0000   0.0000   0.0000   0.4306
  29.000   0.9797   0.41766   0.41399  -0.2233  0.0126  1.0000  -0.7463   0.0000   0.0000   0.0000   0.4309
  29.100   0.9793   0.41886   0.41520  -0.2238  0.0126  1.0000  -0.7390   0.0000   0.0000   0.0000   0.4311
  29.200   0.9790   0.42007   0.41642  -0.2242  0.0126  1.0000  -0.7321   0.0000   0.0000   0.0000   0.4313
  29.300   0.9787   0.42129   0.41765  -0.2247  0.0125  1.0000  -0.7255   0.0000   0.0000   0.0000   0.4315
  29.400   0.9784   0.42251   0.41888  -0.2251  0.0125  1.0000  -0.7192   0.0000   0.0000   0.0000   0.4317
  29.500   0.9781   0.42374   0.42012  -0.2255  0.0125  1.0000  -0.7132   0.0000   0.0000   0.0000   0.4319
  29.600   0.9779   0.42497   0.42137  -0.2260  0.0124  1.0000  -0.7075   0.0000   0.0000   0.0000   0.4321
  29.700   0.9776   0.42621   0.42261  -0.2264  0.0124  1.0000  -0.7020   0.0000   0.0000   0.0000   0.4323
  29.800   0.9773   0.42745   0.42386  -0.2268  0.0124  1.0000  -0.6968   0.0000   0.0000   0.0000   0.4325
  29.900   0.9771   0.42869   0.42512  -0.2272  0.0123  1.0000  -0.6918   0.0000   0.0000   0.0000   0.4326
  30.000   0.9769   0.42993   0.42637  -0.2276  0.0123  1.0000  -0.6870   0.0000   0.0000   0.0000   0.4328


