xflr5 v6.61

 Calculated polar for: GOE 398 AIRFOIL

 1 1 Reynolds number fixed          Mach number fixed         

 xtrf =   1.000 (top)        1.000 (bottom)
 Mach =   0.000     Re =     0.719 e 6     Ncrit =   9.000

  alpha     CL        CD       CDp       Cm    Top Xtr Bot Xtr   Cpmin    Chinge    XCp    
 ------- -------- --------- --------- -------- ------- ------- -------- --------- ---------
 -10.000  -0.4304   0.01938   0.01499  -0.1117  0.9015  0.0137  -5.1879   0.0000   0.0000   0.0000  -0.0281
  -9.900  -0.4324   0.01836   0.01379  -0.1098  0.8977  0.0137  -5.1771   0.0000   0.0000   0.0000  -0.0221
  -9.800  -0.4333   0.01747   0.01276  -0.1079  0.8943  0.0137  -5.1581   0.0000   0.0000   0.0000  -0.0168
  -9.700  -0.4325   0.01664   0.01178  -0.1062  0.8903  0.0137  -5.1295   0.0000   0.0000   0.0000  -0.0133
  -9.600  -0.4301   0.01588   0.01088  -0.1048  0.8859  0.0137  -5.0922   0.0000   0.0000   0.0000  -0.0113
  -9.500  -0.3660   0.02237   0.01843  -0.1124  0.8897  0.0251  -4.5274   0.0000   0.0000   0.0000  -0.0763
  -9.400  -0.3445   0.02363   0.01983  -0.1138  0.8874  0.0254  -4.3307   0.0000   0.0000   0.0000  -0.1000
  -9.300  -0.2162   0.03338   0.03043  -0.1267  0.8982  0.0264  -3.3960   0.0000   0.0000   0.0000  -0.3649
  -9.200  -0.2326   0.03185   0.02878  -0.1239  0.8923  0.0265  -3.4651   0.0000   0.0000   0.0000  -0.3093
  -9.100  -0.2527   0.02971   0.02645  -0.1208  0.8846  0.0267  -3.5670   0.0000   0.0000   0.0000  -0.2522
  -9.000  -0.2738   0.02713   0.02361  -0.1173  0.8757  0.0270  -3.6846   0.0000   0.0000   0.0000  -0.2009
  -8.900  -0.2913   0.02453   0.02072  -0.1141  0.8669  0.0276  -3.7861   0.0000   0.0000   0.0000  -0.1628
  -8.800  -0.3007   0.02249   0.01841  -0.1117  0.8592  0.0283  -3.8358   0.0000   0.0000   0.0000  -0.1417
  -8.700  -0.3029   0.02111   0.01684  -0.1101  0.8522  0.0290  -3.8345   0.0000   0.0000   0.0000  -0.1333
  -8.600  -0.3007   0.02019   0.01578  -0.1089  0.8455  0.0297  -3.8009   0.0000   0.0000   0.0000  -0.1321
  -8.500  -0.2960   0.01955   0.01504  -0.1082  0.8385  0.0304  -3.7481   0.0000   0.0000   0.0000  -0.1352
  -8.400  -0.2895   0.01909   0.01451  -0.1076  0.8314  0.0310  -3.6830   0.0000   0.0000   0.0000  -0.1417
  -8.300  -0.2817   0.01875   0.01412  -0.1073  0.8244  0.0316  -3.6094   0.0000   0.0000   0.0000  -0.1509
  -8.200  -0.2731   0.01851   0.01383  -0.1071  0.8180  0.0321  -3.5300   0.0000   0.0000   0.0000  -0.1624
  -8.100  -0.2640   0.01832   0.01362  -0.1069  0.8121  0.0327  -3.4473   0.0000   0.0000   0.0000  -0.1758
  -8.000  -0.2546   0.01818   0.01346  -0.1068  0.8066  0.0332  -3.3629   0.0000   0.0000   0.0000  -0.1908
  -7.900  -0.2450   0.01807   0.01334  -0.1068  0.8015  0.0336  -3.2782   0.0000   0.0000   0.0000  -0.2072
  -7.800  -0.2361   0.01794   0.01321  -0.1065  0.7997  0.0341  -3.1963   0.0000   0.0000   0.0000  -0.2232
  -7.700  -0.2274   0.01781   0.01307  -0.1062  0.7994  0.0345  -3.1165   0.0000   0.0000   0.0000  -0.2396
  -7.600  -0.2187   0.01766   0.01291  -0.1059  0.7989  0.0349  -3.0382   0.0000   0.0000   0.0000  -0.2571
  -7.500  -0.2101   0.01749   0.01272  -0.1056  0.7985  0.0352  -2.9615   0.0000   0.0000   0.0000  -0.2760
  -7.400  -0.2015   0.01730   0.01252  -0.1053  0.7979  0.0356  -2.8977   0.0000   0.0000   0.0000  -0.2961
  -7.300  -0.1930   0.01710   0.01229  -0.1049  0.7972  0.0359  -2.8554   0.0000   0.0000   0.0000  -0.3179
  -7.200  -0.1845   0.01687   0.01204  -0.1045  0.7964  0.0362  -2.8150   0.0000   0.0000   0.0000  -0.3415
  -7.100  -0.1761   0.01662   0.01176  -0.1042  0.7955  0.0364  -2.7764   0.0000   0.0000   0.0000  -0.3673
  -7.000  -0.1676   0.01636   0.01147  -0.1038  0.7945  0.0367  -2.7393   0.0000   0.0000   0.0000  -0.3956
  -6.900  -0.1591   0.01609   0.01117  -0.1034  0.7933  0.0369  -2.7036   0.0000   0.0000   0.0000  -0.4270
  -6.800  -0.1506   0.01581   0.01085  -0.1030  0.7918  0.0370  -2.6690   0.0000   0.0000   0.0000  -0.4621
  -6.700  -0.1421   0.01553   0.01052  -0.1026  0.7902  0.0372  -2.6354   0.0000   0.0000   0.0000  -0.5016
  -6.600  -0.1335   0.01524   0.01019  -0.1022  0.7883  0.0373  -2.6026   0.0000   0.0000   0.0000  -0.5467
  -6.500  -0.1247   0.01494   0.00985  -0.1018  0.7861  0.0375  -2.5705   0.0000   0.0000   0.0000  -0.5987
  -6.400  -0.1159   0.01465   0.00951  -0.1015  0.7836  0.0375  -2.5390   0.0000   0.0000   0.0000  -0.6594
  -6.300  -0.1070   0.01436   0.00917  -0.1011  0.7807  0.0376  -2.5079   0.0000   0.0000   0.0000  -0.7310
  -6.200  -0.0980   0.01407   0.00883  -0.1008  0.7776  0.0377  -2.4771   0.0000   0.0000   0.0000  -0.8170
  -6.100  -0.0889   0.01378   0.00849  -0.1004  0.7741  0.0377  -2.4465   0.0000   0.0000   0.0000  -0.9220
  -6.000  -0.0797   0.01350   0.00815  -0.1001  0.7703  0.0377  -2.4162   0.0000   0.0000   0.0000  -1.0528
  -5.900  -0.0703   0.01323   0.00782  -0.0998  0.7663  0.0377  -2.3858   0.0000   0.0000   0.0000  -1.2201
  -5.800  -0.0607   0.01305   0.00759  -0.0996  0.7621  0.0380  -2.3483   0.0000   0.0000   0.0000  -1.4485
  -5.700  -0.0508   0.01294   0.00745  -0.0994  0.7575  0.0384  -2.3042   0.0000   0.0000   0.0000  -1.7744
  -5.600  -0.0409   0.01287   0.00735  -0.0993  0.7528  0.0390  -2.2585   0.0000   0.0000   0.0000  -2.2616
  -5.500  -0.0310   0.01279   0.00722  -0.0991  0.7477  0.0395  -2.2144   0.0000   0.0000   0.0000  -3.0518
  -5.400  -0.0214   0.01266   0.00705  -0.0989  0.7422  0.0399  -2.1750   0.0000   0.0000   0.0000  -4.5329
  -5.300  -0.0119   0.01245   0.00677  -0.0986  0.7361  0.0400  -2.1441   0.0000   0.0000   0.0000  -8.2858
  -5.200  -0.0026   0.01216   0.00640  -0.0983  0.7298  0.0397  -2.1210   0.0000   0.0000   0.0000  -38.8339
  -5.100   0.0070   0.01189   0.00606  -0.0980  0.7234  0.0394  -2.0968   0.0000   0.0000   0.0000  14.6923
  -5.000   0.0168   0.01164   0.00575  -0.0978  0.7172  0.0392  -2.0715   0.0000   0.0000   0.0000   6.2458
  -4.900   0.0268   0.01141   0.00546  -0.0976  0.7114  0.0389  -2.0452   0.0000   0.0000   0.0000   4.0033
  -4.800   0.0368   0.01121   0.00521  -0.0975  0.7059  0.0387  -2.0179   0.0000   0.0000   0.0000   2.9715
  -4.700   0.0469   0.01102   0.00498  -0.0973  0.7007  0.0385  -1.9899   0.0000   0.0000   0.0000   2.3813
  -4.600   0.0566   0.01083   0.00475  -0.0970  0.6997  0.0383  -1.9617   0.0000   0.0000   0.0000   2.0112
  -4.500   0.0663   0.01065   0.00454  -0.0968  0.6994  0.0381  -1.9327   0.0000   0.0000   0.0000   1.7496
  -4.400   0.0760   0.01049   0.00435  -0.0965  0.6990  0.0379  -1.9026   0.0000   0.0000   0.0000   1.5536
  -4.300   0.0857   0.01034   0.00418  -0.0963  0.6986  0.0377  -1.8717   0.0000   0.0000   0.0000   1.4014
  -4.200   0.0956   0.01021   0.00402  -0.0960  0.6981  0.0376  -1.8399   0.0000   0.0000   0.0000   1.2799
  -4.100   0.1054   0.01008   0.00387  -0.0958  0.6975  0.0375  -1.8075   0.0000   0.0000   0.0000   1.1807
  -4.000   0.1153   0.00997   0.00374  -0.0956  0.6969  0.0373  -1.7745   0.0000   0.0000   0.0000   1.0982
  -3.900   0.1253   0.00986   0.00361  -0.0954  0.6961  0.0372  -1.7410   0.0000   0.0000   0.0000   1.0286
  -3.800   0.1353   0.00976   0.00349  -0.0952  0.6953  0.0371  -1.7071   0.0000   0.0000   0.0000   0.9690
  -3.700   0.1454   0.00967   0.00338  -0.0950  0.6943  0.0370  -1.6730   0.0000   0.0000   0.0000   0.9175
  -3.600   0.1554   0.00958   0.00327  -0.0948  0.6929  0.0369  -1.6386   0.0000   0.0000   0.0000   0.8727
  -3.500   0.1655   0.00950   0.00317  -0.0946  0.6911  0.0368  -1.6042   0.0000   0.0000   0.0000   0.8333
  -3.400   0.1755   0.00943   0.00307  -0.0944  0.6887  0.0368  -1.5697   0.0000   0.0000   0.0000   0.7984
  -3.300   0.1856   0.00936   0.00297  -0.0942  0.6854  0.0367  -1.5353   0.0000   0.0000   0.0000   0.7672
  -3.200   0.1956   0.00931   0.00287  -0.0940  0.6812  0.0367  -1.5009   0.0000   0.0000   0.0000   0.7393
  -3.100   0.2056   0.00926   0.00278  -0.0938  0.6757  0.0366  -1.4667   0.0000   0.0000   0.0000   0.7140
  -3.000   0.2156   0.00922   0.00268  -0.0936  0.6689  0.0367  -1.4328   0.0000   0.0000   0.0000   0.6912
  -2.900   0.2252   0.00920   0.00259  -0.0933  0.6606  0.0367  -1.3996   0.0000   0.0000   0.0000   0.6707
  -2.800   0.2343   0.00920   0.00250  -0.0928  0.6508  0.0367  -1.3675   0.0000   0.0000   0.0000   0.6523
  -2.700   0.2426   0.00921   0.00241  -0.0923  0.6390  0.0368  -1.3370   0.0000   0.0000   0.0000   0.6358
  -2.600   0.2510   0.00923   0.00234  -0.0917  0.6250  0.0370  -1.3069   0.0000   0.0000   0.0000   0.6204
  -2.500   0.2603   0.00923   0.00228  -0.0914  0.6108  0.0373  -1.2758   0.0000   0.0000   0.0000   0.6055
  -2.400   0.2705   0.00922   0.00222  -0.0912  0.5998  0.0377  -1.2445   0.0000   0.0000   0.0000   0.5912
  -2.300   0.2808   0.00917   0.00216  -0.0910  0.5988  0.0386  -1.2149   0.0000   0.0000   0.0000   0.5779
  -2.200   0.2909   0.00910   0.00208  -0.0908  0.5974  0.0417  -1.1924   0.0000   0.0000   0.0000   0.5655
  -2.100   0.3006   0.00898   0.00204  -0.0905  0.5955  0.0500  -1.1723   0.0000   0.0000   0.0000   0.5541
  -2.000   0.3102   0.00888   0.00201  -0.0903  0.5932  0.0662  -1.1394   0.0000   0.0000   0.0000   0.5438
  -1.900   0.3201   0.00882   0.00199  -0.0901  0.5904  0.0750  -1.1043   0.0000   0.0000   0.0000   0.5339
  -1.800   0.3301   0.00878   0.00197  -0.0900  0.5873  0.0822  -1.0690   0.0000   0.0000   0.0000   0.5246
  -1.700   0.3398   0.00871   0.00195  -0.0898  0.5838  0.0901  -1.0340   0.0000   0.0000   0.0000   0.5159
  -1.600   0.3495   0.00867   0.00193  -0.0896  0.5795  0.0970  -0.9989   0.0000   0.0000   0.0000   0.5077
  -1.500   0.3593   0.00866   0.00191  -0.0894  0.5738  0.1040  -0.9639   0.0000   0.0000   0.0000   0.4999
  -1.400   0.3684   0.00866   0.00191  -0.0890  0.5653  0.1165  -0.9302   0.0000   0.0000   0.0000   0.4926
  -1.300   0.3762   0.00867   0.00191  -0.0884  0.5521  0.1269  -0.8989   0.0000   0.0000   0.0000   0.4857
  -1.200   0.3817   0.00874   0.00190  -0.0873  0.5325  0.1350  -0.8714   0.0000   0.0000   0.0000   0.4792
  -1.000   0.3949   0.00884   0.00189  -0.0856  0.4963  0.1473  -0.8234   0.0000   0.0000   0.0000   0.4667
  -0.900   0.4037   0.00885   0.00188  -0.0852  0.4899  0.1546  -0.8330   0.0000   0.0000   0.0000   0.4608
  -0.800   0.4119   0.00882   0.00189  -0.0847  0.4832  0.1684  -0.8423   0.0000   0.0000   0.0000   0.4552
  -0.700   0.4201   0.00882   0.00190  -0.0842  0.4762  0.1790  -0.8515   0.0000   0.0000   0.0000   0.4498
  -0.600   0.4281   0.00885   0.00192  -0.0836  0.4688  0.1856  -0.8607   0.0000   0.0000   0.0000   0.4446
  -0.500   0.4360   0.00890   0.00193  -0.0830  0.4613  0.1894  -0.8697   0.0000   0.0000   0.0000   0.4395
  -0.400   0.4437   0.00897   0.00194  -0.0824  0.4537  0.1921  -0.8801   0.0000   0.0000   0.0000   0.4346
  -0.300   0.4515   0.00902   0.00195  -0.0818  0.4458  0.1941  -0.8912   0.0000   0.0000   0.0000   0.4299
  -0.200   0.4597   0.00907   0.00196  -0.0812  0.4375  0.1957  -0.9025   0.0000   0.0000   0.0000   0.4253
  -0.100   0.4682   0.00911   0.00197  -0.0807  0.4290  0.1971  -0.9141   0.0000   0.0000   0.0000   0.4209
   0.000   0.4769   0.00915   0.00198  -0.0803  0.4206  0.1982  -0.9259   0.0000   0.0000   0.0000   0.4167
   0.100   0.4859   0.00917   0.00199  -0.0799  0.4133  0.1992  -0.9379   0.0000   0.0000   0.0000   0.4126
   0.200   0.4951   0.00920   0.00200  -0.0796  0.4072  0.2001  -0.9500   0.0000   0.0000   0.0000   0.4087
   0.300   0.5044   0.00921   0.00201  -0.0793  0.4023  0.2008  -0.9623   0.0000   0.0000   0.0000   0.4050
   0.400   0.5141   0.00922   0.00202  -0.0790  0.3998  0.2031  -0.9749   0.0000   0.0000   0.0000   0.4014
   0.500   0.5240   0.00923   0.00203  -0.0788  0.3994  0.2091  -0.9877   0.0000   0.0000   0.0000   0.3980
   0.600   0.5339   0.00924   0.00204  -0.0786  0.3989  0.2161  -1.0005   0.0000   0.0000   0.0000   0.3947
   0.700   0.5437   0.00924   0.00205  -0.0784  0.3983  0.2225  -1.0133   0.0000   0.0000   0.0000   0.3915
   0.800   0.5535   0.00925   0.00207  -0.0782  0.3975  0.2278  -1.0261   0.0000   0.0000   0.0000   0.3884
   0.900   0.5632   0.00926   0.00208  -0.0780  0.3967  0.2329  -1.0389   0.0000   0.0000   0.0000   0.3855
   1.000   0.5729   0.00927   0.00210  -0.0777  0.3960  0.2378  -1.0517   0.0000   0.0000   0.0000   0.3826
   1.100   0.5825   0.00927   0.00211  -0.0775  0.3954  0.2430  -1.0644   0.0000   0.0000   0.0000   0.3798
   1.200   0.5921   0.00927   0.00213  -0.0773  0.3947  0.2477  -1.0772   0.0000   0.0000   0.0000   0.3771
   1.300   0.6016   0.00927   0.00215  -0.0770  0.3941  0.2528  -1.0899   0.0000   0.0000   0.0000   0.3744
   1.400   0.6110   0.00926   0.00217  -0.0767  0.3934  0.2594  -1.1026   0.0000   0.0000   0.0000   0.3719
   1.500   0.6203   0.00926   0.00219  -0.0764  0.3926  0.2668  -1.1153   0.0000   0.0000   0.0000   0.3694
   1.600   0.6296   0.00925   0.00222  -0.0761  0.3918  0.2747  -1.1279   0.0000   0.0000   0.0000   0.3669
   1.700   0.6388   0.00924   0.00225  -0.0758  0.3910  0.2828  -1.1405   0.0000   0.0000   0.0000   0.3646
   1.800   0.6479   0.00923   0.00228  -0.0754  0.3901  0.2909  -1.1531   0.0000   0.0000   0.0000   0.3623
   1.900   0.6570   0.00923   0.00230  -0.0751  0.3891  0.2987  -1.1657   0.0000   0.0000   0.0000   0.3600
   2.000   0.6640   0.00905   0.00234  -0.0744  0.3880  0.3758  -1.1767   0.0000   0.0000   0.0000   0.3576
   2.200   0.6811   0.00906   0.00240  -0.0735  0.3855  0.3926  -1.2012   0.0000   0.0000   0.0000   0.3532
   2.300   0.6883   0.00906   0.00242  -0.0727  0.3841  0.4022  -1.2124   0.0000   0.0000   0.0000   0.3508
   2.400   0.6940   0.00903   0.00246  -0.0716  0.3825  0.4333  -1.2226   0.0000   0.0000   0.0000   0.3483
   2.500   0.6985   0.00894   0.00249  -0.0703  0.3807  0.4694  -1.2318   0.0000   0.0000   0.0000   0.3457
   2.600   0.7040   0.00888   0.00253  -0.0692  0.3784  0.5028  -1.2418   0.0000   0.0000   0.0000   0.3432
   2.700   0.7048   0.00828   0.00258  -0.0671  0.3868  0.6962  -1.2492   0.0000   0.0000   0.0000   0.3400
   2.800   0.7092   0.00809   0.00264  -0.0657  0.3869  0.7764  -1.2614   0.0000   0.0000   0.0000   0.3372
   3.000   0.9175   0.00859   0.00340  -0.1068  0.3797  1.0000  -1.4657   0.0000   0.0000   0.0000   0.3608
   3.100   0.9262   0.00865   0.00344  -0.1064  0.3773  1.0000  -1.4822   0.0000   0.0000   0.0000   0.3591
   3.200   0.9347   0.00871   0.00349  -0.1059  0.3742  1.0000  -1.4985   0.0000   0.0000   0.0000   0.3575
   3.300   0.9428   0.00879   0.00354  -0.1054  0.3701  1.0000  -1.5145   0.0000   0.0000   0.0000   0.3558
   3.400   0.9505   0.00888   0.00360  -0.1047  0.3649  1.0000  -1.5302   0.0000   0.0000   0.0000   0.3541
   3.500   0.9576   0.00898   0.00367  -0.1040  0.3587  1.0000  -1.5453   0.0000   0.0000   0.0000   0.3524
   3.600   0.9644   0.00910   0.00374  -0.1032  0.3524  1.0000  -1.5601   0.0000   0.0000   0.0000   0.3506
   3.700   0.9705   0.00923   0.00381  -0.1023  0.3454  1.0000  -1.5744   0.0000   0.0000   0.0000   0.3489
   3.800   0.9765   0.00936   0.00389  -0.1013  0.3382  1.0000  -1.5884   0.0000   0.0000   0.0000   0.3471
   3.900   0.9823   0.00948   0.00396  -0.1003  0.3305  1.0000  -1.6024   0.0000   0.0000   0.0000   0.3453
   4.000   0.9886   0.00959   0.00404  -0.0994  0.3227  1.0000  -1.6168   0.0000   0.0000   0.0000   0.3437
   4.100   0.9951   0.00969   0.00411  -0.0985  0.3146  1.0000  -1.6314   0.0000   0.0000   0.0000   0.3420
   4.200   1.0006   0.00977   0.00417  -0.0974  0.3071  1.0000  -1.6450   0.0000   0.0000   0.0000   0.3402
   4.300   1.0053   0.00985   0.00424  -0.0961  0.3013  1.0000  -1.6579   0.0000   0.0000   0.0000   0.3383
   4.400   1.0108   0.00991   0.00429  -0.0950  0.2992  1.0000  -1.6717   0.0000   0.0000   0.0000   0.3366
   4.500   1.0170   0.00997   0.00435  -0.0941  0.2979  1.0000  -1.6862   0.0000   0.0000   0.0000   0.3350
   4.600   1.0237   0.01003   0.00441  -0.0932  0.2965  1.0000  -1.7011   0.0000   0.0000   0.0000   0.3334
   4.700   1.0307   0.01010   0.00447  -0.0924  0.2949  1.0000  -1.7164   0.0000   0.0000   0.0000   0.3319
   4.800   1.0379   0.01017   0.00453  -0.0917  0.2932  1.0000  -1.7319   0.0000   0.0000   0.0000   0.3304
   4.900   1.0451   0.01024   0.00459  -0.0910  0.2912  1.0000  -1.7474   0.0000   0.0000   0.0000   0.3290
   5.000   1.0523   0.01032   0.00466  -0.0903  0.2888  1.0000  -1.7629   0.0000   0.0000   0.0000   0.3276
   5.100   1.0594   0.01041   0.00473  -0.0895  0.2860  1.0000  -1.7783   0.0000   0.0000   0.0000   0.3262
   5.200   1.0662   0.01052   0.00481  -0.0888  0.2825  1.0000  -1.7948   0.0000   0.0000   0.0000   0.3248
   5.300   1.0727   0.01064   0.00489  -0.0879  0.2783  1.0000  -1.8267   0.0000   0.0000   0.0000   0.3234
   5.400   1.0790   0.01077   0.00499  -0.0871  0.2734  1.0000  -1.8582   0.0000   0.0000   0.0000   0.3220
   5.500   1.0852   0.01090   0.00508  -0.0862  0.2687  1.0000  -1.8899   0.0000   0.0000   0.0000   0.3206
   5.600   1.0910   0.01105   0.00519  -0.0853  0.2631  1.0000  -1.9208   0.0000   0.0000   0.0000   0.3192
   5.700   1.0967   0.01120   0.00530  -0.0843  0.2576  1.0000  -1.9519   0.0000   0.0000   0.0000   0.3178
   5.800   1.1024   0.01136   0.00541  -0.0834  0.2521  1.0000  -1.9829   0.0000   0.0000   0.0000   0.3164
   5.900   1.1082   0.01151   0.00552  -0.0825  0.2467  1.0000  -2.0143   0.0000   0.0000   0.0000   0.3150
   6.000   1.1143   0.01166   0.00562  -0.0816  0.2410  1.0000  -2.0463   0.0000   0.0000   0.0000   0.3137
   6.100   1.1208   0.01179   0.00572  -0.0809  0.2353  1.0000  -2.0792   0.0000   0.0000   0.0000   0.3124
   6.200   1.1276   0.01192   0.00581  -0.0801  0.2291  1.0000  -2.1129   0.0000   0.0000   0.0000   0.3112
   6.300   1.1347   0.01203   0.00591  -0.0795  0.2231  1.0000  -2.1473   0.0000   0.0000   0.0000   0.3100
   6.400   1.1419   0.01214   0.00600  -0.0788  0.2168  1.0000  -2.1820   0.0000   0.0000   0.0000   0.3089
   6.500   1.1492   0.01224   0.00610  -0.0782  0.2107  1.0000  -2.2171   0.0000   0.0000   0.0000   0.3077
   6.600   1.1565   0.01234   0.00619  -0.0776  0.2054  1.0000  -2.2524   0.0000   0.0000   0.0000   0.3066
   6.700   1.1640   0.01244   0.00629  -0.0769  0.2010  1.0000  -2.2880   0.0000   0.0000   0.0000   0.3055
   6.800   1.1715   0.01253   0.00638  -0.0764  0.1995  1.0000  -2.3240   0.0000   0.0000   0.0000   0.3045
   6.900   1.1788   0.01263   0.00648  -0.0758  0.1984  1.0000  -2.3598   0.0000   0.0000   0.0000   0.3034
   7.000   1.1857   0.01276   0.00659  -0.0751  0.1967  1.0000  -2.3947   0.0000   0.0000   0.0000   0.3023
   7.100   1.1914   0.01292   0.00672  -0.0742  0.1934  1.0000  -2.4276   0.0000   0.0000   0.0000   0.3011
   7.200   1.1957   0.01313   0.00688  -0.0731  0.1885  1.0000  -2.4579   0.0000   0.0000   0.0000   0.2998
   7.300   1.1988   0.01339   0.00708  -0.0718  0.1828  1.0000  -2.4857   0.0000   0.0000   0.0000   0.2984
   7.400   1.2011   0.01368   0.00731  -0.0704  0.1774  1.0000  -2.5118   0.0000   0.0000   0.0000   0.2970
   7.500   1.2011   0.01401   0.00759  -0.0687  0.1720  1.0000  -2.5334   0.0000   0.0000   0.0000   0.2954
   7.600   1.1997   0.01437   0.00790  -0.0667  0.1666  1.0000  -2.5518   0.0000   0.0000   0.0000   0.2936
   7.700   1.1995   0.01472   0.00820  -0.0650  0.1599  1.0000  -2.5729   0.0000   0.0000   0.0000   0.2920
   7.800   1.2012   0.01502   0.00846  -0.0635  0.1523  1.0000  -2.5974   0.0000   0.0000   0.0000   0.2906
   7.900   1.2053   0.01523   0.00866  -0.0625  0.1491  1.0000  -2.6270   0.0000   0.0000   0.0000   0.2894
   8.000   1.2094   0.01544   0.00886  -0.0615  0.1468  1.0000  -2.6564   0.0000   0.0000   0.0000   0.2882
   8.100   1.2124   0.01569   0.00909  -0.0603  0.1435  1.0000  -2.6836   0.0000   0.0000   0.0000   0.2870
   8.200   1.2131   0.01604   0.00939  -0.0588  0.1376  1.0000  -2.7055   0.0000   0.0000   0.0000   0.2856
   8.400   1.1913   0.01777   0.01086  -0.0529  0.0963  1.0000  -2.7009   0.0000   0.0000   0.0000   0.2811
   8.500   1.1821   0.01879   0.01165  -0.0504  0.0733  1.0000  -2.7006   0.0000   0.0000   0.0000   0.2791
   8.600   1.1803   0.01944   0.01222  -0.0488  0.0606  1.0000  -2.7155   0.0000   0.0000   0.0000   0.2777
   8.700   1.1818   0.01992   0.01267  -0.0476  0.0485  1.0000  -2.7349   0.0000   0.0000   0.0000   0.2765
   8.800   1.1774   0.02079   0.01343  -0.0456  0.0376  1.0000  -2.7149   0.0000   0.0000   0.0000   0.2748
   8.900   1.1822   0.02110   0.01376  -0.0449  0.0364  1.0000  -2.7367   0.0000   0.0000   0.0000   0.2738
   9.000   1.1874   0.02138   0.01407  -0.0442  0.0358  1.0000  -2.7628   0.0000   0.0000   0.0000   0.2729
   9.100   1.1926   0.02166   0.01437  -0.0435  0.0355  1.0000  -2.7901   0.0000   0.0000   0.0000   0.2720
   9.200   1.1976   0.02196   0.01469  -0.0428  0.0352  1.0000  -2.8179   0.0000   0.0000   0.0000   0.2711
   9.300   1.2024   0.02226   0.01501  -0.0422  0.0351  1.0000  -2.8458   0.0000   0.0000   0.0000   0.2702
   9.400   1.2070   0.02257   0.01535  -0.0415  0.0349  1.0000  -2.8735   0.0000   0.0000   0.0000   0.2694
   9.500   1.2112   0.02291   0.01571  -0.0407  0.0348  1.0000  -2.9007   0.0000   0.0000   0.0000   0.2685
   9.600   1.2150   0.02327   0.01610  -0.0400  0.0348  1.0000  -2.9272   0.0000   0.0000   0.0000   0.2676
   9.700   1.2165   0.02376   0.01662  -0.0391  0.0347  1.0000  -2.9490   0.0000   0.0000   0.0000   0.2666
   9.800   1.2116   0.02461   0.01752  -0.0376  0.0347  1.0000  -2.9569   0.0000   0.0000   0.0000   0.2653
   9.900   1.2140   0.02508   0.01802  -0.0368  0.0347  1.0000  -2.9805   0.0000   0.0000   0.0000   0.2644
  10.000   1.2175   0.02549   0.01845  -0.0362  0.0346  1.0000  -3.0068   0.0000   0.0000   0.0000   0.2636
  10.100   1.2216   0.02587   0.01886  -0.0355  0.0346  1.0000  -3.0343   0.0000   0.0000   0.0000   0.2628
  10.200   1.2258   0.02625   0.01925  -0.0349  0.0346  1.0000  -3.0624   0.0000   0.0000   0.0000   0.2620
  10.300   1.2303   0.02661   0.01964  -0.0343  0.0346  1.0000  -3.0909   0.0000   0.0000   0.0000   0.2612
  10.400   1.2347   0.02698   0.02002  -0.0337  0.0346  1.0000  -3.1196   0.0000   0.0000   0.0000   0.2604
  10.500   1.2391   0.02735   0.02042  -0.0331  0.0344  1.0000  -3.1483   0.0000   0.0000   0.0000   0.2597
  10.600   1.2433   0.02774   0.02083  -0.0326  0.0341  1.0000  -3.1768   0.0000   0.0000   0.0000   0.2589
  10.700   1.2473   0.02814   0.02125  -0.0320  0.0337  1.0000  -3.2050   0.0000   0.0000   0.0000   0.2582
  10.800   1.2512   0.02856   0.02169  -0.0314  0.0332  1.0000  -3.2328   0.0000   0.0000   0.0000   0.2575
  10.900   1.2548   0.02899   0.02215  -0.0308  0.0327  1.0000  -3.2599   0.0000   0.0000   0.0000   0.2567
  11.000   1.2581   0.02945   0.02263  -0.0302  0.0323  1.0000  -3.2864   0.0000   0.0000   0.0000   0.2560
  11.100   1.2665   0.02947   0.02279  -0.0303  0.0251  1.0000  -3.4886   0.0000   0.0000   0.0000   0.2558
  11.200   1.2727   0.02970   0.02301  -0.0301  0.0240  1.0000  -3.5637   0.0000   0.0000   0.0000   0.2552
  11.300   1.2757   0.03016   0.02347  -0.0296  0.0229  1.0000  -3.6115   0.0000   0.0000   0.0000   0.2546
  11.400   1.2776   0.03071   0.02401  -0.0289  0.0218  1.0000  -3.6509   0.0000   0.0000   0.0000   0.2538
  11.500   1.2785   0.03133   0.02462  -0.0283  0.0208  1.0000  -3.6852   0.0000   0.0000   0.0000   0.2531
  11.600   1.2783   0.03204   0.02533  -0.0276  0.0199  1.0000  -3.7146   0.0000   0.0000   0.0000   0.2524
  11.700   1.2666   0.03373   0.02710  -0.0266  0.0200  1.0000  -3.7030   0.0000   0.0000   0.0000   0.2515
  11.800   1.2650   0.03464   0.02800  -0.0260  0.0193  1.0000  -3.7264   0.0000   0.0000   0.0000   0.2508
  11.900   1.2654   0.03539   0.02875  -0.0254  0.0185  1.0000  -3.7562   0.0000   0.0000   0.0000   0.2502
  12.000   1.2668   0.03608   0.02941  -0.0249  0.0177  1.0000  -3.7883   0.0000   0.0000   0.0000   0.2495
  12.100   1.2690   0.03670   0.03003  -0.0244  0.0169  1.0000  -3.8218   0.0000   0.0000   0.0000   0.2489
  12.200   1.2718   0.03728   0.03060  -0.0240  0.0161  1.0000  -3.8561   0.0000   0.0000   0.0000   0.2483
  12.300   1.2749   0.03785   0.03117  -0.0236  0.0154  1.0000  -3.8905   0.0000   0.0000   0.0000   0.2478
  12.400   1.2781   0.03841   0.03174  -0.0232  0.0149  1.0000  -3.9248   0.0000   0.0000   0.0000   0.2472
  12.500   1.2812   0.03898   0.03232  -0.0228  0.0144  1.0000  -3.9587   0.0000   0.0000   0.0000   0.2466
  12.600   1.2843   0.03956   0.03291  -0.0224  0.0140  1.0000  -3.9922   0.0000   0.0000   0.0000   0.2461
  12.700   1.2873   0.04017   0.03353  -0.0220  0.0136  1.0000  -4.0249   0.0000   0.0000   0.0000   0.2455
  12.800   1.2900   0.04080   0.03416  -0.0216  0.0135  1.0000  -4.0564   0.0000   0.0000   0.0000   0.2450
  12.900   1.2923   0.04147   0.03485  -0.0213  0.0134  1.0000  -4.0866   0.0000   0.0000   0.0000   0.2445
  13.000   1.2942   0.04220   0.03560  -0.0209  0.0133  1.0000  -4.1152   0.0000   0.0000   0.0000   0.2440
  13.100   1.2952   0.04302   0.03645  -0.0206  0.0133  1.0000  -4.1410   0.0000   0.0000   0.0000   0.2435
  13.200   1.2947   0.04401   0.03747  -0.0203  0.0132  1.0000  -4.1620   0.0000   0.0000   0.0000   0.2430
  13.300   1.2700   0.04790   0.04149  -0.0204  0.0133  1.0000  -4.1037   0.0000   0.0000   0.0000   0.2431
  13.400   1.2705   0.04883   0.04244  -0.0201  0.0133  1.0000  -4.1274   0.0000   0.0000   0.0000   0.2427
  13.500   1.2721   0.04965   0.04328  -0.0199  0.0132  1.0000  -4.1544   0.0000   0.0000   0.0000   0.2422
  13.600   1.2741   0.05040   0.04405  -0.0196  0.0132  1.0000  -4.1831   0.0000   0.0000   0.0000   0.2418
  13.700   1.2765   0.05112   0.04479  -0.0194  0.0131  1.0000  -4.2128   0.0000   0.0000   0.0000   0.2413
  13.800   1.2790   0.05183   0.04551  -0.0191  0.0130  1.0000  -4.2431   0.0000   0.0000   0.0000   0.2409
  13.900   1.2817   0.05252   0.04621  -0.0189  0.0130  1.0000  -4.2738   0.0000   0.0000   0.0000   0.2405
  14.000   1.2844   0.05320   0.04691  -0.0186  0.0129  1.0000  -4.3048   0.0000   0.0000   0.0000   0.2400
  14.100   1.2872   0.05388   0.04761  -0.0184  0.0129  1.0000  -4.3359   0.0000   0.0000   0.0000   0.2396
  14.200   1.2900   0.05456   0.04831  -0.0182  0.0128  1.0000  -4.3670   0.0000   0.0000   0.0000   0.2392
  14.300   1.2927   0.05526   0.04901  -0.0180  0.0128  1.0000  -4.3979   0.0000   0.0000   0.0000   0.2387
  14.400   1.2953   0.05596   0.04974  -0.0177  0.0128  1.0000  -4.4286   0.0000   0.0000   0.0000   0.2383
  14.500   1.2978   0.05668   0.05047  -0.0175  0.0127  1.0000  -4.4589   0.0000   0.0000   0.0000   0.2379
  14.600   1.3002   0.05742   0.05124  -0.0174  0.0127  1.0000  -4.4886   0.0000   0.0000   0.0000   0.2375
  14.700   1.3025   0.05820   0.05203  -0.0172  0.0126  1.0000  -4.5182   0.0000   0.0000   0.0000   0.2372
  14.800   1.3046   0.05902   0.05287  -0.0171  0.0126  1.0000  -4.5470   0.0000   0.0000   0.0000   0.2368
  14.900   1.3063   0.05989   0.05377  -0.0170  0.0126  1.0000  -4.5741   0.0000   0.0000   0.0000   0.2365
  15.000   1.3073   0.06086   0.05476  -0.0169  0.0125  1.0000  -4.5989   0.0000   0.0000   0.0000   0.2362
  15.100   1.3072   0.06200   0.05592  -0.0169  0.0125  1.0000  -4.6194   0.0000   0.0000   0.0000   0.2360
  15.300   1.2807   0.06807   0.06217  -0.0184  0.0125  1.0000  -4.5619   0.0000   0.0000   0.0000   0.2369
  15.400   1.2797   0.06929   0.06341  -0.0185  0.0125  1.0000  -4.5787   0.0000   0.0000   0.0000   0.2367
  15.500   1.2794   0.07040   0.06455  -0.0185  0.0125  1.0000  -4.5980   0.0000   0.0000   0.0000   0.2365
  15.600   1.2998   0.06900   0.06309  -0.0182  0.0130  1.0000  -4.6450   0.0000   0.0000   0.0000   0.2359
  15.700   1.2995   0.07010   0.06422  -0.0183  0.0130  1.0000  -4.6641   0.0000   0.0000   0.0000   0.2357
  15.800   1.2996   0.07112   0.06527  -0.0183  0.0130  1.0000  -4.6847   0.0000   0.0000   0.0000   0.2354
  15.900   1.2998   0.07211   0.06628  -0.0182  0.0130  1.0000  -4.7060   0.0000   0.0000   0.0000   0.2352
  16.000   1.3001   0.07308   0.06727  -0.0182  0.0129  1.0000  -4.7279   0.0000   0.0000   0.0000   0.2349
  16.100   1.3007   0.07406   0.06827  -0.0182  0.0129  1.0000  -4.7506   0.0000   0.0000   0.0000   0.2347
  16.200   1.3015   0.07505   0.06928  -0.0182  0.0129  1.0000  -4.7741   0.0000   0.0000   0.0000   0.2345
  16.300   1.3020   0.07608   0.07034  -0.0183  0.0128  1.0000  -4.7966   0.0000   0.0000   0.0000   0.2343
  16.400   1.3022   0.07718   0.07147  -0.0184  0.0128  1.0000  -4.8176   0.0000   0.0000   0.0000   0.2341
  16.500   1.3017   0.07841   0.07272  -0.0185  0.0128  1.0000  -4.8357   0.0000   0.0000   0.0000   0.2340
  16.600   1.2995   0.07990   0.07425  -0.0188  0.0127  1.0000  -4.8469   0.0000   0.0000   0.0000   0.2339
  16.700   1.2192   0.09369   0.08836  -0.0243  0.0130  1.0000  -4.5331   0.0000   0.0000   0.0000   0.2393
  16.800   1.2196   0.09481   0.08951  -0.0245  0.0130  1.0000  -4.5528   0.0000   0.0000   0.0000   0.2392
  16.900   1.2204   0.09589   0.09060  -0.0246  0.0129  1.0000  -4.5741   0.0000   0.0000   0.0000   0.2390
  17.000   1.2214   0.09693   0.09165  -0.0247  0.0129  1.0000  -4.5965   0.0000   0.0000   0.0000   0.2389
  17.100   1.2226   0.09793   0.09267  -0.0249  0.0129  1.0000  -4.6198   0.0000   0.0000   0.0000   0.2387
  17.200   1.2240   0.09891   0.09367  -0.0250  0.0128  1.0000  -4.6438   0.0000   0.0000   0.0000   0.2385
  17.300   1.2255   0.09987   0.09464  -0.0251  0.0128  1.0000  -4.6685   0.0000   0.0000   0.0000   0.2383
  17.400   1.2271   0.10081   0.09560  -0.0252  0.0127  1.0000  -4.6936   0.0000   0.0000   0.0000   0.2381
  17.500   1.2288   0.10175   0.09655  -0.0253  0.0127  1.0000  -4.7190   0.0000   0.0000   0.0000   0.2380
  17.600   1.2304   0.10267   0.09749  -0.0254  0.0127  1.0000  -4.7447   0.0000   0.0000   0.0000   0.2378
  17.700   1.2322   0.10359   0.09842  -0.0255  0.0126  1.0000  -4.7705   0.0000   0.0000   0.0000   0.2376
  17.800   1.2339   0.10450   0.09935  -0.0256  0.0126  1.0000  -4.7964   0.0000   0.0000   0.0000   0.2374
  17.900   1.2357   0.10541   0.10027  -0.0257  0.0125  1.0000  -4.8224   0.0000   0.0000   0.0000   0.2372
  18.000   1.2374   0.10632   0.10120  -0.0259  0.0125  1.0000  -4.8484   0.0000   0.0000   0.0000   0.2370
  18.100   1.2391   0.10724   0.10213  -0.0260  0.0125  1.0000  -4.8743   0.0000   0.0000   0.0000   0.2368
  18.200   1.2407   0.10816   0.10307  -0.0261  0.0124  1.0000  -4.8999   0.0000   0.0000   0.0000   0.2366
  18.300   1.2423   0.10909   0.10403  -0.0263  0.0124  1.0000  -4.9251   0.0000   0.0000   0.0000   0.2365
  18.400   1.2437   0.11005   0.10500  -0.0264  0.0124  1.0000  -4.9498   0.0000   0.0000   0.0000   0.2363
  18.500   1.2450   0.11103   0.10600  -0.0266  0.0123  1.0000  -4.9737   0.0000   0.0000   0.0000   0.2362
  18.600   1.2460   0.11204   0.10704  -0.0268  0.0123  1.0000  -4.9965   0.0000   0.0000   0.0000   0.2361
  18.700   1.2467   0.11312   0.10814  -0.0270  0.0123  1.0000  -5.0174   0.0000   0.0000   0.0000   0.2360
  18.800   1.2468   0.11430   0.10934  -0.0273  0.0122  1.0000  -5.0353   0.0000   0.0000   0.0000   0.2360
  18.900   1.2455   0.11572   0.11079  -0.0278  0.0122  1.0000  -5.0464   0.0000   0.0000   0.0000   0.2361
  19.000   1.1553   0.13329   0.12874  -0.0369  0.0125  1.0000  -4.5994   0.0000   0.0000   0.0000   0.2459
  19.100   1.1556   0.13443   0.12989  -0.0372  0.0125  1.0000  -4.6156   0.0000   0.0000   0.0000   0.2460
  19.200   1.1562   0.13552   0.13099  -0.0376  0.0124  1.0000  -4.6333   0.0000   0.0000   0.0000   0.2460
  19.300   1.1570   0.13656   0.13205  -0.0380  0.0124  1.0000  -4.6522   0.0000   0.0000   0.0000   0.2460
  19.400   1.1580   0.13756   0.13307  -0.0383  0.0124  1.0000  -4.6720   0.0000   0.0000   0.0000   0.2460
  19.500   1.1591   0.13853   0.13405  -0.0386  0.0124  1.0000  -4.6926   0.0000   0.0000   0.0000   0.2460
  19.600   1.1604   0.13948   0.13501  -0.0389  0.0123  1.0000  -4.7138   0.0000   0.0000   0.0000   0.2460
  19.700   1.1618   0.14040   0.13595  -0.0393  0.0123  1.0000  -4.7356   0.0000   0.0000   0.0000   0.2459
  19.800   1.1632   0.14131   0.13687  -0.0396  0.0123  1.0000  -4.7579   0.0000   0.0000   0.0000   0.2459
  19.900   1.1648   0.14220   0.13778  -0.0399  0.0122  1.0000  -4.7805   0.0000   0.0000   0.0000   0.2458
  20.000   1.1664   0.14307   0.13867  -0.0402  0.0122  1.0000  -4.8036   0.0000   0.0000   0.0000   0.2457
  20.100   1.1680   0.14393   0.13953  -0.0404  0.0122  1.0000  -4.8269   0.0000   0.0000   0.0000   0.2457
  20.200   1.1697   0.14473   0.14035  -0.0407  0.0121  1.0000  -4.8506   0.0000   0.0000   0.0000   0.2456
  20.300   1.1714   0.14549   0.14113  -0.0410  0.0121  1.0000  -4.8744   0.0000   0.0000   0.0000   0.2455
  20.400   1.1732   0.14623   0.14188  -0.0413  0.0121  1.0000  -4.8985   0.0000   0.0000   0.0000   0.2454
  20.500   1.1750   0.14695   0.14262  -0.0416  0.0121  1.0000  -4.9226   0.0000   0.0000   0.0000   0.2453
  20.600   1.1767   0.14767   0.14335  -0.0419  0.0120  1.0000  -4.9468   0.0000   0.0000   0.0000   0.2452
  20.700   1.1785   0.14838   0.14409  -0.0422  0.0120  1.0000  -4.9709   0.0000   0.0000   0.0000   0.2452
  20.800   1.1802   0.14911   0.14483  -0.0425  0.0120  1.0000  -4.9950   0.0000   0.0000   0.0000   0.2451
  20.900   1.1820   0.14984   0.14558  -0.0428  0.0120  1.0000  -5.0190   0.0000   0.0000   0.0000   0.2450
  21.000   1.1838   0.15057   0.14633  -0.0431  0.0119  1.0000  -5.0436   0.0000   0.0000   0.0000   0.2449
  21.100   1.1855   0.15132   0.14709  -0.0434  0.0119  1.0000  -5.0678   0.0000   0.0000   0.0000   0.2448
  21.200   1.1872   0.15208   0.14788  -0.0438  0.0119  1.0000  -5.0917   0.0000   0.0000   0.0000   0.2448
  21.300   1.1888   0.15286   0.14868  -0.0441  0.0119  1.0000  -5.1152   0.0000   0.0000   0.0000   0.2447
  21.400   1.1903   0.15367   0.14951  -0.0444  0.0119  1.0000  -5.1380   0.0000   0.0000   0.0000   0.2447
  21.500   1.1917   0.15451   0.15037  -0.0448  0.0118  1.0000  -5.1602   0.0000   0.0000   0.0000   0.2446
  21.600   1.1930   0.15537   0.15126  -0.0452  0.0118  1.0000  -5.1815   0.0000   0.0000   0.0000   0.2446
  21.700   1.1941   0.15628   0.15219  -0.0456  0.0118  1.0000  -5.2017   0.0000   0.0000   0.0000   0.2446
  21.800   1.1949   0.15723   0.15318  -0.0460  0.0118  1.0000  -5.2206   0.0000   0.0000   0.0000   0.2447
  21.900   1.1955   0.15825   0.15422  -0.0464  0.0118  1.0000  -5.2377   0.0000   0.0000   0.0000   0.2448
  22.000   1.1958   0.15934   0.15534  -0.0469  0.0118  1.0000  -5.2525   0.0000   0.0000   0.0000   0.2449
  22.100   1.1955   0.16055   0.15658  -0.0475  0.0118  1.0000  -5.2638   0.0000   0.0000   0.0000   0.2451
  22.200   1.1944   0.16194   0.15801  -0.0482  0.0118  1.0000  -5.2693   0.0000   0.0000   0.0000   0.2454
  22.300   1.1913   0.16380   0.15992  -0.0491  0.0118  1.0000  -5.2597   0.0000   0.0000   0.0000   0.2461
  22.400   1.1679   0.17034   0.16658  -0.0527  0.0118  1.0000  -5.1038   0.0000   0.0000   0.0000   0.2502
  22.500   1.1670   0.17178   0.16805  -0.0534  0.0118  1.0000  -5.1087   0.0000   0.0000   0.0000   0.2506
  22.600   1.1662   0.17319   0.16949  -0.0541  0.0118  1.0000  -5.1145   0.0000   0.0000   0.0000   0.2509
  22.700   1.1655   0.17459   0.17093  -0.0548  0.0118  1.0000  -5.1205   0.0000   0.0000   0.0000   0.2512
  22.800   1.1648   0.17601   0.17238  -0.0554  0.0118  1.0000  -5.1261   0.0000   0.0000   0.0000   0.2516
  22.900   1.1640   0.17746   0.17386  -0.0561  0.0118  1.0000  -5.1309   0.0000   0.0000   0.0000   0.2519
  23.000   1.1630   0.17895   0.17538  -0.0568  0.0118  1.0000  -5.1343   0.0000   0.0000   0.0000   0.2523
  23.100   1.1618   0.18051   0.17697  -0.0576  0.0118  1.0000  -5.1357   0.0000   0.0000   0.0000   0.2528
  23.200   1.1602   0.18214   0.17864  -0.0583  0.0118  1.0000  -5.1344   0.0000   0.0000   0.0000   0.2532
  23.300   1.1583   0.18389   0.18043  -0.0592  0.0118  1.0000  -5.1295   0.0000   0.0000   0.0000   0.2538
  23.400   1.1557   0.18581   0.18239  -0.0601  0.0118  1.0000  -5.1191   0.0000   0.0000   0.0000   0.2545
  23.500   1.1521   0.18800   0.18462  -0.0611  0.0118  1.0000  -5.0998   0.0000   0.0000   0.0000   0.2553
  23.600   1.1462   0.19081   0.18749  -0.0625  0.0118  1.0000  -5.0602   0.0000   0.0000   0.0000   0.2567
  23.700   1.1012   0.20421   0.20108  -0.0693  0.0118  1.0000  -4.6803   0.0000   0.0000   0.0000   0.2658
  23.800   1.0990   0.20628   0.20318  -0.0702  0.0118  1.0000  -4.6662   0.0000   0.0000   0.0000   0.2666
  23.900   1.0969   0.20833   0.20527  -0.0711  0.0118  1.0000  -4.6521   0.0000   0.0000   0.0000   0.2673
  24.000   1.0947   0.21042   0.20739  -0.0720  0.0118  1.0000  -4.6366   0.0000   0.0000   0.0000   0.2680
  24.100   1.0924   0.21258   0.20958  -0.0729  0.0118  1.0000  -4.6188   0.0000   0.0000   0.0000   0.2688
  24.200   1.0898   0.21484   0.21187  -0.0738  0.0119  1.0000  -4.5972   0.0000   0.0000   0.0000   0.2696
  24.300   1.0868   0.21726   0.21432  -0.0748  0.0119  1.0000  -4.5703   0.0000   0.0000   0.0000   0.2705
  24.400   1.0832   0.21989   0.21700  -0.0759  0.0119  1.0000  -4.5356   0.0000   0.0000   0.0000   0.2716
  24.500   1.0787   0.22286   0.22000  -0.0771  0.0119  1.0000  -4.4893   0.0000   0.0000   0.0000   0.2729
  24.600   1.0726   0.22638   0.22356  -0.0784  0.0119  1.0000  -4.4235   0.0000   0.0000   0.0000   0.2745
  24.700   1.0632   0.23111   0.22835  -0.0802  0.0119  1.0000  -4.3148   0.0000   0.0000   0.0000   0.2769
  24.800   1.0374   0.24205   0.23939  -0.0839  0.0120  1.0000  -3.9835   0.0000   0.0000   0.0000   0.2832
  25.200   0.9088   0.31937   0.31694  -0.0964  0.0256  1.0000  -1.5186   0.0000   0.0000   0.0000   0.3155
  25.300   0.9095   0.32121   0.31878  -0.0968  0.0255  1.0000  -1.5187   0.0000   0.0000   0.0000   0.3157
  25.400   0.9103   0.32297   0.32054  -0.0973  0.0254  1.0000  -1.5205   0.0000   0.0000   0.0000   0.3159
  25.500   0.9113   0.32463   0.32220  -0.0977  0.0253  1.0000  -1.5246   0.0000   0.0000   0.0000   0.3161
  25.600   0.9125   0.32614   0.32372  -0.0981  0.0252  1.0000  -1.5321   0.0000   0.0000   0.0000   0.3161
  25.700   0.9141   0.32741   0.32499  -0.0985  0.0251  1.0000  -1.5453   0.0000   0.0000   0.0000   0.3162
  25.800   0.9166   0.32820   0.32578  -0.0990  0.0248  1.0000  -1.5695   0.0000   0.0000   0.0000   0.3160
  25.900   0.9211   0.32801   0.32559  -0.0994  0.0241  1.0000  -1.6167   0.0000   0.0000   0.0000   0.3156
  26.000   0.9265   0.32756   0.32513  -0.1001  0.0224  1.0000  -1.6664   0.0000   0.0000   0.0000   0.3154
  26.100   0.9293   0.32844   0.32600  -0.1008  0.0205  1.0000  -1.6937   0.0000   0.0000   0.0000   0.3155
  26.200   0.9311   0.32946   0.32702  -0.1012  0.0192  1.0000  -1.7256   0.0000   0.0000   0.0000   0.3155
  26.300   0.9329   0.33033   0.32789  -0.1016  0.0183  1.0000  -1.7640   0.0000   0.0000   0.0000   0.3153
  26.400   0.9347   0.33105   0.32861  -0.1019  0.0176  1.0000  -1.8077   0.0000   0.0000   0.0000   0.3151
  26.500   0.9368   0.33165   0.32920  -0.1022  0.0170  1.0000  -1.8558   0.0000   0.0000   0.0000   0.3148
  26.600   0.9390   0.33214   0.32969  -0.1025  0.0166  1.0000  -1.9080   0.0000   0.0000   0.0000   0.3144
  26.700   0.9413   0.33253   0.33007  -0.1027  0.0162  1.0000  -1.9638   0.0000   0.0000   0.0000   0.3139
  26.800   0.9438   0.33282   0.33037  -0.1029  0.0159  1.0000  -2.0232   0.0000   0.0000   0.0000   0.3134
  26.900   0.9464   0.33303   0.33057  -0.1030  0.0156  1.0000  -2.0861   0.0000   0.0000   0.0000   0.3128
  27.000   0.9491   0.33319   0.33073  -0.1031  0.0154  1.0000  -2.1510   0.0000   0.0000   0.0000   0.3122
  27.100   0.9513   0.33355   0.33109  -0.1033  0.0151  1.0000  -2.2104   0.0000   0.0000   0.0000   0.3117
  27.200   0.9528   0.33415   0.33168  -0.1036  0.0148  1.0000  -2.2631   0.0000   0.0000   0.0000   0.3114


