xflr5 v6.61

 Calculated polar for: GOE 417 AIRFOIL

 1 1 Reynolds number fixed          Mach number fixed         

 xtrf =   1.000 (top)        1.000 (bottom)
 Mach =   0.000     Re =     0.300 e 6     Ncrit =   9.000

  alpha     CL        CD       CDp       Cm    Top Xtr Bot Xtr   Cpmin    Chinge    XCp    
 ------- -------- --------- --------- -------- ------- ------- -------- --------- ---------
  -7.100  -0.1479   0.09038   0.08729  -0.0453  0.9669  0.0141  -1.3808   0.0000   0.0000   0.0000  -0.0642
  -7.000  -0.1366   0.08821   0.08513  -0.0459  0.9659  0.0146  -1.2701   0.0000   0.0000   0.0000  -0.0945
  -6.900  -0.1275   0.08670   0.08363  -0.0471  0.9644  0.0151  -1.1996   0.0000   0.0000   0.0000  -0.1288
  -6.800  -0.1190   0.08538   0.08232  -0.0486  0.9629  0.0157  -1.1471   0.0000   0.0000   0.0000  -0.1680
  -6.700  -0.1110   0.08415   0.08110  -0.0502  0.9614  0.0163  -1.1066   0.0000   0.0000   0.0000  -0.2126
  -6.600  -0.1033   0.08296   0.07991  -0.0519  0.9599  0.0171  -1.0752   0.0000   0.0000   0.0000  -0.2633
  -6.500  -0.0958   0.08180   0.07876  -0.0536  0.9585  0.0179  -1.0508   0.0000   0.0000   0.0000  -0.3210
  -6.400  -0.0882   0.08065   0.07762  -0.0554  0.9571  0.0189  -1.0317   0.0000   0.0000   0.0000  -0.3915
  -6.300  -0.0794   0.07948   0.07644  -0.0576  0.9559  0.0201  -1.0160   0.0000   0.0000   0.0000  -0.4894
  -6.200  -0.0673   0.07840   0.07536  -0.0605  0.9547  0.0218  -1.0036   0.0000   0.0000   0.0000  -0.6658
  -6.100  -0.0504   0.07842   0.07537  -0.0649  0.9535  0.0236  -0.9975   0.0000   0.0000   0.0000  -1.0589
  -6.000  -0.0347   0.07813   0.07506  -0.0692  0.9524  0.0243  -0.9914   0.0000   0.0000   0.0000  -1.7785
  -5.900  -0.0207   0.07719   0.07411  -0.0726  0.9514  0.0246  -0.9842   0.0000   0.0000   0.0000  -3.3173
  -5.800  -0.0073   0.07596   0.07287  -0.0755  0.9504  0.0248  -0.9736   0.0000   0.0000   0.0000  -10.2092
  -5.700  -0.0085   0.07527   0.07219  -0.0745  0.9473  0.0249  -0.9752   0.0000   0.0000   0.0000  -8.6368
  -5.600  -0.0157   0.07489   0.07182  -0.0719  0.9417  0.0249  -0.9813   0.0000   0.0000   0.0000  -4.4043
  -5.500  -0.0130   0.07399   0.07092  -0.0719  0.9375  0.0250  -0.9803   0.0000   0.0000   0.0000  -5.3827
  -5.400  -0.0063   0.07284   0.06976  -0.0729  0.9341  0.0250  -0.9769   0.0000   0.0000   0.0000  -11.4457
  -5.300   0.0025   0.07152   0.06843  -0.0743  0.9313  0.0251  -0.9726   0.0000   0.0000   0.0000  30.5386
  -5.200   0.0131   0.07006   0.06696  -0.0761  0.9287  0.0251  -0.9677   0.0000   0.0000   0.0000   6.1370
  -5.100   0.0253   0.06847   0.06535  -0.0783  0.9264  0.0252  -0.9625   0.0000   0.0000   0.0000   3.3841
  -5.000   0.0390   0.06677   0.06363  -0.0808  0.9243  0.0253  -0.9571   0.0000   0.0000   0.0000   2.3488
  -4.900   0.0539   0.06497   0.06181  -0.0835  0.9224  0.0253  -0.9517   0.0000   0.0000   0.0000   1.8188
  -4.800   0.0687   0.06299   0.05980  -0.0861  0.9206  0.0253  -0.9467   0.0000   0.0000   0.0000   1.5188
  -4.700   0.0839   0.06088   0.05766  -0.0887  0.9189  0.0253  -0.9418   0.0000   0.0000   0.0000   1.3199
  -4.600   0.1001   0.05872   0.05547  -0.0915  0.9174  0.0253  -0.9367   0.0000   0.0000   0.0000   1.1751
  -4.500   0.1170   0.05652   0.05324  -0.0944  0.9159  0.0253  -0.9316   0.0000   0.0000   0.0000   1.0662
  -4.400   0.1340   0.05434   0.05102  -0.0972  0.9143  0.0253  -0.9268   0.0000   0.0000   0.0000   0.9839
  -4.300   0.1502   0.05222   0.04886  -0.0997  0.9123  0.0253  -0.9227   0.0000   0.0000   0.0000   0.9214
  -4.200   0.1671   0.05007   0.04666  -0.1023  0.9101  0.0253  -0.9187   0.0000   0.0000   0.0000   0.8692
  -4.100   0.1845   0.04790   0.04444  -0.1050  0.9075  0.0253  -0.9151   0.0000   0.0000   0.0000   0.8252
  -4.000   0.2020   0.04576   0.04224  -0.1076  0.9042  0.0253  -0.9124   0.0000   0.0000   0.0000   0.7882
  -3.900   0.2188   0.04371   0.04012  -0.1099  0.8999  0.0253  -0.9109   0.0000   0.0000   0.0000   0.7575
  -3.800   0.2257   0.04239   0.03876  -0.1098  0.8975  0.0253  -0.9144   0.0000   0.0000   0.0000   0.7413
  -3.700   0.2332   0.04104   0.03737  -0.1097  0.8943  0.0253  -0.9234   0.0000   0.0000   0.0000   0.7252
  -3.600   0.2415   0.03966   0.03594  -0.1097  0.8899  0.0254  -0.9363   0.0000   0.0000   0.0000   0.7090
  -3.400   0.2595   0.03105   0.02701  -0.1126  0.8693  0.0289  -1.2067   0.0000   0.0000   0.0000   0.6880
  -3.300   0.2621   0.03124   0.02731  -0.1119  0.8707  0.0320  -1.0591   0.0000   0.0000   0.0000   0.6811
  -3.200   0.2818   0.03422   0.03024  -0.1119  0.8693  0.0499  -0.9277   0.0000   0.0000   0.0000   0.6509
  -3.100   0.2957   0.03392   0.02984  -0.1125  0.8635  0.0503  -0.8767   0.0000   0.0000   0.0000   0.6339
  -3.000   0.3080   0.03324   0.02908  -0.1131  0.8577  0.0504  -0.8177   0.0000   0.0000   0.0000   0.6204
  -2.700   0.3421   0.02666   0.02222  -0.1169  0.8345  0.0540  -0.8046   0.0000   0.0000   0.0000   0.5943
  -2.600   0.3488   0.02629   0.02193  -0.1169  0.8327  0.0559  -0.7390   0.0000   0.0000   0.0000   0.5877
  -2.500   0.3578   0.02592   0.02158  -0.1171  0.8294  0.0574  -0.6959   0.0000   0.0000   0.0000   0.5797
  -2.400   0.3688   0.02539   0.02100  -0.1175  0.8240  0.0581  -0.6748   0.0000   0.0000   0.0000   0.5709
  -2.300   0.3802   0.02483   0.02039  -0.1179  0.8179  0.0586  -0.6591   0.0000   0.0000   0.0000   0.5624
  -2.200   0.3915   0.02429   0.01980  -0.1184  0.8113  0.0590  -0.6439   0.0000   0.0000   0.0000   0.5544
  -2.100   0.4029   0.02378   0.01924  -0.1188  0.8048  0.0595  -0.6303   0.0000   0.0000   0.0000   0.5468
  -2.000   0.4141   0.02329   0.01870  -0.1192  0.7997  0.0600  -0.6403   0.0000   0.0000   0.0000   0.5397
  -1.900   0.4242   0.02282   0.01820  -0.1194  0.7983  0.0605  -0.6496   0.0000   0.0000   0.0000   0.5330
  -1.800   0.4344   0.02237   0.01771  -0.1195  0.7967  0.0610  -0.6591   0.0000   0.0000   0.0000   0.5266
  -1.700   0.4446   0.02192   0.01722  -0.1196  0.7947  0.0616  -0.6686   0.0000   0.0000   0.0000   0.5205
  -1.600   0.4549   0.02149   0.01675  -0.1198  0.7924  0.0622  -0.6782   0.0000   0.0000   0.0000   0.5145
  -1.500   0.4653   0.02106   0.01628  -0.1199  0.7896  0.0628  -0.6878   0.0000   0.0000   0.0000   0.5088
  -1.400   0.4757   0.02064   0.01582  -0.1200  0.7863  0.0634  -0.6975   0.0000   0.0000   0.0000   0.5033
  -1.300   0.4862   0.02024   0.01537  -0.1201  0.7823  0.0641  -0.7073   0.0000   0.0000   0.0000   0.4980
  -1.200   0.4969   0.01984   0.01492  -0.1203  0.7776  0.0648  -0.7171   0.0000   0.0000   0.0000   0.4929
  -1.100   0.5076   0.01946   0.01448  -0.1204  0.7718  0.0656  -0.7271   0.0000   0.0000   0.0000   0.4879
  -1.000   0.5185   0.01909   0.01404  -0.1205  0.7649  0.0664  -0.7372   0.0000   0.0000   0.0000   0.4830
  -0.900   0.5296   0.01873   0.01361  -0.1206  0.7565  0.0673  -0.7474   0.0000   0.0000   0.0000   0.4783
  -0.800   0.5409   0.01840   0.01318  -0.1208  0.7465  0.0683  -0.7578   0.0000   0.0000   0.0000   0.4737
  -0.700   0.5524   0.01810   0.01277  -0.1209  0.7351  0.0694  -0.7685   0.0000   0.0000   0.0000   0.4692
  -0.600   0.5638   0.01787   0.01240  -0.1210  0.7227  0.0704  -0.7791   0.0000   0.0000   0.0000   0.4648
  -0.400   0.5856   0.01760   0.01191  -0.1210  0.6979  0.0725  -0.8000   0.0000   0.0000   0.0000   0.4566
  -0.300   0.5964   0.01767   0.01191  -0.1209  0.6904  0.0737  -0.8105   0.0000   0.0000   0.0000   0.4527
  -0.200   0.6071   0.01807   0.01225  -0.1207  0.6816  0.0749  -0.8214   0.0000   0.0000   0.0000   0.4487
  -0.100   0.6177   0.01643   0.01040  -0.1212  0.6684  0.0786  -0.8302   0.0000   0.0000   0.0000   0.4460
   0.000   0.6275   0.01607   0.00994  -0.1212  0.6563  0.0795  -0.8402   0.0000   0.0000   0.0000   0.4429
   0.100   0.6370   0.01581   0.00958  -0.1211  0.6432  0.0803  -0.8500   0.0000   0.0000   0.0000   0.4397
   0.200   0.6460   0.01563   0.00930  -0.1209  0.6286  0.0810  -0.8596   0.0000   0.0000   0.0000   0.4366
   0.300   0.6549   0.01546   0.00905  -0.1207  0.6128  0.0818  -0.8691   0.0000   0.0000   0.0000   0.4336
   0.400   0.6646   0.01529   0.00882  -0.1206  0.5998  0.0826  -0.8806   0.0000   0.0000   0.0000   0.4307
   0.500   0.6747   0.01509   0.00861  -0.1206  0.5956  0.0835  -0.8995   0.0000   0.0000   0.0000   0.4280
   0.600   0.6848   0.01492   0.00842  -0.1206  0.5902  0.0846  -0.9185   0.0000   0.0000   0.0000   0.4252
   0.700   0.6948   0.01478   0.00825  -0.1206  0.5835  0.0858  -0.9375   0.0000   0.0000   0.0000   0.4226
   0.800   0.7046   0.01467   0.00809  -0.1206  0.5751  0.0871  -0.9565   0.0000   0.0000   0.0000   0.4200
   0.900   0.7143   0.01459   0.00796  -0.1204  0.5649  0.0887  -0.9754   0.0000   0.0000   0.0000   0.4174
   1.000   0.7238   0.01455   0.00785  -0.1203  0.5534  0.0904  -0.9942   0.0000   0.0000   0.0000   0.4149
   1.100   0.7331   0.01455   0.00777  -0.1201  0.5417  0.0923  -1.0130   0.0000   0.0000   0.0000   0.4124
   1.200   0.7422   0.01451   0.00763  -0.1198  0.5297  0.0934  -1.0314   0.0000   0.0000   0.0000   0.4099
   1.300   0.7511   0.01432   0.00730  -0.1194  0.5150  0.0920  -1.0488   0.0000   0.0000   0.0000   0.4074
   1.400   0.7605   0.01412   0.00702  -0.1191  0.5016  0.0909  -1.0667   0.0000   0.0000   0.0000   0.4049
   1.500   0.7707   0.01396   0.00681  -0.1190  0.4961  0.0909  -1.0860   0.0000   0.0000   0.0000   0.4027
   1.600   0.7806   0.01392   0.00676  -0.1190  0.4913  0.0929  -1.1057   0.0000   0.0000   0.0000   0.4005
   3.100   0.9262   0.01255   0.00491  -0.1166  0.4000  0.1236  -1.3956   0.0000   0.0000   0.0000   0.3725
   3.200   0.9362   0.01250   0.00483  -0.1164  0.3973  0.1211  -1.4156   0.0000   0.0000   0.0000   0.3708
   3.300   0.9461   0.01248   0.00477  -0.1161  0.3939  0.1187  -1.4355   0.0000   0.0000   0.0000   0.3691
   3.400   0.9558   0.01248   0.00472  -0.1159  0.3896  0.1164  -1.4554   0.0000   0.0000   0.0000   0.3675
   3.500   0.9653   0.01250   0.00470  -0.1156  0.3847  0.1144  -1.4752   0.0000   0.0000   0.0000   0.3660
   3.600   0.9747   0.01254   0.00468  -0.1154  0.3793  0.1124  -1.4949   0.0000   0.0000   0.0000   0.3644
   3.700   0.9838   0.01261   0.00469  -0.1151  0.3736  0.1095  -1.5144   0.0000   0.0000   0.0000   0.3629
   3.800   0.9928   0.01272   0.00472  -0.1147  0.3677  0.1058  -1.5339   0.0000   0.0000   0.0000   0.3614
   3.900   1.0015   0.01284   0.00477  -0.1144  0.3618  0.1026  -1.5532   0.0000   0.0000   0.0000   0.3599
   4.000   1.0103   0.01290   0.00474  -0.1140  0.3559  0.0996  -1.5721   0.0000   0.0000   0.0000   0.3584
   4.100   1.0191   0.01295   0.00467  -0.1135  0.3498  0.0963  -1.5908   0.0000   0.0000   0.0000   0.3569
   4.200   1.0280   0.01305   0.00467  -0.1131  0.3434  0.0927  -1.6097   0.0000   0.0000   0.0000   0.3554
   4.300   1.0370   0.01315   0.00472  -0.1128  0.3374  0.0890  -1.6288   0.0000   0.0000   0.0000   0.3540
   4.400   1.0463   0.01328   0.00481  -0.1125  0.3322  0.0852  -1.6483   0.0000   0.0000   0.0000   0.3526
   4.500   1.0558   0.01340   0.00492  -0.1122  0.3279  0.0820  -1.6681   0.0000   0.0000   0.0000   0.3513
   4.600   1.0655   0.01352   0.00502  -0.1120  0.3241  0.0795  -1.6883   0.0000   0.0000   0.0000   0.3501
   4.700   1.0753   0.01364   0.00514  -0.1119  0.3208  0.0773  -1.7087   0.0000   0.0000   0.0000   0.3489
   4.800   1.0851   0.01375   0.00525  -0.1117  0.3179  0.0755  -1.7292   0.0000   0.0000   0.0000   0.3477
   4.900   1.0951   0.01387   0.00536  -0.1116  0.3152  0.0743  -1.7498   0.0000   0.0000   0.0000   0.3465
   5.000   1.1051   0.01399   0.00548  -0.1115  0.3127  0.0729  -1.7705   0.0000   0.0000   0.0000   0.3453
   5.100   1.1151   0.01413   0.00561  -0.1114  0.3103  0.0714  -1.7913   0.0000   0.0000   0.0000   0.3442
   5.200   1.1251   0.01427   0.00577  -0.1113  0.3080  0.0698  -1.8121   0.0000   0.0000   0.0000   0.3431
   5.300   1.1352   0.01443   0.00595  -0.1112  0.3057  0.0683  -1.8330   0.0000   0.0000   0.0000   0.3420
   5.400   1.1452   0.01460   0.00615  -0.1111  0.3035  0.0667  -1.8539   0.0000   0.0000   0.0000   0.3410
   5.500   1.1552   0.01479   0.00636  -0.1111  0.3012  0.0652  -1.8747   0.0000   0.0000   0.0000   0.3400
   5.600   1.1649   0.01486   0.00641  -0.1109  0.3000  0.0638  -1.8965   0.0000   0.0000   0.0000   0.3389
   5.700   1.1742   0.01482   0.00633  -0.1107  0.2997  0.0625  -1.9192   0.0000   0.0000   0.0000   0.3378
   5.800   1.1834   0.01476   0.00625  -0.1104  0.2994  0.0613  -1.9420   0.0000   0.0000   0.0000   0.3367
   5.900   1.1925   0.01470   0.00614  -0.1101  0.2989  0.0603  -1.9650   0.0000   0.0000   0.0000   0.3356
   6.000   1.2010   0.01456   0.00596  -0.1096  0.2979  0.0594  -1.9886   0.0000   0.0000   0.0000   0.3344
   6.100   1.2095   0.01442   0.00579  -0.1092  0.2962  0.0586  -2.0124   0.0000   0.0000   0.0000   0.3333
   6.200   1.2181   0.01434   0.00569  -0.1088  0.2932  0.0580  -2.0359   0.0000   0.0000   0.0000   0.3322
   6.300   1.2266   0.01435   0.00568  -0.1085  0.2883  0.0575  -2.0586   0.0000   0.0000   0.0000   0.3311
   6.400   1.2348   0.01443   0.00571  -0.1080  0.2814  0.0571  -2.0802   0.0000   0.0000   0.0000   0.3301
   6.500   1.2430   0.01454   0.00578  -0.1076  0.2746  0.0569  -2.1014   0.0000   0.0000   0.0000   0.3290
   6.600   1.2509   0.01467   0.00586  -0.1071  0.2664  0.0568  -2.1220   0.0000   0.0000   0.0000   0.3279
   6.700   1.2577   0.01485   0.00594  -0.1065  0.2549  0.0570  -2.1416   0.0000   0.0000   0.0000   0.3268
   6.800   1.2632   0.01509   0.00604  -0.1056  0.2401  0.0575  -2.1595   0.0000   0.0000   0.0000   0.3256
   6.900   1.2674   0.01537   0.00617  -0.1044  0.2238  0.0584  -2.1757   0.0000   0.0000   0.0000   0.3243
   7.000   1.2720   0.01561   0.00632  -0.1034  0.2056  0.0617  -2.1920   0.0000   0.0000   0.0000   0.3230
   7.100   1.2784   0.01579   0.00644  -0.1026  0.1958  0.0637  -2.2230   0.0000   0.0000   0.0000   0.3219
   7.200   1.2845   0.01587   0.00668  -0.1019  0.1885  0.2520  -2.2587   0.0000   0.0000   0.0000   0.3208
   7.400   1.2936   0.01550   0.00706  -0.0999  0.1728  1.0000  -2.3260   0.0000   0.0000   0.0000   0.3184
   7.500   1.2974   0.01582   0.00721  -0.0988  0.1640  1.0000  -2.3588   0.0000   0.0000   0.0000   0.3172
   7.600   1.3022   0.01607   0.00736  -0.0978  0.1544  1.0000  -2.3945   0.0000   0.0000   0.0000   0.3160
   7.700   1.3088   0.01625   0.00749  -0.0970  0.1488  1.0000  -2.4353   0.0000   0.0000   0.0000   0.3149
   7.800   1.3154   0.01642   0.00762  -0.0963  0.1448  1.0000  -2.4777   0.0000   0.0000   0.0000   0.3138
   7.900   1.3207   0.01662   0.00776  -0.0954  0.1393  1.0000  -2.5183   0.0000   0.0000   0.0000   0.3127
   8.000   1.3242   0.01687   0.00795  -0.0941  0.1322  1.0000  -2.5556   0.0000   0.0000   0.0000   0.3114
   8.100   1.3252   0.01722   0.00818  -0.0924  0.1225  1.0000  -2.5979   0.0000   0.0000   0.0000   0.3099
   8.200   1.3250   0.01765   0.00846  -0.0906  0.1081  1.0000  -2.6604   0.0000   0.0000   0.0000   0.3084
   8.300   1.3284   0.01792   0.00866  -0.0893  0.0958  1.0000  -2.7435   0.0000   0.0000   0.0000   0.3071
   8.400   1.3265   0.01846   0.00903  -0.0872  0.0718  1.0000  -2.7946   0.0000   0.0000   0.0000   0.3055
   8.500   1.3223   0.01924   0.00955  -0.0849  0.0513  1.0000  -2.8297   0.0000   0.0000   0.0000   0.3039
   8.600   1.3220   0.01978   0.01001  -0.0830  0.0370  1.0000  -2.8853   0.0000   0.0000   0.0000   0.3024
   8.700   1.3215   0.02033   0.01049  -0.0812  0.0253  1.0000  -2.9363   0.0000   0.0000   0.0000   0.3009
   8.800   1.3232   0.02076   0.01086  -0.0797  0.0227  1.0000  -2.9976   0.0000   0.0000   0.0000   0.2995
   8.900   1.3244   0.02123   0.01128  -0.0781  0.0205  1.0000  -3.0485   0.0000   0.0000   0.0000   0.2981
   9.000   1.3269   0.02163   0.01171  -0.0766  0.0188  1.0000  -3.1010   0.0000   0.0000   0.0000   0.2967
   9.100   1.3296   0.02199   0.01216  -0.0752  0.0178  1.0000  -3.1563   0.0000   0.0000   0.0000   0.2954
   9.200   1.3322   0.02235   0.01261  -0.0738  0.0173  1.0000  -3.2247   0.0000   0.0000   0.0000   0.2940
   9.300   1.3346   0.02272   0.01308  -0.0724  0.0171  1.0000  -3.2983   0.0000   0.0000   0.0000   0.2927
   9.400   1.3367   0.02311   0.01356  -0.0709  0.0169  1.0000  -3.3675   0.0000   0.0000   0.0000   0.2914
   9.500   1.3386   0.02352   0.01407  -0.0695  0.0169  1.0000  -3.4326   0.0000   0.0000   0.0000   0.2901
   9.600   1.3399   0.02397   0.01461  -0.0680  0.0170  1.0000  -3.4931   0.0000   0.0000   0.0000   0.2887
   9.700   1.3408   0.02443   0.01517  -0.0665  0.0171  1.0000  -3.5497   0.0000   0.0000   0.0000   0.2874
   9.800   1.3411   0.02492   0.01575  -0.0649  0.0173  1.0000  -3.6021   0.0000   0.0000   0.0000   0.2861
   9.900   1.3407   0.02544   0.01636  -0.0633  0.0175  1.0000  -3.6487   0.0000   0.0000   0.0000   0.2847
  10.000   1.3386   0.02600   0.01700  -0.0614  0.0177  1.0000  -3.6853   0.0000   0.0000   0.0000   0.2832
  10.100   1.3367   0.02659   0.01768  -0.0597  0.0180  1.0000  -3.7200   0.0000   0.0000   0.0000   0.2818
  10.200   1.3352   0.02723   0.01842  -0.0580  0.0183  1.0000  -3.7523   0.0000   0.0000   0.0000   0.2804
  10.300   1.3334   0.02794   0.01922  -0.0563  0.0187  1.0000  -3.7773   0.0000   0.0000   0.0000   0.2791
  10.400   1.3312   0.02873   0.02010  -0.0546  0.0192  1.0000  -3.7949   0.0000   0.0000   0.0000   0.2777
  10.500   1.3285   0.02959   0.02105  -0.0528  0.0197  1.0000  -3.8062   0.0000   0.0000   0.0000   0.2763
  10.600   1.3256   0.03052   0.02208  -0.0511  0.0202  1.0000  -3.8130   0.0000   0.0000   0.0000   0.2749
  10.700   1.3225   0.03153   0.02317  -0.0495  0.0208  1.0000  -3.8164   0.0000   0.0000   0.0000   0.2736
  10.800   1.3195   0.03262   0.02435  -0.0478  0.0215  1.0000  -3.8166   0.0000   0.0000   0.0000   0.2723
  10.900   1.3171   0.03382   0.02565  -0.0463  0.0223  1.0000  -3.8120   0.0000   0.0000   0.0000   0.2710
  11.000   1.3153   0.03524   0.02719  -0.0448  0.0233  1.0000  -3.7999   0.0000   0.0000   0.0000   0.2697
  11.100   1.3160   0.03840   0.03057  -0.0436  0.0250  1.0000  -3.7238   0.0000   0.0000   0.0000   0.2686
  11.200   1.3293   0.03786   0.02996  -0.0431  0.0281  1.0000  -3.8351   0.0000   0.0000   0.0000   0.2677
  12.500   1.2457   0.07132   0.06704  -0.0326  0.0920  1.0000  -3.0728   0.0000   0.0000   0.0000   0.2597
  12.600   1.2366   0.07341   0.06917  -0.0329  0.0917  1.0000  -3.0542   0.0000   0.0000   0.0000   0.2600
  12.700   1.2276   0.07556   0.07137  -0.0334  0.0915  1.0000  -3.0350   0.0000   0.0000   0.0000   0.2604
  12.800   1.2187   0.07766   0.07352  -0.0340  0.0911  1.0000  -3.0182   0.0000   0.0000   0.0000   0.2609
  12.900   1.2100   0.07981   0.07570  -0.0347  0.0906  1.0000  -3.0019   0.0000   0.0000   0.0000   0.2616
  13.000   1.2015   0.08215   0.07808  -0.0356  0.0901  1.0000  -2.9826   0.0000   0.0000   0.0000   0.2623
  13.100   1.1930   0.08462   0.08059  -0.0366  0.0897  1.0000  -2.9617   0.0000   0.0000   0.0000   0.2632
  13.200   1.1848   0.08716   0.08316  -0.0377  0.0893  1.0000  -2.9402   0.0000   0.0000   0.0000   0.2642
  13.300   1.1767   0.08964   0.08568  -0.0389  0.0886  1.0000  -2.9223   0.0000   0.0000   0.0000   0.2653
  13.400   1.1689   0.09225   0.08831  -0.0402  0.0880  1.0000  -2.9027   0.0000   0.0000   0.0000   0.2665
  13.500   1.1611   0.09500   0.09109  -0.0416  0.0874  1.0000  -2.8798   0.0000   0.0000   0.0000   0.2678
  13.600   1.1534   0.09785   0.09397  -0.0431  0.0869  1.0000  -2.8552   0.0000   0.0000   0.0000   0.2692
  13.700   1.1459   0.10075   0.09689  -0.0446  0.0862  1.0000  -2.8311   0.0000   0.0000   0.0000   0.2706
  13.800   1.1387   0.10366   0.09981  -0.0463  0.0855  1.0000  -2.8084   0.0000   0.0000   0.0000   0.2722
  13.900   1.1315   0.10672   0.10289  -0.0479  0.0850  1.0000  -2.7809   0.0000   0.0000   0.0000   0.2738
  14.000   1.1243   0.10991   0.10610  -0.0496  0.0845  1.0000  -2.7493   0.0000   0.0000   0.0000   0.2755
  14.100   1.1171   0.11320   0.10940  -0.0514  0.0841  1.0000  -2.7146   0.0000   0.0000   0.0000   0.2773
  14.200   1.1102   0.11656   0.11277  -0.0532  0.0835  1.0000  -2.6796   0.0000   0.0000   0.0000   0.2791
  14.300   1.1033   0.12002   0.11624  -0.0551  0.0831  1.0000  -2.6416   0.0000   0.0000   0.0000   0.2811
  14.400   1.0964   0.12359   0.11982  -0.0570  0.0828  1.0000  -2.5982   0.0000   0.0000   0.0000   0.2831
  14.500   1.0895   0.12726   0.12350  -0.0590  0.0825  1.0000  -2.5505   0.0000   0.0000   0.0000   0.2851
  14.600   1.0827   0.13108   0.12733  -0.0609  0.0823  1.0000  -2.4983   0.0000   0.0000   0.0000   0.2873
  14.700   1.0761   0.13489   0.13114  -0.0629  0.0821  1.0000  -2.4450   0.0000   0.0000   0.0000   0.2894
  14.800   1.0698   0.13860   0.13486  -0.0649  0.0819  1.0000  -2.3924   0.0000   0.0000   0.0000   0.2916
  14.900   1.0638   0.14220   0.13846  -0.0667  0.0818  1.0000  -2.3418   0.0000   0.0000   0.0000   0.2936
  15.000   1.0585   0.14564   0.14191  -0.0685  0.0816  1.0000  -2.2945   0.0000   0.0000   0.0000   0.2956
  15.100   1.0538   0.14889   0.14515  -0.0701  0.0815  1.0000  -2.2527   0.0000   0.0000   0.0000   0.2974
  15.200   1.0501   0.15191   0.14817  -0.0716  0.0813  1.0000  -2.2175   0.0000   0.0000   0.0000   0.2990
  16.300   1.0168   0.17947   0.17568  -0.0868  0.0643  1.0000  -1.9219   0.0000   0.0000   0.0000   0.3153
  16.400   1.0156   0.18180   0.17801  -0.0879  0.0636  1.0000  -1.9016   0.0000   0.0000   0.0000   0.3164
  16.500   1.0147   0.18408   0.18029  -0.0890  0.0629  1.0000  -1.8841   0.0000   0.0000   0.0000   0.3175
  16.600   1.0142   0.18631   0.18252  -0.0900  0.0622  1.0000  -1.8691   0.0000   0.0000   0.0000   0.3184
  16.700   1.0139   0.18849   0.18470  -0.0910  0.0616  1.0000  -1.8564   0.0000   0.0000   0.0000   0.3193
  16.800   1.0139   0.19063   0.18683  -0.0919  0.0610  1.0000  -1.8460   0.0000   0.0000   0.0000   0.3201
  16.900   1.0141   0.19272   0.18893  -0.0928  0.0604  1.0000  -1.8380   0.0000   0.0000   0.0000   0.3208
  17.000   1.0146   0.19477   0.19098  -0.0936  0.0598  1.0000  -1.8325   0.0000   0.0000   0.0000   0.3214
  17.100   1.0153   0.19678   0.19298  -0.0944  0.0592  1.0000  -1.8299   0.0000   0.0000   0.0000   0.3220
  17.200   1.0164   0.19872   0.19492  -0.0951  0.0586  1.0000  -1.8307   0.0000   0.0000   0.0000   0.3224
  17.300   1.0179   0.20060   0.19680  -0.0958  0.0580  1.0000  -1.8357   0.0000   0.0000   0.0000   0.3228
  17.400   1.0198   0.20240   0.19859  -0.0963  0.0573  1.0000  -1.8457   0.0000   0.0000   0.0000   0.3230
  17.500   1.0220   0.20412   0.20031  -0.0968  0.0566  1.0000  -1.8609   0.0000   0.0000   0.0000   0.3231
  17.600   1.0248   0.20575   0.20194  -0.0972  0.0559  1.0000  -1.8822   0.0000   0.0000   0.0000   0.3230
  17.700   1.0282   0.20731   0.20350  -0.0975  0.0552  1.0000  -1.9113   0.0000   0.0000   0.0000   0.3227
  18.600   1.0236   0.23037   0.22653  -0.1074  0.0468  1.0000  -1.7394   0.0000   0.0000   0.0000   0.3318
  18.700   1.0234   0.23204   0.22820  -0.1085  0.0448  1.0000  -1.7216   0.0000   0.0000   0.0000   0.3328
  18.800   1.0236   0.23403   0.23019  -0.1096  0.0426  1.0000  -1.7101   0.0000   0.0000   0.0000   0.3337
  18.900   1.0243   0.23601   0.23217  -0.1105  0.0404  1.0000  -1.7088   0.0000   0.0000   0.0000   0.3344
  19.000   1.0256   0.23785   0.23401  -0.1113  0.0382  1.0000  -1.7188   0.0000   0.0000   0.0000   0.3349
  19.100   1.0275   0.23946   0.23561  -0.1119  0.0361  1.0000  -1.7430   0.0000   0.0000   0.0000   0.3351
  19.200   1.0303   0.24065   0.23680  -0.1124  0.0339  1.0000  -1.7906   0.0000   0.0000   0.0000   0.3349
  19.300   1.0359   0.24075   0.23689  -0.1122  0.0314  1.0000  -1.8998   0.0000   0.0000   0.0000   0.3338
  19.400   1.0454   0.23893   0.23505  -0.1109  0.0284  1.0000  -2.1311   0.0000   0.0000   0.0000   0.3309
  19.500   1.0437   0.24306   0.23918  -0.1121  0.0267  1.0000  -2.1154   0.0000   0.0000   0.0000   0.3320
  19.600   1.0319   0.25448   0.25063  -0.1158  0.0255  1.0000  -1.8353   0.0000   0.0000   0.0000   0.3372
  19.700   1.0320   0.25756   0.25368  -0.1170  0.0254  1.0000  -1.8037   0.0000   0.0000   0.0000   0.3382
  19.800   1.0332   0.25980   0.25592  -0.1179  0.0254  1.0000  -1.7964   0.0000   0.0000   0.0000   0.3388
  19.900   1.0344   0.26186   0.25798  -0.1188  0.0253  1.0000  -1.7926   0.0000   0.0000   0.0000   0.3394
  20.000   1.0359   0.26354   0.25966  -0.1196  0.0252  1.0000  -1.7965   0.0000   0.0000   0.0000   0.3398
  20.100   1.0385   0.26377   0.25989  -0.1202  0.0246  1.0000  -1.8303   0.0000   0.0000   0.0000   0.3399
  20.200   1.0432   0.26300   0.25911  -0.1204  0.0230  1.0000  -1.8909   0.0000   0.0000   0.0000   0.3394
  20.300   1.0455   0.26462   0.26073  -0.1212  0.0218  1.0000  -1.8966   0.0000   0.0000   0.0000   0.3397
  20.400   1.0469   0.26680   0.26291  -0.1221  0.0207  1.0000  -1.8919   0.0000   0.0000   0.0000   0.3403
  20.500   1.0483   0.26902   0.26513  -0.1230  0.0197  1.0000  -1.8941   0.0000   0.0000   0.0000   0.3409
  20.600   1.0498   0.27115   0.26726  -0.1239  0.0188  1.0000  -1.9064   0.0000   0.0000   0.0000   0.3413
  20.700   1.0517   0.27313   0.26924  -0.1247  0.0180  1.0000  -1.9306   0.0000   0.0000   0.0000   0.3416
  20.800   1.0538   0.27489   0.27100  -0.1254  0.0171  1.0000  -1.9698   0.0000   0.0000   0.0000   0.3418
  20.900   1.0564   0.27635   0.27245  -0.1259  0.0164  1.0000  -2.0298   0.0000   0.0000   0.0000   0.3418
  21.000   1.0596   0.27744   0.27354  -0.1263  0.0156  1.0000  -2.1156   0.0000   0.0000   0.0000   0.3415
  21.100   1.0633   0.27824   0.27432  -0.1266  0.0149  1.0000  -2.2277   0.0000   0.0000   0.0000   0.3409
  21.200   1.0650   0.28032   0.27640  -0.1273  0.0143  1.0000  -2.2817   0.0000   0.0000   0.0000   0.3411
  23.700   0.9870   0.35572   0.35309  -0.2049  0.0117  1.0000  -0.8269   0.0000   0.0000   0.0000   0.4244
  23.800   0.9871   0.35694   0.35432  -0.2054  0.0117  1.0000  -0.8203   0.0000   0.0000   0.0000   0.4246
  23.900   0.9872   0.35816   0.35554  -0.2059  0.0117  1.0000  -0.8141   0.0000   0.0000   0.0000   0.4249
  24.000   0.9872   0.35938   0.35676  -0.2064  0.0116  1.0000  -0.8083   0.0000   0.0000   0.0000   0.4251
  24.100   0.9873   0.36059   0.35798  -0.2069  0.0116  1.0000  -0.8026   0.0000   0.0000   0.0000   0.4254
  24.200   0.9874   0.36180   0.35919  -0.2073  0.0116  1.0000  -0.7972   0.0000   0.0000   0.0000   0.4256


