xflr5 v6.61

 Calculated polar for: GOE 398 AIRFOIL

 1 1 Reynolds number fixed          Mach number fixed         

 xtrf =   1.000 (top)        1.000 (bottom)
 Mach =   0.000     Re =     0.450 e 6     Ncrit =   9.000

  alpha     CL        CD       CDp       Cm    Top Xtr Bot Xtr   Cpmin    Chinge    XCp    
 ------- -------- --------- --------- -------- ------- ------- -------- --------- ---------
 -10.000  -0.4785   0.02340   0.01872  -0.1010  0.9200  0.0154  -5.4682   0.0000   0.0000   0.0000   0.0220
  -9.900  -0.4704   0.02209   0.01723  -0.1014  0.9185  0.0153  -5.4170   0.0000   0.0000   0.0000   0.0176
  -9.800  -0.4613   0.02073   0.01567  -0.1019  0.9172  0.0154  -5.3590   0.0000   0.0000   0.0000   0.0122
  -9.300  -0.2815   0.03647   0.03314  -0.1124  0.9124  0.0267  -3.6054   0.0000   0.0000   0.0000  -0.1715
  -9.200  -0.3352   0.02605   0.02176  -0.1122  0.9071  0.0298  -4.0995   0.0000   0.0000   0.0000  -0.1041
  -9.100  -0.3238   0.02532   0.02097  -0.1132  0.9023  0.0315  -4.0125   0.0000   0.0000   0.0000  -0.1194
  -9.000  -0.3136   0.02546   0.02115  -0.1133  0.8988  0.0325  -3.9067   0.0000   0.0000   0.0000  -0.1312
  -8.900  -0.3076   0.02570   0.02143  -0.1123  0.8964  0.0332  -3.8193   0.0000   0.0000   0.0000  -0.1350
  -8.800  -0.3003   0.02598   0.02175  -0.1116  0.8937  0.0339  -3.7257   0.0000   0.0000   0.0000  -0.1415
  -8.700  -0.2923   0.02624   0.02204  -0.1111  0.8910  0.0346  -3.6303   0.0000   0.0000   0.0000  -0.1501
  -8.600  -0.2844   0.02640   0.02222  -0.1106  0.8882  0.0354  -3.5401   0.0000   0.0000   0.0000  -0.1591
  -8.500  -0.2763   0.02647   0.02229  -0.1102  0.8850  0.0361  -3.4529   0.0000   0.0000   0.0000  -0.1692
  -8.400  -0.2682   0.02644   0.02224  -0.1099  0.8817  0.0367  -3.3698   0.0000   0.0000   0.0000  -0.1803
  -8.300  -0.2602   0.02630   0.02208  -0.1096  0.8783  0.0374  -3.2916   0.0000   0.0000   0.0000  -0.1918
  -8.200  -0.2522   0.02609   0.02184  -0.1093  0.8747  0.0380  -3.2162   0.0000   0.0000   0.0000  -0.2043
  -8.100  -0.2440   0.02583   0.02155  -0.1091  0.8709  0.0386  -3.1422   0.0000   0.0000   0.0000  -0.2183
  -8.000  -0.2359   0.02551   0.02117  -0.1088  0.8671  0.0392  -3.0716   0.0000   0.0000   0.0000  -0.2330
  -7.900  -0.2279   0.02512   0.02073  -0.1086  0.8631  0.0396  -3.0037   0.0000   0.0000   0.0000  -0.2486
  -7.800  -0.2199   0.02470   0.02025  -0.1084  0.8590  0.0401  -2.9380   0.0000   0.0000   0.0000  -0.2653
  -7.700  -0.2119   0.02425   0.01973  -0.1081  0.8547  0.0405  -2.8739   0.0000   0.0000   0.0000  -0.2831
  -7.600  -0.2040   0.02379   0.01920  -0.1078  0.8502  0.0409  -2.8111   0.0000   0.0000   0.0000  -0.3021
  -7.500  -0.1961   0.02332   0.01865  -0.1075  0.8454  0.0412  -2.7495   0.0000   0.0000   0.0000  -0.3224
  -7.400  -0.1883   0.02285   0.01810  -0.1072  0.8401  0.0415  -2.6887   0.0000   0.0000   0.0000  -0.3442
  -7.300  -0.1803   0.02238   0.01755  -0.1069  0.8343  0.0418  -2.6282   0.0000   0.0000   0.0000  -0.3684
  -7.200  -0.1721   0.02191   0.01700  -0.1067  0.8282  0.0420  -2.5906   0.0000   0.0000   0.0000  -0.3961
  -7.100  -0.1635   0.02144   0.01645  -0.1065  0.8218  0.0423  -2.5633   0.0000   0.0000   0.0000  -0.4281
  -7.000  -0.1548   0.02099   0.01592  -0.1063  0.8153  0.0425  -2.5362   0.0000   0.0000   0.0000  -0.4648
  -6.900  -0.1461   0.02055   0.01542  -0.1061  0.8087  0.0427  -2.5095   0.0000   0.0000   0.0000  -0.5060
  -6.800  -0.1375   0.02014   0.01494  -0.1060  0.8020  0.0428  -2.4833   0.0000   0.0000   0.0000  -0.5514
  -6.700  -0.1298   0.01972   0.01446  -0.1055  0.7996  0.0429  -2.4588   0.0000   0.0000   0.0000  -0.5944
  -6.600  -0.1225   0.01929   0.01398  -0.1049  0.7990  0.0430  -2.4348   0.0000   0.0000   0.0000  -0.6399
  -6.500  -0.1150   0.01886   0.01350  -0.1043  0.7984  0.0431  -2.4108   0.0000   0.0000   0.0000  -0.6924
  -6.400  -0.1073   0.01845   0.01303  -0.1038  0.7976  0.0432  -2.3867   0.0000   0.0000   0.0000  -0.7533
  -6.300  -0.0996   0.01805   0.01257  -0.1032  0.7968  0.0433  -2.3623   0.0000   0.0000   0.0000  -0.8250
  -6.200  -0.0914   0.01774   0.01222  -0.1027  0.7958  0.0436  -2.3316   0.0000   0.0000   0.0000  -0.9150
  -6.100  -0.0829   0.01752   0.01197  -0.1023  0.7946  0.0440  -2.2956   0.0000   0.0000   0.0000  -1.0288
  -6.000  -0.0742   0.01733   0.01176  -0.1020  0.7933  0.0446  -2.2574   0.0000   0.0000   0.0000  -1.1724
  -5.900  -0.0655   0.01716   0.01156  -0.1016  0.7919  0.0451  -2.2190   0.0000   0.0000   0.0000  -1.3565
  -5.800  -0.0567   0.01697   0.01134  -0.1012  0.7902  0.0456  -2.1822   0.0000   0.0000   0.0000  -1.5979
  -5.700  -0.0479   0.01673   0.01107  -0.1008  0.7884  0.0460  -2.1486   0.0000   0.0000   0.0000  -1.9247
  -5.600  -0.0394   0.01642   0.01072  -0.1004  0.7864  0.0461  -2.1204   0.0000   0.0000   0.0000  -2.3860
  -5.500  -0.0310   0.01600   0.01024  -0.0999  0.7842  0.0460  -2.1001   0.0000   0.0000   0.0000  -3.0785
  -5.400  -0.0225   0.01557   0.00973  -0.0994  0.7819  0.0458  -2.0816   0.0000   0.0000   0.0000  -4.3021
  -5.300  -0.0139   0.01516   0.00926  -0.0990  0.7794  0.0455  -2.0620   0.0000   0.0000   0.0000  -7.1221
  -5.200  -0.0049   0.01477   0.00880  -0.0986  0.7767  0.0453  -2.0412   0.0000   0.0000   0.0000  -20.5576
  -5.100   0.0043   0.01441   0.00838  -0.0982  0.7738  0.0451  -2.0194   0.0000   0.0000   0.0000  23.8457
  -5.000   0.0136   0.01406   0.00797  -0.0979  0.7708  0.0449  -1.9967   0.0000   0.0000   0.0000   7.6447
  -4.900   0.0231   0.01374   0.00759  -0.0976  0.7677  0.0448  -1.9732   0.0000   0.0000   0.0000   4.5937
  -4.800   0.0328   0.01344   0.00723  -0.0973  0.7644  0.0446  -1.9487   0.0000   0.0000   0.0000   3.3052
  -4.700   0.0425   0.01316   0.00689  -0.0970  0.7610  0.0445  -1.9234   0.0000   0.0000   0.0000   2.5958
  -4.600   0.0524   0.01290   0.00656  -0.0968  0.7572  0.0443  -1.8975   0.0000   0.0000   0.0000   2.1478
  -4.500   0.0624   0.01265   0.00626  -0.0965  0.7534  0.0442  -1.8709   0.0000   0.0000   0.0000   1.8401
  -4.400   0.0723   0.01243   0.00597  -0.0963  0.7494  0.0441  -1.8438   0.0000   0.0000   0.0000   1.6168
  -4.300   0.0823   0.01222   0.00570  -0.0961  0.7453  0.0440  -1.8164   0.0000   0.0000   0.0000   1.4479
  -4.200   0.0922   0.01203   0.00545  -0.0958  0.7408  0.0439  -1.7888   0.0000   0.0000   0.0000   1.3159
  -4.100   0.1021   0.01186   0.00522  -0.0956  0.7358  0.0439  -1.7608   0.0000   0.0000   0.0000   1.2095
  -4.000   0.1121   0.01171   0.00501  -0.0954  0.7304  0.0438  -1.7324   0.0000   0.0000   0.0000   1.1214
  -3.900   0.1223   0.01157   0.00481  -0.0952  0.7247  0.0438  -1.7034   0.0000   0.0000   0.0000   1.0468
  -3.800   0.1328   0.01145   0.00464  -0.0952  0.7187  0.0438  -1.6739   0.0000   0.0000   0.0000   0.9829
  -3.700   0.1434   0.01134   0.00449  -0.0951  0.7127  0.0439  -1.6440   0.0000   0.0000   0.0000   0.9279
  -3.600   0.1541   0.01125   0.00437  -0.0951  0.7066  0.0439  -1.6139   0.0000   0.0000   0.0000   0.8805
  -3.500   0.1646   0.01119   0.00429  -0.0951  0.7004  0.0441  -1.5839   0.0000   0.0000   0.0000   0.8397
  -3.400   0.1743   0.01108   0.00415  -0.0948  0.6995  0.0442  -1.5547   0.0000   0.0000   0.0000   0.8048
  -3.300   0.1840   0.01096   0.00401  -0.0945  0.6991  0.0445  -1.5254   0.0000   0.0000   0.0000   0.7736
  -3.200   0.1938   0.01085   0.00388  -0.0943  0.6985  0.0448  -1.4962   0.0000   0.0000   0.0000   0.7455
  -3.100   0.2036   0.01075   0.00376  -0.0940  0.6979  0.0452  -1.4670   0.0000   0.0000   0.0000   0.7200
  -3.000   0.2134   0.01066   0.00365  -0.0937  0.6972  0.0457  -1.4378   0.0000   0.0000   0.0000   0.6968
  -2.900   0.2233   0.01058   0.00355  -0.0935  0.6964  0.0465  -1.4088   0.0000   0.0000   0.0000   0.6757
  -2.800   0.2332   0.01050   0.00346  -0.0932  0.6954  0.0475  -1.3803   0.0000   0.0000   0.0000   0.6562
  -2.700   0.2430   0.01042   0.00336  -0.0930  0.6943  0.0491  -1.3527   0.0000   0.0000   0.0000   0.6384
  -2.600   0.2525   0.01027   0.00324  -0.0926  0.6930  0.0606  -1.3358   0.0000   0.0000   0.0000   0.6221
  -2.500   0.2616   0.01011   0.00318  -0.0923  0.6916  0.0780  -1.3089   0.0000   0.0000   0.0000   0.6077
  -2.400   0.2706   0.00994   0.00314  -0.0920  0.6900  0.0945  -1.2773   0.0000   0.0000   0.0000   0.5943
  -2.300   0.2804   0.00987   0.00310  -0.0918  0.6882  0.1063  -1.2427   0.0000   0.0000   0.0000   0.5813
  -2.200   0.2899   0.00977   0.00307  -0.0916  0.6862  0.1234  -1.2080   0.0000   0.0000   0.0000   0.5694
  -2.100   0.2994   0.00967   0.00304  -0.0913  0.6838  0.1361  -1.1728   0.0000   0.0000   0.0000   0.5582
  -2.000   0.3093   0.00961   0.00301  -0.0911  0.6807  0.1459  -1.1369   0.0000   0.0000   0.0000   0.5475
  -1.900   0.3192   0.00954   0.00297  -0.0909  0.6769  0.1561  -1.1010   0.0000   0.0000   0.0000   0.5374
  -1.800   0.3285   0.00940   0.00294  -0.0906  0.6724  0.1732  -1.0662   0.0000   0.0000   0.0000   0.5282
  -1.700   0.3383   0.00933   0.00289  -0.0904  0.6669  0.1847  -1.0305   0.0000   0.0000   0.0000   0.5192
  -1.600   0.3484   0.00930   0.00282  -0.0902  0.6605  0.1906  -0.9945   0.0000   0.0000   0.0000   0.5106
  -1.500   0.3584   0.00929   0.00276  -0.0900  0.6531  0.1943  -0.9589   0.0000   0.0000   0.0000   0.5025
  -1.400   0.3679   0.00930   0.00270  -0.0897  0.6447  0.1969  -0.9244   0.0000   0.0000   0.0000   0.4949
  -1.300   0.3768   0.00933   0.00265  -0.0892  0.6348  0.1986  -0.8912   0.0000   0.0000   0.0000   0.4877
  -1.200   0.3860   0.00937   0.00261  -0.0889  0.6237  0.1999  -0.8577   0.0000   0.0000   0.0000   0.4808
  -1.100   0.3963   0.00941   0.00260  -0.0888  0.6129  0.2008  -0.8227   0.0000   0.0000   0.0000   0.4743
  -1.000   0.4074   0.00945   0.00260  -0.0888  0.6034  0.2036  -0.8292   0.0000   0.0000   0.0000   0.4682
  -0.900   0.4176   0.00945   0.00259  -0.0887  0.5995  0.2091  -0.8397   0.0000   0.0000   0.0000   0.4623
  -0.800   0.4272   0.00942   0.00256  -0.0884  0.5985  0.2152  -0.8499   0.0000   0.0000   0.0000   0.4567
  -0.700   0.4368   0.00940   0.00255  -0.0881  0.5972  0.2222  -0.8601   0.0000   0.0000   0.0000   0.4513
  -0.600   0.4465   0.00938   0.00254  -0.0878  0.5956  0.2299  -0.8704   0.0000   0.0000   0.0000   0.4461
  -0.500   0.4561   0.00937   0.00253  -0.0876  0.5933  0.2378  -0.8822   0.0000   0.0000   0.0000   0.4412
  -0.400   0.4656   0.00935   0.00253  -0.0873  0.5904  0.2453  -0.8946   0.0000   0.0000   0.0000   0.4365
  -0.300   0.4752   0.00933   0.00253  -0.0870  0.5866  0.2523  -0.9070   0.0000   0.0000   0.0000   0.4320
  -0.200   0.4846   0.00932   0.00252  -0.0867  0.5816  0.2591  -0.9193   0.0000   0.0000   0.0000   0.4277
  -0.100   0.4938   0.00931   0.00252  -0.0864  0.5749  0.2656  -0.9315   0.0000   0.0000   0.0000   0.4235
   0.000   0.5025   0.00931   0.00251  -0.0859  0.5653  0.2722  -0.9435   0.0000   0.0000   0.0000   0.4194
   0.100   0.5101   0.00935   0.00249  -0.0852  0.5510  0.2798  -0.9547   0.0000   0.0000   0.0000   0.4153
   0.200   0.5157   0.00942   0.00247  -0.0841  0.5332  0.2877  -0.9645   0.0000   0.0000   0.0000   0.4112
   0.300   0.5193   0.00952   0.00247  -0.0826  0.5132  0.2949  -0.9728   0.0000   0.0000   0.0000   0.4069
   0.400   0.5254   0.00956   0.00248  -0.0816  0.4981  0.3103  -0.9829   0.0000   0.0000   0.0000   0.4031
   0.500   0.5328   0.00946   0.00251  -0.0810  0.4922  0.3574  -0.9939   0.0000   0.0000   0.0000   0.3996
   0.600   0.5407   0.00944   0.00253  -0.0804  0.4861  0.3812  -1.0053   0.0000   0.0000   0.0000   0.3962
   0.700   0.5488   0.00946   0.00254  -0.0799  0.4797  0.3962  -1.0169   0.0000   0.0000   0.0000   0.3928
   0.800   0.5563   0.00947   0.00255  -0.0792  0.4732  0.4217  -1.0281   0.0000   0.0000   0.0000   0.3896
   0.900   0.5626   0.00944   0.00258  -0.0783  0.4664  0.4551  -1.0384   0.0000   0.0000   0.0000   0.3862
   1.000   0.5686   0.00945   0.00262  -0.0774  0.4592  0.4791  -1.0485   0.0000   0.0000   0.0000   0.3829
   1.100   0.5742   0.00949   0.00265  -0.0763  0.4514  0.4972  -1.0583   0.0000   0.0000   0.0000   0.3796
   1.200   0.5788   0.00949   0.00268  -0.0750  0.4432  0.5286  -1.0674   0.0000   0.0000   0.0000   0.3762
   1.300   0.5830   0.00945   0.00273  -0.0737  0.4345  0.5632  -1.0761   0.0000   0.0000   0.0000   0.3728
   1.400   0.5887   0.00945   0.00276  -0.0726  0.4251  0.5878  -1.0860   0.0000   0.0000   0.0000   0.3697
   1.500   0.5949   0.00943   0.00279  -0.0717  0.4170  0.6154  -1.0962   0.0000   0.0000   0.0000   0.3666
   1.600   0.6005   0.00933   0.00283  -0.0705  0.4108  0.6583  -1.1060   0.0000   0.0000   0.0000   0.3635
   1.700   0.6079   0.00928   0.00287  -0.0698  0.4058  0.6919  -1.1172   0.0000   0.0000   0.0000   0.3608
   1.800   0.6141   0.00915   0.00292  -0.0687  0.4017  0.7504  -1.1274   0.0000   0.0000   0.0000   0.3578
   1.900   0.7255   0.00936   0.00350  -0.0907  0.3990  0.9740  -1.2162   0.0000   0.0000   0.0000   0.3708
   2.000   0.8075   0.00956   0.00371  -0.1061  0.3992  1.0000  -1.2837   0.0000   0.0000   0.0000   0.3771
   2.100   0.8165   0.00960   0.00374  -0.1058  0.3990  1.0000  -1.2964   0.0000   0.0000   0.0000   0.3751
   2.200   0.8255   0.00963   0.00377  -0.1054  0.3988  1.0000  -1.3112   0.0000   0.0000   0.0000   0.3731
   2.300   0.8346   0.00967   0.00381  -0.1051  0.3986  1.0000  -1.3275   0.0000   0.0000   0.0000   0.3712
   2.400   0.8438   0.00971   0.00384  -0.1048  0.3983  1.0000  -1.3440   0.0000   0.0000   0.0000   0.3693
   2.500   0.8530   0.00974   0.00388  -0.1044  0.3980  1.0000  -1.3605   0.0000   0.0000   0.0000   0.3675
   2.600   0.8621   0.00978   0.00391  -0.1041  0.3977  1.0000  -1.3771   0.0000   0.0000   0.0000   0.3657
   2.700   0.8713   0.00982   0.00395  -0.1038  0.3974  1.0000  -1.3937   0.0000   0.0000   0.0000   0.3639
   2.800   0.8805   0.00986   0.00399  -0.1034  0.3971  1.0000  -1.4103   0.0000   0.0000   0.0000   0.3622
   2.900   0.8897   0.00990   0.00403  -0.1031  0.3967  1.0000  -1.4271   0.0000   0.0000   0.0000   0.3604
   3.000   0.8989   0.00994   0.00408  -0.1028  0.3963  1.0000  -1.4438   0.0000   0.0000   0.0000   0.3588
   3.100   0.9081   0.00999   0.00412  -0.1025  0.3958  1.0000  -1.4606   0.0000   0.0000   0.0000   0.3571
   3.200   0.9173   0.01003   0.00416  -0.1021  0.3953  1.0000  -1.4774   0.0000   0.0000   0.0000   0.3555
   3.300   0.9264   0.01007   0.00421  -0.1018  0.3948  1.0000  -1.4942   0.0000   0.0000   0.0000   0.3539
   3.400   0.9355   0.01012   0.00426  -0.1015  0.3942  1.0000  -1.5110   0.0000   0.0000   0.0000   0.3524
   3.500   0.9446   0.01017   0.00431  -0.1011  0.3935  1.0000  -1.5278   0.0000   0.0000   0.0000   0.3508
   3.600   0.9536   0.01021   0.00435  -0.1007  0.3927  1.0000  -1.5447   0.0000   0.0000   0.0000   0.3493
   3.700   0.9626   0.01026   0.00441  -0.1004  0.3919  1.0000  -1.5615   0.0000   0.0000   0.0000   0.3478
   3.800   0.9716   0.01032   0.00446  -0.1000  0.3909  1.0000  -1.5783   0.0000   0.0000   0.0000   0.3463
   3.900   0.9804   0.01037   0.00451  -0.0996  0.3899  1.0000  -1.5951   0.0000   0.0000   0.0000   0.3449
   4.000   0.9892   0.01042   0.00457  -0.0992  0.3886  1.0000  -1.6119   0.0000   0.0000   0.0000   0.3434
   4.100   0.9980   0.01048   0.00462  -0.0988  0.3872  1.0000  -1.6286   0.0000   0.0000   0.0000   0.3420
   4.200   1.0066   0.01054   0.00468  -0.0983  0.3856  1.0000  -1.6452   0.0000   0.0000   0.0000   0.3406
   4.300   1.0150   0.01060   0.00474  -0.0979  0.3838  1.0000  -1.6618   0.0000   0.0000   0.0000   0.3392
   4.400   1.0234   0.01066   0.00480  -0.0974  0.3816  1.0000  -1.6783   0.0000   0.0000   0.0000   0.3378
   4.500   1.0315   0.01073   0.00486  -0.0968  0.3790  1.0000  -1.6946   0.0000   0.0000   0.0000   0.3363
   4.600   1.0394   0.01080   0.00492  -0.0962  0.3760  1.0000  -1.7106   0.0000   0.0000   0.0000   0.3349
   4.700   1.0469   0.01089   0.00499  -0.0956  0.3723  1.0000  -1.7264   0.0000   0.0000   0.0000   0.3335
   4.800   1.0538   0.01098   0.00505  -0.0948  0.3678  1.0000  -1.7417   0.0000   0.0000   0.0000   0.3320
   4.900   1.0592   0.01108   0.00513  -0.0937  0.3628  1.0000  -1.7555   0.0000   0.0000   0.0000   0.3304
   5.000   1.0629   0.01119   0.00521  -0.0923  0.3573  1.0000  -1.7676   0.0000   0.0000   0.0000   0.3286
   5.100   1.0658   0.01131   0.00530  -0.0906  0.3514  1.0000  -1.7789   0.0000   0.0000   0.0000   0.3267
   5.200   1.0685   0.01145   0.00539  -0.0890  0.3452  1.0000  -1.7922   0.0000   0.0000   0.0000   0.3249
   5.300   1.0713   0.01159   0.00549  -0.0874  0.3387  1.0000  -1.8174   0.0000   0.0000   0.0000   0.3230
   5.400   1.0742   0.01174   0.00560  -0.0859  0.3317  1.0000  -1.8431   0.0000   0.0000   0.0000   0.3212
   5.500   1.0778   0.01189   0.00571  -0.0845  0.3241  1.0000  -1.8699   0.0000   0.0000   0.0000   0.3195
   5.600   1.0823   0.01203   0.00582  -0.0833  0.3160  1.0000  -1.8983   0.0000   0.0000   0.0000   0.3179
   5.700   1.0879   0.01215   0.00592  -0.0823  0.3081  1.0000  -1.9288   0.0000   0.0000   0.0000   0.3165
   5.800   1.0944   0.01226   0.00602  -0.0815  0.3013  1.0000  -1.9612   0.0000   0.0000   0.0000   0.3152
   5.900   1.1021   0.01235   0.00611  -0.0809  0.2992  1.0000  -1.9960   0.0000   0.0000   0.0000   0.3140
   6.000   1.1099   0.01244   0.00619  -0.0803  0.2979  1.0000  -2.0312   0.0000   0.0000   0.0000   0.3128
   6.100   1.1177   0.01252   0.00628  -0.0798  0.2964  1.0000  -2.0664   0.0000   0.0000   0.0000   0.3117
   6.200   1.1253   0.01262   0.00637  -0.0792  0.2947  1.0000  -2.1016   0.0000   0.0000   0.0000   0.3105
   6.300   1.1327   0.01272   0.00646  -0.0786  0.2928  1.0000  -2.1366   0.0000   0.0000   0.0000   0.3094
   6.400   1.1400   0.01282   0.00655  -0.0779  0.2905  1.0000  -2.1716   0.0000   0.0000   0.0000   0.3082
   6.500   1.1471   0.01293   0.00665  -0.0773  0.2880  1.0000  -2.2063   0.0000   0.0000   0.0000   0.3071
   6.600   1.1540   0.01305   0.00675  -0.0766  0.2850  1.0000  -2.2406   0.0000   0.0000   0.0000   0.3059
   6.700   1.1605   0.01317   0.00686  -0.0758  0.2815  1.0000  -2.2746   0.0000   0.0000   0.0000   0.3048
   6.800   1.1667   0.01331   0.00697  -0.0750  0.2776  1.0000  -2.3080   0.0000   0.0000   0.0000   0.3036
   6.900   1.1725   0.01346   0.00709  -0.0741  0.2733  1.0000  -2.3407   0.0000   0.0000   0.0000   0.3023
   7.000   1.1779   0.01363   0.00721  -0.0732  0.2686  1.0000  -2.3728   0.0000   0.0000   0.0000   0.3011
   7.100   1.1826   0.01381   0.00735  -0.0721  0.2637  1.0000  -2.4038   0.0000   0.0000   0.0000   0.2998
   7.200   1.1869   0.01401   0.00751  -0.0710  0.2586  1.0000  -2.4338   0.0000   0.0000   0.0000   0.2985
   7.300   1.1899   0.01424   0.00769  -0.0697  0.2524  1.0000  -2.4614   0.0000   0.0000   0.0000   0.2971
   7.400   1.1919   0.01450   0.00789  -0.0682  0.2453  1.0000  -2.4869   0.0000   0.0000   0.0000   0.2956
   7.500   1.1931   0.01477   0.00812  -0.0666  0.2379  1.0000  -2.5109   0.0000   0.0000   0.0000   0.2941
   7.600   1.1936   0.01504   0.00836  -0.0650  0.2307  1.0000  -2.5336   0.0000   0.0000   0.0000   0.2925
   7.700   1.1959   0.01527   0.00858  -0.0636  0.2235  1.0000  -2.5597   0.0000   0.0000   0.0000   0.2911
   7.800   1.1996   0.01548   0.00877  -0.0624  0.2170  1.0000  -2.5887   0.0000   0.0000   0.0000   0.2898
   7.900   1.2039   0.01567   0.00896  -0.0614  0.2108  1.0000  -2.6189   0.0000   0.0000   0.0000   0.2886
   8.000   1.2087   0.01586   0.00915  -0.0605  0.2052  1.0000  -2.6501   0.0000   0.0000   0.0000   0.2875
   8.100   1.2139   0.01604   0.00933  -0.0596  0.2003  1.0000  -2.6821   0.0000   0.0000   0.0000   0.2864
   8.200   1.2198   0.01620   0.00950  -0.0589  0.1993  1.0000  -2.7160   0.0000   0.0000   0.0000   0.2854
   8.300   1.2253   0.01637   0.00967  -0.0581  0.1978  1.0000  -2.7490   0.0000   0.0000   0.0000   0.2843
   8.400   1.2302   0.01657   0.00986  -0.0572  0.1958  1.0000  -2.7807   0.0000   0.0000   0.0000   0.2833
   8.500   1.2341   0.01679   0.01007  -0.0562  0.1929  1.0000  -2.8104   0.0000   0.0000   0.0000   0.2822
   8.600   1.2345   0.01713   0.01039  -0.0547  0.1894  1.0000  -2.8326   0.0000   0.0000   0.0000   0.2808
   8.700   1.2337   0.01753   0.01075  -0.0531  0.1847  1.0000  -2.8519   0.0000   0.0000   0.0000   0.2793
   8.800   1.2329   0.01799   0.01112  -0.0516  0.1780  1.0000  -2.8711   0.0000   0.0000   0.0000   0.2779
   8.900   1.2309   0.01854   0.01155  -0.0499  0.1697  1.0000  -2.8876   0.0000   0.0000   0.0000   0.2764
   9.000   1.2278   0.01919   0.01209  -0.0482  0.1598  1.0000  -2.9010   0.0000   0.0000   0.0000   0.2750
   9.100   1.2280   0.01969   0.01253  -0.0469  0.1492  1.0000  -2.9205   0.0000   0.0000   0.0000   0.2737
   9.200   1.2292   0.02016   0.01295  -0.0458  0.1411  1.0000  -2.9403   0.0000   0.0000   0.0000   0.2726
   9.400   1.2078   0.02252   0.01488  -0.0411  0.0893  1.0000  -2.9315   0.0000   0.0000   0.0000   0.2690
   9.500   1.1974   0.02377   0.01598  -0.0389  0.0719  1.0000  -2.9261   0.0000   0.0000   0.0000   0.2673
   9.600   1.1878   0.02493   0.01711  -0.0370  0.0646  1.0000  -2.9206   0.0000   0.0000   0.0000   0.2657
   9.700   1.1826   0.02590   0.01805  -0.0355  0.0498  1.0000  -2.9121   0.0000   0.0000   0.0000   0.2643
   9.800   1.1856   0.02636   0.01853  -0.0347  0.0484  1.0000  -2.9330   0.0000   0.0000   0.0000   0.2634
   9.900   1.1892   0.02678   0.01897  -0.0340  0.0473  1.0000  -2.9560   0.0000   0.0000   0.0000   0.2626
  10.000   1.1931   0.02719   0.01940  -0.0334  0.0465  1.0000  -2.9803   0.0000   0.0000   0.0000   0.2618
  10.100   1.1972   0.02759   0.01981  -0.0327  0.0458  1.0000  -3.0055   0.0000   0.0000   0.0000   0.2610
  10.200   1.2014   0.02798   0.02023  -0.0321  0.0453  1.0000  -3.0310   0.0000   0.0000   0.0000   0.2602
  10.300   1.2054   0.02839   0.02067  -0.0315  0.0449  1.0000  -3.0564   0.0000   0.0000   0.0000   0.2594
  10.400   1.2093   0.02881   0.02111  -0.0309  0.0445  1.0000  -3.0819   0.0000   0.0000   0.0000   0.2586
  10.500   1.2131   0.02924   0.02156  -0.0303  0.0442  1.0000  -3.1074   0.0000   0.0000   0.0000   0.2579
  10.600   1.2168   0.02967   0.02203  -0.0297  0.0439  1.0000  -3.1325   0.0000   0.0000   0.0000   0.2571
  10.700   1.2203   0.03013   0.02251  -0.0291  0.0437  1.0000  -3.1573   0.0000   0.0000   0.0000   0.2564
  10.800   1.2235   0.03060   0.02302  -0.0285  0.0435  1.0000  -3.1816   0.0000   0.0000   0.0000   0.2556
  10.900   1.2264   0.03111   0.02355  -0.0279  0.0433  1.0000  -3.2051   0.0000   0.0000   0.0000   0.2549
  11.000   1.2288   0.03164   0.02412  -0.0273  0.0431  1.0000  -3.2275   0.0000   0.0000   0.0000   0.2542
  11.100   1.2306   0.03222   0.02473  -0.0267  0.0430  1.0000  -3.2485   0.0000   0.0000   0.0000   0.2534
  11.200   1.2316   0.03286   0.02541  -0.0260  0.0429  1.0000  -3.2678   0.0000   0.0000   0.0000   0.2527
  11.600   1.2040   0.03831   0.03131  -0.0225  0.0314  1.0000  -3.3312   0.0000   0.0000   0.0000   0.2493
  11.700   1.2008   0.03945   0.03252  -0.0218  0.0295  1.0000  -3.3436   0.0000   0.0000   0.0000   0.2485
  11.800   1.1981   0.04058   0.03371  -0.0211  0.0282  1.0000  -3.3550   0.0000   0.0000   0.0000   0.2478
  11.900   1.1953   0.04173   0.03494  -0.0205  0.0273  1.0000  -3.3647   0.0000   0.0000   0.0000   0.2471
  12.000   1.1919   0.04297   0.03624  -0.0200  0.0266  1.0000  -3.3720   0.0000   0.0000   0.0000   0.2465
  12.100   1.1876   0.04432   0.03766  -0.0195  0.0261  1.0000  -3.3764   0.0000   0.0000   0.0000   0.2459
  12.200   1.2213   0.04192   0.03499  -0.0204  0.0249  1.0000  -3.6121   0.0000   0.0000   0.0000   0.2461
  12.300   1.2277   0.04220   0.03525  -0.0203  0.0244  1.0000  -3.6755   0.0000   0.0000   0.0000   0.2457
  12.400   1.2318   0.04270   0.03575  -0.0200  0.0238  1.0000  -3.7249   0.0000   0.0000   0.0000   0.2452
  12.500   1.2348   0.04333   0.03638  -0.0198  0.0233  1.0000  -3.7672   0.0000   0.0000   0.0000   0.2448
  12.600   1.2367   0.04406   0.03713  -0.0195  0.0228  1.0000  -3.8041   0.0000   0.0000   0.0000   0.2443
  12.700   1.2372   0.04495   0.03804  -0.0192  0.0223  1.0000  -3.8349   0.0000   0.0000   0.0000   0.2439
  12.800   1.2202   0.04792   0.04111  -0.0192  0.0226  1.0000  -3.7964   0.0000   0.0000   0.0000   0.2438
  12.900   1.2204   0.04891   0.04212  -0.0190  0.0222  1.0000  -3.8252   0.0000   0.0000   0.0000   0.2434
  13.000   1.2220   0.04974   0.04296  -0.0188  0.0217  1.0000  -3.8588   0.0000   0.0000   0.0000   0.2430
  13.100   1.2239   0.05052   0.04374  -0.0186  0.0212  1.0000  -3.8935   0.0000   0.0000   0.0000   0.2426
  13.200   1.2260   0.05128   0.04449  -0.0184  0.0208  1.0000  -3.9286   0.0000   0.0000   0.0000   0.2422
  13.300   1.2282   0.05203   0.04523  -0.0182  0.0203  1.0000  -3.9638   0.0000   0.0000   0.0000   0.2418
  13.400   1.2304   0.05277   0.04596  -0.0180  0.0198  1.0000  -3.9988   0.0000   0.0000   0.0000   0.2414
  13.500   1.2326   0.05352   0.04670  -0.0177  0.0193  1.0000  -4.0336   0.0000   0.0000   0.0000   0.2409
  13.600   1.2347   0.05427   0.04744  -0.0175  0.0189  1.0000  -4.0679   0.0000   0.0000   0.0000   0.2405
  13.700   1.2368   0.05504   0.04819  -0.0173  0.0184  1.0000  -4.1016   0.0000   0.0000   0.0000   0.2401
  13.800   1.2388   0.05581   0.04896  -0.0171  0.0180  1.0000  -4.1346   0.0000   0.0000   0.0000   0.2397
  13.900   1.2408   0.05660   0.04974  -0.0170  0.0176  1.0000  -4.1668   0.0000   0.0000   0.0000   0.2393
  14.000   1.2426   0.05741   0.05054  -0.0168  0.0172  1.0000  -4.1980   0.0000   0.0000   0.0000   0.2390
  14.100   1.2442   0.05825   0.05138  -0.0166  0.0168  1.0000  -4.2277   0.0000   0.0000   0.0000   0.2386
  14.200   1.2455   0.05913   0.05227  -0.0165  0.0164  1.0000  -4.2560   0.0000   0.0000   0.0000   0.2383
  14.300   1.2465   0.06006   0.05321  -0.0164  0.0161  1.0000  -4.2827   0.0000   0.0000   0.0000   0.2379
  14.400   1.2473   0.06106   0.05423  -0.0163  0.0158  1.0000  -4.3082   0.0000   0.0000   0.0000   0.2377
  14.500   1.2473   0.06219   0.05539  -0.0163  0.0155  1.0000  -4.3301   0.0000   0.0000   0.0000   0.2374
  14.600   1.2457   0.06355   0.05677  -0.0164  0.0153  1.0000  -4.3460   0.0000   0.0000   0.0000   0.2373
  14.700   1.2297   0.06711   0.06045  -0.0175  0.0155  1.0000  -4.3048   0.0000   0.0000   0.0000   0.2381
  14.800   1.2271   0.06859   0.06195  -0.0176  0.0153  1.0000  -4.3164   0.0000   0.0000   0.0000   0.2380
  14.900   1.2260   0.06984   0.06323  -0.0177  0.0151  1.0000  -4.3335   0.0000   0.0000   0.0000   0.2379
  15.000   1.2255   0.07101   0.06442  -0.0178  0.0149  1.0000  -4.3525   0.0000   0.0000   0.0000   0.2377
  15.100   1.2251   0.07212   0.06555  -0.0178  0.0146  1.0000  -4.3722   0.0000   0.0000   0.0000   0.2375
  15.200   1.2248   0.07321   0.06666  -0.0178  0.0144  1.0000  -4.3919   0.0000   0.0000   0.0000   0.2373
  15.300   1.2244   0.07431   0.06779  -0.0178  0.0142  1.0000  -4.4110   0.0000   0.0000   0.0000   0.2371
  15.400   1.2238   0.07546   0.06897  -0.0179  0.0140  1.0000  -4.4291   0.0000   0.0000   0.0000   0.2369
  15.500   1.2231   0.07667   0.07020  -0.0180  0.0139  1.0000  -4.4466   0.0000   0.0000   0.0000   0.2368
  15.600   1.2220   0.07798   0.07155  -0.0182  0.0137  1.0000  -4.4622   0.0000   0.0000   0.0000   0.2367
  15.700   1.2197   0.07952   0.07313  -0.0184  0.0136  1.0000  -4.4722   0.0000   0.0000   0.0000   0.2367
  15.800   1.2117   0.08200   0.07564  -0.0192  0.0136  1.0000  -4.4585   0.0000   0.0000   0.0000   0.2372
  15.900   1.1615   0.09132   0.08523  -0.0230  0.0145  1.0000  -4.2656   0.0000   0.0000   0.0000   0.2410
  16.000   1.1599   0.09273   0.08666  -0.0233  0.0143  1.0000  -4.2776   0.0000   0.0000   0.0000   0.2410
  16.100   1.1594   0.09399   0.08794  -0.0235  0.0141  1.0000  -4.2943   0.0000   0.0000   0.0000   0.2410
  16.200   1.1597   0.09517   0.08913  -0.0236  0.0139  1.0000  -4.3136   0.0000   0.0000   0.0000   0.2409
  16.300   1.1602   0.09630   0.09029  -0.0238  0.0137  1.0000  -4.3338   0.0000   0.0000   0.0000   0.2408
  16.400   1.1609   0.09740   0.09137  -0.0239  0.0136  1.0000  -4.3549   0.0000   0.0000   0.0000   0.2407
  16.500   1.1621   0.09842   0.09240  -0.0241  0.0135  1.0000  -4.3781   0.0000   0.0000   0.0000   0.2405
  16.600   1.1635   0.09942   0.09342  -0.0242  0.0135  1.0000  -4.4017   0.0000   0.0000   0.0000   0.2403
  16.700   1.1650   0.10040   0.09442  -0.0243  0.0135  1.0000  -4.4257   0.0000   0.0000   0.0000   0.2402
  16.800   1.1665   0.10137   0.09540  -0.0244  0.0134  1.0000  -4.4501   0.0000   0.0000   0.0000   0.2400
  16.900   1.1850   0.09997   0.09408  -0.0240  0.0161  1.0000  -4.4750   0.0000   0.0000   0.0000   0.2391
  17.000   1.1867   0.10092   0.09503  -0.0242  0.0160  1.0000  -4.4996   0.0000   0.0000   0.0000   0.2390
  17.100   1.1882   0.10188   0.09600  -0.0243  0.0157  1.0000  -4.5248   0.0000   0.0000   0.0000   0.2388
  17.200   1.1896   0.10286   0.09699  -0.0244  0.0155  1.0000  -4.5500   0.0000   0.0000   0.0000   0.2387
  17.300   1.1910   0.10384   0.09798  -0.0246  0.0152  1.0000  -4.5753   0.0000   0.0000   0.0000   0.2385
  17.400   1.1924   0.10484   0.09898  -0.0247  0.0149  1.0000  -4.6004   0.0000   0.0000   0.0000   0.2384
  17.500   1.1936   0.10584   0.10000  -0.0249  0.0146  1.0000  -4.6251   0.0000   0.0000   0.0000   0.2382
  17.600   1.1947   0.10686   0.10103  -0.0250  0.0143  1.0000  -4.6492   0.0000   0.0000   0.0000   0.2381
  17.700   1.1956   0.10791   0.10210  -0.0252  0.0140  1.0000  -4.6722   0.0000   0.0000   0.0000   0.2380
  17.800   1.1964   0.10899   0.10320  -0.0254  0.0137  1.0000  -4.6941   0.0000   0.0000   0.0000   0.2379
  17.900   1.1971   0.11007   0.10427  -0.0256  0.0135  1.0000  -4.7155   0.0000   0.0000   0.0000   0.2378
  18.000   1.1978   0.11116   0.10538  -0.0258  0.0135  1.0000  -4.7369   0.0000   0.0000   0.0000   0.2377
  18.100   1.1982   0.11230   0.10655  -0.0261  0.0135  1.0000  -4.7563   0.0000   0.0000   0.0000   0.2377
  18.200   1.1980   0.11356   0.10784  -0.0264  0.0134  1.0000  -4.7726   0.0000   0.0000   0.0000   0.2377
  18.300   1.1964   0.11506   0.10937  -0.0269  0.0134  1.0000  -4.7820   0.0000   0.0000   0.0000   0.2379
  18.700   1.1240   0.13338   0.12812  -0.0357  0.0137  1.0000  -4.4672   0.0000   0.0000   0.0000   0.2466
  18.800   1.1242   0.13454   0.12926  -0.0361  0.0135  1.0000  -4.4833   0.0000   0.0000   0.0000   0.2467
  18.900   1.1249   0.13561   0.13035  -0.0364  0.0135  1.0000  -4.5018   0.0000   0.0000   0.0000   0.2467
  19.000   1.1258   0.13665   0.13141  -0.0368  0.0135  1.0000  -4.5212   0.0000   0.0000   0.0000   0.2467
  19.100   1.1269   0.13766   0.13243  -0.0371  0.0134  1.0000  -4.5414   0.0000   0.0000   0.0000   0.2467
  19.200   1.1280   0.13864   0.13343  -0.0374  0.0134  1.0000  -4.5622   0.0000   0.0000   0.0000   0.2467
  19.300   1.1292   0.13960   0.13441  -0.0377  0.0133  1.0000  -4.5836   0.0000   0.0000   0.0000   0.2467
  19.400   1.1306   0.14054   0.13537  -0.0380  0.0133  1.0000  -4.6055   0.0000   0.0000   0.0000   0.2467
  19.500   1.1320   0.14147   0.13631  -0.0384  0.0133  1.0000  -4.6278   0.0000   0.0000   0.0000   0.2466
  19.600   1.1334   0.14238   0.13724  -0.0387  0.0132  1.0000  -4.6504   0.0000   0.0000   0.0000   0.2466
  19.700   1.1349   0.14328   0.13816  -0.0390  0.0132  1.0000  -4.6732   0.0000   0.0000   0.0000   0.2465
  19.800   1.1364   0.14415   0.13904  -0.0393  0.0132  1.0000  -4.6963   0.0000   0.0000   0.0000   0.2465
  19.900   1.1379   0.14497   0.13988  -0.0396  0.0131  1.0000  -4.7196   0.0000   0.0000   0.0000   0.2464
  20.000   1.1395   0.14576   0.14070  -0.0399  0.0131  1.0000  -4.7430   0.0000   0.0000   0.0000   0.2464
  20.100   1.1411   0.14654   0.14149  -0.0402  0.0131  1.0000  -4.7664   0.0000   0.0000   0.0000   0.2463
  20.200   1.1427   0.14731   0.14229  -0.0405  0.0130  1.0000  -4.7899   0.0000   0.0000   0.0000   0.2462
  20.300   1.1442   0.14809   0.14308  -0.0408  0.0130  1.0000  -4.8133   0.0000   0.0000   0.0000   0.2462
  20.400   1.1457   0.14887   0.14388  -0.0411  0.0130  1.0000  -4.8365   0.0000   0.0000   0.0000   0.2461
  20.500   1.1472   0.14966   0.14469  -0.0414  0.0129  1.0000  -4.8595   0.0000   0.0000   0.0000   0.2461
  20.600   1.1486   0.15046   0.14552  -0.0418  0.0129  1.0000  -4.8822   0.0000   0.0000   0.0000   0.2461
  20.700   1.1500   0.15129   0.14637  -0.0421  0.0129  1.0000  -4.9045   0.0000   0.0000   0.0000   0.2460
  20.800   1.1512   0.15213   0.14724  -0.0424  0.0129  1.0000  -4.9263   0.0000   0.0000   0.0000   0.2460
  20.900   1.1524   0.15300   0.14813  -0.0428  0.0128  1.0000  -4.9475   0.0000   0.0000   0.0000   0.2460
  21.000   1.1535   0.15390   0.14905  -0.0432  0.0128  1.0000  -4.9680   0.0000   0.0000   0.0000   0.2460
  21.100   1.1544   0.15483   0.15001  -0.0436  0.0128  1.0000  -4.9875   0.0000   0.0000   0.0000   0.2461
  21.200   1.1551   0.15579   0.15101  -0.0440  0.0128  1.0000  -5.0060   0.0000   0.0000   0.0000   0.2461
  21.300   1.1557   0.15681   0.15206  -0.0444  0.0127  1.0000  -5.0230   0.0000   0.0000   0.0000   0.2462
  21.400   1.1560   0.15788   0.15316  -0.0449  0.0127  1.0000  -5.0383   0.0000   0.0000   0.0000   0.2464
  21.500   1.1562   0.15901   0.15432  -0.0454  0.0127  1.0000  -5.0524   0.0000   0.0000   0.0000   0.2465
  21.600   1.1560   0.16021   0.15555  -0.0460  0.0127  1.0000  -5.0643   0.0000   0.0000   0.0000   0.2467
  21.700   1.1554   0.16152   0.15691  -0.0466  0.0127  1.0000  -5.0726   0.0000   0.0000   0.0000   0.2470
  21.800   1.1541   0.16300   0.15843  -0.0473  0.0127  1.0000  -5.0758   0.0000   0.0000   0.0000   0.2474
  21.900   1.1516   0.16479   0.16027  -0.0482  0.0127  1.0000  -5.0693   0.0000   0.0000   0.0000   0.2481
  22.000   1.1361   0.16974   0.16532  -0.0509  0.0127  1.0000  -4.9648   0.0000   0.0000   0.0000   0.2511
  22.100   1.1337   0.17155   0.16718  -0.0518  0.0127  1.0000  -4.9581   0.0000   0.0000   0.0000   0.2517
  22.200   1.1320   0.17323   0.16889  -0.0526  0.0127  1.0000  -4.9557   0.0000   0.0000   0.0000   0.2523
  22.300   1.1305   0.17486   0.17056  -0.0533  0.0127  1.0000  -4.9545   0.0000   0.0000   0.0000   0.2528
  22.400   1.1290   0.17651   0.17225  -0.0541  0.0127  1.0000  -4.9529   0.0000   0.0000   0.0000   0.2533
  22.500   1.1274   0.17819   0.17396  -0.0549  0.0127  1.0000  -4.9501   0.0000   0.0000   0.0000   0.2538
  22.600   1.1256   0.17993   0.17574  -0.0557  0.0127  1.0000  -4.9453   0.0000   0.0000   0.0000   0.2544
  22.700   1.1235   0.18176   0.17761  -0.0566  0.0127  1.0000  -4.9377   0.0000   0.0000   0.0000   0.2550
  22.800   1.1210   0.18371   0.17961  -0.0575  0.0126  1.0000  -4.9259   0.0000   0.0000   0.0000   0.2558
  22.900   1.1179   0.18584   0.18179  -0.0585  0.0126  1.0000  -4.9081   0.0000   0.0000   0.0000   0.2566
  23.000   1.1137   0.18827   0.18426  -0.0596  0.0126  1.0000  -4.8809   0.0000   0.0000   0.0000   0.2577
  23.100   1.1075   0.19127   0.18732  -0.0611  0.0127  1.0000  -4.8348   0.0000   0.0000   0.0000   0.2592
  24.600   0.9030   0.30553   0.30234  -0.0911  0.0257  1.0000  -1.6126   0.0000   0.0000   0.0000   0.3114
  24.700   0.9031   0.30799   0.30480  -0.0915  0.0257  1.0000  -1.5989   0.0000   0.0000   0.0000   0.3117
  24.800   0.9050   0.30880   0.30571  -0.0920  0.0257  1.0000  -1.6000   0.0000   0.0000   0.0000   0.3117
  24.900   0.9050   0.31125   0.30815  -0.0924  0.0257  1.0000  -1.5870   0.0000   0.0000   0.0000   0.3120
  25.000   0.9050   0.31368   0.31059  -0.0928  0.0257  1.0000  -1.5746   0.0000   0.0000   0.0000   0.3123
  25.100   0.9051   0.31610   0.31301  -0.0932  0.0258  1.0000  -1.5627   0.0000   0.0000   0.0000   0.3126
  25.200   0.9051   0.31850   0.31542  -0.0936  0.0258  1.0000  -1.5514   0.0000   0.0000   0.0000   0.3129
  25.300   0.9050   0.32090   0.31781  -0.0939  0.0258  1.0000  -1.5405   0.0000   0.0000   0.0000   0.3131
  25.400   0.9049   0.32328   0.32020  -0.0943  0.0258  1.0000  -1.5298   0.0000   0.0000   0.0000   0.3134
  25.500   0.9048   0.32565   0.32258  -0.0947  0.0258  1.0000  -1.5195   0.0000   0.0000   0.0000   0.3136
  25.600   0.9046   0.32801   0.32494  -0.0950  0.0258  1.0000  -1.5094   0.0000   0.0000   0.0000   0.3139
  25.700   0.9044   0.33036   0.32729  -0.0953  0.0258  1.0000  -1.4995   0.0000   0.0000   0.0000   0.3141
  25.800   0.9041   0.33269   0.32962  -0.0956  0.0258  1.0000  -1.4898   0.0000   0.0000   0.0000   0.3143
  25.900   0.9038   0.33481   0.33174  -0.0960  0.0258  1.0000  -1.4817   0.0000   0.0000   0.0000   0.3146
  26.000   0.9036   0.33677   0.33371  -0.0964  0.0258  1.0000  -1.4751   0.0000   0.0000   0.0000   0.3149
  26.100   0.9032   0.33870   0.33564  -0.0968  0.0257  1.0000  -1.4690   0.0000   0.0000   0.0000   0.3152
  26.200   0.9029   0.34059   0.33753  -0.0971  0.0257  1.0000  -1.4633   0.0000   0.0000   0.0000   0.3155
  26.300   0.9025   0.34243   0.33938  -0.0974  0.0257  1.0000  -1.4583   0.0000   0.0000   0.0000   0.3157
  26.400   0.9021   0.34422   0.34117  -0.0978  0.0256  1.0000  -1.4539   0.0000   0.0000   0.0000   0.3159
  26.500   0.9017   0.34595   0.34290  -0.0981  0.0256  1.0000  -1.4503   0.0000   0.0000   0.0000   0.3161
  26.600   0.9013   0.34761   0.34456  -0.0983  0.0255  1.0000  -1.4477   0.0000   0.0000   0.0000   0.3163
  26.700   0.9010   0.34917   0.34613  -0.0986  0.0254  1.0000  -1.4462   0.0000   0.0000   0.0000   0.3165
  26.800   0.9007   0.35063   0.34758  -0.0988  0.0253  1.0000  -1.4466   0.0000   0.0000   0.0000   0.3166
  26.900   0.9006   0.35193   0.34889  -0.0991  0.0252  1.0000  -1.4496   0.0000   0.0000   0.0000   0.3167
  27.000   0.9010   0.35301   0.34997  -0.0994  0.0250  1.0000  -1.4568   0.0000   0.0000   0.0000   0.3168
  27.100   0.9026   0.35370   0.35066  -0.0998  0.0246  1.0000  -1.4731   0.0000   0.0000   0.0000   0.3168
  27.200   0.9065   0.35383   0.35078  -0.1008  0.0237  1.0000  -1.4994   0.0000   0.0000   0.0000   0.3170
  27.300   0.9105   0.35453   0.35149  -0.1020  0.0215  1.0000  -1.5138   0.0000   0.0000   0.0000   0.3176
  27.400   0.9112   0.35578   0.35273  -0.1025  0.0199  1.0000  -1.5272   0.0000   0.0000   0.0000   0.3178
  27.500   0.9114   0.35682   0.35378  -0.1027  0.0187  1.0000  -1.5488   0.0000   0.0000   0.0000   0.3178
  27.600   0.9116   0.35767   0.35463  -0.1028  0.0179  1.0000  -1.5764   0.0000   0.0000   0.0000   0.3176
  27.700   0.9118   0.35837   0.35532  -0.1029  0.0172  1.0000  -1.6087   0.0000   0.0000   0.0000   0.3174
  27.800   0.9121   0.35892   0.35587  -0.1030  0.0167  1.0000  -1.6450   0.0000   0.0000   0.0000   0.3171
  27.900   0.9124   0.35935   0.35630  -0.1030  0.0163  1.0000  -1.6847   0.0000   0.0000   0.0000   0.3167
  28.000   0.9128   0.35967   0.35662  -0.1029  0.0159  1.0000  -1.7276   0.0000   0.0000   0.0000   0.3162
  28.100   0.9133   0.35988   0.35682  -0.1027  0.0156  1.0000  -1.7733   0.0000   0.0000   0.0000   0.3156
  28.200   0.9137   0.35998   0.35692  -0.1025  0.0153  1.0000  -1.8218   0.0000   0.0000   0.0000   0.3150
  28.300   0.9142   0.35997   0.35691  -0.1022  0.0151  1.0000  -1.8730   0.0000   0.0000   0.0000   0.3142
  28.400   0.9146   0.35986   0.35679  -0.1018  0.0148  1.0000  -1.9268   0.0000   0.0000   0.0000   0.3134
  28.500   0.9116   0.35981   0.35674  -0.1011  0.0145  1.0000  -1.9585   0.0000   0.0000   0.0000   0.3126
  28.600   0.8774   0.35142   0.34833  -0.0922  0.0146  1.0000  -1.8784   0.0000   0.0000   0.0000   0.3078


