xflr5 v6.61

 Calculated polar for: GOE 398 AIRFOIL

 1 1 Reynolds number fixed          Mach number fixed         

 xtrf =   1.000 (top)        1.000 (bottom)
 Mach =   0.000     Re =     0.688 e 6     Ncrit =   9.000

  alpha     CL        CD       CDp       Cm    Top Xtr Bot Xtr   Cpmin    Chinge    XCp    
 ------- -------- --------- --------- -------- ------- ------- -------- --------- ---------
 -10.000  -0.4275   0.02045   0.01615  -0.1117  0.9076  0.0137  -5.1646   0.0000   0.0000   0.0000  -0.0298
  -9.900  -0.4262   0.01889   0.01434  -0.1108  0.8996  0.0137  -5.1540   0.0000   0.0000   0.0000  -0.0285
  -9.800  -0.4282   0.01800   0.01330  -0.1087  0.8967  0.0137  -5.1399   0.0000   0.0000   0.0000  -0.0221
  -9.700  -0.4284   0.01715   0.01230  -0.1069  0.8932  0.0137  -5.1165   0.0000   0.0000   0.0000  -0.0175
  -9.600  -0.4269   0.01635   0.01136  -0.1054  0.8892  0.0138  -5.0839   0.0000   0.0000   0.0000  -0.0145
  -9.500  -0.4240   0.01562   0.01048  -0.1040  0.8848  0.0138  -5.0432   0.0000   0.0000   0.0000  -0.0129
  -9.400  -0.4200   0.01495   0.00967  -0.1028  0.8803  0.0139  -4.9950   0.0000   0.0000   0.0000  -0.0124
  -9.300  -0.2249   0.03299   0.02997  -0.1258  0.8990  0.0265  -3.4463   0.0000   0.0000   0.0000  -0.3371
  -9.200  -0.2433   0.03130   0.02814  -0.1227  0.8935  0.0266  -3.5288   0.0000   0.0000   0.0000  -0.2798
  -9.100  -0.2644   0.02902   0.02564  -0.1194  0.8861  0.0268  -3.6392   0.0000   0.0000   0.0000  -0.2248
  -9.000  -0.2856   0.02631   0.02266  -0.1159  0.8777  0.0273  -3.7612   0.0000   0.0000   0.0000  -0.1773
  -8.900  -0.3007   0.02382   0.01988  -0.1129  0.8697  0.0280  -3.8493   0.0000   0.0000   0.0000  -0.1458
  -8.800  -0.3068   0.02205   0.01788  -0.1109  0.8629  0.0288  -3.8763   0.0000   0.0000   0.0000  -0.1313
  -8.700  -0.3065   0.02091   0.01658  -0.1096  0.8568  0.0295  -3.8567   0.0000   0.0000   0.0000  -0.1273
  -8.600  -0.3026   0.02016   0.01571  -0.1087  0.8509  0.0302  -3.8102   0.0000   0.0000   0.0000  -0.1290
  -8.500  -0.2967   0.01965   0.01512  -0.1081  0.8448  0.0309  -3.7486   0.0000   0.0000   0.0000  -0.1340
  -8.400  -0.2896   0.01930   0.01471  -0.1076  0.8383  0.0315  -3.6773   0.0000   0.0000   0.0000  -0.1415
  -8.300  -0.2814   0.01906   0.01442  -0.1073  0.8316  0.0321  -3.5990   0.0000   0.0000   0.0000  -0.1514
  -8.200  -0.2724   0.01888   0.01421  -0.1071  0.8249  0.0326  -3.5158   0.0000   0.0000   0.0000  -0.1636
  -8.100  -0.2630   0.01876   0.01407  -0.1070  0.8186  0.0331  -3.4299   0.0000   0.0000   0.0000  -0.1778
  -8.000  -0.2533   0.01866   0.01395  -0.1070  0.8128  0.0337  -3.3430   0.0000   0.0000   0.0000  -0.1936
  -7.900  -0.2435   0.01856   0.01385  -0.1070  0.8072  0.0341  -3.2567   0.0000   0.0000   0.0000  -0.2108
  -7.800  -0.2339   0.01846   0.01374  -0.1069  0.8020  0.0346  -3.1721   0.0000   0.0000   0.0000  -0.2292
  -7.700  -0.2249   0.01834   0.01360  -0.1067  0.7997  0.0350  -3.0915   0.0000   0.0000   0.0000  -0.2471
  -7.600  -0.2163   0.01818   0.01343  -0.1064  0.7994  0.0354  -3.0143   0.0000   0.0000   0.0000  -0.2648
  -7.500  -0.2078   0.01799   0.01323  -0.1060  0.7989  0.0357  -2.9390   0.0000   0.0000   0.0000  -0.2836
  -7.400  -0.1994   0.01778   0.01300  -0.1057  0.7984  0.0361  -2.8714   0.0000   0.0000   0.0000  -0.3038
  -7.300  -0.1911   0.01756   0.01274  -0.1053  0.7979  0.0364  -2.8307   0.0000   0.0000   0.0000  -0.3255
  -7.200  -0.1828   0.01731   0.01247  -0.1049  0.7972  0.0367  -2.7919   0.0000   0.0000   0.0000  -0.3490
  -7.100  -0.1745   0.01704   0.01217  -0.1045  0.7964  0.0369  -2.7548   0.0000   0.0000   0.0000  -0.3747
  -7.000  -0.1662   0.01677   0.01186  -0.1041  0.7954  0.0371  -2.7191   0.0000   0.0000   0.0000  -0.4029
  -6.900  -0.1579   0.01648   0.01154  -0.1037  0.7943  0.0373  -2.6846   0.0000   0.0000   0.0000  -0.4342
  -6.800  -0.1495   0.01618   0.01120  -0.1032  0.7930  0.0375  -2.6512   0.0000   0.0000   0.0000  -0.4692
  -6.700  -0.1411   0.01588   0.01086  -0.1028  0.7916  0.0377  -2.6187   0.0000   0.0000   0.0000  -0.5086
  -6.600  -0.1326   0.01558   0.01051  -0.1024  0.7899  0.0378  -2.5869   0.0000   0.0000   0.0000  -0.5536
  -6.500  -0.1240   0.01527   0.01016  -0.1020  0.7879  0.0379  -2.5557   0.0000   0.0000   0.0000  -0.6053
  -6.400  -0.1153   0.01496   0.00981  -0.1016  0.7857  0.0380  -2.5249   0.0000   0.0000   0.0000  -0.6658
  -6.300  -0.1065   0.01466   0.00945  -0.1013  0.7831  0.0381  -2.4945   0.0000   0.0000   0.0000  -0.7373
  -6.200  -0.0976   0.01436   0.00910  -0.1009  0.7803  0.0381  -2.4644   0.0000   0.0000   0.0000  -0.8230
  -6.100  -0.0886   0.01406   0.00875  -0.1006  0.7771  0.0382  -2.4344   0.0000   0.0000   0.0000  -0.9278
  -6.000  -0.0794   0.01377   0.00841  -0.1002  0.7737  0.0382  -2.4046   0.0000   0.0000   0.0000  -1.0584
  -5.900  -0.0701   0.01350   0.00808  -0.0999  0.7700  0.0382  -2.3736   0.0000   0.0000   0.0000  -1.2267
  -5.800  -0.0604   0.01334   0.00788  -0.0997  0.7660  0.0386  -2.3339   0.0000   0.0000   0.0000  -1.4590
  -5.700  -0.0505   0.01324   0.00775  -0.0996  0.7618  0.0391  -2.2895   0.0000   0.0000   0.0000  -1.7903
  -5.600  -0.0405   0.01315   0.00763  -0.0994  0.7574  0.0397  -2.2445   0.0000   0.0000   0.0000  -2.2871
  -5.500  -0.0306   0.01304   0.00748  -0.0993  0.7528  0.0402  -2.2019   0.0000   0.0000   0.0000  -3.0994
  -5.400  -0.0209   0.01289   0.00727  -0.0991  0.7479  0.0405  -2.1645   0.0000   0.0000   0.0000  -4.6372
  -5.300  -0.0116   0.01263   0.00695  -0.0987  0.7426  0.0405  -2.1366   0.0000   0.0000   0.0000  -8.5557
  -5.200  -0.0024   0.01234   0.00657  -0.0984  0.7368  0.0402  -2.1138   0.0000   0.0000   0.0000  -42.9055
  -5.100   0.0070   0.01207   0.00622  -0.0981  0.7306  0.0399  -2.0898   0.0000   0.0000   0.0000  14.6134
  -5.000   0.0167   0.01182   0.00590  -0.0978  0.7242  0.0396  -2.0648   0.0000   0.0000   0.0000   6.2922
  -4.900   0.0265   0.01158   0.00561  -0.0976  0.7180  0.0394  -2.0388   0.0000   0.0000   0.0000   4.0371
  -4.800   0.0366   0.01137   0.00534  -0.0974  0.7121  0.0392  -2.0118   0.0000   0.0000   0.0000   2.9918
  -4.700   0.0467   0.01118   0.00510  -0.0973  0.7064  0.0390  -1.9839   0.0000   0.0000   0.0000   2.3926
  -4.600   0.0568   0.01100   0.00488  -0.0971  0.7012  0.0388  -1.9554   0.0000   0.0000   0.0000   2.0064
  -4.500   0.0666   0.01083   0.00467  -0.0969  0.6997  0.0386  -1.9268   0.0000   0.0000   0.0000   1.7442
  -4.400   0.0762   0.01065   0.00447  -0.0966  0.6994  0.0384  -1.8975   0.0000   0.0000   0.0000   1.5505
  -4.300   0.0859   0.01050   0.00429  -0.0963  0.6990  0.0383  -1.8674   0.0000   0.0000   0.0000   1.3997
  -4.200   0.0957   0.01036   0.00412  -0.0961  0.6986  0.0381  -1.8365   0.0000   0.0000   0.0000   1.2790
  -4.100   0.1055   0.01023   0.00397  -0.0959  0.6981  0.0380  -1.8048   0.0000   0.0000   0.0000   1.1804
  -4.000   0.1154   0.01011   0.00382  -0.0956  0.6976  0.0379  -1.7725   0.0000   0.0000   0.0000   1.0982
  -3.900   0.1253   0.00999   0.00369  -0.0954  0.6969  0.0378  -1.7397   0.0000   0.0000   0.0000   1.0288
  -3.800   0.1353   0.00989   0.00357  -0.0952  0.6961  0.0377  -1.7065   0.0000   0.0000   0.0000   0.9694
  -3.700   0.1453   0.00980   0.00345  -0.0950  0.6952  0.0376  -1.6729   0.0000   0.0000   0.0000   0.9180
  -3.600   0.1554   0.00971   0.00334  -0.0948  0.6942  0.0375  -1.6389   0.0000   0.0000   0.0000   0.8731
  -3.500   0.1654   0.00963   0.00324  -0.0946  0.6929  0.0374  -1.6048   0.0000   0.0000   0.0000   0.8337
  -3.400   0.1755   0.00955   0.00314  -0.0944  0.6912  0.0374  -1.5707   0.0000   0.0000   0.0000   0.7987
  -3.300   0.1855   0.00948   0.00304  -0.0942  0.6888  0.0374  -1.5365   0.0000   0.0000   0.0000   0.7675
  -3.200   0.1956   0.00941   0.00294  -0.0940  0.6858  0.0373  -1.5024   0.0000   0.0000   0.0000   0.7395
  -3.100   0.2057   0.00935   0.00285  -0.0938  0.6818  0.0373  -1.4684   0.0000   0.0000   0.0000   0.7142
  -3.000   0.2157   0.00930   0.00275  -0.0936  0.6766  0.0374  -1.4345   0.0000   0.0000   0.0000   0.6913
  -2.900   0.2257   0.00927   0.00266  -0.0934  0.6703  0.0375  -1.4010   0.0000   0.0000   0.0000   0.6704
  -2.800   0.2355   0.00924   0.00257  -0.0931  0.6624  0.0376  -1.3681   0.0000   0.0000   0.0000   0.6515
  -2.700   0.2448   0.00924   0.00248  -0.0927  0.6531  0.0377  -1.3363   0.0000   0.0000   0.0000   0.6344
  -2.600   0.2533   0.00925   0.00239  -0.0922  0.6420  0.0380  -1.3063   0.0000   0.0000   0.0000   0.6190
  -2.500   0.2615   0.00927   0.00232  -0.0916  0.6286  0.0384  -1.2775   0.0000   0.0000   0.0000   0.6048
  -2.400   0.2707   0.00927   0.00225  -0.0912  0.6141  0.0391  -1.2487   0.0000   0.0000   0.0000   0.5911
  -2.300   0.2807   0.00926   0.00219  -0.0910  0.6016  0.0407  -1.2215   0.0000   0.0000   0.0000   0.5779
  -2.200   0.2905   0.00915   0.00213  -0.0907  0.5991  0.0464  -1.2021   0.0000   0.0000   0.0000   0.5656
  -2.100   0.3003   0.00906   0.00210  -0.0905  0.5979  0.0577  -1.1735   0.0000   0.0000   0.0000   0.5543
  -2.000   0.3098   0.00895   0.00206  -0.0903  0.5962  0.0730  -1.1397   0.0000   0.0000   0.0000   0.5440
  -1.900   0.3199   0.00890   0.00204  -0.0901  0.5940  0.0799  -1.1044   0.0000   0.0000   0.0000   0.5341
  -1.800   0.3296   0.00882   0.00201  -0.0899  0.5915  0.0890  -1.0695   0.0000   0.0000   0.0000   0.5249
  -1.700   0.3395   0.00877   0.00199  -0.0897  0.5886  0.0958  -1.0340   0.0000   0.0000   0.0000   0.5161
  -1.600   0.3495   0.00874   0.00198  -0.0896  0.5852  0.1030  -0.9984   0.0000   0.0000   0.0000   0.5078
  -1.500   0.3593   0.00871   0.00197  -0.0894  0.5810  0.1174  -0.9634   0.0000   0.0000   0.0000   0.5000
  -1.400   0.3687   0.00866   0.00197  -0.0891  0.5758  0.1287  -0.9293   0.0000   0.0000   0.0000   0.4927
  -1.300   0.3779   0.00863   0.00195  -0.0888  0.5683  0.1375  -0.8957   0.0000   0.0000   0.0000   0.4858
  -1.200   0.3862   0.00865   0.00194  -0.0883  0.5563  0.1446  -0.8637   0.0000   0.0000   0.0000   0.4792
  -1.100   0.3930   0.00872   0.00193  -0.0875  0.5397  0.1500  -0.8343   0.0000   0.0000   0.0000   0.4728
  -0.900   0.4040   0.00880   0.00193  -0.0853  0.4989  0.1711  -0.8331   0.0000   0.0000   0.0000   0.4610
  -0.800   0.4126   0.00879   0.00193  -0.0849  0.4925  0.1812  -0.8426   0.0000   0.0000   0.0000   0.4554
  -0.700   0.4213   0.00881   0.00194  -0.0844  0.4859  0.1870  -0.8522   0.0000   0.0000   0.0000   0.4499
  -0.600   0.4299   0.00885   0.00194  -0.0840  0.4790  0.1907  -0.8617   0.0000   0.0000   0.0000   0.4447
  -0.500   0.4382   0.00890   0.00195  -0.0835  0.4718  0.1931  -0.8711   0.0000   0.0000   0.0000   0.4396
  -0.400   0.4462   0.00896   0.00196  -0.0829  0.4643  0.1950  -0.8819   0.0000   0.0000   0.0000   0.4347
  -0.300   0.4539   0.00903   0.00198  -0.0823  0.4569  0.1965  -0.8930   0.0000   0.0000   0.0000   0.4300
  -0.200   0.4616   0.00909   0.00199  -0.0816  0.4491  0.1978  -0.9040   0.0000   0.0000   0.0000   0.4254
  -0.100   0.4695   0.00915   0.00200  -0.0810  0.4411  0.1988  -0.9152   0.0000   0.0000   0.0000   0.4210
   0.000   0.4778   0.00920   0.00201  -0.0805  0.4328  0.1997  -0.9266   0.0000   0.0000   0.0000   0.4168
   0.100   0.4864   0.00924   0.00202  -0.0800  0.4245  0.2005  -0.9383   0.0000   0.0000   0.0000   0.4127
   0.200   0.4951   0.00927   0.00203  -0.0796  0.4166  0.2012  -0.9501   0.0000   0.0000   0.0000   0.4088
   0.300   0.5042   0.00930   0.00204  -0.0792  0.4100  0.2046  -0.9622   0.0000   0.0000   0.0000   0.4050
   0.400   0.5134   0.00931   0.00205  -0.0789  0.4048  0.2096  -0.9744   0.0000   0.0000   0.0000   0.4014
   0.500   0.5227   0.00933   0.00206  -0.0786  0.4004  0.2169  -0.9867   0.0000   0.0000   0.0000   0.3979
   0.600   0.5325   0.00933   0.00207  -0.0784  0.3996  0.2249  -0.9995   0.0000   0.0000   0.0000   0.3946
   0.700   0.5423   0.00934   0.00209  -0.0782  0.3991  0.2315  -1.0123   0.0000   0.0000   0.0000   0.3914
   0.800   0.5521   0.00934   0.00210  -0.0779  0.3984  0.2368  -1.0250   0.0000   0.0000   0.0000   0.3883
   0.900   0.5618   0.00935   0.00212  -0.0777  0.3977  0.2418  -1.0378   0.0000   0.0000   0.0000   0.3853
   1.000   0.5714   0.00935   0.00213  -0.0775  0.3970  0.2471  -1.0506   0.0000   0.0000   0.0000   0.3824
   1.100   0.5810   0.00935   0.00215  -0.0772  0.3964  0.2519  -1.0633   0.0000   0.0000   0.0000   0.3796
   1.200   0.5906   0.00935   0.00217  -0.0770  0.3958  0.2568  -1.0760   0.0000   0.0000   0.0000   0.3769
   1.300   0.6001   0.00934   0.00219  -0.0767  0.3952  0.2626  -1.0888   0.0000   0.0000   0.0000   0.3743
   1.400   0.6094   0.00933   0.00222  -0.0764  0.3946  0.2697  -1.1014   0.0000   0.0000   0.0000   0.3717
   1.500   0.6187   0.00932   0.00225  -0.0761  0.3939  0.2775  -1.1140   0.0000   0.0000   0.0000   0.3692
   1.600   0.6280   0.00931   0.00227  -0.0758  0.3932  0.2858  -1.1267   0.0000   0.0000   0.0000   0.3668
   1.700   0.6372   0.00930   0.00230  -0.0755  0.3924  0.2943  -1.1393   0.0000   0.0000   0.0000   0.3644
   1.800   0.6462   0.00928   0.00233  -0.0751  0.3916  0.3187  -1.1517   0.0000   0.0000   0.0000   0.3621
   2.000   0.6625   0.00912   0.00239  -0.0741  0.3898  0.3889  -1.1755   0.0000   0.0000   0.0000   0.3575
   2.100   0.6714   0.00912   0.00242  -0.0737  0.3888  0.3975  -1.1880   0.0000   0.0000   0.0000   0.3553
   2.200   0.6796   0.00912   0.00245  -0.0732  0.3877  0.4160  -1.2000   0.0000   0.0000   0.0000   0.3530
   2.300   0.6862   0.00906   0.00248  -0.0723  0.3865  0.4449  -1.2108   0.0000   0.0000   0.0000   0.3506
   2.400   0.6914   0.00899   0.00251  -0.0712  0.3853  0.4751  -1.2206   0.0000   0.0000   0.0000   0.3480
   2.500   0.6974   0.00896   0.00254  -0.0701  0.3839  0.4955  -1.2309   0.0000   0.0000   0.0000   0.3455
   2.600   0.7018   0.00883   0.00258  -0.0688  0.3823  0.5535  -1.2401   0.0000   0.0000   0.0000   0.3429
   2.800   0.8982   0.00860   0.00337  -0.1072  0.3856  1.0000  -1.4308   0.0000   0.0000   0.0000   0.3641
   2.900   0.9072   0.00864   0.00341  -0.1069  0.3843  1.0000  -1.4475   0.0000   0.0000   0.0000   0.3623
   3.000   0.9162   0.00869   0.00345  -0.1065  0.3828  1.0000  -1.4641   0.0000   0.0000   0.0000   0.3607
   3.100   0.9251   0.00874   0.00349  -0.1061  0.3811  1.0000  -1.4808   0.0000   0.0000   0.0000   0.3590
   3.200   0.9339   0.00879   0.00353  -0.1057  0.3789  1.0000  -1.4973   0.0000   0.0000   0.0000   0.3573
   3.300   0.9425   0.00885   0.00358  -0.1052  0.3762  1.0000  -1.5138   0.0000   0.0000   0.0000   0.3557
   3.400   0.9508   0.00892   0.00363  -0.1047  0.3728  1.0000  -1.5300   0.0000   0.0000   0.0000   0.3541
   3.500   0.9587   0.00900   0.00368  -0.1042  0.3683  1.0000  -1.5459   0.0000   0.0000   0.0000   0.3524
   3.600   0.9661   0.00910   0.00375  -0.1035  0.3627  1.0000  -1.5614   0.0000   0.0000   0.0000   0.3508
   3.700   0.9729   0.00921   0.00382  -0.1027  0.3562  1.0000  -1.5763   0.0000   0.0000   0.0000   0.3491
   3.800   0.9793   0.00934   0.00389  -0.1018  0.3497  1.0000  -1.5907   0.0000   0.0000   0.0000   0.3473
   3.900   0.9851   0.00947   0.00397  -0.1008  0.3426  1.0000  -1.6047   0.0000   0.0000   0.0000   0.3456
   4.000   0.9906   0.00960   0.00405  -0.0997  0.3350  1.0000  -1.6184   0.0000   0.0000   0.0000   0.3438
   4.100   0.9964   0.00972   0.00413  -0.0987  0.3275  1.0000  -1.6323   0.0000   0.0000   0.0000   0.3421
   4.200   1.0017   0.00983   0.00421  -0.0976  0.3197  1.0000  -1.6458   0.0000   0.0000   0.0000   0.3403
   4.300   1.0056   0.00992   0.00428  -0.0962  0.3121  1.0000  -1.6580   0.0000   0.0000   0.0000   0.3384
   4.400   1.0097   0.01001   0.00435  -0.0948  0.3053  1.0000  -1.6703   0.0000   0.0000   0.0000   0.3365
   4.500   1.0152   0.01008   0.00441  -0.0937  0.3000  1.0000  -1.6840   0.0000   0.0000   0.0000   0.3347
   4.600   1.0220   0.01014   0.00447  -0.0928  0.2988  1.0000  -1.6990   0.0000   0.0000   0.0000   0.3332
   4.700   1.0291   0.01020   0.00453  -0.0921  0.2974  1.0000  -1.7144   0.0000   0.0000   0.0000   0.3317
   4.800   1.0364   0.01027   0.00458  -0.0914  0.2959  1.0000  -1.7299   0.0000   0.0000   0.0000   0.3302
   4.900   1.0438   0.01034   0.00465  -0.0907  0.2942  1.0000  -1.7456   0.0000   0.0000   0.0000   0.3288
   5.000   1.0512   0.01041   0.00471  -0.0900  0.2923  1.0000  -1.7614   0.0000   0.0000   0.0000   0.3274
   5.100   1.0587   0.01049   0.00477  -0.0894  0.2901  1.0000  -1.7771   0.0000   0.0000   0.0000   0.3261
   5.200   1.0659   0.01058   0.00485  -0.0887  0.2875  1.0000  -1.7937   0.0000   0.0000   0.0000   0.3247
   5.300   1.0730   0.01068   0.00492  -0.0879  0.2844  1.0000  -1.8265   0.0000   0.0000   0.0000   0.3234
   5.400   1.0797   0.01079   0.00501  -0.0872  0.2805  1.0000  -1.8590   0.0000   0.0000   0.0000   0.3220
   5.500   1.0861   0.01092   0.00510  -0.0863  0.2760  1.0000  -1.8910   0.0000   0.0000   0.0000   0.3206
   5.600   1.0922   0.01105   0.00520  -0.0855  0.2710  1.0000  -1.9226   0.0000   0.0000   0.0000   0.3192
   5.700   1.0983   0.01120   0.00530  -0.0846  0.2660  1.0000  -1.9543   0.0000   0.0000   0.0000   0.3179
   5.800   1.1040   0.01135   0.00541  -0.0836  0.2605  1.0000  -1.9854   0.0000   0.0000   0.0000   0.3165
   5.900   1.1096   0.01151   0.00553  -0.0827  0.2550  1.0000  -2.0164   0.0000   0.0000   0.0000   0.3151
   6.000   1.1152   0.01167   0.00564  -0.0817  0.2495  1.0000  -2.0476   0.0000   0.0000   0.0000   0.3137
   6.100   1.1210   0.01183   0.00575  -0.0808  0.2440  1.0000  -2.0792   0.0000   0.0000   0.0000   0.3124
   6.200   1.1271   0.01197   0.00586  -0.0800  0.2384  1.0000  -2.1115   0.0000   0.0000   0.0000   0.3111
   6.300   1.1335   0.01211   0.00596  -0.0792  0.2324  1.0000  -2.1446   0.0000   0.0000   0.0000   0.3099
   6.400   1.1403   0.01223   0.00606  -0.0785  0.2264  1.0000  -2.1785   0.0000   0.0000   0.0000   0.3087
   6.500   1.1473   0.01235   0.00616  -0.0778  0.2201  1.0000  -2.2130   0.0000   0.0000   0.0000   0.3075
   6.600   1.1544   0.01246   0.00626  -0.0771  0.2138  1.0000  -2.2477   0.0000   0.0000   0.0000   0.3064
   6.700   1.1615   0.01256   0.00636  -0.0765  0.2080  1.0000  -2.2827   0.0000   0.0000   0.0000   0.3053
   6.800   1.1687   0.01267   0.00646  -0.0758  0.2031  1.0000  -2.3180   0.0000   0.0000   0.0000   0.3042
   6.900   1.1760   0.01276   0.00656  -0.0752  0.2000  1.0000  -2.3537   0.0000   0.0000   0.0000   0.3031
   7.000   1.1832   0.01287   0.00667  -0.0746  0.1989  1.0000  -2.3894   0.0000   0.0000   0.0000   0.3020
   7.100   1.1897   0.01301   0.00679  -0.0738  0.1968  1.0000  -2.4237   0.0000   0.0000   0.0000   0.3009
   7.200   1.1951   0.01318   0.00693  -0.0729  0.1934  1.0000  -2.4561   0.0000   0.0000   0.0000   0.2997
   7.300   1.1997   0.01338   0.00709  -0.0719  0.1892  1.0000  -2.4870   0.0000   0.0000   0.0000   0.2985
   7.400   1.2037   0.01360   0.00726  -0.0708  0.1848  1.0000  -2.5167   0.0000   0.0000   0.0000   0.2972
   7.500   1.2057   0.01388   0.00749  -0.0693  0.1796  1.0000  -2.5422   0.0000   0.0000   0.0000   0.2957
   7.600   1.2046   0.01423   0.00778  -0.0674  0.1746  1.0000  -2.5615   0.0000   0.0000   0.0000   0.2940
   7.700   1.2034   0.01460   0.00810  -0.0655  0.1690  1.0000  -2.5805   0.0000   0.0000   0.0000   0.2923
   7.800   1.2030   0.01497   0.00842  -0.0637  0.1624  1.0000  -2.6010   0.0000   0.0000   0.0000   0.2907
   7.900   1.2039   0.01531   0.00871  -0.0622  0.1545  1.0000  -2.6240   0.0000   0.0000   0.0000   0.2892
   8.000   1.2073   0.01555   0.00893  -0.0611  0.1496  1.0000  -2.6520   0.0000   0.0000   0.0000   0.2880
   8.100   1.2112   0.01577   0.00914  -0.0600  0.1472  1.0000  -2.6810   0.0000   0.0000   0.0000   0.2868
   8.200   1.2140   0.01603   0.00938  -0.0589  0.1439  1.0000  -2.7076   0.0000   0.0000   0.0000   0.2856
   8.300   1.2121   0.01643   0.00976  -0.0570  0.1392  1.0000  -2.7242   0.0000   0.0000   0.0000   0.2840
   8.600   1.1843   0.01923   0.01202  -0.0492  0.0721  1.0000  -2.7251   0.0000   0.0000   0.0000   0.2779
   8.700   1.1822   0.01991   0.01261  -0.0476  0.0586  1.0000  -2.7388   0.0000   0.0000   0.0000   0.2765
   8.800   1.1832   0.02043   0.01310  -0.0464  0.0469  1.0000  -2.7542   0.0000   0.0000   0.0000   0.2753
   8.900   1.1809   0.02117   0.01376  -0.0448  0.0393  1.0000  -2.7471   0.0000   0.0000   0.0000   0.2738
   9.000   1.1853   0.02151   0.01411  -0.0440  0.0376  1.0000  -2.7670   0.0000   0.0000   0.0000   0.2728
   9.100   1.1901   0.02181   0.01444  -0.0432  0.0369  1.0000  -2.7919   0.0000   0.0000   0.0000   0.2719
   9.200   1.1949   0.02212   0.01477  -0.0425  0.0364  1.0000  -2.8183   0.0000   0.0000   0.0000   0.2709
   9.300   1.1995   0.02243   0.01511  -0.0418  0.0361  1.0000  -2.8451   0.0000   0.0000   0.0000   0.2700
   9.400   1.2039   0.02276   0.01546  -0.0411  0.0359  1.0000  -2.8720   0.0000   0.0000   0.0000   0.2691
   9.500   1.2080   0.02311   0.01583  -0.0404  0.0358  1.0000  -2.8985   0.0000   0.0000   0.0000   0.2682
   9.600   1.2116   0.02348   0.01623  -0.0396  0.0356  1.0000  -2.9244   0.0000   0.0000   0.0000   0.2673
   9.700   1.2083   0.02424   0.01703  -0.0383  0.0356  1.0000  -2.9356   0.0000   0.0000   0.0000   0.2661
   9.800   1.2080   0.02485   0.01768  -0.0373  0.0355  1.0000  -2.9533   0.0000   0.0000   0.0000   0.2651
   9.900   1.2109   0.02529   0.01815  -0.0365  0.0354  1.0000  -2.9779   0.0000   0.0000   0.0000   0.2642
  10.000   1.2146   0.02569   0.01857  -0.0359  0.0354  1.0000  -3.0044   0.0000   0.0000   0.0000   0.2634
  10.100   1.2188   0.02607   0.01897  -0.0352  0.0353  1.0000  -3.0319   0.0000   0.0000   0.0000   0.2626
  10.200   1.2231   0.02644   0.01936  -0.0346  0.0353  1.0000  -3.0600   0.0000   0.0000   0.0000   0.2618
  10.300   1.2276   0.02680   0.01975  -0.0340  0.0353  1.0000  -3.0884   0.0000   0.0000   0.0000   0.2610
  10.400   1.2320   0.02717   0.02014  -0.0335  0.0353  1.0000  -3.1170   0.0000   0.0000   0.0000   0.2603
  10.500   1.2365   0.02754   0.02053  -0.0329  0.0352  1.0000  -3.1456   0.0000   0.0000   0.0000   0.2595
  10.600   1.2407   0.02792   0.02094  -0.0323  0.0350  1.0000  -3.1741   0.0000   0.0000   0.0000   0.2588
  10.700   1.2448   0.02832   0.02136  -0.0317  0.0347  1.0000  -3.2023   0.0000   0.0000   0.0000   0.2580
  10.800   1.2486   0.02874   0.02179  -0.0311  0.0342  1.0000  -3.2301   0.0000   0.0000   0.0000   0.2573
  10.900   1.2522   0.02918   0.02225  -0.0305  0.0338  1.0000  -3.2574   0.0000   0.0000   0.0000   0.2566
  11.000   1.2556   0.02964   0.02274  -0.0299  0.0333  1.0000  -3.2840   0.0000   0.0000   0.0000   0.2558
  11.200   1.2668   0.03014   0.02342  -0.0295  0.0247  1.0000  -3.5304   0.0000   0.0000   0.0000   0.2549
  11.300   1.2713   0.03050   0.02377  -0.0291  0.0237  1.0000  -3.5895   0.0000   0.0000   0.0000   0.2543
  11.400   1.2737   0.03101   0.02428  -0.0286  0.0227  1.0000  -3.6328   0.0000   0.0000   0.0000   0.2536
  11.500   1.2748   0.03161   0.02488  -0.0279  0.0217  1.0000  -3.6687   0.0000   0.0000   0.0000   0.2529
  11.600   1.2746   0.03233   0.02560  -0.0273  0.0209  1.0000  -3.6988   0.0000   0.0000   0.0000   0.2522
  11.700   1.2627   0.03406   0.02740  -0.0263  0.0210  1.0000  -3.6861   0.0000   0.0000   0.0000   0.2513
  11.800   1.2622   0.03487   0.02822  -0.0257  0.0202  1.0000  -3.7140   0.0000   0.0000   0.0000   0.2507
  11.900   1.2630   0.03560   0.02893  -0.0252  0.0194  1.0000  -3.7460   0.0000   0.0000   0.0000   0.2500
  12.000   1.2644   0.03629   0.02961  -0.0247  0.0186  1.0000  -3.7789   0.0000   0.0000   0.0000   0.2494
  12.100   1.2662   0.03695   0.03025  -0.0242  0.0178  1.0000  -3.8122   0.0000   0.0000   0.0000   0.2488
  12.200   1.2685   0.03757   0.03086  -0.0237  0.0170  1.0000  -3.8462   0.0000   0.0000   0.0000   0.2482
  12.300   1.2713   0.03817   0.03145  -0.0233  0.0163  1.0000  -3.8805   0.0000   0.0000   0.0000   0.2476
  12.400   1.2742   0.03875   0.03203  -0.0229  0.0156  1.0000  -3.9146   0.0000   0.0000   0.0000   0.2470
  12.500   1.2772   0.03934   0.03263  -0.0225  0.0151  1.0000  -3.9483   0.0000   0.0000   0.0000   0.2465
  12.600   1.2801   0.03994   0.03324  -0.0221  0.0146  1.0000  -3.9815   0.0000   0.0000   0.0000   0.2459
  12.700   1.2828   0.04057   0.03388  -0.0218  0.0142  1.0000  -4.0138   0.0000   0.0000   0.0000   0.2454
  12.800   1.2853   0.04123   0.03456  -0.0214  0.0138  1.0000  -4.0451   0.0000   0.0000   0.0000   0.2449
  12.900   1.2873   0.04194   0.03527  -0.0210  0.0136  1.0000  -4.0747   0.0000   0.0000   0.0000   0.2443
  13.000   1.2887   0.04272   0.03607  -0.0207  0.0135  1.0000  -4.1019   0.0000   0.0000   0.0000   0.2438
  13.100   1.2890   0.04362   0.03700  -0.0204  0.0134  1.0000  -4.1254   0.0000   0.0000   0.0000   0.2434
  13.200   1.2868   0.04480   0.03822  -0.0200  0.0134  1.0000  -4.1409   0.0000   0.0000   0.0000   0.2429
  13.300   1.2647   0.04843   0.04196  -0.0202  0.0135  1.0000  -4.0908   0.0000   0.0000   0.0000   0.2430
  13.400   1.2658   0.04930   0.04285  -0.0199  0.0134  1.0000  -4.1164   0.0000   0.0000   0.0000   0.2426
  13.500   1.2676   0.05008   0.04365  -0.0197  0.0133  1.0000  -4.1443   0.0000   0.0000   0.0000   0.2421
  13.600   1.2698   0.05082   0.04441  -0.0194  0.0133  1.0000  -4.1734   0.0000   0.0000   0.0000   0.2417
  13.700   1.2723   0.05154   0.04514  -0.0192  0.0132  1.0000  -4.2033   0.0000   0.0000   0.0000   0.2412
  13.800   1.2749   0.05224   0.04586  -0.0189  0.0132  1.0000  -4.2338   0.0000   0.0000   0.0000   0.2408
  13.900   1.2775   0.05293   0.04656  -0.0187  0.0131  1.0000  -4.2646   0.0000   0.0000   0.0000   0.2404
  14.000   1.2803   0.05361   0.04726  -0.0185  0.0131  1.0000  -4.2955   0.0000   0.0000   0.0000   0.2399
  14.100   1.2830   0.05430   0.04797  -0.0182  0.0130  1.0000  -4.3265   0.0000   0.0000   0.0000   0.2395
  14.200   1.2857   0.05499   0.04868  -0.0180  0.0130  1.0000  -4.3574   0.0000   0.0000   0.0000   0.2391
  14.300   1.2884   0.05570   0.04940  -0.0178  0.0129  1.0000  -4.3881   0.0000   0.0000   0.0000   0.2387
  14.400   1.2909   0.05642   0.05013  -0.0176  0.0129  1.0000  -4.4184   0.0000   0.0000   0.0000   0.2382
  14.500   1.2933   0.05715   0.05089  -0.0174  0.0128  1.0000  -4.4482   0.0000   0.0000   0.0000   0.2379
  14.600   1.2955   0.05792   0.05168  -0.0172  0.0128  1.0000  -4.4774   0.0000   0.0000   0.0000   0.2375
  14.700   1.2977   0.05872   0.05250  -0.0171  0.0128  1.0000  -4.5065   0.0000   0.0000   0.0000   0.2371
  14.800   1.2995   0.05958   0.05338  -0.0170  0.0127  1.0000  -4.5343   0.0000   0.0000   0.0000   0.2368
  14.900   1.3008   0.06052   0.05434  -0.0169  0.0127  1.0000  -4.5599   0.0000   0.0000   0.0000   0.2365
  15.000   1.3012   0.06158   0.05543  -0.0169  0.0127  1.0000  -4.5823   0.0000   0.0000   0.0000   0.2362
  15.100   1.2998   0.06289   0.05678  -0.0170  0.0126  1.0000  -4.5981   0.0000   0.0000   0.0000   0.2361
  15.200   1.2761   0.06749   0.06150  -0.0183  0.0127  1.0000  -4.5301   0.0000   0.0000   0.0000   0.2371
  15.300   1.2745   0.06879   0.06283  -0.0184  0.0126  1.0000  -4.5447   0.0000   0.0000   0.0000   0.2370
  15.400   1.2740   0.06994   0.06401  -0.0184  0.0126  1.0000  -4.5632   0.0000   0.0000   0.0000   0.2368
  15.500   1.2739   0.07101   0.06510  -0.0184  0.0126  1.0000  -4.5833   0.0000   0.0000   0.0000   0.2365
  16.000   1.2949   0.07366   0.06780  -0.0182  0.0130  1.0000  -4.7128   0.0000   0.0000   0.0000   0.2350
  16.100   1.2956   0.07464   0.06880  -0.0182  0.0130  1.0000  -4.7360   0.0000   0.0000   0.0000   0.2347
  16.200   1.2963   0.07566   0.06984  -0.0182  0.0130  1.0000  -4.7589   0.0000   0.0000   0.0000   0.2345
  16.300   1.2966   0.07673   0.07094  -0.0183  0.0129  1.0000  -4.7805   0.0000   0.0000   0.0000   0.2343
  16.400   1.2964   0.07790   0.07214  -0.0184  0.0129  1.0000  -4.7998   0.0000   0.0000   0.0000   0.2342
  16.500   1.2950   0.07926   0.07353  -0.0186  0.0129  1.0000  -4.8144   0.0000   0.0000   0.0000   0.2341
  16.600   1.2892   0.08134   0.07567  -0.0191  0.0129  1.0000  -4.8103   0.0000   0.0000   0.0000   0.2343
  16.700   1.2151   0.09419   0.08880  -0.0243  0.0131  1.0000  -4.5216   0.0000   0.0000   0.0000   0.2393
  16.800   1.2158   0.09528   0.08992  -0.0245  0.0131  1.0000  -4.5421   0.0000   0.0000   0.0000   0.2392
  16.900   1.2167   0.09634   0.09099  -0.0246  0.0130  1.0000  -4.5639   0.0000   0.0000   0.0000   0.2391
  17.000   1.2178   0.09736   0.09202  -0.0247  0.0130  1.0000  -4.5867   0.0000   0.0000   0.0000   0.2389
  17.100   1.2191   0.09835   0.09303  -0.0248  0.0130  1.0000  -4.6103   0.0000   0.0000   0.0000   0.2387
  17.200   1.2206   0.09932   0.09402  -0.0250  0.0129  1.0000  -4.6346   0.0000   0.0000   0.0000   0.2386
  17.300   1.2221   0.10028   0.09499  -0.0251  0.0129  1.0000  -4.6594   0.0000   0.0000   0.0000   0.2384
  17.400   1.2237   0.10122   0.09594  -0.0252  0.0128  1.0000  -4.6846   0.0000   0.0000   0.0000   0.2382
  17.500   1.2254   0.10214   0.09689  -0.0253  0.0128  1.0000  -4.7101   0.0000   0.0000   0.0000   0.2380
  17.600   1.2271   0.10307   0.09782  -0.0254  0.0128  1.0000  -4.7359   0.0000   0.0000   0.0000   0.2378
  17.700   1.2289   0.10398   0.09875  -0.0255  0.0127  1.0000  -4.7619   0.0000   0.0000   0.0000   0.2376
  17.800   1.2306   0.10489   0.09968  -0.0256  0.0127  1.0000  -4.7880   0.0000   0.0000   0.0000   0.2374
  17.900   1.2324   0.10580   0.10061  -0.0257  0.0126  1.0000  -4.8140   0.0000   0.0000   0.0000   0.2372
  18.000   1.2341   0.10672   0.10154  -0.0258  0.0126  1.0000  -4.8399   0.0000   0.0000   0.0000   0.2370
  18.100   1.2357   0.10765   0.10248  -0.0260  0.0126  1.0000  -4.8655   0.0000   0.0000   0.0000   0.2369
  18.200   1.2373   0.10858   0.10344  -0.0261  0.0125  1.0000  -4.8908   0.0000   0.0000   0.0000   0.2367
  18.300   1.2388   0.10953   0.10441  -0.0263  0.0125  1.0000  -4.9156   0.0000   0.0000   0.0000   0.2365
  18.400   1.2401   0.11050   0.10540  -0.0264  0.0125  1.0000  -4.9398   0.0000   0.0000   0.0000   0.2364
  18.500   1.2412   0.11151   0.10643  -0.0266  0.0124  1.0000  -4.9629   0.0000   0.0000   0.0000   0.2363
  18.600   1.2420   0.11257   0.10751  -0.0268  0.0124  1.0000  -4.9846   0.0000   0.0000   0.0000   0.2362
  18.700   1.2423   0.11370   0.10867  -0.0271  0.0124  1.0000  -5.0038   0.0000   0.0000   0.0000   0.2361
  18.800   1.2418   0.11500   0.10999  -0.0275  0.0123  1.0000  -5.0184   0.0000   0.0000   0.0000   0.2362
  18.900   1.2377   0.11689   0.11194  -0.0282  0.0123  1.0000  -5.0157   0.0000   0.0000   0.0000   0.2366
  19.300   1.1545   0.13685   0.13228  -0.0380  0.0125  1.0000  -4.6460   0.0000   0.0000   0.0000   0.2461
  19.400   1.1555   0.13784   0.13329  -0.0383  0.0125  1.0000  -4.6660   0.0000   0.0000   0.0000   0.2461
  19.500   1.1567   0.13881   0.13427  -0.0386  0.0124  1.0000  -4.6868   0.0000   0.0000   0.0000   0.2461
  19.600   1.1580   0.13975   0.13523  -0.0389  0.0124  1.0000  -4.7082   0.0000   0.0000   0.0000   0.2460
  19.700   1.1593   0.14068   0.13617  -0.0392  0.0124  1.0000  -4.7301   0.0000   0.0000   0.0000   0.2460
  19.800   1.1608   0.14158   0.13709  -0.0395  0.0123  1.0000  -4.7524   0.0000   0.0000   0.0000   0.2459
  19.900   1.1623   0.14247   0.13799  -0.0398  0.0123  1.0000  -4.7752   0.0000   0.0000   0.0000   0.2459
  20.000   1.1639   0.14334   0.13888  -0.0401  0.0123  1.0000  -4.7983   0.0000   0.0000   0.0000   0.2458
  20.100   1.1656   0.14418   0.13973  -0.0404  0.0123  1.0000  -4.8216   0.0000   0.0000   0.0000   0.2457
  20.200   1.1673   0.14498   0.14054  -0.0407  0.0122  1.0000  -4.8453   0.0000   0.0000   0.0000   0.2457
  20.300   1.1690   0.14573   0.14132  -0.0410  0.0122  1.0000  -4.8691   0.0000   0.0000   0.0000   0.2456
  20.400   1.1707   0.14647   0.14207  -0.0413  0.0122  1.0000  -4.8931   0.0000   0.0000   0.0000   0.2455
  20.500   1.1725   0.14719   0.14281  -0.0416  0.0121  1.0000  -4.9172   0.0000   0.0000   0.0000   0.2454
  20.600   1.1742   0.14792   0.14355  -0.0419  0.0121  1.0000  -4.9412   0.0000   0.0000   0.0000   0.2453
  20.700   1.1759   0.14864   0.14429  -0.0422  0.0121  1.0000  -4.9653   0.0000   0.0000   0.0000   0.2452
  20.800   1.1776   0.14938   0.14505  -0.0425  0.0121  1.0000  -4.9892   0.0000   0.0000   0.0000   0.2452
  20.900   1.1793   0.15012   0.14581  -0.0428  0.0120  1.0000  -5.0129   0.0000   0.0000   0.0000   0.2451
  21.000   1.1810   0.15087   0.14658  -0.0432  0.0120  1.0000  -5.0368   0.0000   0.0000   0.0000   0.2450
  21.100   1.1827   0.15163   0.14736  -0.0435  0.0120  1.0000  -5.0608   0.0000   0.0000   0.0000   0.2450
  21.200   1.1843   0.15241   0.14816  -0.0438  0.0120  1.0000  -5.0844   0.0000   0.0000   0.0000   0.2449
  21.300   1.1859   0.15321   0.14898  -0.0441  0.0120  1.0000  -5.1074   0.0000   0.0000   0.0000   0.2448
  21.400   1.1873   0.15404   0.14983  -0.0445  0.0119  1.0000  -5.1299   0.0000   0.0000   0.0000   0.2448
  21.500   1.1886   0.15489   0.15071  -0.0448  0.0119  1.0000  -5.1515   0.0000   0.0000   0.0000   0.2448
  21.600   1.1897   0.15579   0.15163  -0.0452  0.0119  1.0000  -5.1722   0.0000   0.0000   0.0000   0.2448
  21.700   1.1907   0.15672   0.15259  -0.0456  0.0119  1.0000  -5.1917   0.0000   0.0000   0.0000   0.2448
  21.800   1.1914   0.15771   0.15361  -0.0461  0.0119  1.0000  -5.2096   0.0000   0.0000   0.0000   0.2449
  21.900   1.1918   0.15877   0.15469  -0.0466  0.0119  1.0000  -5.2255   0.0000   0.0000   0.0000   0.2450
  22.000   1.1918   0.15991   0.15587  -0.0471  0.0119  1.0000  -5.2386   0.0000   0.0000   0.0000   0.2452
  22.100   1.1912   0.16120   0.15720  -0.0477  0.0119  1.0000  -5.2474   0.0000   0.0000   0.0000   0.2454
  22.200   1.1895   0.16274   0.15878  -0.0485  0.0118  1.0000  -5.2482   0.0000   0.0000   0.0000   0.2459
  22.300   1.1655   0.16940   0.16558  -0.0522  0.0119  1.0000  -5.0879   0.0000   0.0000   0.0000   0.2501
  22.400   1.1643   0.17091   0.16712  -0.0529  0.0119  1.0000  -5.0906   0.0000   0.0000   0.0000   0.2505
  22.500   1.1633   0.17236   0.16860  -0.0536  0.0119  1.0000  -5.0952   0.0000   0.0000   0.0000   0.2509
  22.600   1.1625   0.17379   0.17006  -0.0543  0.0119  1.0000  -5.1005   0.0000   0.0000   0.0000   0.2512
  22.700   1.1617   0.17522   0.17152  -0.0549  0.0119  1.0000  -5.1058   0.0000   0.0000   0.0000   0.2516
  22.800   1.1609   0.17668   0.17300  -0.0556  0.0118  1.0000  -5.1104   0.0000   0.0000   0.0000   0.2519
  22.900   1.1599   0.17816   0.17453  -0.0563  0.0118  1.0000  -5.1139   0.0000   0.0000   0.0000   0.2523
  23.000   1.1587   0.17971   0.17610  -0.0571  0.0118  1.0000  -5.1157   0.0000   0.0000   0.0000   0.2527
  23.100   1.1573   0.18132   0.17775  -0.0578  0.0118  1.0000  -5.1151   0.0000   0.0000   0.0000   0.2532
  23.200   1.1555   0.18304   0.17950  -0.0586  0.0118  1.0000  -5.1113   0.0000   0.0000   0.0000   0.2538
  23.300   1.1532   0.18489   0.18140  -0.0595  0.0118  1.0000  -5.1029   0.0000   0.0000   0.0000   0.2544
  23.400   1.1500   0.18696   0.18351  -0.0605  0.0118  1.0000  -5.0875   0.0000   0.0000   0.0000   0.2552
  23.500   1.1453   0.18945   0.18605  -0.0617  0.0119  1.0000  -5.0584   0.0000   0.0000   0.0000   0.2563
  23.600   1.0997   0.20293   0.19973  -0.0685  0.0119  1.0000  -4.6748   0.0000   0.0000   0.0000   0.2655
  23.700   1.0973   0.20507   0.20190  -0.0695  0.0119  1.0000  -4.6585   0.0000   0.0000   0.0000   0.2663
  23.800   1.0950   0.20716   0.20403  -0.0704  0.0119  1.0000  -4.6431   0.0000   0.0000   0.0000   0.2671
  23.900   1.0928   0.20927   0.20617  -0.0713  0.0119  1.0000  -4.6273   0.0000   0.0000   0.0000   0.2678
  24.000   1.0905   0.21142   0.20835  -0.0722  0.0119  1.0000  -4.6096   0.0000   0.0000   0.0000   0.2686
  24.100   1.0880   0.21366   0.21062  -0.0732  0.0119  1.0000  -4.5888   0.0000   0.0000   0.0000   0.2694
  24.200   1.0851   0.21603   0.21303  -0.0741  0.0119  1.0000  -4.5633   0.0000   0.0000   0.0000   0.2703
  24.300   1.0817   0.21859   0.21562  -0.0752  0.0120  1.0000  -4.5312   0.0000   0.0000   0.0000   0.2713
  24.400   1.0776   0.22142   0.21849  -0.0763  0.0120  1.0000  -4.4894   0.0000   0.0000   0.0000   0.2725
  24.500   1.0722   0.22469   0.22181  -0.0776  0.0120  1.0000  -4.4321   0.0000   0.0000   0.0000   0.2740
  24.600   1.0646   0.22880   0.22596  -0.0791  0.0120  1.0000  -4.3455   0.0000   0.0000   0.0000   0.2760
  24.700   1.0441   0.23764   0.23489  -0.0823  0.0121  1.0000  -4.0910   0.0000   0.0000   0.0000   0.2810
  25.900   0.8585   0.32868   0.32652  -0.1211  0.0135  1.0000  -1.4665   0.0000   0.0000   0.0000   0.3531
  26.000   0.8560   0.32876   0.32657  -0.1182  0.0135  1.0000  -1.4806   0.0000   0.0000   0.0000   0.3497
  26.100   0.8536   0.32895   0.32673  -0.1155  0.0135  1.0000  -1.4919   0.0000   0.0000   0.0000   0.3466
  26.200   0.8515   0.32923   0.32699  -0.1130  0.0135  1.0000  -1.5010   0.0000   0.0000   0.0000   0.3437
  26.300   0.8494   0.32960   0.32733  -0.1106  0.0135  1.0000  -1.5082   0.0000   0.0000   0.0000   0.3409
  26.400   0.8476   0.33002   0.32774  -0.1084  0.0135  1.0000  -1.5139   0.0000   0.0000   0.0000   0.3383
  26.500   0.8458   0.33051   0.32820  -0.1063  0.0135  1.0000  -1.5182   0.0000   0.0000   0.0000   0.3359
  26.600   0.8441   0.33104   0.32872  -0.1044  0.0135  1.0000  -1.5215   0.0000   0.0000   0.0000   0.3335
  26.700   0.8426   0.33163   0.32928  -0.1025  0.0135  1.0000  -1.5238   0.0000   0.0000   0.0000   0.3313
  26.800   0.8412   0.33226   0.32989  -0.1008  0.0135  1.0000  -1.5252   0.0000   0.0000   0.0000   0.3291
  26.900   0.8398   0.33293   0.33055  -0.0991  0.0135  1.0000  -1.5260   0.0000   0.0000   0.0000   0.3271
  27.000   0.8386   0.33364   0.33124  -0.0975  0.0135  1.0000  -1.5262   0.0000   0.0000   0.0000   0.3251
  27.100   0.8375   0.33439   0.33198  -0.0960  0.0135  1.0000  -1.5259   0.0000   0.0000   0.0000   0.3233
  27.200   0.8365   0.33518   0.33275  -0.0947  0.0134  1.0000  -1.5252   0.0000   0.0000   0.0000   0.3215
  27.300   0.8357   0.33602   0.33358  -0.0933  0.0134  1.0000  -1.5242   0.0000   0.0000   0.0000   0.3198
  27.400   0.8349   0.33690   0.33444  -0.0921  0.0134  1.0000  -1.5228   0.0000   0.0000   0.0000   0.3182
  27.500   0.8343   0.33782   0.33535  -0.0909  0.0134  1.0000  -1.5214   0.0000   0.0000   0.0000   0.3166
  27.600   0.8339   0.33880   0.33631  -0.0899  0.0134  1.0000  -1.5198   0.0000   0.0000   0.0000   0.3151
  27.700   0.8336   0.33983   0.33734  -0.0889  0.0134  1.0000  -1.5181   0.0000   0.0000   0.0000   0.3137
  27.800   0.8336   0.34094   0.33844  -0.0880  0.0134  1.0000  -1.5163   0.0000   0.0000   0.0000   0.3124
  27.900   0.8338   0.34215   0.33964  -0.0872  0.0133  1.0000  -1.5147   0.0000   0.0000   0.0000   0.3112
  28.000   0.8344   0.34351   0.34099  -0.0866  0.0133  1.0000  -1.5134   0.0000   0.0000   0.0000   0.3101
  28.100   0.8359   0.34517   0.34264  -0.0863  0.0133  1.0000  -1.5130   0.0000   0.0000   0.0000   0.3092


