xflr5 v6.61

 Calculated polar for: GOE 417 AIRFOIL

 1 1 Reynolds number fixed          Mach number fixed         

 xtrf =   1.000 (top)        1.000 (bottom)
 Mach =   0.000     Re =     0.719 e 6     Ncrit =   9.000

  alpha     CL        CD       CDp       Cm    Top Xtr Bot Xtr   Cpmin    Chinge    XCp    
 ------- -------- --------- --------- -------- ------- ------- -------- --------- ---------
 -10.000  -0.1648   0.11368   0.11144  -0.0440  0.9883  0.0116  -0.9786   0.0000   0.0000   0.0000  -0.0267
  -9.900  -0.1566   0.11202   0.10978  -0.0458  0.9871  0.0116  -0.9777   0.0000   0.0000   0.0000  -0.0531
  -9.800  -0.1483   0.11037   0.10813  -0.0477  0.9858  0.0117  -0.9769   0.0000   0.0000   0.0000  -0.0827
  -9.700  -0.1400   0.10874   0.10650  -0.0496  0.9845  0.0117  -0.9763   0.0000   0.0000   0.0000  -0.1158
  -9.600  -0.1316   0.10713   0.10488  -0.0515  0.9831  0.0117  -0.9758   0.0000   0.0000   0.0000  -0.1538
  -9.500  -0.1231   0.10551   0.10326  -0.0534  0.9815  0.0118  -0.9755   0.0000   0.0000   0.0000  -0.1978
  -9.400  -0.1143   0.10389   0.10164  -0.0554  0.9798  0.0118  -0.9752   0.0000   0.0000   0.0000  -0.2494
  -9.300  -0.1055   0.10226   0.10000  -0.0574  0.9778  0.0119  -0.9752   0.0000   0.0000   0.0000  -0.3107
  -9.200  -0.0966   0.10064   0.09838  -0.0594  0.9758  0.0119  -0.9753   0.0000   0.0000   0.0000  -0.3828
  -9.100  -0.0879   0.09905   0.09678  -0.0614  0.9735  0.0119  -0.9758   0.0000   0.0000   0.0000  -0.4683
  -9.000  -0.0794   0.09749   0.09522  -0.0633  0.9709  0.0120  -0.9766   0.0000   0.0000   0.0000  -0.5702
  -8.900  -0.0711   0.09597   0.09370  -0.0652  0.9681  0.0120  -0.9778   0.0000   0.0000   0.0000  -0.6924
  -8.800  -0.0632   0.09451   0.09223  -0.0670  0.9649  0.0121  -0.9794   0.0000   0.0000   0.0000  -0.8380
  -8.700  -0.0559   0.09311   0.09083  -0.0686  0.9613  0.0121  -0.9815   0.0000   0.0000   0.0000  -1.0096
  -8.600  -0.0494   0.09180   0.08953  -0.0699  0.9568  0.0121  -0.9842   0.0000   0.0000   0.0000  -1.2011
  -8.500  -0.0455   0.09073   0.08846  -0.0706  0.9500  0.0122  -0.9880   0.0000   0.0000   0.0000  -1.3411
  -8.400  -0.0502   0.09039   0.08813  -0.0688  0.9470  0.0122  -0.9949   0.0000   0.0000   0.0000  -1.1549
  -8.300  -0.0521   0.08980   0.08755  -0.0677  0.9435  0.0122  -1.0009   0.0000   0.0000   0.0000  -1.0818
  -8.200  -0.0515   0.08901   0.08676  -0.0674  0.9398  0.0122  -1.0064   0.0000   0.0000   0.0000  -1.0902
  -8.100  -0.0486   0.08802   0.08577  -0.0678  0.9357  0.0123  -1.0114   0.0000   0.0000   0.0000  -1.1770
  -8.000  -0.0441   0.08691   0.08465  -0.0686  0.9315  0.0123  -1.0162   0.0000   0.0000   0.0000  -1.3448
  -7.900  -0.0379   0.08566   0.08341  -0.0700  0.9272  0.0123  -1.0209   0.0000   0.0000   0.0000  -1.6403
  -7.800  -0.0303   0.08429   0.08203  -0.0718  0.9233  0.0124  -1.0259   0.0000   0.0000   0.0000  -2.1735
  -7.700  -0.0217   0.08284   0.08056  -0.0739  0.9199  0.0124  -1.0312   0.0000   0.0000   0.0000  -3.2328
  -7.600  -0.0125   0.08134   0.07906  -0.0763  0.9171  0.0124  -1.0371   0.0000   0.0000   0.0000  -5.9807
  -7.500  -0.0021   0.07975   0.07746  -0.0791  0.9145  0.0125  -1.0438   0.0000   0.0000   0.0000  -38.9447
  -7.400   0.0101   0.07803   0.07572  -0.0825  0.9123  0.0125  -1.0513   0.0000   0.0000   0.0000   8.5500
  -7.300   0.0250   0.07607   0.07375  -0.0866  0.9110  0.0126  -1.0580   0.0000   0.0000   0.0000   3.7844
  -7.200   0.0402   0.07409   0.07174  -0.0910  0.9088  0.0126  -1.0662   0.0000   0.0000   0.0000   2.5546
  -7.100   0.0504   0.07251   0.07013  -0.0940  0.9030  0.0127  -1.0760   0.0000   0.0000   0.0000   2.1505
  -7.000   0.0523   0.07160   0.06921  -0.0945  0.8972  0.0127  -1.0859   0.0000   0.0000   0.0000   2.0900
  -6.900   0.0523   0.07089   0.06849  -0.0944  0.8924  0.0127  -1.0961   0.0000   0.0000   0.0000   2.0873
  -6.800   0.0542   0.07003   0.06761  -0.0947  0.8870  0.0127  -1.1058   0.0000   0.0000   0.0000   2.0288
  -6.700   0.0563   0.06914   0.06671  -0.0950  0.8806  0.0128  -1.1157   0.0000   0.0000   0.0000   1.9666
  -6.600   0.0587   0.06823   0.06578  -0.0954  0.8721  0.0128  -1.1260   0.0000   0.0000   0.0000   1.9030
  -6.500   0.0613   0.06731   0.06482  -0.0957  0.8610  0.0128  -1.1368   0.0000   0.0000   0.0000   1.8389
  -6.400   0.0638   0.06640   0.06386  -0.0961  0.8476  0.0129  -1.1481   0.0000   0.0000   0.0000   1.7797
  -6.300   0.0660   0.06553   0.06292  -0.0962  0.8323  0.0129  -1.1597   0.0000   0.0000   0.0000   1.7312
  -6.200   0.0680   0.06468   0.06201  -0.0963  0.8145  0.0129  -1.1720   0.0000   0.0000   0.0000   1.6880
  -6.100   0.0709   0.06375   0.06104  -0.0966  0.7997  0.0129  -1.1853   0.0000   0.0000   0.0000   1.6331
  -6.000   0.0746   0.06275   0.06003  -0.0971  0.7961  0.0130  -1.1997   0.0000   0.0000   0.0000   1.5713
  -5.600   0.0729   0.05412   0.05111  -0.0989  0.7339  0.0139  -1.5895   0.0000   0.0000   0.0000   1.6270
  -5.500   0.0757   0.05341   0.05033  -0.0983  0.7195  0.0143  -1.4991   0.0000   0.0000   0.0000   1.5661
  -5.400   0.0803   0.05286   0.04979  -0.0975  0.7150  0.0147  -1.3816   0.0000   0.0000   0.0000   1.4815
  -5.300   0.0854   0.05237   0.04928  -0.0971  0.7081  0.0151  -1.2811   0.0000   0.0000   0.0000   1.4029
  -5.200   0.0910   0.05188   0.04877  -0.0971  0.6998  0.0157  -1.1958   0.0000   0.0000   0.0000   1.3314
  -5.100   0.0972   0.05135   0.04822  -0.0973  0.6944  0.0166  -1.1229   0.0000   0.0000   0.0000   1.2642
  -4.900   0.1115   0.05019   0.04703  -0.0982  0.6844  0.0195  -1.0125   0.0000   0.0000   0.0000   1.1416
  -4.800   0.1245   0.05039   0.04717  -0.0992  0.6745  0.0227  -0.9572   0.0000   0.0000   0.0000   1.0569
  -4.700   0.1390   0.05089   0.04759  -0.1003  0.6629  0.0242  -0.9093   0.0000   0.0000   0.0000   0.9801
  -4.600   0.1474   0.05028   0.04690  -0.1007  0.6510  0.0245  -0.8912   0.0000   0.0000   0.0000   0.9414
  -4.500   0.1552   0.04947   0.04600  -0.1011  0.6387  0.0246  -0.8776   0.0000   0.0000   0.0000   0.9093
  -4.400   0.1632   0.04855   0.04500  -0.1016  0.6257  0.0247  -0.8669   0.0000   0.0000   0.0000   0.8799
  -4.300   0.1716   0.04753   0.04392  -0.1022  0.6110  0.0248  -0.8577   0.0000   0.0000   0.0000   0.8521
  -4.200   0.1804   0.04624   0.04259  -0.1030  0.6000  0.0248  -0.8564   0.0000   0.0000   0.0000   0.8270
  -4.100   0.1896   0.04480   0.04111  -0.1038  0.5966  0.0248  -0.8594   0.0000   0.0000   0.0000   0.8036
  -4.000   0.1988   0.04333   0.03960  -0.1047  0.5925  0.0247  -0.8638   0.0000   0.0000   0.0000   0.7820
  -3.900   0.2083   0.04180   0.03801  -0.1055  0.5872  0.0246  -0.8707   0.0000   0.0000   0.0000   0.7620
  -3.800   0.2177   0.04017   0.03631  -0.1064  0.5784  0.0245  -0.8831   0.0000   0.0000   0.0000   0.7437
  -3.700   0.2265   0.03822   0.03423  -0.1073  0.5603  0.0241  -0.9148   0.0000   0.0000   0.0000   0.7284
  -3.600   0.2324   0.03383   0.02950  -0.1090  0.5125  0.0205  -1.0806   0.0000   0.0000   0.0000   0.7236
  -3.500   0.2508   0.02910   0.02445  -0.1111  0.4864  0.0175  -1.3462   0.0000   0.0000   0.0000   0.6976
  -3.400   0.2625   0.02840   0.02355  -0.1112  0.4546  0.0207  -1.3526   0.0000   0.0000   0.0000   0.6778
  -3.300   0.2740   0.03146   0.02676  -0.1100  0.4644  0.0247  -1.1073   0.0000   0.0000   0.0000   0.6553
  -3.200   0.2862   0.03205   0.02726  -0.1099  0.4486  0.0253  -1.0236   0.0000   0.0000   0.0000   0.6376
  -3.100   0.2962   0.03157   0.02665  -0.1102  0.4322  0.0254  -0.9663   0.0000   0.0000   0.0000   0.6253
  -3.000   0.3062   0.03101   0.02599  -0.1105  0.4182  0.0254  -0.9046   0.0000   0.0000   0.0000   0.6139
  -2.900   0.3164   0.03041   0.02532  -0.1108  0.4064  0.0255  -0.8543   0.0000   0.0000   0.0000   0.6032
  -2.800   0.3267   0.02980   0.02466  -0.1112  0.3989  0.0255  -0.8447   0.0000   0.0000   0.0000   0.5931
  -2.700   0.3370   0.02919   0.02400  -0.1115  0.3954  0.0255  -0.8348   0.0000   0.0000   0.0000   0.5835
  -2.600   0.3473   0.02859   0.02335  -0.1118  0.3922  0.0255  -0.8247   0.0000   0.0000   0.0000   0.5745
  -2.500   0.3576   0.02800   0.02271  -0.1122  0.3898  0.0255  -0.8145   0.0000   0.0000   0.0000   0.5660
  -2.400   0.3680   0.02742   0.02208  -0.1125  0.3878  0.0255  -0.8041   0.0000   0.0000   0.0000   0.5578
  -2.300   0.3784   0.02688   0.02149  -0.1128  0.3854  0.0255  -0.7936   0.0000   0.0000   0.0000   0.5500
  -2.200   0.3888   0.02636   0.02092  -0.1130  0.3823  0.0255  -0.7828   0.0000   0.0000   0.0000   0.5426
  -2.100   0.3991   0.02584   0.02035  -0.1133  0.3793  0.0255  -0.7714   0.0000   0.0000   0.0000   0.5356
  -2.000   0.4094   0.02531   0.01977  -0.1135  0.3765  0.0255  -0.7596   0.0000   0.0000   0.0000   0.5290
  -1.900   0.4195   0.02480   0.01920  -0.1138  0.3728  0.0255  -0.7478   0.0000   0.0000   0.0000   0.5227
  -1.800   0.4294   0.02434   0.01866  -0.1139  0.3657  0.0255  -0.7360   0.0000   0.0000   0.0000   0.5167
  -1.700   0.4391   0.02392   0.01816  -0.1141  0.3561  0.0255  -0.7241   0.0000   0.0000   0.0000   0.5110
  -1.600   0.4488   0.02353   0.01767  -0.1142  0.3449  0.0255  -0.7119   0.0000   0.0000   0.0000   0.5056
  -1.500   0.4585   0.02313   0.01717  -0.1143  0.3327  0.0255  -0.6995   0.0000   0.0000   0.0000   0.5003
  -1.400   0.4685   0.02272   0.01668  -0.1144  0.3190  0.0255  -0.6947   0.0000   0.0000   0.0000   0.4952
  -1.300   0.4787   0.02230   0.01619  -0.1146  0.3066  0.0255  -0.7044   0.0000   0.0000   0.0000   0.4902
  -1.200   0.4891   0.02187   0.01571  -0.1148  0.2998  0.0255  -0.7142   0.0000   0.0000   0.0000   0.4854
  -1.100   0.4995   0.02145   0.01524  -0.1150  0.2982  0.0255  -0.7242   0.0000   0.0000   0.0000   0.4808
  -1.000   0.5099   0.02104   0.01478  -0.1151  0.2971  0.0254  -0.7342   0.0000   0.0000   0.0000   0.4763
  -0.900   0.5204   0.02063   0.01433  -0.1153  0.2965  0.0254  -0.7442   0.0000   0.0000   0.0000   0.4720
  -0.800   0.5309   0.02023   0.01389  -0.1155  0.2962  0.0254  -0.7543   0.0000   0.0000   0.0000   0.4679
   0.500   0.6676   0.01606   0.00921  -0.1170  0.2934  0.0254  -0.8972   0.0000   0.0000   0.0000   0.4244
   0.600   0.6781   0.01581   0.00892  -0.1171  0.2933  0.0254  -0.9163   0.0000   0.0000   0.0000   0.4218
   0.700   0.6886   0.01557   0.00865  -0.1172  0.2932  0.0254  -0.9356   0.0000   0.0000   0.0000   0.4191
   0.800   0.6991   0.01533   0.00838  -0.1173  0.2931  0.0254  -0.9550   0.0000   0.0000   0.0000   0.4166
   0.900   0.7095   0.01511   0.00813  -0.1173  0.2930  0.0254  -0.9745   0.0000   0.0000   0.0000   0.4141
   1.000   0.7200   0.01489   0.00788  -0.1174  0.2929  0.0254  -0.9940   0.0000   0.0000   0.0000   0.4117
   1.100   0.7305   0.01469   0.00764  -0.1174  0.2929  0.0254  -1.0137   0.0000   0.0000   0.0000   0.4093
   1.200   0.7409   0.01449   0.00742  -0.1175  0.2928  0.0254  -1.0335   0.0000   0.0000   0.0000   0.4070
   1.300   0.7514   0.01429   0.00720  -0.1175  0.2927  0.0254  -1.0534   0.0000   0.0000   0.0000   0.4048
   1.400   0.7618   0.01411   0.00699  -0.1176  0.2927  0.0254  -1.0733   0.0000   0.0000   0.0000   0.4026
   1.500   0.7723   0.01393   0.00679  -0.1176  0.2926  0.0254  -1.0934   0.0000   0.0000   0.0000   0.4005
   1.600   0.7827   0.01376   0.00659  -0.1176  0.2926  0.0254  -1.1135   0.0000   0.0000   0.0000   0.3984
   1.700   0.7931   0.01360   0.00641  -0.1177  0.2925  0.0254  -1.1337   0.0000   0.0000   0.0000   0.3964
   1.800   0.8041   0.01342   0.00630  -0.1178  0.2971  0.0255  -1.1542   0.0000   0.0000   0.0000   0.3944
   1.900   0.8146   0.01326   0.00613  -0.1178  0.2980  0.0255  -1.1746   0.0000   0.0000   0.0000   0.3924
   2.000   0.8251   0.01312   0.00597  -0.1178  0.2983  0.0255  -1.1950   0.0000   0.0000   0.0000   0.3905
   2.100   0.8355   0.01298   0.00582  -0.1178  0.2985  0.0255  -1.2155   0.0000   0.0000   0.0000   0.3886
   2.200   0.8459   0.01285   0.00567  -0.1178  0.2986  0.0255  -1.2361   0.0000   0.0000   0.0000   0.3868
   2.300   0.8562   0.01272   0.00553  -0.1178  0.2987  0.0255  -1.2567   0.0000   0.0000   0.0000   0.3850
   2.400   0.8666   0.01260   0.00539  -0.1178  0.2987  0.0255  -1.2773   0.0000   0.0000   0.0000   0.3833
   2.500   0.8769   0.01249   0.00527  -0.1178  0.2987  0.0255  -1.2981   0.0000   0.0000   0.0000   0.3816
   2.600   0.8872   0.01238   0.00514  -0.1178  0.2986  0.0255  -1.3188   0.0000   0.0000   0.0000   0.3799
   2.700   0.8975   0.01228   0.00503  -0.1178  0.2985  0.0255  -1.3397   0.0000   0.0000   0.0000   0.3782
   2.800   0.9078   0.01218   0.00492  -0.1178  0.2985  0.0255  -1.3606   0.0000   0.0000   0.0000   0.3766
   2.900   0.9181   0.01208   0.00482  -0.1177  0.2985  0.0256  -1.3815   0.0000   0.0000   0.0000   0.3750
   3.000   0.9283   0.01199   0.00472  -0.1177  0.2985  0.0256  -1.4025   0.0000   0.0000   0.0000   0.3735
   3.600   0.9893   0.01079   0.00350  -0.1173  0.2987  0.0316  -1.5260   0.0000   0.0000   0.0000   0.3646
   3.700   0.9993   0.01078   0.00349  -0.1172  0.2988  0.0324  -1.5471   0.0000   0.0000   0.0000   0.3632
   3.800   1.0093   0.01076   0.00349  -0.1171  0.2988  0.0332  -1.5683   0.0000   0.0000   0.0000   0.3619
   3.900   1.0193   0.01074   0.00349  -0.1171  0.2986  0.0341  -1.5898   0.0000   0.0000   0.0000   0.3606
   4.000   1.0294   0.01072   0.00348  -0.1170  0.2984  0.0351  -1.6116   0.0000   0.0000   0.0000   0.3593
   4.100   1.0394   0.01071   0.00347  -0.1170  0.2983  0.0362  -1.6334   0.0000   0.0000   0.0000   0.3580
   4.200   1.0495   0.01070   0.00347  -0.1169  0.2981  0.0374  -1.6552   0.0000   0.0000   0.0000   0.3568
   4.300   1.0595   0.01069   0.00347  -0.1169  0.2978  0.0388  -1.6772   0.0000   0.0000   0.0000   0.3555
   4.400   1.0696   0.01068   0.00347  -0.1168  0.2976  0.0403  -1.6992   0.0000   0.0000   0.0000   0.3543
   4.500   1.0797   0.01067   0.00347  -0.1168  0.2974  0.0419  -1.7213   0.0000   0.0000   0.0000   0.3531
   4.600   1.0897   0.01066   0.00348  -0.1167  0.2971  0.0438  -1.7434   0.0000   0.0000   0.0000   0.3520
   4.700   1.0998   0.01066   0.00348  -0.1166  0.2968  0.0457  -1.7656   0.0000   0.0000   0.0000   0.3508
   4.800   1.1098   0.01066   0.00349  -0.1166  0.2965  0.0478  -1.7879   0.0000   0.0000   0.0000   0.3497
   4.900   1.1199   0.01067   0.00350  -0.1165  0.2961  0.0495  -1.8104   0.0000   0.0000   0.0000   0.3485
   5.000   1.1300   0.01066   0.00349  -0.1165  0.2950  0.0518  -1.8332   0.0000   0.0000   0.0000   0.3474
   5.100   1.1401   0.01064   0.00346  -0.1164  0.2938  0.0559  -1.8559   0.0000   0.0000   0.0000   0.3463
   5.200   1.1501   0.01065   0.00346  -0.1163  0.2922  0.0596  -1.8786   0.0000   0.0000   0.0000   0.3452
   5.300   1.1597   0.01069   0.00347  -0.1161  0.2883  0.0629  -1.9012   0.0000   0.0000   0.0000   0.3441
   5.400   1.1687   0.01078   0.00351  -0.1159  0.2807  0.0657  -1.9232   0.0000   0.0000   0.0000   0.3430
   5.500   1.1755   0.01102   0.00359  -0.1152  0.2605  0.0678  -1.9427   0.0000   0.0000   0.0000   0.3418
   5.600   1.1799   0.01142   0.00374  -0.1142  0.2289  0.0694  -1.9589   0.0000   0.0000   0.0000   0.3404
   5.700   1.1875   0.01162   0.00382  -0.1137  0.2012  0.0710  -1.9786   0.0000   0.0000   0.0000   0.3392
   5.800   1.1952   0.01179   0.00389  -0.1132  0.1920  0.0724  -1.9989   0.0000   0.0000   0.0000   0.3381
   5.900   1.2020   0.01204   0.00401  -0.1125  0.1817  0.0738  -2.0181   0.0000   0.0000   0.0000   0.3368
   6.000   1.2080   0.01236   0.00417  -0.1118  0.1708  0.0730  -2.0363   0.0000   0.0000   0.0000   0.3356
   6.100   1.2147   0.01263   0.00431  -0.1111  0.1581  0.0712  -2.0553   0.0000   0.0000   0.0000   0.3344
   6.200   1.2228   0.01279   0.00438  -0.1107  0.1493  0.0684  -2.0762   0.0000   0.0000   0.0000   0.3333
   6.300   1.2311   0.01292   0.00447  -0.1103  0.1455  0.0656  -2.0978   0.0000   0.0000   0.0000   0.3323
   6.400   1.2389   0.01308   0.00457  -0.1098  0.1408  0.0633  -2.1193   0.0000   0.0000   0.0000   0.3312
   6.500   1.2464   0.01327   0.00469  -0.1093  0.1348  0.0615  -2.1404   0.0000   0.0000   0.0000   0.3301
   6.600   1.2537   0.01348   0.00481  -0.1087  0.1280  0.0598  -2.1615   0.0000   0.0000   0.0000   0.3290
   6.700   1.2614   0.01368   0.00495  -0.1082  0.1205  0.0583  -2.1829   0.0000   0.0000   0.0000   0.3279
   6.800   1.2695   0.01384   0.00507  -0.1078  0.1122  0.0569  -2.2046   0.0000   0.0000   0.0000   0.3269
   6.900   1.2779   0.01397   0.00518  -0.1074  0.1036  0.0556  -2.2266   0.0000   0.0000   0.0000   0.3259
   7.000   1.2865   0.01407   0.00528  -0.1070  0.0995  0.0547  -2.2497   0.0000   0.0000   0.0000   0.3249
   7.100   1.2947   0.01419   0.00539  -0.1066  0.0971  0.0541  -2.2736   0.0000   0.0000   0.0000   0.3239
   7.200   1.3023   0.01435   0.00551  -0.1061  0.0922  0.0539  -2.2976   0.0000   0.0000   0.0000   0.3229
   7.300   1.3044   0.01491   0.00584  -0.1047  0.0724  0.0536  -2.3182   0.0000   0.0000   0.0000   0.3215
   7.400   1.3089   0.01529   0.00609  -0.1036  0.0621  0.0529  -2.3359   0.0000   0.0000   0.0000   0.3203
   7.500   1.3151   0.01553   0.00629  -0.1028  0.0503  0.0533  -2.3727   0.0000   0.0000   0.0000   0.3192
   7.600   1.3219   0.01571   0.00645  -0.1022  0.0456  0.0505  -2.4129   0.0000   0.0000   0.0000   0.3182
   9.600   1.3760   0.02183   0.01324  -0.0719  0.0163  0.0366  -3.6994   0.0000   0.0000   0.0000   0.2901
   9.700   1.3748   0.02232   0.01384  -0.0698  0.0180  0.0367  -3.7279   0.0000   0.0000   0.0000   0.2885
   9.800   1.3651   0.02331   0.01506  -0.0659  0.0213  0.0366  -3.6324   0.0000   0.0000   0.0000   0.2859
   9.900   1.3547   0.02445   0.01635  -0.0624  0.0233  0.0366  -3.5622   0.0000   0.0000   0.0000   0.2835
  10.000   1.3438   0.02551   0.01750  -0.0593  0.0241  0.0366  -3.5210   0.0000   0.0000   0.0000   0.2814
  13.900   1.2213   0.08034   0.07608  -0.0356  0.0130  1.0000  -4.2201   0.0000   0.0000   0.0000   0.2596
  14.000   1.2154   0.08251   0.07831  -0.0363  0.0130  1.0000  -4.2100   0.0000   0.0000   0.0000   0.2601
  14.100   1.2093   0.08474   0.08061  -0.0371  0.0130  1.0000  -4.1977   0.0000   0.0000   0.0000   0.2608
  14.200   1.2026   0.08707   0.08300  -0.0380  0.0129  1.0000  -4.1812   0.0000   0.0000   0.0000   0.2615
  14.300   1.1934   0.08969   0.08567  -0.0393  0.0130  1.0000  -4.1509   0.0000   0.0000   0.0000   0.2627
  14.400   1.1863   0.09219   0.08822  -0.0405  0.0130  1.0000  -4.1297   0.0000   0.0000   0.0000   0.2637
  14.500   1.1802   0.09465   0.09074  -0.0417  0.0130  1.0000  -4.1118   0.0000   0.0000   0.0000   0.2647
  14.600   1.1742   0.09714   0.09329  -0.0429  0.0130  1.0000  -4.0938   0.0000   0.0000   0.0000   0.2657
  14.700   1.1682   0.09969   0.09588  -0.0441  0.0129  1.0000  -4.0739   0.0000   0.0000   0.0000   0.2668
  14.800   1.1618   0.10230   0.09856  -0.0455  0.0129  1.0000  -4.0507   0.0000   0.0000   0.0000   0.2681
  14.900   1.1532   0.10530   0.10161  -0.0474  0.0130  1.0000  -4.0123   0.0000   0.0000   0.0000   0.2698
  15.000   1.1448   0.10835   0.10470  -0.0493  0.0130  1.0000  -3.9736   0.0000   0.0000   0.0000   0.2716
  15.100   1.1386   0.11115   0.10756  -0.0509  0.0130  1.0000  -3.9458   0.0000   0.0000   0.0000   0.2731
  15.200   1.1329   0.11389   0.11035  -0.0524  0.0130  1.0000  -3.9198   0.0000   0.0000   0.0000   0.2745
  15.300   1.1273   0.11664   0.11314  -0.0540  0.0130  1.0000  -3.8926   0.0000   0.0000   0.0000   0.2760
  15.400   1.1215   0.11943   0.11599  -0.0556  0.0130  1.0000  -3.8626   0.0000   0.0000   0.0000   0.2776
  15.500   1.1152   0.12233   0.11893  -0.0574  0.0130  1.0000  -3.8282   0.0000   0.0000   0.0000   0.2793
  15.600   1.1059   0.12601   0.12266  -0.0599  0.0130  1.0000  -3.7690   0.0000   0.0000   0.0000   0.2819
  15.700   1.0976   0.12957   0.12627  -0.0623  0.0130  1.0000  -3.7135   0.0000   0.0000   0.0000   0.2844
  15.800   1.0925   0.13244   0.12918  -0.0640  0.0130  1.0000  -3.6804   0.0000   0.0000   0.0000   0.2861
  15.900   1.0883   0.13513   0.13191  -0.0655  0.0130  1.0000  -3.6523   0.0000   0.0000   0.0000   0.2876
  16.000   1.0846   0.13764   0.13445  -0.0670  0.0130  1.0000  -3.6258   0.0000   0.0000   0.0000   0.2891
  16.100   1.0812   0.14007   0.13692  -0.0685  0.0130  1.0000  -3.5995   0.0000   0.0000   0.0000   0.2905
  16.200   1.0778   0.14249   0.13938  -0.0699  0.0130  1.0000  -3.5717   0.0000   0.0000   0.0000   0.2919
  16.300   1.0744   0.14497   0.14189  -0.0714  0.0130  1.0000  -3.5417   0.0000   0.0000   0.0000   0.2934
  16.400   1.0708   0.14753   0.14449  -0.0730  0.0130  1.0000  -3.5085   0.0000   0.0000   0.0000   0.2949
  16.500   1.0671   0.15023   0.14722  -0.0745  0.0130  1.0000  -3.4712   0.0000   0.0000   0.0000   0.2966
  16.600   1.0631   0.15308   0.15011  -0.0762  0.0130  1.0000  -3.4287   0.0000   0.0000   0.0000   0.2984
  16.700   1.0575   0.15654   0.15361  -0.0784  0.0130  1.0000  -3.3660   0.0000   0.0000   0.0000   0.3008
  16.800   1.0531   0.15989   0.15699  -0.0803  0.0130  1.0000  -3.3103   0.0000   0.0000   0.0000   0.3029
  16.900   1.0496   0.16302   0.16015  -0.0820  0.0130  1.0000  -3.2608   0.0000   0.0000   0.0000   0.3047
  17.000   1.0463   0.16611   0.16327  -0.0836  0.0130  1.0000  -3.2117   0.0000   0.0000   0.0000   0.3065
  17.100   1.0432   0.16925   0.16643  -0.0853  0.0130  1.0000  -3.1605   0.0000   0.0000   0.0000   0.3083
  17.200   1.0391   0.17283   0.17004  -0.0871  0.0130  1.0000  -3.0926   0.0000   0.0000   0.0000   0.3104
  17.300   1.0361   0.17614   0.17337  -0.0888  0.0130  1.0000  -3.0343   0.0000   0.0000   0.0000   0.3122
  17.400   1.0337   0.17925   0.17649  -0.0903  0.0130  1.0000  -2.9831   0.0000   0.0000   0.0000   0.3138
  17.500   1.0318   0.18228   0.17954  -0.0917  0.0130  1.0000  -2.9340   0.0000   0.0000   0.0000   0.3153
  17.600   1.0301   0.18532   0.18260  -0.0930  0.0130  1.0000  -2.8850   0.0000   0.0000   0.0000   0.3167
  17.700   1.0287   0.18839   0.18568  -0.0943  0.0130  1.0000  -2.8351   0.0000   0.0000   0.0000   0.3180
  17.800   1.0273   0.19155   0.18886  -0.0957  0.0129  1.0000  -2.7809   0.0000   0.0000   0.0000   0.3194
  17.900   1.0268   0.19607   0.19251  -0.0976  0.0129  0.5219  -2.7133   0.0000   0.0000   0.0000   0.3213
  18.000   1.0254   0.19936   0.19543  -0.0986  0.0129  0.1804  -2.6574   0.0000   0.0000   0.0000   0.3224
  18.100   1.0246   0.20251   0.19853  -0.0998  0.0129  0.1114  -2.6044   0.0000   0.0000   0.0000   0.3236
  18.200   1.0241   0.20568   0.20169  -0.1010  0.0129  0.0753  -2.5503   0.0000   0.0000   0.0000   0.3247
  18.300   1.0237   0.20882   0.20483  -0.1021  0.0129  0.0664  -2.4981   0.0000   0.0000   0.0000   0.3259
  18.400   1.0236   0.21188   0.20790  -0.1033  0.0129  0.0687  -2.4502   0.0000   0.0000   0.0000   0.3269
  18.500   1.0235   0.21487   0.21090  -0.1044  0.0128  0.0904  -2.4061   0.0000   0.0000   0.0000   0.3279
  18.600   1.0238   0.21779   0.21390  -0.1055  0.0128  0.1796  -2.3655   0.0000   0.0000   0.0000   0.3289
  18.700   1.0247   0.22035   0.21712  -0.1069  0.0128  0.6903  -2.3296   0.0000   0.0000   0.0000   0.3300
  19.800   1.0319   0.24920   0.24661  -0.1168  0.0126  1.0000  -2.0350   0.0000   0.0000   0.0000   0.3377
  19.900   1.0331   0.25186   0.24927  -0.1178  0.0126  1.0000  -2.0153   0.0000   0.0000   0.0000   0.3383
  20.000   1.0343   0.25452   0.25193  -0.1187  0.0125  1.0000  -1.9965   0.0000   0.0000   0.0000   0.3389
  20.100   1.0356   0.25719   0.25460  -0.1196  0.0125  1.0000  -1.9785   0.0000   0.0000   0.0000   0.3395
  20.200   1.0369   0.25985   0.25727  -0.1205  0.0125  1.0000  -1.9611   0.0000   0.0000   0.0000   0.3401
  20.300   1.0382   0.26253   0.25995  -0.1214  0.0124  1.0000  -1.9445   0.0000   0.0000   0.0000   0.3407
  20.400   1.0396   0.26521   0.26263  -0.1223  0.0124  1.0000  -1.9284   0.0000   0.0000   0.0000   0.3413
  20.500   1.0410   0.26790   0.26533  -0.1233  0.0124  1.0000  -1.9130   0.0000   0.0000   0.0000   0.3419
  20.600   1.0424   0.27060   0.26803  -0.1242  0.0124  1.0000  -1.8980   0.0000   0.0000   0.0000   0.3424
  20.700   1.0439   0.27332   0.27076  -0.1251  0.0123  1.0000  -1.8835   0.0000   0.0000   0.0000   0.3430
  20.800   1.0454   0.27606   0.27349  -0.1260  0.0123  1.0000  -1.8695   0.0000   0.0000   0.0000   0.3436
  20.900   1.0469   0.27881   0.27625  -0.1270  0.0123  1.0000  -1.8559   0.0000   0.0000   0.0000   0.3441
  21.000   1.0484   0.28158   0.27903  -0.1279  0.0122  1.0000  -1.8428   0.0000   0.0000   0.0000   0.3447
  21.100   1.0500   0.28438   0.28183  -0.1289  0.0122  1.0000  -1.8309   0.0000   0.0000   0.0000   0.3452
  21.200   1.0515   0.28721   0.28466  -0.1298  0.0122  1.0000  -1.8192   0.0000   0.0000   0.0000   0.3458
  21.300   1.0531   0.29006   0.28752  -0.1308  0.0122  1.0000  -1.8077   0.0000   0.0000   0.0000   0.3464
  21.400   1.0547   0.29295   0.29041  -0.1318  0.0121  1.0000  -1.7965   0.0000   0.0000   0.0000   0.3469
  21.500   1.0563   0.29588   0.29335  -0.1328  0.0121  1.0000  -1.7855   0.0000   0.0000   0.0000   0.3475
  21.600   1.0579   0.29885   0.29632  -0.1338  0.0121  1.0000  -1.7745   0.0000   0.0000   0.0000   0.3481
  21.700   1.0595   0.30188   0.29936  -0.1349  0.0120  1.0000  -1.7623   0.0000   0.0000   0.0000   0.3487
  21.800   1.0610   0.30498   0.30247  -0.1360  0.0120  1.0000  -1.7495   0.0000   0.0000   0.0000   0.3494
  21.900   1.0626   0.30815   0.30564  -0.1371  0.0120  1.0000  -1.7366   0.0000   0.0000   0.0000   0.3501
  22.000   1.0641   0.31139   0.30888  -0.1382  0.0119  1.0000  -1.7238   0.0000   0.0000   0.0000   0.3508
  22.100   1.0657   0.31472   0.31223  -0.1394  0.0119  1.0000  -1.7110   0.0000   0.0000   0.0000   0.3515
  22.200   1.0673   0.31818   0.31569  -0.1407  0.0119  1.0000  -1.6981   0.0000   0.0000   0.0000   0.3523
  22.300   1.0689   0.32179   0.31931  -0.1421  0.0118  1.0000  -1.6848   0.0000   0.0000   0.0000   0.3532
  22.400   1.0706   0.32562   0.32315  -0.1435  0.0118  1.0000  -1.6709   0.0000   0.0000   0.0000   0.3542
  22.500   1.0722   0.32980   0.32734  -0.1452  0.0118  1.0000  -1.6558   0.0000   0.0000   0.0000   0.3553
  22.600   1.0739   0.33469   0.33224  -0.1472  0.0117  1.0000  -1.6378   0.0000   0.0000   0.0000   0.3567


