xflr5 v6.61

 Calculated polar for: GOE 398 AIRFOIL

 1 1 Reynolds number fixed          Mach number fixed         

 xtrf =   1.000 (top)        1.000 (bottom)
 Mach =   0.000     Re =     0.100 e 6     Ncrit =   9.000

  alpha     CL        CD       CDp       Cm    Top Xtr Bot Xtr   Cpmin    Chinge    XCp    
 ------- -------- --------- --------- -------- ------- ------- -------- --------- ---------
 -10.000  -0.3145   0.12302   0.11839  -0.0254  1.0000  0.0800  -1.3289   0.0000   0.0000   0.0000   0.1521
  -9.900  -0.3151   0.12218   0.11758  -0.0246  1.0000  0.0805  -1.3209   0.0000   0.0000   0.0000   0.1551
  -9.800  -0.3161   0.12139   0.11681  -0.0238  1.0000  0.0809  -1.3145   0.0000   0.0000   0.0000   0.1581
  -9.700  -0.3125   0.12016   0.11560  -0.0238  0.9994  0.0816  -1.3025   0.0000   0.0000   0.0000   0.1571
  -9.600  -0.3044   0.11846   0.11390  -0.0250  0.9980  0.0826  -1.2869   0.0000   0.0000   0.0000   0.1512
  -9.500  -0.2971   0.11686   0.11229  -0.0261  0.9963  0.0837  -1.2759   0.0000   0.0000   0.0000   0.1450
  -9.400  -0.2907   0.11532   0.11075  -0.0274  0.9945  0.0849  -1.2692   0.0000   0.0000   0.0000   0.1386
  -9.300  -0.2850   0.11385   0.10928  -0.0287  0.9924  0.0864  -1.2668   0.0000   0.0000   0.0000   0.1319
  -9.200  -0.2802   0.11244   0.10788  -0.0302  0.9900  0.0881  -1.2695   0.0000   0.0000   0.0000   0.1249
  -9.100  -0.2764   0.11115   0.10659  -0.0318  0.9874  0.0901  -1.2784   0.0000   0.0000   0.0000   0.1175
  -9.000  -0.2740   0.11006   0.10551  -0.0337  0.9845  0.0924  -1.2953   0.0000   0.0000   0.0000   0.1096
  -8.900  -0.2728   0.10949   0.10494  -0.0361  0.9812  0.0951  -1.3200   0.0000   0.0000   0.0000   0.1006
  -8.800  -0.2696   0.11145   0.10691  -0.0392  0.9770  0.0991  -1.3356   0.0000   0.0000   0.0000   0.0879
  -8.300  -0.2384   0.09835   0.09385  -0.0413  0.9659  0.1222  -1.3252   0.0000   0.0000   0.0000   0.0585
  -8.200  -0.2282   0.09748   0.09297  -0.0429  0.9632  0.1294  -1.2903   0.0000   0.0000   0.0000   0.0432
  -8.100  -0.2213   0.09642   0.09191  -0.0454  0.9605  0.1351  -1.2773   0.0000   0.0000   0.0000   0.0260
  -8.000  -0.2171   0.09556   0.09105  -0.0487  0.9577  0.1406  -1.2815   0.0000   0.0000   0.0000   0.0066
  -7.900  -0.2194   0.09581   0.09130  -0.0538  0.9546  0.1458  -1.3197   0.0000   0.0000   0.0000  -0.0132
  -7.800  -0.2234   0.09753   0.09300  -0.0597  0.9514  0.1492  -1.3619   0.0000   0.0000   0.0000  -0.0346
  -7.700  -0.2324   0.09738   0.09285  -0.0590  0.9466  0.1495  -1.3787   0.0000   0.0000   0.0000  -0.0200
  -7.600  -0.2462   0.09694   0.09244  -0.0560  0.9399  0.1495  -1.3960   0.0000   0.0000   0.0000   0.0078
  -7.500  -0.2537   0.09661   0.09211  -0.0554  0.9339  0.1498  -1.4101   0.0000   0.0000   0.0000   0.0178
  -7.000  -0.1994   0.08357   0.07914  -0.0565  0.9207  0.1661  -1.1697   0.0000   0.0000   0.0000  -0.0504
  -6.900  -0.1857   0.08267   0.07824  -0.0572  0.9181  0.1694  -1.1105   0.0000   0.0000   0.0000  -0.0757
  -6.800  -0.1791   0.08158   0.07714  -0.0582  0.9152  0.1713  -1.0828   0.0000   0.0000   0.0000  -0.0933
  -6.700  -0.1731   0.08051   0.07606  -0.0594  0.9126  0.1732  -1.0582   0.0000   0.0000   0.0000  -0.1117
  -6.600  -0.1676   0.07947   0.07502  -0.0606  0.9102  0.1753  -1.0463   0.0000   0.0000   0.0000  -0.1305
  -6.500  -0.1623   0.07848   0.07402  -0.0619  0.9079  0.1774  -1.0440   0.0000   0.0000   0.0000  -0.1501
  -6.400  -0.1561   0.07747   0.07300  -0.0633  0.9058  0.1796  -1.0416   0.0000   0.0000   0.0000  -0.1748
  -6.300  -0.1477   0.07641   0.07192  -0.0653  0.9039  0.1822  -1.0379   0.0000   0.0000   0.0000  -0.2118
  -6.200  -0.1379   0.07543   0.07091  -0.0674  0.9021  0.1848  -1.0332   0.0000   0.0000   0.0000  -0.2594
  -6.100  -0.1268   0.07462   0.07008  -0.0696  0.9001  0.1876  -1.0269   0.0000   0.0000   0.0000  -0.3205
  -6.000  -0.1486   0.07485   0.07034  -0.0646  0.8949  0.1873  -1.0430   0.0000   0.0000   0.0000  -0.2032
  -5.900  -0.1652   0.07490   0.07042  -0.0608  0.8883  0.1875  -1.0555   0.0000   0.0000   0.0000  -0.1339
  -5.800  -0.1742   0.07476   0.07029  -0.0586  0.8823  0.1884  -1.0623   0.0000   0.0000   0.0000  -0.1009
  -5.700  -0.1788   0.07457   0.07010  -0.0571  0.8767  0.1896  -1.0653   0.0000   0.0000   0.0000  -0.0836
  -5.600  -0.1802   0.07441   0.06993  -0.0562  0.8714  0.1912  -1.0649   0.0000   0.0000   0.0000  -0.0755
  -5.500  -0.1784   0.07442   0.06992  -0.0557  0.8664  0.1931  -1.0601   0.0000   0.0000   0.0000  -0.0753
  -5.400  -0.1717   0.07522   0.07071  -0.0554  0.8617  0.1960  -1.0447   0.0000   0.0000   0.0000  -0.0861
  -5.300  -0.1601   0.07730   0.07275  -0.0551  0.8571  0.1990  -1.0167   0.0000   0.0000   0.0000  -0.1082
  -4.900  -0.2139   0.05598   0.05083  -0.0601  0.8413  0.1398  -1.3682   0.0000   0.0000   0.0000  -0.0414
  -4.800  -0.2132   0.05326   0.04804  -0.0601  0.8385  0.1313  -1.4018   0.0000   0.0000   0.0000  -0.0427
  -4.700  -0.2197   0.04681   0.04064  -0.0605  0.8353  0.1055  -1.6413   0.0000   0.0000   0.0000  -0.0368
  -4.600  -0.2059   0.04699   0.04078  -0.0608  0.8329  0.1039  -1.6128   0.0000   0.0000   0.0000  -0.0570
  -4.500  -0.1914   0.04723   0.04099  -0.0611  0.8306  0.1028  -1.5788   0.0000   0.0000   0.0000  -0.0817
  -4.400  -0.1764   0.04750   0.04125  -0.0616  0.8284  0.1018  -1.5419   0.0000   0.0000   0.0000  -0.1121
  -4.300  -0.1773   0.04362   0.03714  -0.0611  0.8264  0.0984  -1.6014   0.0000   0.0000   0.0000  -0.1077
  -4.200  -0.1708   0.04178   0.03513  -0.0610  0.8244  0.0970  -1.6180   0.0000   0.0000   0.0000  -0.1204
  -4.100  -0.1626   0.04026   0.03345  -0.0610  0.8224  0.0958  -1.6275   0.0000   0.0000   0.0000  -0.1390
  -4.000  -0.1531   0.03893   0.03195  -0.0610  0.8205  0.0947  -1.6331   0.0000   0.0000   0.0000  -0.1634
  -3.900  -0.1425   0.03774   0.03059  -0.0611  0.8186  0.0938  -1.6356   0.0000   0.0000   0.0000  -0.1946
  -3.800  -0.1312   0.03666   0.02934  -0.0613  0.8168  0.0931  -1.6356   0.0000   0.0000   0.0000  -0.2344
  -3.700  -0.1191   0.03569   0.02821  -0.0616  0.8149  0.0925  -1.6332   0.0000   0.0000   0.0000  -0.2854
  -3.600  -0.1064   0.03485   0.02719  -0.0619  0.8131  0.0921  -1.6282   0.0000   0.0000   0.0000  -0.3518
  -3.500  -0.0934   0.03413   0.02632  -0.0622  0.8111  0.0920  -1.6208   0.0000   0.0000   0.0000  -0.4394
  -3.400  -0.0803   0.03357   0.02562  -0.0626  0.8089  0.0920  -1.6114   0.0000   0.0000   0.0000  -0.5556
  -3.300  -0.0681   0.03325   0.02517  -0.0629  0.8063  0.0923  -1.6007   0.0000   0.0000   0.0000  -0.7034
  -3.200  -0.0608   0.03365   0.02549  -0.0625  0.8022  0.0926  -1.5922   0.0000   0.0000   0.0000  -0.8103
  -3.100  -0.0609   0.03402   0.02580  -0.0608  0.7990  0.0929  -1.5885   0.0000   0.0000   0.0000  -0.7816
  -3.000  -0.0553   0.03353   0.02523  -0.0598  0.7978  0.0934  -1.5806   0.0000   0.0000   0.0000  -0.8653
  -2.900  -0.0501   0.03310   0.02472  -0.0588  0.7963  0.0941  -1.5725   0.0000   0.0000   0.0000  -0.9589
  -2.800  -0.0453   0.03271   0.02427  -0.0576  0.7945  0.0949  -1.5642   0.0000   0.0000   0.0000  -1.0621
  -2.700  -0.0409   0.03238   0.02388  -0.0565  0.7924  0.0958  -1.5560   0.0000   0.0000   0.0000  -1.1737
  -2.600  -0.0369   0.03210   0.02354  -0.0552  0.7900  0.0968  -1.5478   0.0000   0.0000   0.0000  -1.2925
  -2.500  -0.0332   0.03186   0.02326  -0.0539  0.7872  0.0980  -1.5394   0.0000   0.0000   0.0000  -1.4236
  -2.400  -0.0297   0.03168   0.02303  -0.0526  0.7839  0.0992  -1.5305   0.0000   0.0000   0.0000  -1.5753
  -2.300  -0.0261   0.03155   0.02286  -0.0513  0.7803  0.1004  -1.5205   0.0000   0.0000   0.0000  -1.7752
  -2.200  -0.0222   0.03107   0.02232  -0.0500  0.7765  0.1031  -1.5252   0.0000   0.0000   0.0000  -2.0749
  -2.100  -0.0185   0.03005   0.02122  -0.0485  0.7727  0.1128  -1.5575   0.0000   0.0000   0.0000  -2.4530
  -2.000  -0.0141   0.02971   0.02098  -0.0473  0.7684  0.1215  -1.5564   0.0000   0.0000   0.0000  -3.2129
  -1.900  -0.0080   0.02951   0.02085  -0.0464  0.7640  0.1317  -1.5482   0.0000   0.0000   0.0000  -5.6783
  -1.800  -0.0002   0.02932   0.02067  -0.0457  0.7597  0.1458  -1.5421   0.0000   0.0000   0.0000  -220.6590
  -1.700   0.0072   0.02880   0.02031  -0.0449  0.7555  0.1658  -1.5372   0.0000   0.0000   0.0000   6.6616
  -1.600   0.0168   0.02859   0.02021  -0.0446  0.7514  0.1835  -1.5093   0.0000   0.0000   0.0000   2.9777
  -1.500   0.0282   0.02850   0.02010  -0.0446  0.7474  0.1976  -1.4765   0.0000   0.0000   0.0000   1.8654
  -1.400   0.0398   0.02798   0.01960  -0.0444  0.7438  0.2290  -1.4547   0.0000   0.0000   0.0000   1.3896
  -1.300   0.0514   0.02761   0.01944  -0.0444  0.7404  0.2606  -1.4207   0.0000   0.0000   0.0000   1.1317
  -1.200   0.0648   0.02737   0.01931  -0.0447  0.7372  0.2865  -1.3787   0.0000   0.0000   0.0000   0.9534
  -1.100   0.0798   0.02716   0.01912  -0.0453  0.7342  0.3116  -1.3340   0.0000   0.0000   0.0000   0.8271
  -1.000   0.2630   0.02489   0.01920  -0.0777  0.7421  0.9295  -1.0036   0.0000   0.0000   0.0000   0.5478
  -0.900   0.3101   0.02496   0.01911  -0.0843  0.7414  1.0000  -0.9086   0.0000   0.0000   0.0000   0.5236
  -0.800   0.3249   0.02476   0.01880  -0.0848  0.7383  1.0000  -0.8673   0.0000   0.0000   0.0000   0.5123
  -0.700   0.3405   0.02454   0.01848  -0.0853  0.7354  1.0000  -0.8248   0.0000   0.0000   0.0000   0.5017
  -0.600   0.3568   0.02429   0.01815  -0.0860  0.7327  1.0000  -0.7813   0.0000   0.0000   0.0000   0.4918
  -0.500   0.3745   0.02404   0.01781  -0.0869  0.7301  1.0000  -0.7904   0.0000   0.0000   0.0000   0.4826
  -0.400   0.3936   0.02377   0.01745  -0.0881  0.7276  1.0000  -0.8096   0.0000   0.0000   0.0000   0.4740
  -0.300   0.4147   0.02345   0.01705  -0.0896  0.7252  1.0000  -0.8305   0.0000   0.0000   0.0000   0.4660
  -0.200   0.4381   0.02309   0.01661  -0.0915  0.7227  1.0000  -0.8532   0.0000   0.0000   0.0000   0.4585
  -0.100   0.4634   0.02270   0.01613  -0.0937  0.7201  1.0000  -0.8775   0.0000   0.0000   0.0000   0.4518
   0.000   0.4877   0.02233   0.01569  -0.0958  0.7168  1.0000  -0.9012   0.0000   0.0000   0.0000   0.4457
   0.100   0.5105   0.02208   0.01536  -0.0976  0.7123  1.0000  -0.9236   0.0000   0.0000   0.0000   0.4404
   0.200   0.5229   0.02301   0.01623  -0.0983  0.6997  1.0000  -0.9363   0.0000   0.0000   0.0000   0.4369
   0.300   0.5295   0.02283   0.01601  -0.0973  0.6977  1.0000  -0.9467   0.0000   0.0000   0.0000   0.4326
   0.400   0.5352   0.02270   0.01585  -0.0962  0.6951  1.0000  -0.9563   0.0000   0.0000   0.0000   0.4284
   0.500   0.5400   0.02263   0.01575  -0.0949  0.6919  1.0000  -0.9650   0.0000   0.0000   0.0000   0.4243
   0.600   0.5423   0.02264   0.01574  -0.0933  0.6877  1.0000  -0.9718   0.0000   0.0000   0.0000   0.4203
   0.700   0.5446   0.02270   0.01577  -0.0917  0.6827  1.0000  -0.9783   0.0000   0.0000   0.0000   0.4165
   0.800   0.5479   0.02275   0.01580  -0.0902  0.6772  1.0000  -0.9856   0.0000   0.0000   0.0000   0.4127
   0.900   0.5530   0.02277   0.01579  -0.0891  0.6715  1.0000  -0.9942   0.0000   0.0000   0.0000   0.4089
   1.000   0.5609   0.02274   0.01572  -0.0884  0.6659  1.0000  -1.0051   0.0000   0.0000   0.0000   0.4053
   1.100   0.5717   0.02265   0.01560  -0.0882  0.6606  1.0000  -1.0184   0.0000   0.0000   0.0000   0.4018
   1.200   0.5850   0.02251   0.01542  -0.0884  0.6557  1.0000  -1.0337   0.0000   0.0000   0.0000   0.3985
   1.300   0.5997   0.02233   0.01521  -0.0889  0.6510  1.0000  -1.0502   0.0000   0.0000   0.0000   0.3954
   1.400   0.6152   0.02213   0.01497  -0.0894  0.6466  1.0000  -1.0674   0.0000   0.0000   0.0000   0.3925
   1.500   0.6313   0.02190   0.01470  -0.0901  0.6424  1.0000  -1.0853   0.0000   0.0000   0.0000   0.3897
   1.600   0.6478   0.02168   0.01444  -0.0908  0.6383  1.0000  -1.1035   0.0000   0.0000   0.0000   0.3870
   1.700   0.6640   0.02146   0.01418  -0.0915  0.6343  1.0000  -1.1216   0.0000   0.0000   0.0000   0.3845
   1.800   0.6808   0.02126   0.01393  -0.0923  0.6302  1.0000  -1.1402   0.0000   0.0000   0.0000   0.3822
   1.900   0.6985   0.02109   0.01370  -0.0933  0.6257  1.0000  -1.1594   0.0000   0.0000   0.0000   0.3800
   2.000   0.7159   0.02100   0.01355  -0.0943  0.6207  1.0000  -1.1781   0.0000   0.0000   0.0000   0.3781
   2.100   0.7322   0.02110   0.01360  -0.0953  0.6140  1.0000  -1.1956   0.0000   0.0000   0.0000   0.3763
   2.200   0.7341   0.02264   0.01512  -0.0945  0.5998  1.0000  -1.1975   0.0000   0.0000   0.0000   0.3749
   2.300   0.7402   0.02268   0.01516  -0.0936  0.5984  1.0000  -1.2074   0.0000   0.0000   0.0000   0.3725
   2.400   0.7461   0.02273   0.01521  -0.0927  0.5968  1.0000  -1.2171   0.0000   0.0000   0.0000   0.3701
   2.500   0.7504   0.02282   0.01528  -0.0914  0.5945  1.0000  -1.2252   0.0000   0.0000   0.0000   0.3676
   2.600   0.7545   0.02292   0.01538  -0.0902  0.5921  1.0000  -1.2334   0.0000   0.0000   0.0000   0.3651
   2.700   0.7584   0.02304   0.01549  -0.0889  0.5894  1.0000  -1.2414   0.0000   0.0000   0.0000   0.3627
   2.800   0.7621   0.02318   0.01562  -0.0876  0.5863  1.0000  -1.2492   0.0000   0.0000   0.0000   0.3603
   2.900   0.7659   0.02334   0.01578  -0.0863  0.5831  1.0000  -1.2585   0.0000   0.0000   0.0000   0.3579
   3.000   0.7696   0.02351   0.01595  -0.0851  0.5797  1.0000  -1.2690   0.0000   0.0000   0.0000   0.3556
   3.100   0.7734   0.02371   0.01614  -0.0839  0.5762  1.0000  -1.2794   0.0000   0.0000   0.0000   0.3533
   3.200   0.7772   0.02393   0.01635  -0.0827  0.5728  1.0000  -1.2898   0.0000   0.0000   0.0000   0.3511
   3.300   0.7809   0.02418   0.01660  -0.0815  0.5695  1.0000  -1.2998   0.0000   0.0000   0.0000   0.3490
   3.400   0.7847   0.02443   0.01684  -0.0803  0.5662  1.0000  -1.3100   0.0000   0.0000   0.0000   0.3469
   3.500   0.7885   0.02466   0.01707  -0.0791  0.5629  1.0000  -1.3203   0.0000   0.0000   0.0000   0.3447
   3.600   0.7927   0.02487   0.01727  -0.0780  0.5597  1.0000  -1.3310   0.0000   0.0000   0.0000   0.3426
   3.700   0.7980   0.02505   0.01744  -0.0770  0.5565  1.0000  -1.3428   0.0000   0.0000   0.0000   0.3406
   3.800   0.8047   0.02517   0.01755  -0.0763  0.5533  1.0000  -1.3560   0.0000   0.0000   0.0000   0.3388
   3.900   0.8129   0.02525   0.01762  -0.0757  0.5501  1.0000  -1.3709   0.0000   0.0000   0.0000   0.3370
   4.000   0.8231   0.02525   0.01760  -0.0755  0.5469  1.0000  -1.3879   0.0000   0.0000   0.0000   0.3354
   4.100   0.8357   0.02516   0.01749  -0.0756  0.5437  1.0000  -1.4074   0.0000   0.0000   0.0000   0.3340
   4.200   0.8503   0.02499   0.01729  -0.0760  0.5402  1.0000  -1.4293   0.0000   0.0000   0.0000   0.3328
   4.300   0.8663   0.02476   0.01702  -0.0766  0.5367  1.0000  -1.4527   0.0000   0.0000   0.0000   0.3317
   4.400   0.8835   0.02448   0.01670  -0.0773  0.5328  1.0000  -1.4776   0.0000   0.0000   0.0000   0.3307
   4.500   0.9022   0.02419   0.01635  -0.0783  0.5284  1.0000  -1.5040   0.0000   0.0000   0.0000   0.3299
   4.600   0.9208   0.02397   0.01606  -0.0793  0.5233  1.0000  -1.5301   0.0000   0.0000   0.0000   0.3291
   4.700   0.9377   0.02395   0.01597  -0.0802  0.5170  1.0000  -1.5542   0.0000   0.0000   0.0000   0.3283
   4.800   0.9501   0.02441   0.01639  -0.0807  0.5088  1.0000  -1.5722   0.0000   0.0000   0.0000   0.3276
   4.900   0.9468   0.02585   0.01787  -0.0790  0.4997  1.0000  -1.5720   0.0000   0.0000   0.0000   0.3260
   5.000   0.9524   0.02583   0.01784  -0.0779  0.4983  1.0000  -1.5851   0.0000   0.0000   0.0000   0.3242
   5.100   0.9562   0.02587   0.01789  -0.0766  0.4965  1.0000  -1.5964   0.0000   0.0000   0.0000   0.3224
   5.200   0.9588   0.02596   0.01799  -0.0751  0.4945  1.0000  -1.6063   0.0000   0.0000   0.0000   0.3204
   5.300   0.9606   0.02609   0.01814  -0.0735  0.4920  1.0000  -1.6153   0.0000   0.0000   0.0000   0.3185
   5.400   0.9607   0.02626   0.01832  -0.0716  0.4893  1.0000  -1.6223   0.0000   0.0000   0.0000   0.3163
   5.500   0.9593   0.02647   0.01854  -0.0694  0.4862  1.0000  -1.6279   0.0000   0.0000   0.0000   0.3140
   5.600   0.9585   0.02669   0.01878  -0.0674  0.4828  1.0000  -1.6337   0.0000   0.0000   0.0000   0.3119
   5.700   0.9587   0.02692   0.01901  -0.0656  0.4790  1.0000  -1.6405   0.0000   0.0000   0.0000   0.3098
   5.800   0.9605   0.02712   0.01922  -0.0641  0.4749  1.0000  -1.6487   0.0000   0.0000   0.0000   0.3079
   5.900   0.9640   0.02729   0.01940  -0.0628  0.4705  1.0000  -1.6604   0.0000   0.0000   0.0000   0.3062
   6.000   0.9691   0.02743   0.01953  -0.0618  0.4659  1.0000  -1.6883   0.0000   0.0000   0.0000   0.3047
   6.100   0.9760   0.02750   0.01959  -0.0610  0.4612  1.0000  -1.7198   0.0000   0.0000   0.0000   0.3033
   6.200   0.9849   0.02749   0.01956  -0.0605  0.4566  1.0000  -1.7554   0.0000   0.0000   0.0000   0.3021
   6.300   0.9954   0.02740   0.01945  -0.0602  0.4518  1.0000  -1.7945   0.0000   0.0000   0.0000   0.3010
   6.400   1.0069   0.02726   0.01928  -0.0600  0.4471  1.0000  -1.8361   0.0000   0.0000   0.0000   0.2999
   6.500   1.0208   0.02705   0.01901  -0.0602  0.4421  1.0000  -1.8826   0.0000   0.0000   0.0000   0.2991
   6.600   1.0387   0.02676   0.01863  -0.0609  0.4362  1.0000  -1.9373   0.0000   0.0000   0.0000   0.2987
   6.700   1.0577   0.02656   0.01832  -0.0619  0.4291  1.0000  -1.9943   0.0000   0.0000   0.0000   0.2984
   6.800   1.0778   0.02673   0.01838  -0.0634  0.4191  1.0000  -2.0521   0.0000   0.0000   0.0000   0.2986
   6.900   1.0854   0.02796   0.01962  -0.0635  0.4074  1.0000  -2.0819   0.0000   0.0000   0.0000   0.2982
   7.100   1.0627   0.03037   0.02216  -0.0575  0.3993  1.0000  -2.0707   0.0000   0.0000   0.0000   0.2934
   7.200   1.0689   0.03019   0.02198  -0.0565  0.3981  1.0000  -2.1043   0.0000   0.0000   0.0000   0.2921
   7.300   1.0743   0.03006   0.02184  -0.0554  0.3968  1.0000  -2.1364   0.0000   0.0000   0.0000   0.2906
   7.400   1.0784   0.03000   0.02178  -0.0542  0.3952  1.0000  -2.1659   0.0000   0.0000   0.0000   0.2892
   7.500   1.0799   0.03006   0.02185  -0.0527  0.3934  1.0000  -2.1899   0.0000   0.0000   0.0000   0.2875
   7.600   1.0810   0.03017   0.02197  -0.0511  0.3914  1.0000  -2.2129   0.0000   0.0000   0.0000   0.2859
   7.700   1.0814   0.03033   0.02215  -0.0496  0.3892  1.0000  -2.2346   0.0000   0.0000   0.0000   0.2842
   7.800   1.0809   0.03057   0.02240  -0.0479  0.3867  1.0000  -2.2540   0.0000   0.0000   0.0000   0.2825
   7.900   1.0803   0.03084   0.02269  -0.0463  0.3839  1.0000  -2.2732   0.0000   0.0000   0.0000   0.2809
   8.000   1.0803   0.03112   0.02299  -0.0448  0.3809  1.0000  -2.2934   0.0000   0.0000   0.0000   0.2794
   8.100   1.0809   0.03140   0.02329  -0.0435  0.3776  1.0000  -2.3149   0.0000   0.0000   0.0000   0.2779
   8.200   1.0821   0.03167   0.02357  -0.0422  0.3740  1.0000  -2.3377   0.0000   0.0000   0.0000   0.2765
   8.300   1.0833   0.03197   0.02388  -0.0409  0.3704  1.0000  -2.3602   0.0000   0.0000   0.0000   0.2751
   8.400   1.0850   0.03225   0.02417  -0.0398  0.3666  1.0000  -2.3838   0.0000   0.0000   0.0000   0.2738
   8.500   1.0880   0.03248   0.02441  -0.0388  0.3627  1.0000  -2.4105   0.0000   0.0000   0.0000   0.2726
   8.600   1.0922   0.03267   0.02460  -0.0379  0.3588  1.0000  -2.4397   0.0000   0.0000   0.0000   0.2715
   8.700   1.0970   0.03285   0.02478  -0.0371  0.3550  1.0000  -2.4704   0.0000   0.0000   0.0000   0.2705
   8.800   1.1019   0.03304   0.02497  -0.0363  0.3514  1.0000  -2.5012   0.0000   0.0000   0.0000   0.2694
   8.900   1.1066   0.03328   0.02521  -0.0355  0.3480  1.0000  -2.5313   0.0000   0.0000   0.0000   0.2684
   9.000   1.1111   0.03355   0.02548  -0.0348  0.3449  1.0000  -2.5609   0.0000   0.0000   0.0000   0.2674
   9.100   1.1161   0.03379   0.02572  -0.0340  0.3418  1.0000  -2.5919   0.0000   0.0000   0.0000   0.2665
   9.200   1.1228   0.03395   0.02587  -0.0335  0.3385  1.0000  -2.6266   0.0000   0.0000   0.0000   0.2656
   9.300   1.1316   0.03396   0.02584  -0.0330  0.3349  1.0000  -2.6670   0.0000   0.0000   0.0000   0.2648
   9.400   1.1421   0.03385   0.02568  -0.0327  0.3307  1.0000  -2.7116   0.0000   0.0000   0.0000   0.2641
   9.500   1.1519   0.03381   0.02558  -0.0323  0.3260  1.0000  -2.7548   0.0000   0.0000   0.0000   0.2634
   9.600   1.1606   0.03393   0.02563  -0.0319  0.3207  1.0000  -2.7952   0.0000   0.0000   0.0000   0.2626
   9.700   1.1675   0.03434   0.02601  -0.0314  0.3146  1.0000  -2.8300   0.0000   0.0000   0.0000   0.2619
   9.800   1.1698   0.03529   0.02696  -0.0307  0.3085  1.0000  -2.8520   0.0000   0.0000   0.0000   0.2611
   9.900   1.1635   0.03695   0.02870  -0.0295  0.3032  1.0000  -2.8520   0.0000   0.0000   0.0000   0.2600
  10.000   1.1515   0.03885   0.03067  -0.0278  0.3000  1.0000  -2.8390   0.0000   0.0000   0.0000   0.2586
  10.100   1.1543   0.03910   0.03095  -0.0270  0.2994  1.0000  -2.8662   0.0000   0.0000   0.0000   0.2577
  10.200   1.1550   0.03953   0.03141  -0.0261  0.2987  1.0000  -2.8879   0.0000   0.0000   0.0000   0.2567
  10.300   1.1546   0.04010   0.03202  -0.0252  0.2980  1.0000  -2.9063   0.0000   0.0000   0.0000   0.2557
  10.400   1.1523   0.04080   0.03276  -0.0242  0.2973  1.0000  -2.9202   0.0000   0.0000   0.0000   0.2547
  10.500   1.1475   0.04173   0.03374  -0.0231  0.2966  1.0000  -2.9272   0.0000   0.0000   0.0000   0.2537
  10.600   1.1435   0.04264   0.03469  -0.0222  0.2957  1.0000  -2.9362   0.0000   0.0000   0.0000   0.2527
  10.700   1.1405   0.04351   0.03561  -0.0213  0.2947  1.0000  -2.9473   0.0000   0.0000   0.0000   0.2518
  10.800   1.1378   0.04438   0.03653  -0.0205  0.2937  1.0000  -2.9590   0.0000   0.0000   0.0000   0.2510
  10.900   1.1349   0.04530   0.03749  -0.0198  0.2925  1.0000  -2.9698   0.0000   0.0000   0.0000   0.2502
  11.000   1.1314   0.04629   0.03852  -0.0191  0.2912  1.0000  -2.9788   0.0000   0.0000   0.0000   0.2494
  11.100   1.1271   0.04740   0.03969  -0.0184  0.2897  1.0000  -2.9852   0.0000   0.0000   0.0000   0.2487
  11.200   1.1192   0.04891   0.04124  -0.0177  0.2883  1.0000  -2.9816   0.0000   0.0000   0.0000   0.2480
  11.300   1.1024   0.05145   0.04384  -0.0171  0.2868  1.0000  -2.9529   0.0000   0.0000   0.0000   0.2474
  11.400   1.0909   0.05357   0.04602  -0.0167  0.2851  1.0000  -2.9376   0.0000   0.0000   0.0000   0.2470
  11.500   1.0798   0.05575   0.04825  -0.0164  0.2831  1.0000  -2.9224   0.0000   0.0000   0.0000   0.2467
  11.600   1.0651   0.05848   0.05103  -0.0163  0.2809  1.0000  -2.8956   0.0000   0.0000   0.0000   0.2466
  11.700   1.0233   0.06505   0.05767  -0.0171  0.2779  1.0000  -2.7855   0.0000   0.0000   0.0000   0.2479
  11.800   1.0070   0.06847   0.06113  -0.0176  0.2745  1.0000  -2.7488   0.0000   0.0000   0.0000   0.2485
  11.900   0.9934   0.07164   0.06433  -0.0181  0.2709  1.0000  -2.7185   0.0000   0.0000   0.0000   0.2491
  12.000   0.9803   0.07499   0.06771  -0.0188  0.2667  1.0000  -2.6874   0.0000   0.0000   0.0000   0.2499
  12.100   0.9695   0.07802   0.07078  -0.0195  0.2624  1.0000  -2.6624   0.0000   0.0000   0.0000   0.2507
  12.200   0.9569   0.08132   0.07410  -0.0202  0.2580  1.0000  -2.6306   0.0000   0.0000   0.0000   0.2516
  12.300   0.9424   0.08490   0.07770  -0.0211  0.2536  1.0000  -2.5913   0.0000   0.0000   0.0000   0.2528
  12.400   0.9285   0.08834   0.08116  -0.0219  0.2496  1.0000  -2.5538   0.0000   0.0000   0.0000   0.2539
  12.500   0.9173   0.09131   0.08414  -0.0226  0.2463  1.0000  -2.5248   0.0000   0.0000   0.0000   0.2548
  12.600   0.9142   0.09291   0.08577  -0.0228  0.2433  1.0000  -2.5246   0.0000   0.0000   0.0000   0.2550
  12.700   0.9182   0.09336   0.08623  -0.0225  0.2406  1.0000  -2.5496   0.0000   0.0000   0.0000   0.2544
  12.800   0.9277   0.09286   0.08575  -0.0219  0.2380  1.0000  -2.5948   0.0000   0.0000   0.0000   0.2532
  12.900   0.9593   0.08868   0.08160  -0.0200  0.2360  1.0000  -2.7196   0.0000   0.0000   0.0000   0.2500
  13.000   1.0874   0.06368   0.05511  -0.0089  0.0924  1.0000  -3.1720   0.0000   0.0000   0.0000   0.2356
  13.100   1.0795   0.06571   0.05711  -0.0090  0.0894  1.0000  -3.1622   0.0000   0.0000   0.0000   0.2356
  13.200   1.0717   0.06778   0.05916  -0.0093  0.0871  1.0000  -3.1515   0.0000   0.0000   0.0000   0.2357
  13.300   1.0638   0.06997   0.06137  -0.0096  0.0857  1.0000  -3.1389   0.0000   0.0000   0.0000   0.2359
  13.400   1.0561   0.07217   0.06357  -0.0100  0.0840  1.0000  -3.1265   0.0000   0.0000   0.0000   0.2361
  13.500   1.0487   0.07427   0.06565  -0.0104  0.0817  1.0000  -3.1148   0.0000   0.0000   0.0000   0.2363
  13.600   1.0418   0.07624   0.06759  -0.0106  0.0788  1.0000  -3.1035   0.0000   0.0000   0.0000   0.2363
  13.700   1.0364   0.07797   0.06928  -0.0106  0.0752  1.0000  -3.0966   0.0000   0.0000   0.0000   0.2362
  13.800   1.0329   0.07956   0.07093  -0.0107  0.0735  1.0000  -3.0993   0.0000   0.0000   0.0000   0.2362
  13.900   1.0297   0.08111   0.07254  -0.0108  0.0720  1.0000  -3.1021   0.0000   0.0000   0.0000   0.2361
  14.000   1.0267   0.08265   0.07412  -0.0109  0.0705  1.0000  -3.1053   0.0000   0.0000   0.0000   0.2360
  14.100   1.0238   0.08418   0.07570  -0.0111  0.0692  1.0000  -3.1089   0.0000   0.0000   0.0000   0.2359
  14.200   1.0210   0.08572   0.07728  -0.0112  0.0679  1.0000  -3.1128   0.0000   0.0000   0.0000   0.2359
  14.300   1.0183   0.08726   0.07885  -0.0114  0.0667  1.0000  -3.1169   0.0000   0.0000   0.0000   0.2359
  14.400   1.0155   0.08890   0.08053  -0.0117  0.0657  1.0000  -3.1199   0.0000   0.0000   0.0000   0.2360
  14.500   1.0121   0.09070   0.08237  -0.0121  0.0648  1.0000  -3.1197   0.0000   0.0000   0.0000   0.2362
  14.600   1.0094   0.09235   0.08405  -0.0124  0.0638  1.0000  -3.1227   0.0000   0.0000   0.0000   0.2364
  14.700   1.0074   0.09384   0.08557  -0.0126  0.0628  1.0000  -3.1291   0.0000   0.0000   0.0000   0.2364
  14.800   1.0061   0.09523   0.08697  -0.0128  0.0617  1.0000  -3.1379   0.0000   0.0000   0.0000   0.2364
  14.900   1.0052   0.09652   0.08825  -0.0129  0.0605  1.0000  -3.1486   0.0000   0.0000   0.0000   0.2363
  15.000   1.0049   0.09771   0.08944  -0.0129  0.0593  1.0000  -3.1609   0.0000   0.0000   0.0000   0.2362
  15.100   1.0051   0.09880   0.09051  -0.0129  0.0581  1.0000  -3.1750   0.0000   0.0000   0.0000   0.2360
  15.200   1.0063   0.09970   0.09139  -0.0128  0.0568  1.0000  -3.1921   0.0000   0.0000   0.0000   0.2356
  15.300   1.0090   0.10031   0.09198  -0.0125  0.0553  1.0000  -3.2136   0.0000   0.0000   0.0000   0.2350
  15.400   1.0141   0.10047   0.09212  -0.0117  0.0537  1.0000  -3.2420   0.0000   0.0000   0.0000   0.2340
  15.500   1.0268   0.09917   0.09081  -0.0098  0.0513  1.0000  -3.2923   0.0000   0.0000   0.0000   0.2317
  15.600   1.0273   0.10028   0.09192  -0.0098  0.0507  1.0000  -3.3032   0.0000   0.0000   0.0000   0.2315
  15.700   1.0252   0.10195   0.09364  -0.0104  0.0505  1.0000  -3.3080   0.0000   0.0000   0.0000   0.2319
  15.800   1.0240   0.10344   0.09517  -0.0108  0.0503  1.0000  -3.3174   0.0000   0.0000   0.0000   0.2321
  15.900   1.0235   0.10481   0.09658  -0.0112  0.0500  1.0000  -3.3293   0.0000   0.0000   0.0000   0.2323
  16.000   1.0233   0.10612   0.09792  -0.0115  0.0497  1.0000  -3.3425   0.0000   0.0000   0.0000   0.2324
  16.100   1.0233   0.10738   0.09922  -0.0119  0.0494  1.0000  -3.3564   0.0000   0.0000   0.0000   0.2325
  16.200   1.0234   0.10862   0.10049  -0.0122  0.0491  1.0000  -3.3705   0.0000   0.0000   0.0000   0.2326
  16.300   1.0236   0.10985   0.10174  -0.0125  0.0487  1.0000  -3.3846   0.0000   0.0000   0.0000   0.2327
  16.400   1.0238   0.11106   0.10299  -0.0128  0.0483  1.0000  -3.3984   0.0000   0.0000   0.0000   0.2328
  16.500   1.0240   0.11228   0.10425  -0.0131  0.0479  1.0000  -3.4117   0.0000   0.0000   0.0000   0.2329
  16.600   1.0242   0.11351   0.10551  -0.0134  0.0475  1.0000  -3.4244   0.0000   0.0000   0.0000   0.2330
  16.700   1.0242   0.11476   0.10679  -0.0138  0.0471  1.0000  -3.4362   0.0000   0.0000   0.0000   0.2331
  16.800   1.0240   0.11603   0.10809  -0.0141  0.0468  1.0000  -3.4470   0.0000   0.0000   0.0000   0.2333
  16.900   1.0237   0.11733   0.10943  -0.0145  0.0464  1.0000  -3.4565   0.0000   0.0000   0.0000   0.2334
  17.000   1.0232   0.11867   0.11081  -0.0149  0.0460  1.0000  -3.4645   0.0000   0.0000   0.0000   0.2336
  17.100   1.0223   0.12006   0.11225  -0.0154  0.0456  1.0000  -3.4708   0.0000   0.0000   0.0000   0.2339
  17.200   1.0210   0.12153   0.11376  -0.0159  0.0453  1.0000  -3.4745   0.0000   0.0000   0.0000   0.2342
  17.300   1.0194   0.12310   0.11537  -0.0165  0.0450  1.0000  -3.4757   0.0000   0.0000   0.0000   0.2346
  17.400   1.0174   0.12477   0.11709  -0.0171  0.0447  1.0000  -3.4740   0.0000   0.0000   0.0000   0.2351
  17.500   1.0147   0.12656   0.11894  -0.0178  0.0444  1.0000  -3.4684   0.0000   0.0000   0.0000   0.2356
  17.600   1.0111   0.12854   0.12097  -0.0187  0.0442  1.0000  -3.4570   0.0000   0.0000   0.0000   0.2364
  17.700   1.0066   0.13072   0.12321  -0.0197  0.0441  1.0000  -3.4394   0.0000   0.0000   0.0000   0.2373
  17.800   0.9986   0.13362   0.12619  -0.0211  0.0442  1.0000  -3.4006   0.0000   0.0000   0.0000   0.2387
  17.900   0.9896   0.13670   0.12937  -0.0228  0.0444  1.0000  -3.3534   0.0000   0.0000   0.0000   0.2405
  18.000   0.9843   0.13898   0.13171  -0.0239  0.0444  1.0000  -3.3272   0.0000   0.0000   0.0000   0.2416
  18.100   0.9802   0.14103   0.13382  -0.0249  0.0442  1.0000  -3.3069   0.0000   0.0000   0.0000   0.2426
  18.200   0.9765   0.14303   0.13586  -0.0259  0.0441  1.0000  -3.2878   0.0000   0.0000   0.0000   0.2435
  18.300   0.9728   0.14505   0.13794  -0.0268  0.0440  1.0000  -3.2675   0.0000   0.0000   0.0000   0.2445
  18.400   0.9688   0.14718   0.14011  -0.0279  0.0438  1.0000  -3.2438   0.0000   0.0000   0.0000   0.2455
  18.500   0.9642   0.14948   0.14246  -0.0290  0.0438  1.0000  -3.2144   0.0000   0.0000   0.0000   0.2467
  18.600   0.9589   0.15207   0.14512  -0.0302  0.0438  1.0000  -3.1766   0.0000   0.0000   0.0000   0.2480
  18.700   0.9516   0.15521   0.14832  -0.0317  0.0439  1.0000  -3.1212   0.0000   0.0000   0.0000   0.2498
  18.800   0.9403   0.15943   0.15262  -0.0337  0.0444  1.0000  -3.0305   0.0000   0.0000   0.0000   0.2525
  18.900   0.9131   0.16830   0.16164  -0.0380  0.0463  1.0000  -2.7889   0.0000   0.0000   0.0000   0.2588
  19.000   0.8969   0.17470   0.16810  -0.0407  0.0475  1.0000  -2.6267   0.0000   0.0000   0.0000   0.2630
  19.100   0.8871   0.17943   0.17285  -0.0427  0.0481  1.0000  -2.5194   0.0000   0.0000   0.0000   0.2659
  19.200   0.8792   0.18381   0.17724  -0.0444  0.0486  1.0000  -2.4243   0.0000   0.0000   0.0000   0.2684
  19.300   0.8737   0.18751   0.18095  -0.0458  0.0488  1.0000  -2.3527   0.0000   0.0000   0.0000   0.2704
  19.400   0.8701   0.19069   0.18412  -0.0469  0.0489  1.0000  -2.2988   0.0000   0.0000   0.0000   0.2720
  19.500   0.8674   0.19360   0.18703  -0.0480  0.0489  1.0000  -2.2543   0.0000   0.0000   0.0000   0.2734
  19.600   0.8653   0.19634   0.18977  -0.0490  0.0489  1.0000  -2.2153   0.0000   0.0000   0.0000   0.2747
  19.700   0.8637   0.19898   0.19240  -0.0499  0.0488  1.0000  -2.1802   0.0000   0.0000   0.0000   0.2758
  19.800   0.8624   0.20154   0.19495  -0.0508  0.0487  1.0000  -2.1481   0.0000   0.0000   0.0000   0.2769
  19.900   0.8613   0.20403   0.19744  -0.0517  0.0485  1.0000  -2.1183   0.0000   0.0000   0.0000   0.2780
  20.000   0.8604   0.20647   0.19987  -0.0526  0.0484  1.0000  -2.0903   0.0000   0.0000   0.0000   0.2790
  20.100   0.8596   0.20888   0.20227  -0.0534  0.0482  1.0000  -2.0637   0.0000   0.0000   0.0000   0.2799
  20.200   0.8590   0.21125   0.20463  -0.0543  0.0480  1.0000  -2.0382   0.0000   0.0000   0.0000   0.2809
  20.300   0.8585   0.21359   0.20697  -0.0551  0.0478  1.0000  -2.0137   0.0000   0.0000   0.0000   0.2818
  20.400   0.8580   0.21592   0.20929  -0.0559  0.0476  1.0000  -1.9901   0.0000   0.0000   0.0000   0.2827
  20.500   0.8577   0.21822   0.21158  -0.0567  0.0474  1.0000  -1.9673   0.0000   0.0000   0.0000   0.2835
  20.600   0.8574   0.22050   0.21386  -0.0574  0.0472  1.0000  -1.9451   0.0000   0.0000   0.0000   0.2844
  20.700   0.8572   0.22277   0.21612  -0.0582  0.0471  1.0000  -1.9237   0.0000   0.0000   0.0000   0.2852
  20.800   0.8571   0.22502   0.21836  -0.0589  0.0469  1.0000  -1.9031   0.0000   0.0000   0.0000   0.2860
  20.900   0.8571   0.22725   0.22059  -0.0597  0.0467  1.0000  -1.8831   0.0000   0.0000   0.0000   0.2867
  21.000   0.8571   0.22947   0.22280  -0.0604  0.0466  1.0000  -1.8638   0.0000   0.0000   0.0000   0.2874
  21.100   0.8572   0.23167   0.22500  -0.0611  0.0465  1.0000  -1.8453   0.0000   0.0000   0.0000   0.2881
  21.200   0.8573   0.23385   0.22717  -0.0618  0.0463  1.0000  -1.8275   0.0000   0.0000   0.0000   0.2888
  21.300   0.8575   0.23602   0.22933  -0.0624  0.0462  1.0000  -1.8103   0.0000   0.0000   0.0000   0.2895
  21.400   0.8578   0.23817   0.23148  -0.0631  0.0462  1.0000  -1.7938   0.0000   0.0000   0.0000   0.2901
  21.500   0.8581   0.24031   0.23361  -0.0637  0.0461  1.0000  -1.7779   0.0000   0.0000   0.0000   0.2907
  21.600   0.8584   0.24243   0.23573  -0.0644  0.0461  1.0000  -1.7628   0.0000   0.0000   0.0000   0.2913
  21.700   0.8588   0.24453   0.23783  -0.0650  0.0461  1.0000  -1.7482   0.0000   0.0000   0.0000   0.2918
  21.800   0.8593   0.24663   0.23992  -0.0656  0.0461  1.0000  -1.7344   0.0000   0.0000   0.0000   0.2923
  21.900   0.8598   0.24871   0.24199  -0.0661  0.0462  1.0000  -1.7212   0.0000   0.0000   0.0000   0.2928
  22.000   0.8604   0.25077   0.24406  -0.0667  0.0463  1.0000  -1.7088   0.0000   0.0000   0.0000   0.2933
  22.100   0.8610   0.25283   0.24611  -0.0672  0.0464  1.0000  -1.6970   0.0000   0.0000   0.0000   0.2937
  22.200   0.8616   0.25488   0.24815  -0.0677  0.0466  1.0000  -1.6859   0.0000   0.0000   0.0000   0.2941
  22.300   0.8623   0.25691   0.25018  -0.0682  0.0468  1.0000  -1.6757   0.0000   0.0000   0.0000   0.2944
  22.400   0.8631   0.25895   0.25222  -0.0686  0.0471  1.0000  -1.6664   0.0000   0.0000   0.0000   0.2947
  22.500   0.8638   0.26100   0.25426  -0.0690  0.0475  1.0000  -1.6582   0.0000   0.0000   0.0000   0.2949
  22.600   0.8647   0.26308   0.25634  -0.0693  0.0480  1.0000  -1.6515   0.0000   0.0000   0.0000   0.2950
  22.700   0.8657   0.26544   0.25869  -0.0693  0.0490  1.0000  -1.6479   0.0000   0.0000   0.0000   0.2947
  22.800   0.8681   0.27744   0.27079  -0.0691  0.0746  1.0000  -1.4688   0.0000   0.0000   0.0000   0.2950
  22.900   0.8664   0.27870   0.27205  -0.0702  0.0743  1.0000  -1.4464   0.0000   0.0000   0.0000   0.2963
  23.000   0.8552   0.27863   0.27199  -0.0744  0.0688  1.0000  -1.3476   0.0000   0.0000   0.0000   0.3023
  23.100   0.8557   0.28045   0.27381  -0.0750  0.0681  1.0000  -1.3410   0.0000   0.0000   0.0000   0.3027
  23.200   0.8564   0.28226   0.27561  -0.0755  0.0674  1.0000  -1.3356   0.0000   0.0000   0.0000   0.3031
  23.300   0.8571   0.28404   0.27739  -0.0761  0.0667  1.0000  -1.3312   0.0000   0.0000   0.0000   0.3035
  23.400   0.8578   0.28581   0.27916  -0.0766  0.0660  1.0000  -1.3277   0.0000   0.0000   0.0000   0.3038
  23.500   0.8586   0.28756   0.28090  -0.0770  0.0653  1.0000  -1.3250   0.0000   0.0000   0.0000   0.3041
  23.600   0.8594   0.28929   0.28264  -0.0775  0.0646  1.0000  -1.3230   0.0000   0.0000   0.0000   0.3044
  23.700   0.8603   0.29101   0.28435  -0.0779  0.0639  1.0000  -1.3218   0.0000   0.0000   0.0000   0.3046
  23.800   0.8612   0.29271   0.28605  -0.0783  0.0632  1.0000  -1.3213   0.0000   0.0000   0.0000   0.3048
  23.900   0.8621   0.29439   0.28773  -0.0787  0.0626  1.0000  -1.3214   0.0000   0.0000   0.0000   0.3049
  24.000   0.8630   0.29606   0.28939  -0.0791  0.0619  1.0000  -1.3221   0.0000   0.0000   0.0000   0.3051
  24.100   0.8640   0.29771   0.29104  -0.0794  0.0613  1.0000  -1.3234   0.0000   0.0000   0.0000   0.3052
  24.200   0.8650   0.29934   0.29267  -0.0798  0.0607  1.0000  -1.3253   0.0000   0.0000   0.0000   0.3052
  24.300   0.8659   0.30096   0.29429  -0.0801  0.0601  1.0000  -1.3278   0.0000   0.0000   0.0000   0.3053
  24.400   0.8669   0.30256   0.29589  -0.0804  0.0596  1.0000  -1.3308   0.0000   0.0000   0.0000   0.3053
  24.500   0.8680   0.30415   0.29748  -0.0806  0.0590  1.0000  -1.3345   0.0000   0.0000   0.0000   0.3053
  24.600   0.8690   0.30573   0.29905  -0.0809  0.0585  1.0000  -1.3388   0.0000   0.0000   0.0000   0.3053
  24.700   0.8700   0.30729   0.30061  -0.0811  0.0580  1.0000  -1.3436   0.0000   0.0000   0.0000   0.3052
  24.800   0.8711   0.30884   0.30216  -0.0813  0.0575  1.0000  -1.3491   0.0000   0.0000   0.0000   0.3051
  24.900   0.8721   0.31037   0.30369  -0.0815  0.0570  1.0000  -1.3552   0.0000   0.0000   0.0000   0.3050
  25.000   0.8732   0.31190   0.30522  -0.0817  0.0566  1.0000  -1.3618   0.0000   0.0000   0.0000   0.3048
  25.100   0.8742   0.31342   0.30674  -0.0818  0.0562  1.0000  -1.3691   0.0000   0.0000   0.0000   0.3047
  25.200   0.8753   0.31494   0.30825  -0.0819  0.0558  1.0000  -1.3771   0.0000   0.0000   0.0000   0.3044
  25.300   0.8764   0.31646   0.30977  -0.0819  0.0554  1.0000  -1.3857   0.0000   0.0000   0.0000   0.3042
  25.400   0.8775   0.31798   0.31129  -0.0820  0.0550  1.0000  -1.3950   0.0000   0.0000   0.0000   0.3038
  25.500   0.8786   0.31952   0.31282  -0.0819  0.0546  1.0000  -1.4051   0.0000   0.0000   0.0000   0.3035
  25.600   0.8798   0.32107   0.31437  -0.0819  0.0543  1.0000  -1.4158   0.0000   0.0000   0.0000   0.3031
  25.700   0.8849   0.32096   0.31444  -0.0814  0.0536  1.0000  -1.4566   0.0000   0.0000   0.0000   0.3016
  25.800   0.8860   0.32272   0.31621  -0.0813  0.0534  1.0000  -1.4656   0.0000   0.0000   0.0000   0.3011
  25.900   0.8871   0.32457   0.31806  -0.0812  0.0531  1.0000  -1.4755   0.0000   0.0000   0.0000   0.3006
  26.000   0.8883   0.32654   0.32003  -0.0809  0.0529  1.0000  -1.4864   0.0000   0.0000   0.0000   0.3001
  26.100   0.8897   0.32872   0.32221  -0.0807  0.0526  1.0000  -1.4985   0.0000   0.0000   0.0000   0.2994
  26.200   0.8911   0.33124   0.32474  -0.0803  0.0522  1.0000  -1.5104   0.0000   0.0000   0.0000   0.2987
  26.300   0.8912   0.33472   0.32822  -0.0798  0.0518  1.0000  -1.5131   0.0000   0.0000   0.0000   0.2980
  26.400   0.8823   0.34342   0.33685  -0.0793  0.0508  1.0000  -1.4398   0.0000   0.0000   0.0000   0.2986
  26.500   0.8817   0.34528   0.33871  -0.0794  0.0508  1.0000  -1.4331   0.0000   0.0000   0.0000   0.2987
  26.600   0.8809   0.34711   0.34054  -0.0796  0.0508  1.0000  -1.4264   0.0000   0.0000   0.0000   0.2989
  26.700   0.8801   0.34891   0.34235  -0.0797  0.0508  1.0000  -1.4193   0.0000   0.0000   0.0000   0.2990
  26.800   0.8791   0.35069   0.34413  -0.0799  0.0508  1.0000  -1.4121   0.0000   0.0000   0.0000   0.2991
  26.900   0.8781   0.35245   0.34589  -0.0800  0.0508  1.0000  -1.4045   0.0000   0.0000   0.0000   0.2992
  27.000   0.8769   0.35419   0.34764  -0.0802  0.0507  1.0000  -1.3967   0.0000   0.0000   0.0000   0.2994
  27.100   0.8756   0.35591   0.34937  -0.0803  0.0507  1.0000  -1.3884   0.0000   0.0000   0.0000   0.2996
  27.200   0.8741   0.35764   0.35110  -0.0805  0.0507  1.0000  -1.3797   0.0000   0.0000   0.0000   0.2998
  27.300   0.8725   0.35939   0.35287  -0.0807  0.0507  1.0000  -1.3701   0.0000   0.0000   0.0000   0.3001
  27.400   0.8707   0.36121   0.35469  -0.0810  0.0507  1.0000  -1.3590   0.0000   0.0000   0.0000   0.3006
  27.500   0.8682   0.36320   0.35670  -0.0816  0.0506  1.0000  -1.3443   0.0000   0.0000   0.0000   0.3015
  28.100   0.8893   0.37477   0.37078  -0.1786  0.0353  1.0000  -0.7220   0.0000   0.0000   0.0000   0.4128
  28.200   0.8900   0.37574   0.37176  -0.1793  0.0344  1.0000  -0.7263   0.0000   0.0000   0.0000   0.4132
  28.300   0.8908   0.37667   0.37270  -0.1800  0.0335  1.0000  -0.7316   0.0000   0.0000   0.0000   0.4135
  28.400   0.8915   0.37755   0.37359  -0.1806  0.0327  1.0000  -0.7383   0.0000   0.0000   0.0000   0.4138
  28.500   0.8924   0.37839   0.37444  -0.1812  0.0319  1.0000  -0.7463   0.0000   0.0000   0.0000   0.4140
  28.600   0.8932   0.37917   0.37524  -0.1818  0.0312  1.0000  -0.7559   0.0000   0.0000   0.0000   0.4142
  28.700   0.8942   0.37991   0.37599  -0.1824  0.0305  1.0000  -0.7672   0.0000   0.0000   0.0000   0.4143
  28.800   0.8952   0.38060   0.37669  -0.1829  0.0298  1.0000  -0.7806   0.0000   0.0000   0.0000   0.4144
  28.900   0.8963   0.38126   0.37735  -0.1834  0.0293  1.0000  -0.7964   0.0000   0.0000   0.0000   0.4143
  29.000   0.8977   0.38193   0.37803  -0.1838  0.0287  1.0000  -0.8151   0.0000   0.0000   0.0000   0.4142
  29.100   0.8993   0.38270   0.37881  -0.1842  0.0281  1.0000  -0.8373   0.0000   0.0000   0.0000   0.4139
  29.200   0.9016   0.38389   0.38001  -0.1844  0.0276  1.0000  -0.8638   0.0000   0.0000   0.0000   0.4133
  29.300   0.9061   0.38771   0.38384  -0.1844  0.0268  1.0000  -0.8966   0.0000   0.0000   0.0000   0.4119
  29.400   0.9042   0.39585   0.39194  -0.1856  0.0259  1.0000  -0.8207   0.0000   0.0000   0.0000   0.4139
  29.500   0.9038   0.39650   0.39260  -0.1863  0.0259  1.0000  -0.8135   0.0000   0.0000   0.0000   0.4146
  29.600   0.9034   0.39715   0.39327  -0.1871  0.0258  1.0000  -0.8066   0.0000   0.0000   0.0000   0.4152
  29.700   0.9030   0.39780   0.39393  -0.1878  0.0258  1.0000  -0.8000   0.0000   0.0000   0.0000   0.4159
  29.800   0.9027   0.39845   0.39459  -0.1885  0.0257  1.0000  -0.7938   0.0000   0.0000   0.0000   0.4165
  29.900   0.9023   0.39908   0.39523  -0.1892  0.0257  1.0000  -0.7875   0.0000   0.0000   0.0000   0.4171
  30.000   0.9016   0.39942   0.39566  -0.1899  0.0256  1.0000  -0.7798   0.0000   0.0000   0.0000   0.4179


