xflr5 v6.61

 Calculated polar for: GOE 417 AIRFOIL

 1 1 Reynolds number fixed          Mach number fixed         

 xtrf =   1.000 (top)        1.000 (bottom)
 Mach =   0.000     Re =     0.160 e 6     Ncrit =   9.000

  alpha     CL        CD       CDp       Cm    Top Xtr Bot Xtr   Cpmin    Chinge    XCp    
 ------- -------- --------- --------- -------- ------- ------- -------- --------- ---------
 -10.000  -0.2598   0.12678   0.12235  -0.0192  1.0000  0.0157  -1.0981   0.0000   0.0000   0.0000   0.1712
  -9.900  -0.2598   0.12598   0.12158  -0.0188  1.0000  0.0159  -1.0876   0.0000   0.0000   0.0000   0.1728
  -9.800  -0.2598   0.12521   0.12082  -0.0184  1.0000  0.0162  -1.0785   0.0000   0.0000   0.0000   0.1745
  -9.700  -0.2599   0.12445   0.12008  -0.0179  1.0000  0.0165  -1.0706   0.0000   0.0000   0.0000   0.1762
  -9.600  -0.2600   0.12370   0.11935  -0.0175  1.0000  0.0168  -1.0637   0.0000   0.0000   0.0000   0.1779
  -9.500  -0.2601   0.12296   0.11862  -0.0171  1.0000  0.0171  -1.0577   0.0000   0.0000   0.0000   0.1796
  -9.400  -0.2602   0.12221   0.11789  -0.0167  1.0000  0.0175  -1.0525   0.0000   0.0000   0.0000   0.1812
  -9.300  -0.2603   0.12147   0.11717  -0.0164  1.0000  0.0178  -1.0481   0.0000   0.0000   0.0000   0.1827
  -9.200  -0.2604   0.12073   0.11644  -0.0160  1.0000  0.0182  -1.0443   0.0000   0.0000   0.0000   0.1842
  -9.100  -0.2605   0.11999   0.11572  -0.0157  1.0000  0.0186  -1.0412   0.0000   0.0000   0.0000   0.1856
  -9.000  -0.2606   0.11926   0.11500  -0.0153  1.0000  0.0190  -1.0388   0.0000   0.0000   0.0000   0.1870
  -8.900  -0.2606   0.11853   0.11430  -0.0150  1.0000  0.0194  -1.0370   0.0000   0.0000   0.0000   0.1884
  -8.800  -0.2606   0.11783   0.11361  -0.0147  1.0000  0.0198  -1.0359   0.0000   0.0000   0.0000   0.1896
  -8.700  -0.2607   0.11714   0.11294  -0.0144  1.0000  0.0203  -1.0355   0.0000   0.0000   0.0000   0.1909
  -8.600  -0.2607   0.11650   0.11231  -0.0141  1.0000  0.0207  -1.0360   0.0000   0.0000   0.0000   0.1921
  -8.500  -0.2608   0.11591   0.11174  -0.0138  1.0000  0.0212  -1.0375   0.0000   0.0000   0.0000   0.1934
  -8.400  -0.2610   0.11541   0.11126  -0.0135  1.0000  0.0217  -1.0403   0.0000   0.0000   0.0000   0.1945
  -8.300  -0.2613   0.11505   0.11092  -0.0133  1.0000  0.0222  -1.0446   0.0000   0.0000   0.0000   0.1957
  -8.200  -0.2618   0.11486   0.11075  -0.0130  1.0000  0.0227  -1.0505   0.0000   0.0000   0.0000   0.1969
  -8.100  -0.2628   0.11485   0.11076  -0.0127  1.0000  0.0231  -1.0578   0.0000   0.0000   0.0000   0.1982
  -8.000  -0.2644   0.11498   0.11091  -0.0124  1.0000  0.0235  -1.0659   0.0000   0.0000   0.0000   0.1998
  -7.900  -0.2666   0.11514   0.11110  -0.0120  1.0000  0.0238  -1.0741   0.0000   0.0000   0.0000   0.2018
  -7.800  -0.2691   0.11530   0.11128  -0.0116  1.0000  0.0240  -1.0822   0.0000   0.0000   0.0000   0.2040
  -7.700  -0.2721   0.11542   0.11142  -0.0110  1.0000  0.0241  -1.0900   0.0000   0.0000   0.0000   0.2066
  -7.600  -0.2753   0.11551   0.11153  -0.0105  1.0000  0.0243  -1.0977   0.0000   0.0000   0.0000   0.2094
  -7.500  -0.2788   0.11556   0.11161  -0.0098  1.0000  0.0244  -1.1054   0.0000   0.0000   0.0000   0.2123
  -7.400  -0.2825   0.11558   0.11164  -0.0092  1.0000  0.0245  -1.1129   0.0000   0.0000   0.0000   0.2152
  -7.300  -0.2861   0.11555   0.11164  -0.0085  1.0000  0.0245  -1.1204   0.0000   0.0000   0.0000   0.2181
  -7.200  -0.2899   0.11549   0.11160  -0.0078  1.0000  0.0246  -1.1280   0.0000   0.0000   0.0000   0.2210
  -7.100  -0.2939   0.11542   0.11155  -0.0071  1.0000  0.0247  -1.1357   0.0000   0.0000   0.0000   0.2239
  -7.000  -0.2980   0.11533   0.11148  -0.0063  1.0000  0.0247  -1.1436   0.0000   0.0000   0.0000   0.2270
  -6.900  -0.3023   0.11521   0.11138  -0.0055  1.0000  0.0248  -1.1515   0.0000   0.0000   0.0000   0.2300
  -6.800  -0.3049   0.11497   0.11116  -0.0052  0.9997  0.0248  -1.1589   0.0000   0.0000   0.0000   0.2312
  -6.700  -0.3001   0.11417   0.11036  -0.0068  0.9982  0.0249  -1.1614   0.0000   0.0000   0.0000   0.2257
  -6.600  -0.2939   0.11311   0.10930  -0.0085  0.9967  0.0250  -1.1605   0.0000   0.0000   0.0000   0.2195
  -6.500  -0.2878   0.11198   0.10817  -0.0101  0.9951  0.0251  -1.1597   0.0000   0.0000   0.0000   0.2132
  -6.400  -0.2816   0.11081   0.10700  -0.0116  0.9934  0.0251  -1.1591   0.0000   0.0000   0.0000   0.2069
  -6.300  -0.2752   0.10957   0.10577  -0.0133  0.9915  0.0252  -1.1585   0.0000   0.0000   0.0000   0.2000
  -6.200  -0.2684   0.10829   0.10449  -0.0149  0.9896  0.0252  -1.1580   0.0000   0.0000   0.0000   0.1924
  -6.100  -0.2611   0.10695   0.10315  -0.0167  0.9875  0.0253  -1.1575   0.0000   0.0000   0.0000   0.1840
  -6.000  -0.2532   0.10553   0.10173  -0.0187  0.9852  0.0253  -1.1566   0.0000   0.0000   0.0000   0.1743
  -5.900  -0.2444   0.10404   0.10023  -0.0207  0.9826  0.0253  -1.1555   0.0000   0.0000   0.0000   0.1631
  -5.800  -0.2347   0.10247   0.09865  -0.0230  0.9799  0.0254  -1.1541   0.0000   0.0000   0.0000   0.1498
  -5.700  -0.2240   0.10081   0.09699  -0.0255  0.9770  0.0254  -1.1525   0.0000   0.0000   0.0000   0.1337
  -5.600  -0.2120   0.09909   0.09525  -0.0283  0.9740  0.0255  -1.1507   0.0000   0.0000   0.0000   0.1141
  -5.500  -0.1988   0.09726   0.09341  -0.0313  0.9710  0.0255  -1.1485   0.0000   0.0000   0.0000   0.0896
  -5.200  -0.1613   0.08823   0.08437  -0.0413  0.9630  0.0261  -1.2379   0.0000   0.0000   0.0000  -0.0100
  -5.100  -0.1564   0.08342   0.07956  -0.0434  0.9609  0.0269  -1.2887   0.0000   0.0000   0.0000  -0.0315
  -5.000  -0.1463   0.08010   0.07624  -0.0450  0.9588  0.0276  -1.2599   0.0000   0.0000   0.0000  -0.0620
  -4.900  -0.1308   0.07745   0.07358  -0.0475  0.9566  0.0280  -1.2227   0.0000   0.0000   0.0000  -0.1186
  -4.800  -0.1114   0.07500   0.07112  -0.0514  0.9546  0.0282  -1.2030   0.0000   0.0000   0.0000  -0.2178
  -4.700  -0.0914   0.07262   0.06872  -0.0554  0.9527  0.0284  -1.1814   0.0000   0.0000   0.0000  -0.3641
  -4.600  -0.0711   0.07038   0.06645  -0.0593  0.9510  0.0287  -1.1584   0.0000   0.0000   0.0000  -0.5951
  -4.500  -0.0655   0.06889   0.06495  -0.0597  0.9476  0.0288  -1.1503   0.0000   0.0000   0.0000  -0.6738
  -4.400  -0.0688   0.06784   0.06390  -0.0580  0.9422  0.0289  -1.1518   0.0000   0.0000   0.0000  -0.6033
  -4.300  -0.0640   0.06643   0.06249  -0.0581  0.9377  0.0290  -1.1439   0.0000   0.0000   0.0000  -0.6681
  -4.200  -0.0559   0.06487   0.06092  -0.0590  0.9339  0.0292  -1.1319   0.0000   0.0000   0.0000  -0.8182
  -4.100  -0.0459   0.06324   0.05928  -0.0603  0.9306  0.0295  -1.1172   0.0000   0.0000   0.0000  -1.0785
  -4.000  -0.0346   0.06158   0.05760  -0.0618  0.9277  0.0298  -1.1006   0.0000   0.0000   0.0000  -1.5563
  -3.900  -0.0225   0.05992   0.05592  -0.0635  0.9252  0.0301  -1.0827   0.0000   0.0000   0.0000  -2.6002
  -3.800  -0.0095   0.05825   0.05423  -0.0654  0.9228  0.0305  -1.0632   0.0000   0.0000   0.0000  -6.7163
  -3.700   0.0046   0.05655   0.05251  -0.0675  0.9206  0.0310  -1.0421   0.0000   0.0000   0.0000  15.1150
  -3.600   0.0194   0.05486   0.05078  -0.0696  0.9186  0.0316  -1.0197   0.0000   0.0000   0.0000   3.8695
  -3.500   0.0352   0.05316   0.04905  -0.0719  0.9167  0.0323  -0.9959   0.0000   0.0000   0.0000   2.3132
  -3.400   0.0519   0.05146   0.04732  -0.0743  0.9149  0.0332  -0.9708   0.0000   0.0000   0.0000   1.6953
  -3.300   0.0696   0.04976   0.04558  -0.0769  0.9133  0.0344  -0.9445   0.0000   0.0000   0.0000   1.3647
  -3.200   0.0883   0.04807   0.04384  -0.0795  0.9119  0.0360  -0.9173   0.0000   0.0000   0.0000   1.1592
  -3.100   0.1080   0.04640   0.04211  -0.0823  0.9105  0.0384  -0.8947   0.0000   0.0000   0.0000   1.0192
  -3.000   0.1300   0.04478   0.04041  -0.0854  0.9093  0.0426  -0.8795   0.0000   0.0000   0.0000   0.9130
  -2.900   0.1767   0.04589   0.04116  -0.0908  0.9086  0.0504  -0.9160   0.0000   0.0000   0.0000   0.7680
  -2.700   0.1944   0.03894   0.03431  -0.0940  0.9062  0.0594  -0.8776   0.0000   0.0000   0.0000   0.7376
  -2.600   0.2265   0.03761   0.03267  -0.0984  0.9053  0.0784  -0.9069   0.0000   0.0000   0.0000   0.6875
  -2.500   0.2364   0.03659   0.03180  -0.0990  0.9040  0.0826  -0.7782   0.0000   0.0000   0.0000   0.6721
  -2.400   0.2654   0.04152   0.03670  -0.0999  0.9026  0.0998  -0.5622   0.0000   0.0000   0.0000   0.6291
  -2.300   0.2828   0.03670   0.03172  -0.1042  0.9018  0.1047  -0.5987   0.0000   0.0000   0.0000   0.6210
  -2.200   0.2983   0.03473   0.02974  -0.1064  0.9007  0.1078  -0.5777   0.0000   0.0000   0.0000   0.6090
  -2.100   0.3022   0.03403   0.02906  -0.1055  0.8982  0.1091  -0.5660   0.0000   0.0000   0.0000   0.6010
  -2.000   0.2936   0.03380   0.02884  -0.1017  0.8929  0.1094  -0.5641   0.0000   0.0000   0.0000   0.5984
  -1.900   0.2900   0.03343   0.02849  -0.0991  0.8869  0.1100  -0.5653   0.0000   0.0000   0.0000   0.5935
  -1.800   0.2922   0.03292   0.02799  -0.0977  0.8815  0.1112  -0.5701   0.0000   0.0000   0.0000   0.5861
  -1.700   0.2978   0.03237   0.02745  -0.0970  0.8765  0.1128  -0.5769   0.0000   0.0000   0.0000   0.5773
  -1.600   0.3058   0.03181   0.02690  -0.0968  0.8719  0.1147  -0.5852   0.0000   0.0000   0.0000   0.5680
  -1.500   0.3154   0.03126   0.02635  -0.0969  0.8676  0.1170  -0.5945   0.0000   0.0000   0.0000   0.5586
  -1.400   0.3263   0.03073   0.02581  -0.0972  0.8636  0.1198  -0.6046   0.0000   0.0000   0.0000   0.5491
  -1.300   0.3385   0.03021   0.02528  -0.0977  0.8598  0.1232  -0.6154   0.0000   0.0000   0.0000   0.5399
  -1.200   0.3518   0.02971   0.02477  -0.0985  0.8562  0.1273  -0.6269   0.0000   0.0000   0.0000   0.5310
  -1.100   0.3664   0.02929   0.02431  -0.0994  0.8529  0.1324  -0.6391   0.0000   0.0000   0.0000   0.5222
  -1.000   0.3828   0.02912   0.02409  -0.1005  0.8497  0.1391  -0.6523   0.0000   0.0000   0.0000   0.5133
  -0.900   0.4025   0.03082   0.02571  -0.1011  0.8464  0.1482  -0.6684   0.0000   0.0000   0.0000   0.5018
  -0.800   0.4190   0.02847   0.02323  -0.1035  0.8441  0.1554  -0.6800   0.0000   0.0000   0.0000   0.4975
  -0.700   0.4310   0.02692   0.02175  -0.1045  0.8415  0.1607  -0.6914   0.0000   0.0000   0.0000   0.4929
  -0.600   0.4442   0.02619   0.02110  -0.1053  0.8388  0.1659  -0.7041   0.0000   0.0000   0.0000   0.4873
  -0.500   0.4587   0.02578   0.02074  -0.1061  0.8362  0.1730  -0.7176   0.0000   0.0000   0.0000   0.4815
  -0.400   0.4748   0.02572   0.02071  -0.1070  0.8336  0.1825  -0.7321   0.0000   0.0000   0.0000   0.4755
  -0.300   0.4922   0.02658   0.02161  -0.1076  0.8307  0.1938  -0.7478   0.0000   0.0000   0.0000   0.4686
   2.100   0.8272   0.01533   0.00865  -0.1206  0.6776  0.1532  -1.1841   0.0000   0.0000   0.0000   0.3935
   2.700   0.8944   0.01432   0.00673  -0.1192  0.5950  0.1067  -1.3036   0.0000   0.0000   0.0000   0.3804
   2.800   0.9029   0.01437   0.00678  -0.1187  0.5868  0.1040  -1.3220   0.0000   0.0000   0.0000   0.3785
   2.900   0.9115   0.01445   0.00683  -0.1182  0.5749  0.1018  -1.3407   0.0000   0.0000   0.0000   0.3766
   3.000   0.9203   0.01438   0.00665  -0.1176  0.5600  0.0993  -1.3591   0.0000   0.0000   0.0000   0.3746
   3.100   0.9291   0.01429   0.00637  -0.1171  0.5428  0.0967  -1.3772   0.0000   0.0000   0.0000   0.3727
   3.200   0.9369   0.01436   0.00621  -0.1163  0.5219  0.0942  -1.3947   0.0000   0.0000   0.0000   0.3707
   3.300   0.9458   0.01447   0.00613  -0.1159  0.4990  0.0917  -1.4127   0.0000   0.0000   0.0000   0.3690
   3.400   0.9546   0.01443   0.00606  -0.1154  0.4928  0.0893  -1.4314   0.0000   0.0000   0.0000   0.3673
   3.500   0.9632   0.01445   0.00600  -0.1149  0.4843  0.0870  -1.4499   0.0000   0.0000   0.0000   0.3656
   3.600   0.9719   0.01450   0.00597  -0.1145  0.4745  0.0849  -1.4684   0.0000   0.0000   0.0000   0.3639
   3.700   0.9804   0.01461   0.00597  -0.1140  0.4643  0.0829  -1.4868   0.0000   0.0000   0.0000   0.3623
   3.800   0.9886   0.01477   0.00599  -0.1134  0.4534  0.0812  -1.5050   0.0000   0.0000   0.0000   0.3607
   3.900   0.9966   0.01496   0.00603  -0.1129  0.4416  0.0798  -1.5229   0.0000   0.0000   0.0000   0.3591
   4.000   1.0046   0.01521   0.00611  -0.1124  0.4267  0.0786  -1.5403   0.0000   0.0000   0.0000   0.3575
   4.100   1.0145   0.01556   0.00633  -0.1123  0.4087  0.0774  -1.5586   0.0000   0.0000   0.0000   0.3563
   4.200   1.0253   0.01582   0.00655  -0.1124  0.3996  0.0764  -1.5781   0.0000   0.0000   0.0000   0.3551
   4.300   1.0348   0.01587   0.00659  -0.1122  0.3984  0.0755  -1.5982   0.0000   0.0000   0.0000   0.3537
   4.400   1.0444   0.01592   0.00662  -0.1120  0.3971  0.0750  -1.6182   0.0000   0.0000   0.0000   0.3524
   4.500   1.0540   0.01599   0.00668  -0.1117  0.3955  0.0745  -1.6382   0.0000   0.0000   0.0000   0.3511
   4.600   1.0635   0.01607   0.00674  -0.1115  0.3938  0.0739  -1.6583   0.0000   0.0000   0.0000   0.3499
   4.700   1.0731   0.01615   0.00681  -0.1113  0.3920  0.0734  -1.6784   0.0000   0.0000   0.0000   0.3486
   4.800   1.0826   0.01625   0.00690  -0.1111  0.3900  0.0729  -1.6985   0.0000   0.0000   0.0000   0.3474
   4.900   1.0921   0.01635   0.00700  -0.1109  0.3879  0.0725  -1.7187   0.0000   0.0000   0.0000   0.3462
   5.000   1.1015   0.01646   0.00710  -0.1107  0.3858  0.0721  -1.7388   0.0000   0.0000   0.0000   0.3450
   5.100   1.1109   0.01657   0.00721  -0.1105  0.3835  0.0718  -1.7590   0.0000   0.0000   0.0000   0.3438
   5.200   1.1203   0.01669   0.00733  -0.1103  0.3812  0.0716  -1.7792   0.0000   0.0000   0.0000   0.3427
   5.300   1.1297   0.01681   0.00746  -0.1100  0.3789  0.0716  -1.7995   0.0000   0.0000   0.0000   0.3415
   5.400   1.1389   0.01694   0.00759  -0.1098  0.3764  0.0716  -1.8197   0.0000   0.0000   0.0000   0.3404
   5.500   1.1482   0.01706   0.00773  -0.1096  0.3739  0.0718  -1.8399   0.0000   0.0000   0.0000   0.3393
   5.600   1.1573   0.01719   0.00786  -0.1093  0.3713  0.0722  -1.8601   0.0000   0.0000   0.0000   0.3382
   5.700   1.1665   0.01733   0.00799  -0.1090  0.3686  0.0728  -1.8803   0.0000   0.0000   0.0000   0.3371
   5.800   1.1755   0.01747   0.00812  -0.1087  0.3658  0.0743  -1.9005   0.0000   0.0000   0.0000   0.3360
   5.900   1.1845   0.01761   0.00826  -0.1084  0.3629  0.0749  -1.9206   0.0000   0.0000   0.0000   0.3349
   6.300   1.2200   0.01713   0.00894  -0.1074  0.3496  1.0000  -2.0008   0.0000   0.0000   0.0000   0.3309
   6.400   1.2283   0.01732   0.00908  -0.1070  0.3456  1.0000  -2.0202   0.0000   0.0000   0.0000   0.3298
   6.500   1.2363   0.01752   0.00923  -0.1065  0.3406  1.0000  -2.0393   0.0000   0.0000   0.0000   0.3287
   6.600   1.2437   0.01776   0.00938  -0.1059  0.3324  1.0000  -2.0579   0.0000   0.0000   0.0000   0.3276
   6.700   1.2519   0.01813   0.00965  -0.1055  0.3180  1.0000  -2.0767   0.0000   0.0000   0.0000   0.3266
   6.800   1.2611   0.01885   0.01035  -0.1055  0.3001  1.0000  -2.1038   0.0000   0.0000   0.0000   0.3258
   6.900   1.2674   0.01833   0.00970  -0.1046  0.2983  1.0000  -2.1462   0.0000   0.0000   0.0000   0.3245
   7.000   1.2729   0.01799   0.00928  -0.1035  0.2955  1.0000  -2.1860   0.0000   0.0000   0.0000   0.3231
   7.100   1.2787   0.01783   0.00908  -0.1026  0.2912  1.0000  -2.2255   0.0000   0.0000   0.0000   0.3219
   7.200   1.2858   0.01783   0.00906  -0.1019  0.2864  1.0000  -2.2665   0.0000   0.0000   0.0000   0.3208
   7.300   1.2932   0.01789   0.00912  -0.1013  0.2815  1.0000  -2.3083   0.0000   0.0000   0.0000   0.3197
   7.400   1.3004   0.01799   0.00918  -0.1006  0.2753  1.0000  -2.3502   0.0000   0.0000   0.0000   0.3186
   7.500   1.3071   0.01812   0.00926  -0.1000  0.2678  1.0000  -2.3920   0.0000   0.0000   0.0000   0.3175
   7.600   1.3134   0.01828   0.00935  -0.0992  0.2588  1.0000  -2.4335   0.0000   0.0000   0.0000   0.3164
   7.700   1.3190   0.01847   0.00944  -0.0983  0.2487  1.0000  -2.4741   0.0000   0.0000   0.0000   0.3153
   7.800   1.3235   0.01870   0.00954  -0.0972  0.2379  1.0000  -2.5133   0.0000   0.0000   0.0000   0.3141
   7.900   1.3270   0.01897   0.00967  -0.0959  0.2266  1.0000  -2.5505   0.0000   0.0000   0.0000   0.3128
   8.000   1.3296   0.01924   0.00982  -0.0945  0.2144  1.0000  -2.5862   0.0000   0.0000   0.0000   0.3114
   8.100   1.3330   0.01950   0.01001  -0.0932  0.2019  1.0000  -2.6244   0.0000   0.0000   0.0000   0.3101
   8.200   1.3387   0.01970   0.01015  -0.0924  0.1952  1.0000  -2.6740   0.0000   0.0000   0.0000   0.3090
   8.300   1.3422   0.01996   0.01028  -0.0912  0.1858  1.0000  -2.7596   0.0000   0.0000   0.0000   0.3078
   8.400   1.3411   0.02032   0.01043  -0.0892  0.1744  1.0000  -2.8182   0.0000   0.0000   0.0000   0.3062
   8.500   1.3368   0.02074   0.01063  -0.0866  0.1636  1.0000  -2.8574   0.0000   0.0000   0.0000   0.3044
   8.600   1.3336   0.02117   0.01088  -0.0843  0.1514  1.0000  -2.9011   0.0000   0.0000   0.0000   0.3027
   8.700   1.3369   0.02150   0.01113  -0.0831  0.1402  1.0000  -2.9808   0.0000   0.0000   0.0000   0.3015
   8.800   1.3356   0.02204   0.01148  -0.0812  0.1215  1.0000  -3.0316   0.0000   0.0000   0.0000   0.3000
   8.900   1.3324   0.02276   0.01195  -0.0792  0.0982  1.0000  -3.0686   0.0000   0.0000   0.0000   0.2985
   9.100   1.3230   0.02446   0.01322  -0.0747  0.0455  1.0000  -3.1146   0.0000   0.0000   0.0000   0.2952
   9.200   1.3202   0.02515   0.01385  -0.0726  0.0377  1.0000  -3.1390   0.0000   0.0000   0.0000   0.2936
   9.300   1.3180   0.02584   0.01452  -0.0705  0.0311  1.0000  -3.1558   0.0000   0.0000   0.0000   0.2920
   9.400   1.3175   0.02648   0.01529  -0.0685  0.0270  1.0000  -3.1664   0.0000   0.0000   0.0000   0.2904
   9.500   1.3166   0.02713   0.01607  -0.0666  0.0254  1.0000  -3.1816   0.0000   0.0000   0.0000   0.2888
   9.600   1.3177   0.02764   0.01667  -0.0651  0.0250  1.0000  -3.2270   0.0000   0.0000   0.0000   0.2875
   9.700   1.3183   0.02818   0.01731  -0.0636  0.0246  1.0000  -3.2701   0.0000   0.0000   0.0000   0.2861
   9.800   1.3184   0.02876   0.01800  -0.0621  0.0244  1.0000  -3.3206   0.0000   0.0000   0.0000   0.2848
   9.900   1.3172   0.02937   0.01871  -0.0604  0.0242  1.0000  -3.3626   0.0000   0.0000   0.0000   0.2834
  10.000   1.3151   0.03002   0.01946  -0.0587  0.0241  1.0000  -3.3981   0.0000   0.0000   0.0000   0.2820
  10.100   1.3130   0.03071   0.02025  -0.0571  0.0240  1.0000  -3.4321   0.0000   0.0000   0.0000   0.2807
  10.200   1.3110   0.03144   0.02108  -0.0555  0.0240  1.0000  -3.4646   0.0000   0.0000   0.0000   0.2794
  10.300   1.3089   0.03221   0.02195  -0.0540  0.0239  1.0000  -3.4953   0.0000   0.0000   0.0000   0.2781
  10.400   1.3067   0.03303   0.02286  -0.0525  0.0240  1.0000  -3.5234   0.0000   0.0000   0.0000   0.2769
  10.500   1.3041   0.03389   0.02380  -0.0510  0.0240  1.0000  -3.5487   0.0000   0.0000   0.0000   0.2757
  10.600   1.3010   0.03479   0.02480  -0.0496  0.0240  1.0000  -3.5706   0.0000   0.0000   0.0000   0.2745
  10.700   1.2976   0.03575   0.02583  -0.0482  0.0241  1.0000  -3.5899   0.0000   0.0000   0.0000   0.2733
  10.800   1.2941   0.03674   0.02690  -0.0468  0.0242  1.0000  -3.6074   0.0000   0.0000   0.0000   0.2722
  10.900   1.2903   0.03779   0.02801  -0.0455  0.0243  1.0000  -3.6221   0.0000   0.0000   0.0000   0.2711
  11.000   1.2858   0.03888   0.02918  -0.0443  0.0244  1.0000  -3.6330   0.0000   0.0000   0.0000   0.2701
  11.100   1.2822   0.04003   0.03039  -0.0431  0.0245  1.0000  -3.6456   0.0000   0.0000   0.0000   0.2691
  11.200   1.2795   0.04125   0.03167  -0.0420  0.0246  1.0000  -3.6592   0.0000   0.0000   0.0000   0.2682
  11.300   1.2777   0.04257   0.03305  -0.0411  0.0248  1.0000  -3.6724   0.0000   0.0000   0.0000   0.2673
  11.400   1.2778   0.04407   0.03463  -0.0402  0.0251  1.0000  -3.6846   0.0000   0.0000   0.0000   0.2664
  11.500   1.2827   0.04629   0.03701  -0.0395  0.0256  1.0000  -3.6887   0.0000   0.0000   0.0000   0.2656
  11.600   1.2872   0.04684   0.03758  -0.0388  0.0261  1.0000  -3.7557   0.0000   0.0000   0.0000   0.2648
  11.700   1.2920   0.04735   0.03810  -0.0382  0.0268  1.0000  -3.8247   0.0000   0.0000   0.0000   0.2640
  11.800   1.2971   0.04785   0.03862  -0.0376  0.0276  1.0000  -3.8941   0.0000   0.0000   0.0000   0.2632
  11.900   1.3026   0.04837   0.03918  -0.0370  0.0286  1.0000  -3.9619   0.0000   0.0000   0.0000   0.2624
  12.000   1.3092   0.04897   0.03984  -0.0364  0.0300  1.0000  -4.0254   0.0000   0.0000   0.0000   0.2616
  12.100   1.3219   0.04995   0.04108  -0.0356  0.0333  1.0000  -4.0626   0.0000   0.0000   0.0000   0.2605
  12.200   1.3324   0.05236   0.04399  -0.0347  0.0382  1.0000  -4.0270   0.0000   0.0000   0.0000   0.2595
  12.300   1.3302   0.05443   0.04632  -0.0339  0.0402  1.0000  -3.9993   0.0000   0.0000   0.0000   0.2587
  12.400   1.3267   0.05652   0.04863  -0.0332  0.0420  1.0000  -3.9734   0.0000   0.0000   0.0000   0.2581
  12.500   1.3220   0.05863   0.05092  -0.0327  0.0435  1.0000  -3.9483   0.0000   0.0000   0.0000   0.2576
  12.600   1.3163   0.06074   0.05319  -0.0322  0.0447  1.0000  -3.9236   0.0000   0.0000   0.0000   0.2571
  12.700   1.3098   0.06286   0.05546  -0.0318  0.0456  1.0000  -3.8989   0.0000   0.0000   0.0000   0.2568
  12.800   1.3024   0.06496   0.05768  -0.0316  0.0463  1.0000  -3.8747   0.0000   0.0000   0.0000   0.2566
  12.900   1.2941   0.06695   0.05978  -0.0315  0.0466  1.0000  -3.8533   0.0000   0.0000   0.0000   0.2565
  13.000   1.2858   0.06902   0.06195  -0.0315  0.0469  1.0000  -3.8306   0.0000   0.0000   0.0000   0.2565
  13.100   1.2777   0.07119   0.06423  -0.0317  0.0473  1.0000  -3.8062   0.0000   0.0000   0.0000   0.2566
  13.200   1.2695   0.07344   0.06658  -0.0320  0.0476  1.0000  -3.7809   0.0000   0.0000   0.0000   0.2569
  13.300   1.2611   0.07573   0.06896  -0.0324  0.0479  1.0000  -3.7556   0.0000   0.0000   0.0000   0.2572
  13.400   1.2526   0.07799   0.07130  -0.0329  0.0480  1.0000  -3.7321   0.0000   0.0000   0.0000   0.2576
  13.500   1.2439   0.08018   0.07357  -0.0336  0.0479  1.0000  -3.7116   0.0000   0.0000   0.0000   0.2582
  13.600   1.2355   0.08252   0.07599  -0.0344  0.0479  1.0000  -3.6881   0.0000   0.0000   0.0000   0.2588
  13.700   1.2272   0.08497   0.07852  -0.0352  0.0480  1.0000  -3.6629   0.0000   0.0000   0.0000   0.2595
  13.800   1.2191   0.08746   0.08109  -0.0362  0.0480  1.0000  -3.6371   0.0000   0.0000   0.0000   0.2604
  13.900   1.2109   0.08998   0.08369  -0.0373  0.0480  1.0000  -3.6117   0.0000   0.0000   0.0000   0.2613
  14.000   1.2026   0.09244   0.08621  -0.0385  0.0478  1.0000  -3.5899   0.0000   0.0000   0.0000   0.2624
  14.100   1.1944   0.09500   0.08883  -0.0399  0.0476  1.0000  -3.5665   0.0000   0.0000   0.0000   0.2635
  14.200   1.1865   0.09767   0.09157  -0.0412  0.0475  1.0000  -3.5399   0.0000   0.0000   0.0000   0.2648
  14.300   1.1787   0.10041   0.09438  -0.0427  0.0473  1.0000  -3.5118   0.0000   0.0000   0.0000   0.2661
  14.400   1.1710   0.10320   0.09722  -0.0442  0.0471  1.0000  -3.4828   0.0000   0.0000   0.0000   0.2675
  14.500   1.1631   0.10604   0.10012  -0.0460  0.0468  1.0000  -3.4545   0.0000   0.0000   0.0000   0.2691
  14.600   1.1549   0.10897   0.10310  -0.0478  0.0463  1.0000  -3.4260   0.0000   0.0000   0.0000   0.2709
  14.700   1.1472   0.11198   0.10616  -0.0497  0.0459  1.0000  -3.3932   0.0000   0.0000   0.0000   0.2726
  14.800   1.1397   0.11503   0.10927  -0.0515  0.0456  1.0000  -3.3579   0.0000   0.0000   0.0000   0.2744
  14.900   1.1322   0.11814   0.11243  -0.0534  0.0453  1.0000  -3.3206   0.0000   0.0000   0.0000   0.2762
  15.000   1.1246   0.12133   0.11567  -0.0554  0.0449  1.0000  -3.2813   0.0000   0.0000   0.0000   0.2782
  15.100   1.1164   0.12469   0.11907  -0.0576  0.0441  1.0000  -3.2415   0.0000   0.0000   0.0000   0.2805
  15.200   1.1087   0.12807   0.12249  -0.0598  0.0434  1.0000  -3.1979   0.0000   0.0000   0.0000   0.2828
  15.300   1.1015   0.13144   0.12590  -0.0619  0.0431  1.0000  -3.1504   0.0000   0.0000   0.0000   0.2849
  15.400   1.0947   0.13486   0.12935  -0.0639  0.0428  1.0000  -3.0991   0.0000   0.0000   0.0000   0.2870
  15.500   1.0880   0.13832   0.13285  -0.0659  0.0426  1.0000  -3.0442   0.0000   0.0000   0.0000   0.2892
  15.600   1.0813   0.14180   0.13636  -0.0679  0.0423  1.0000  -2.9854   0.0000   0.0000   0.0000   0.2914
  15.700   1.0746   0.14531   0.13991  -0.0700  0.0420  1.0000  -2.9221   0.0000   0.0000   0.0000   0.2938
  15.800   1.0677   0.14909   0.14371  -0.0723  0.0416  1.0000  -2.8518   0.0000   0.0000   0.0000   0.2964
  15.900   1.0612   0.15292   0.14756  -0.0745  0.0413  1.0000  -2.7768   0.0000   0.0000   0.0000   0.2989
  16.000   1.0551   0.15693   0.15159  -0.0766  0.0413  1.0000  -2.6933   0.0000   0.0000   0.0000   0.3013
  16.100   1.0495   0.16088   0.15556  -0.0786  0.0415  1.0000  -2.6094   0.0000   0.0000   0.0000   0.3037
  16.200   1.0444   0.16469   0.15938  -0.0805  0.0420  1.0000  -2.5295   0.0000   0.0000   0.0000   0.3059
  16.300   1.0398   0.16838   0.16307  -0.0823  0.0426  1.0000  -2.4536   0.0000   0.0000   0.0000   0.3079
  16.400   1.0357   0.17196   0.16666  -0.0839  0.0435  1.0000  -2.3815   0.0000   0.0000   0.0000   0.3099
  16.500   1.0320   0.17546   0.17017  -0.0855  0.0446  1.0000  -2.3132   0.0000   0.0000   0.0000   0.3117
  16.600   1.0286   0.17893   0.17364  -0.0870  0.0459  1.0000  -2.2476   0.0000   0.0000   0.0000   0.3134
  16.700   1.0248   0.18257   0.17729  -0.0885  0.0475  1.0000  -2.1784   0.0000   0.0000   0.0000   0.3151
  17.100   1.0109   0.20381   0.19871  -0.0968  0.0831  1.0000  -1.6422   0.0000   0.0000   0.0000   0.3253
  17.200   1.0110   0.20607   0.20097  -0.0977  0.0831  1.0000  -1.6282   0.0000   0.0000   0.0000   0.3260
  17.300   1.0114   0.20828   0.20318  -0.0986  0.0829  1.0000  -1.6172   0.0000   0.0000   0.0000   0.3267
  17.400   1.0122   0.21044   0.20533  -0.0994  0.0827  1.0000  -1.6093   0.0000   0.0000   0.0000   0.3273
  17.500   1.0133   0.21255   0.20745  -0.1002  0.0824  1.0000  -1.6046   0.0000   0.0000   0.0000   0.3278
  17.600   1.0148   0.21463   0.20953  -0.1009  0.0820  1.0000  -1.6032   0.0000   0.0000   0.0000   0.3282
  17.700   1.0167   0.21668   0.21158  -0.1015  0.0815  1.0000  -1.6056   0.0000   0.0000   0.0000   0.3285
  17.800   1.0191   0.21873   0.21363  -0.1021  0.0810  1.0000  -1.6120   0.0000   0.0000   0.0000   0.3286
  17.900   1.0221   0.22079   0.21569  -0.1025  0.0804  1.0000  -1.6228   0.0000   0.0000   0.0000   0.3286
  18.000   1.0257   0.22291   0.21780  -0.1029  0.0798  1.0000  -1.6385   0.0000   0.0000   0.0000   0.3284
  18.100   1.0301   0.22514   0.22003  -0.1032  0.0792  1.0000  -1.6599   0.0000   0.0000   0.0000   0.3280
  18.200   1.0349   0.22747   0.22237  -0.1034  0.0786  1.0000  -1.6851   0.0000   0.0000   0.0000   0.3275
  18.300   1.0407   0.23014   0.22504  -0.1034  0.0779  1.0000  -1.7170   0.0000   0.0000   0.0000   0.3268
  18.400   1.0485   0.23378   0.22869  -0.1033  0.0771  1.0000  -1.7605   0.0000   0.0000   0.0000   0.3257
  18.500   1.0436   0.24390   0.23878  -0.1058  0.0752  1.0000  -1.6840   0.0000   0.0000   0.0000   0.3285
  18.600   1.0435   0.24575   0.24064  -0.1067  0.0751  1.0000  -1.6702   0.0000   0.0000   0.0000   0.3294
  18.700   1.0433   0.24741   0.24229  -0.1077  0.0750  1.0000  -1.6562   0.0000   0.0000   0.0000   0.3302
  18.800   1.0427   0.24872   0.24360  -0.1087  0.0747  1.0000  -1.6412   0.0000   0.0000   0.0000   0.3311
  18.900   1.0418   0.24952   0.24440  -0.1098  0.0743  1.0000  -1.6240   0.0000   0.0000   0.0000   0.3321
  19.000   1.0364   0.24917   0.24405  -0.1114  0.0735  1.0000  -1.5805   0.0000   0.0000   0.0000   0.3340
  19.100   1.0298   0.24906   0.24393  -0.1132  0.0719  1.0000  -1.5255   0.0000   0.0000   0.0000   0.3365
  19.200   1.0276   0.25054   0.24541  -0.1146  0.0704  1.0000  -1.4943   0.0000   0.0000   0.0000   0.3379
  19.300   1.0274   0.25254   0.24742  -0.1157  0.0690  1.0000  -1.4774   0.0000   0.0000   0.0000   0.3389
  19.400   1.0279   0.25469   0.24958  -0.1166  0.0677  1.0000  -1.4667   0.0000   0.0000   0.0000   0.3397
  19.500   1.0288   0.25690   0.25178  -0.1176  0.0666  1.0000  -1.4596   0.0000   0.0000   0.0000   0.3403
  19.600   1.0299   0.25912   0.25401  -0.1184  0.0654  1.0000  -1.4552   0.0000   0.0000   0.0000   0.3408
  19.700   1.0312   0.26135   0.25624  -0.1192  0.0643  1.0000  -1.4529   0.0000   0.0000   0.0000   0.3413
  19.800   1.0327   0.26358   0.25847  -0.1200  0.0632  1.0000  -1.4526   0.0000   0.0000   0.0000   0.3418
  19.900   1.0344   0.26581   0.26071  -0.1208  0.0622  1.0000  -1.4541   0.0000   0.0000   0.0000   0.3421
  20.000   1.0361   0.26804   0.26294  -0.1216  0.0612  1.0000  -1.4577   0.0000   0.0000   0.0000   0.3425
  20.100   1.0381   0.27027   0.26518  -0.1223  0.0602  1.0000  -1.4633   0.0000   0.0000   0.0000   0.3428
  20.200   1.0402   0.27251   0.26741  -0.1230  0.0593  1.0000  -1.4710   0.0000   0.0000   0.0000   0.3430
  20.300   1.0450   0.27411   0.26901  -0.1231  0.0567  1.0000  -1.5242   0.0000   0.0000   0.0000   0.3422
  20.400   1.0585   0.28889   0.28377  -0.1230  0.0504  1.0000  -1.6254   0.0000   0.0000   0.0000   0.3402
  20.500   1.0591   0.29112   0.28600  -0.1240  0.0503  1.0000  -1.6148   0.0000   0.0000   0.0000   0.3409
  20.600   1.0597   0.29328   0.28817  -0.1250  0.0503  1.0000  -1.6046   0.0000   0.0000   0.0000   0.3417
  20.700   1.0602   0.29535   0.29024  -0.1260  0.0502  1.0000  -1.5948   0.0000   0.0000   0.0000   0.3424
  20.800   1.0608   0.29727   0.29217  -0.1271  0.0500  1.0000  -1.5857   0.0000   0.0000   0.0000   0.3431
  20.900   1.0613   0.29896   0.29386  -0.1281  0.0498  1.0000  -1.5772   0.0000   0.0000   0.0000   0.3438
  21.000   1.0617   0.30024   0.29514  -0.1291  0.0495  1.0000  -1.5687   0.0000   0.0000   0.0000   0.3445
  21.100   1.0612   0.30102   0.29593  -0.1301  0.0490  1.0000  -1.5552   0.0000   0.0000   0.0000   0.3454
  21.200   1.0594   0.30168   0.29659  -0.1314  0.0482  1.0000  -1.5292   0.0000   0.0000   0.0000   0.3467
  21.300   1.0582   0.30254   0.29746  -0.1327  0.0470  1.0000  -1.5023   0.0000   0.0000   0.0000   0.3480
  21.400   1.0581   0.30425   0.29917  -0.1339  0.0452  1.0000  -1.4812   0.0000   0.0000   0.0000   0.3490
  21.500   1.0589   0.30665   0.30158  -0.1351  0.0432  1.0000  -1.4702   0.0000   0.0000   0.0000   0.3499
  21.600   1.0600   0.30933   0.30427  -0.1362  0.0412  1.0000  -1.4669   0.0000   0.0000   0.0000   0.3506
  21.700   1.0614   0.31213   0.30707  -0.1373  0.0392  1.0000  -1.4691   0.0000   0.0000   0.0000   0.3513
  21.800   1.0630   0.31498   0.30994  -0.1384  0.0373  1.0000  -1.4764   0.0000   0.0000   0.0000   0.3519
  21.900   1.0648   0.31788   0.31285  -0.1395  0.0355  1.0000  -1.4894   0.0000   0.0000   0.0000   0.3525
  22.000   1.0668   0.32083   0.31581  -0.1407  0.0337  1.0000  -1.5101   0.0000   0.0000   0.0000   0.3530
  22.100   1.0693   0.32385   0.31884  -0.1418  0.0320  1.0000  -1.5430   0.0000   0.0000   0.0000   0.3535
  22.200   1.0729   0.32710   0.32210  -0.1429  0.0302  1.0000  -1.6014   0.0000   0.0000   0.0000   0.3537
  22.500   0.9895   0.33782   0.33428  -0.1954  0.0146  1.0000  -1.0862   0.0000   0.0000   0.0000   0.4165
  22.600   0.9904   0.33797   0.33442  -0.1953  0.0140  1.0000  -1.1443   0.0000   0.0000   0.0000   0.4160
  22.700   0.9867   0.34084   0.33726  -0.1957  0.0130  1.0000  -1.0635   0.0000   0.0000   0.0000   0.4170
  22.800   0.9865   0.34209   0.33852  -0.1963  0.0130  1.0000  -1.0505   0.0000   0.0000   0.0000   0.4175
  22.900   0.9863   0.34333   0.33977  -0.1970  0.0130  1.0000  -1.0381   0.0000   0.0000   0.0000   0.4180
  23.000   0.9861   0.34458   0.34103  -0.1976  0.0129  1.0000  -1.0261   0.0000   0.0000   0.0000   0.4185
  23.100   0.9860   0.34582   0.34228  -0.1983  0.0129  1.0000  -1.0145   0.0000   0.0000   0.0000   0.4190
  23.200   0.9859   0.34706   0.34353  -0.1989  0.0129  1.0000  -1.0030   0.0000   0.0000   0.0000   0.4194
  23.300   0.9857   0.34829   0.34478  -0.1995  0.0129  1.0000  -0.9920   0.0000   0.0000   0.0000   0.4199
  23.400   0.9856   0.34953   0.34602  -0.2001  0.0129  1.0000  -0.9813   0.0000   0.0000   0.0000   0.4203
  23.500   0.9855   0.35076   0.34726  -0.2007  0.0128  1.0000  -0.9710   0.0000   0.0000   0.0000   0.4207
  23.600   0.9855   0.35200   0.34851  -0.2013  0.0128  1.0000  -0.9610   0.0000   0.0000   0.0000   0.4211
  23.700   0.9854   0.35323   0.34975  -0.2019  0.0128  1.0000  -0.9513   0.0000   0.0000   0.0000   0.4215
  23.800   0.9853   0.35446   0.35099  -0.2025  0.0128  1.0000  -0.9412   0.0000   0.0000   0.0000   0.4219
  23.900   0.9852   0.35569   0.35223  -0.2030  0.0127  1.0000  -0.9316   0.0000   0.0000   0.0000   0.4223
  24.000   0.9851   0.35692   0.35347  -0.2036  0.0127  1.0000  -0.9222   0.0000   0.0000   0.0000   0.4226


