xflr5 v6.61

 Calculated polar for: GOE 417 AIRFOIL

 1 1 Reynolds number fixed          Mach number fixed         

 xtrf =   1.000 (top)        1.000 (bottom)
 Mach =   0.000     Re =     0.688 e 6     Ncrit =   9.000

  alpha     CL        CD       CDp       Cm    Top Xtr Bot Xtr   Cpmin    Chinge    XCp    
 ------- -------- --------- --------- -------- ------- ------- -------- --------- ---------
 -10.000  -0.1739   0.11483   0.11255  -0.0414  0.9894  0.0116  -0.9836   0.0000   0.0000   0.0000   0.0027
  -9.900  -0.1663   0.11322   0.11095  -0.0431  0.9884  0.0117  -0.9831   0.0000   0.0000   0.0000  -0.0187
  -9.800  -0.1586   0.11163   0.10936  -0.0448  0.9872  0.0117  -0.9827   0.0000   0.0000   0.0000  -0.0424
  -9.700  -0.1509   0.11006   0.10778  -0.0465  0.9861  0.0117  -0.9824   0.0000   0.0000   0.0000  -0.0687
  -9.600  -0.1430   0.10849   0.10620  -0.0482  0.9848  0.0118  -0.9822   0.0000   0.0000   0.0000  -0.0986
  -9.500  -0.1349   0.10691   0.10463  -0.0500  0.9834  0.0118  -0.9822   0.0000   0.0000   0.0000  -0.1330
  -9.400  -0.1266   0.10533   0.10304  -0.0519  0.9819  0.0118  -0.9822   0.0000   0.0000   0.0000  -0.1731
  -9.300  -0.1180   0.10372   0.10143  -0.0539  0.9802  0.0119  -0.9823   0.0000   0.0000   0.0000  -0.2205
  -9.200  -0.1093   0.10210   0.09981  -0.0559  0.9783  0.0119  -0.9825   0.0000   0.0000   0.0000  -0.2767
  -9.100  -0.1004   0.10049   0.09819  -0.0579  0.9763  0.0120  -0.9830   0.0000   0.0000   0.0000  -0.3431
  -9.000  -0.0916   0.09890   0.09660  -0.0599  0.9741  0.0120  -0.9838   0.0000   0.0000   0.0000  -0.4223
  -8.900  -0.0829   0.09732   0.09502  -0.0619  0.9717  0.0120  -0.9849   0.0000   0.0000   0.0000  -0.5177
  -8.800  -0.0743   0.09578   0.09347  -0.0639  0.9690  0.0121  -0.9863   0.0000   0.0000   0.0000  -0.6332
  -8.700  -0.0659   0.09427   0.09196  -0.0658  0.9661  0.0121  -0.9881   0.0000   0.0000   0.0000  -0.7744
  -8.600  -0.0579   0.09281   0.09050  -0.0676  0.9628  0.0122  -0.9904   0.0000   0.0000   0.0000  -0.9477
  -8.500  -0.0504   0.09142   0.08911  -0.0693  0.9591  0.0122  -0.9932   0.0000   0.0000   0.0000  -1.1593
  -8.400  -0.0437   0.09011   0.08780  -0.0708  0.9547  0.0122  -0.9967   0.0000   0.0000   0.0000  -1.4084
  -8.300  -0.0408   0.08914   0.08683  -0.0711  0.9495  0.0123  -1.0015   0.0000   0.0000   0.0000  -1.5363
  -8.200  -0.0460   0.08884   0.08654  -0.0692  0.9461  0.0123  -1.0089   0.0000   0.0000   0.0000  -1.2895
  -8.100  -0.0480   0.08826   0.08597  -0.0681  0.9422  0.0123  -1.0156   0.0000   0.0000   0.0000  -1.2044
  -8.000  -0.0472   0.08745   0.08516  -0.0679  0.9380  0.0123  -1.0216   0.0000   0.0000   0.0000  -1.2250
  -7.900  -0.0438   0.08643   0.08414  -0.0685  0.9336  0.0124  -1.0273   0.0000   0.0000   0.0000  -1.3498
  -7.800  -0.0386   0.08525   0.08296  -0.0696  0.9292  0.0124  -1.0330   0.0000   0.0000   0.0000  -1.5930
  -7.700  -0.0317   0.08392   0.08162  -0.0712  0.9249  0.0124  -1.0389   0.0000   0.0000   0.0000  -2.0449
  -7.600  -0.0233   0.08248   0.08017  -0.0734  0.9209  0.0125  -1.0452   0.0000   0.0000   0.0000  -2.9666
  -7.500  -0.0137   0.08094   0.07863  -0.0759  0.9175  0.0125  -1.0523   0.0000   0.0000   0.0000  -5.3986
  -7.400  -0.0036   0.07937   0.07704  -0.0787  0.9148  0.0125  -1.0603   0.0000   0.0000   0.0000  -22.2320
  -7.300   0.0078   0.07770   0.07536  -0.0818  0.9126  0.0126  -1.0674   0.0000   0.0000   0.0000  11.0123
  -7.200   0.0214   0.07584   0.07348  -0.0856  0.9112  0.0126  -1.0754   0.0000   0.0000   0.0000   4.3320
  -7.100   0.0352   0.07396   0.07158  -0.0897  0.9091  0.0127  -1.0849   0.0000   0.0000   0.0000   2.8463
  -7.000   0.0446   0.07243   0.07002  -0.0925  0.9039  0.0127  -1.0946   0.0000   0.0000   0.0000   2.3613
  -6.900   0.0486   0.07137   0.06895  -0.0936  0.8982  0.0128  -1.1046   0.0000   0.0000   0.0000   2.2084
  -6.800   0.0510   0.07046   0.06803  -0.0940  0.8941  0.0128  -1.1144   0.0000   0.0000   0.0000   2.1263
  -6.700   0.0534   0.06954   0.06710  -0.0944  0.8895  0.0128  -1.1244   0.0000   0.0000   0.0000   2.0475
  -6.600   0.0561   0.06860   0.06615  -0.0949  0.8839  0.0128  -1.1351   0.0000   0.0000   0.0000   1.9702
  -6.500   0.0590   0.06765   0.06517  -0.0954  0.8766  0.0129  -1.1464   0.0000   0.0000   0.0000   1.8928
  -6.400   0.0620   0.06669   0.06419  -0.0958  0.8667  0.0129  -1.1581   0.0000   0.0000   0.0000   1.8204
  -6.300   0.0651   0.06574   0.06318  -0.0962  0.8541  0.0129  -1.1704   0.0000   0.0000   0.0000   1.7524
  -6.200   0.0682   0.06479   0.06217  -0.0966  0.8394  0.0129  -1.1836   0.0000   0.0000   0.0000   1.6889
  -6.100   0.0711   0.06388   0.06118  -0.0969  0.8219  0.0130  -1.1975   0.0000   0.0000   0.0000   1.6345
  -6.000   0.0744   0.06292   0.06017  -0.0972  0.8032  0.0130  -1.2126   0.0000   0.0000   0.0000   1.5774
  -5.700   0.0699   0.05515   0.05233  -0.0990  0.7845  0.0139  -1.5753   0.0000   0.0000   0.0000   1.6876
  -5.600   0.0736   0.05430   0.05148  -0.0985  0.7816  0.0143  -1.4770   0.0000   0.0000   0.0000   1.6080
  -5.500   0.0786   0.05369   0.05089  -0.0979  0.7793  0.0147  -1.3605   0.0000   0.0000   0.0000   1.5139
  -5.400   0.0840   0.05314   0.05034  -0.0976  0.7772  0.0152  -1.2620   0.0000   0.0000   0.0000   1.4284
  -5.300   0.0897   0.05259   0.04980  -0.0976  0.7741  0.0158  -1.1800   0.0000   0.0000   0.0000   1.3533
  -5.000   0.1082   0.05092   0.04801  -0.0984  0.7449  0.0193  -1.0120   0.0000   0.0000   0.0000   1.1713
  -4.900   0.1169   0.05079   0.04775  -0.0989  0.7218  0.0218  -0.9710   0.0000   0.0000   0.0000   1.1063
  -4.800   0.1327   0.05168   0.04852  -0.1000  0.6991  0.0240  -0.9173   0.0000   0.0000   0.0000   1.0128
  -4.700   0.1421   0.05113   0.04791  -0.1007  0.6886  0.0244  -0.8967   0.0000   0.0000   0.0000   0.9670
  -4.600   0.1506   0.05028   0.04702  -0.1013  0.6808  0.0246  -0.8822   0.0000   0.0000   0.0000   0.9307
  -4.500   0.1585   0.04937   0.04603  -0.1018  0.6685  0.0247  -0.8712   0.0000   0.0000   0.0000   0.8997
  -4.400   0.1664   0.04841   0.04499  -0.1023  0.6563  0.0248  -0.8623   0.0000   0.0000   0.0000   0.8716
  -4.300   0.1743   0.04738   0.04387  -0.1028  0.6436  0.0249  -0.8564   0.0000   0.0000   0.0000   0.8462
  -4.200   0.1820   0.04611   0.04250  -0.1033  0.6299  0.0248  -0.8588   0.0000   0.0000   0.0000   0.8240
  -3.000   0.3101   0.03066   0.02585  -0.1111  0.4747  0.0255  -0.8949   0.0000   0.0000   0.0000   0.6115
  -2.900   0.3196   0.03013   0.02522  -0.1113  0.4606  0.0255  -0.8574   0.0000   0.0000   0.0000   0.6013
  -2.800   0.3291   0.02962   0.02460  -0.1115  0.4470  0.0255  -0.8486   0.0000   0.0000   0.0000   0.5917
  -2.700   0.3386   0.02910   0.02398  -0.1117  0.4337  0.0255  -0.8393   0.0000   0.0000   0.0000   0.5826
  -2.600   0.3483   0.02856   0.02335  -0.1119  0.4209  0.0255  -0.8297   0.0000   0.0000   0.0000   0.5739
  -2.500   0.3584   0.02800   0.02272  -0.1122  0.4095  0.0255  -0.8197   0.0000   0.0000   0.0000   0.5655
  -2.400   0.3687   0.02743   0.02209  -0.1125  0.4002  0.0255  -0.8094   0.0000   0.0000   0.0000   0.5574
  -2.300   0.3790   0.02690   0.02151  -0.1128  0.3969  0.0255  -0.7990   0.0000   0.0000   0.0000   0.5496
  -2.200   0.3894   0.02639   0.02094  -0.1131  0.3939  0.0255  -0.7879   0.0000   0.0000   0.0000   0.5423
  -2.100   0.3997   0.02586   0.02036  -0.1133  0.3911  0.0255  -0.7764   0.0000   0.0000   0.0000   0.5353
  -2.000   0.4099   0.02532   0.01977  -0.1136  0.3885  0.0255  -0.7645   0.0000   0.0000   0.0000   0.5287
  -1.900   0.4202   0.02479   0.01920  -0.1138  0.3862  0.0255  -0.7523   0.0000   0.0000   0.0000   0.5224
  -1.800   0.4304   0.02430   0.01865  -0.1140  0.3827  0.0255  -0.7400   0.0000   0.0000   0.0000   0.5163
  -1.700   0.4403   0.02386   0.01812  -0.1142  0.3744  0.0255  -0.7276   0.0000   0.0000   0.0000   0.5106
  -1.600   0.4499   0.02346   0.01763  -0.1143  0.3642  0.0255  -0.7152   0.0000   0.0000   0.0000   0.5052
  -1.500   0.4594   0.02309   0.01716  -0.1144  0.3528  0.0255  -0.7028   0.0000   0.0000   0.0000   0.5000
  -1.400   0.4691   0.02273   0.01669  -0.1144  0.3408  0.0255  -0.6949   0.0000   0.0000   0.0000   0.4950
  -1.300   0.4789   0.02235   0.01622  -0.1146  0.3288  0.0255  -0.7044   0.0000   0.0000   0.0000   0.4901
  -1.200   0.4890   0.02195   0.01575  -0.1147  0.3159  0.0255  -0.7140   0.0000   0.0000   0.0000   0.4853
  -1.100   0.4992   0.02155   0.01528  -0.1148  0.3056  0.0255  -0.7238   0.0000   0.0000   0.0000   0.4807
  -1.000   0.5096   0.02114   0.01483  -0.1150  0.3000  0.0255  -0.7337   0.0000   0.0000   0.0000   0.4762
  -0.900   0.5200   0.02074   0.01438  -0.1152  0.2990  0.0255  -0.7437   0.0000   0.0000   0.0000   0.4719
  -0.800   0.5305   0.02034   0.01394  -0.1153  0.2984  0.0255  -0.7538   0.0000   0.0000   0.0000   0.4678
  -0.700   0.5410   0.01996   0.01351  -0.1155  0.2980  0.0255  -0.7639   0.0000   0.0000   0.0000   0.4637
   0.900   0.7089   0.01523   0.00818  -0.1172  0.2946  0.0254  -0.9735   0.0000   0.0000   0.0000   0.4140
   1.000   0.7194   0.01501   0.00794  -0.1172  0.2945  0.0254  -0.9930   0.0000   0.0000   0.0000   0.4116
   1.100   0.7298   0.01481   0.00770  -0.1173  0.2944  0.0254  -1.0127   0.0000   0.0000   0.0000   0.4093
   1.200   0.7403   0.01461   0.00747  -0.1173  0.2943  0.0254  -1.0325   0.0000   0.0000   0.0000   0.4070
   1.300   0.7507   0.01441   0.00725  -0.1174  0.2942  0.0254  -1.0523   0.0000   0.0000   0.0000   0.4047
   1.400   0.7612   0.01423   0.00704  -0.1174  0.2942  0.0254  -1.0722   0.0000   0.0000   0.0000   0.4025
   1.500   0.7716   0.01405   0.00684  -0.1174  0.2941  0.0254  -1.0923   0.0000   0.0000   0.0000   0.4004
   1.600   0.7820   0.01388   0.00665  -0.1175  0.2940  0.0254  -1.1124   0.0000   0.0000   0.0000   0.3983
   1.700   0.7924   0.01372   0.00647  -0.1175  0.2939  0.0254  -1.1326   0.0000   0.0000   0.0000   0.3963
   1.800   0.8033   0.01355   0.00636  -0.1176  0.2980  0.0255  -1.1530   0.0000   0.0000   0.0000   0.3943
   1.900   0.8138   0.01339   0.00619  -0.1176  0.2988  0.0255  -1.1733   0.0000   0.0000   0.0000   0.3923
   2.000   0.8243   0.01324   0.00603  -0.1176  0.2991  0.0255  -1.1937   0.0000   0.0000   0.0000   0.3904
   2.100   0.8346   0.01311   0.00588  -0.1176  0.2992  0.0255  -1.2142   0.0000   0.0000   0.0000   0.3886
   2.200   0.8450   0.01298   0.00573  -0.1176  0.2992  0.0255  -1.2347   0.0000   0.0000   0.0000   0.3867
   2.300   0.8554   0.01285   0.00559  -0.1176  0.2993  0.0255  -1.2552   0.0000   0.0000   0.0000   0.3849
   2.400   0.8657   0.01273   0.00545  -0.1176  0.2993  0.0255  -1.2758   0.0000   0.0000   0.0000   0.3832
   2.500   0.8760   0.01262   0.00533  -0.1176  0.2992  0.0255  -1.2965   0.0000   0.0000   0.0000   0.3815
   2.600   0.8863   0.01251   0.00520  -0.1176  0.2991  0.0255  -1.3173   0.0000   0.0000   0.0000   0.3798
   2.700   0.8966   0.01241   0.00509  -0.1176  0.2990  0.0256  -1.3381   0.0000   0.0000   0.0000   0.3781
   5.300   1.1585   0.01079   0.00354  -0.1159  0.2903  0.0669  -1.8985   0.0000   0.0000   0.0000   0.3440
   5.400   1.1679   0.01085   0.00355  -0.1157  0.2846  0.0691  -1.9208   0.0000   0.0000   0.0000   0.3429
   5.500   1.1761   0.01100   0.00360  -0.1153  0.2728  0.0708  -1.9420   0.0000   0.0000   0.0000   0.3418
   5.600   1.1812   0.01136   0.00374  -0.1144  0.2449  0.0720  -1.9593   0.0000   0.0000   0.0000   0.3404
   5.700   1.1870   0.01167   0.00385  -0.1136  0.2180  0.0731  -1.9770   0.0000   0.0000   0.0000   0.3391
   5.800   1.1949   0.01183   0.00392  -0.1131  0.1975  0.0742  -1.9973   0.0000   0.0000   0.0000   0.3380
   5.900   1.2023   0.01203   0.00402  -0.1125  0.1884  0.0735  -2.0173   0.0000   0.0000   0.0000   0.3368
   6.000   1.2087   0.01231   0.00415  -0.1118  0.1780  0.0720  -2.0361   0.0000   0.0000   0.0000   0.3356
   6.100   1.2146   0.01264   0.00430  -0.1110  0.1668  0.0699  -2.0542   0.0000   0.0000   0.0000   0.3344
   6.200   1.2218   0.01287   0.00442  -0.1105  0.1540  0.0671  -2.0737   0.0000   0.0000   0.0000   0.3332
   6.300   1.2300   0.01300   0.00451  -0.1100  0.1482  0.0645  -2.0951   0.0000   0.0000   0.0000   0.3321
   6.400   1.2381   0.01315   0.00460  -0.1096  0.1442  0.0624  -2.1166   0.0000   0.0000   0.0000   0.3311
   6.500   1.2458   0.01332   0.00471  -0.1091  0.1390  0.0606  -2.1379   0.0000   0.0000   0.0000   0.3300
   6.600   1.2530   0.01352   0.00484  -0.1085  0.1328  0.0590  -2.1588   0.0000   0.0000   0.0000   0.3289
   6.700   1.2603   0.01373   0.00498  -0.1079  0.1257  0.0576  -2.1799   0.0000   0.0000   0.0000   0.3278
   6.800   1.2680   0.01392   0.00511  -0.1075  0.1179  0.0563  -2.2013   0.0000   0.0000   0.0000   0.3267
   6.900   1.2761   0.01408   0.00524  -0.1070  0.1092  0.0551  -2.2231   0.0000   0.0000   0.0000   0.3257
   7.000   1.2846   0.01420   0.00534  -0.1066  0.1011  0.0541  -2.2450   0.0000   0.0000   0.0000   0.3247
   7.100   1.2929   0.01431   0.00545  -0.1062  0.0987  0.0536  -2.2688   0.0000   0.0000   0.0000   0.3237
   7.200   1.3010   0.01444   0.00556  -0.1058  0.0956  0.0532  -2.2927   0.0000   0.0000   0.0000   0.3227
   7.400   1.3090   0.01527   0.00606  -0.1036  0.0680  0.0521  -2.3377   0.0000   0.0000   0.0000   0.3203
   7.500   1.3136   0.01562   0.00630  -0.1025  0.0565  0.0504  -2.3709   0.0000   0.0000   0.0000   0.3191
   7.600   1.3202   0.01581   0.00645  -0.1018  0.0482  0.0490  -2.4104   0.0000   0.0000   0.0000   0.3180
   7.700   1.3264   0.01603   0.00658  -0.1011  0.0427  0.0480  -2.4509   0.0000   0.0000   0.0000   0.3169
   7.800   1.3265   0.01663   0.00701  -0.0992  0.0247  0.0474  -2.4788   0.0000   0.0000   0.0000   0.3154
   8.400   1.3531   0.01779   0.00813  -0.0919  0.0128  0.0378  -2.9600   0.0000   0.0000   0.0000   0.3077
   8.500   1.3572   0.01800   0.00840  -0.0906  0.0127  0.0376  -3.0361   0.0000   0.0000   0.0000   0.3063
   8.600   1.3612   0.01824   0.00872  -0.0892  0.0126  0.0374  -3.1091   0.0000   0.0000   0.0000   0.3050
   8.700   1.3650   0.01850   0.00908  -0.0878  0.0126  0.0372  -3.1777   0.0000   0.0000   0.0000   0.3036
   8.800   1.3680   0.01881   0.00948  -0.0863  0.0126  0.0371  -3.2400   0.0000   0.0000   0.0000   0.3022
   8.900   1.3702   0.01916   0.00995  -0.0846  0.0126  0.0371  -3.2941   0.0000   0.0000   0.0000   0.3007
   9.000   1.3712   0.01958   0.01049  -0.0828  0.0126  0.0370  -3.3384   0.0000   0.0000   0.0000   0.2992
   9.100   1.3707   0.02008   0.01110  -0.0807  0.0127  0.0370  -3.3708   0.0000   0.0000   0.0000   0.2975


