xflr5 v6.61

 Calculated polar for: GOE 417 AIRFOIL

 1 1 Reynolds number fixed          Mach number fixed         

 xtrf =   1.000 (top)        1.000 (bottom)
 Mach =   0.000     Re =     0.563 e 6     Ncrit =   9.000

  alpha     CL        CD       CDp       Cm    Top Xtr Bot Xtr   Cpmin    Chinge    XCp    
 ------- -------- --------- --------- -------- ------- ------- -------- --------- ---------
 -10.000  -0.2002   0.11854   0.11608  -0.0340  0.9923  0.0118  -1.0017   0.0000   0.0000   0.0000   0.0729
  -9.900  -0.1938   0.11705   0.11459  -0.0353  0.9914  0.0118  -1.0021   0.0000   0.0000   0.0000   0.0599
  -9.800  -0.1874   0.11559   0.11313  -0.0367  0.9906  0.0119  -1.0028   0.0000   0.0000   0.0000   0.0463
  -9.700  -0.1812   0.11416   0.11169  -0.0380  0.9896  0.0119  -1.0037   0.0000   0.0000   0.0000   0.0321
  -9.600  -0.1752   0.11276   0.11030  -0.0392  0.9887  0.0119  -1.0048   0.0000   0.0000   0.0000   0.0174
  -9.500  -0.1692   0.11139   0.10893  -0.0405  0.9877  0.0120  -1.0062   0.0000   0.0000   0.0000   0.0018
  -9.400  -0.1632   0.11003   0.10756  -0.0418  0.9867  0.0120  -1.0077   0.0000   0.0000   0.0000  -0.0153
  -9.300  -0.1569   0.10866   0.10620  -0.0431  0.9856  0.0120  -1.0093   0.0000   0.0000   0.0000  -0.0342
  -9.200  -0.1506   0.10729   0.10483  -0.0444  0.9844  0.0121  -1.0111   0.0000   0.0000   0.0000  -0.0553
  -9.100  -0.1440   0.10589   0.10343  -0.0459  0.9832  0.0121  -1.0130   0.0000   0.0000   0.0000  -0.0792
  -9.000  -0.1372   0.10448   0.10201  -0.0474  0.9819  0.0121  -1.0151   0.0000   0.0000   0.0000  -0.1064
  -8.900  -0.1302   0.10304   0.10058  -0.0489  0.9804  0.0122  -1.0173   0.0000   0.0000   0.0000  -0.1377
  -8.800  -0.1229   0.10160   0.09914  -0.0505  0.9789  0.0122  -1.0197   0.0000   0.0000   0.0000  -0.1739
  -8.700  -0.1154   0.10015   0.09769  -0.0522  0.9773  0.0122  -1.0224   0.0000   0.0000   0.0000  -0.2160
  -8.600  -0.1078   0.09869   0.09623  -0.0540  0.9755  0.0123  -1.0254   0.0000   0.0000   0.0000  -0.2655
  -8.500  -0.1000   0.09723   0.09477  -0.0558  0.9736  0.0123  -1.0287   0.0000   0.0000   0.0000  -0.3241
  -8.400  -0.0920   0.09577   0.09330  -0.0577  0.9716  0.0123  -1.0323   0.0000   0.0000   0.0000  -0.3947
  -8.300  -0.0838   0.09431   0.09184  -0.0597  0.9695  0.0124  -1.0364   0.0000   0.0000   0.0000  -0.4808
  -8.200  -0.0755   0.09285   0.09038  -0.0617  0.9673  0.0124  -1.0412   0.0000   0.0000   0.0000  -0.5877
  -8.100  -0.0671   0.09140   0.08892  -0.0637  0.9649  0.0125  -1.0471   0.0000   0.0000   0.0000  -0.7242
  -8.000  -0.0585   0.08995   0.08748  -0.0659  0.9625  0.0125  -1.0536   0.0000   0.0000   0.0000  -0.9031
  -7.900  -0.0499   0.08850   0.08602  -0.0681  0.9599  0.0125  -1.0609   0.0000   0.0000   0.0000  -1.1470
  -7.800  -0.0412   0.08702   0.08454  -0.0704  0.9572  0.0126  -1.0690   0.0000   0.0000   0.0000  -1.4986
  -7.700  -0.0323   0.08552   0.08303  -0.0726  0.9545  0.0126  -1.0754   0.0000   0.0000   0.0000  -2.0517
  -7.600  -0.0233   0.08401   0.08152  -0.0750  0.9519  0.0126  -1.0825   0.0000   0.0000   0.0000  -3.0395
  -7.500  -0.0226   0.08316   0.08068  -0.0749  0.9484  0.0127  -1.0911   0.0000   0.0000   0.0000  -3.1437
  -7.400  -0.0321   0.08315   0.08068  -0.0718  0.9430  0.0127  -1.1009   0.0000   0.0000   0.0000  -2.0355
  -7.300  -0.0347   0.08255   0.08009  -0.0709  0.9377  0.0127  -1.1102   0.0000   0.0000   0.0000  -1.8388
  -7.200  -0.0344   0.08173   0.07927  -0.0708  0.9326  0.0127  -1.1198   0.0000   0.0000   0.0000  -1.8495
  -7.100  -0.0313   0.08066   0.07820  -0.0716  0.9278  0.0127  -1.1293   0.0000   0.0000   0.0000  -2.0835
  -7.000  -0.0262   0.07942   0.07696  -0.0731  0.9233  0.0128  -1.1388   0.0000   0.0000   0.0000  -2.5934
  -6.900  -0.0178   0.07790   0.07541  -0.0754  0.9192  0.0128  -1.1483   0.0000   0.0000   0.0000  -4.0727
  -6.800  -0.0038   0.07590   0.07340  -0.0793  0.9156  0.0128  -1.1576   0.0000   0.0000   0.0000  -21.2049
  -6.700   0.0145   0.07364   0.07111  -0.0843  0.9131  0.0129  -1.1686   0.0000   0.0000   0.0000   6.1780
  -6.600   0.0312   0.07153   0.06897  -0.0889  0.9093  0.0129  -1.1821   0.0000   0.0000   0.0000   3.1496
  -6.100   0.0478   0.06071   0.05805  -0.0960  0.8838  0.0140  -1.4975   0.0000   0.0000   0.0000   2.2905
  -6.000   0.0519   0.05976   0.05712  -0.0949  0.8811  0.0144  -1.3814   0.0000   0.0000   0.0000   2.1052
  -5.900   0.0570   0.05900   0.05637  -0.0944  0.8768  0.0148  -1.2827   0.0000   0.0000   0.0000   1.9325
  -5.800   0.0622   0.05831   0.05567  -0.0943  0.8709  0.0153  -1.2025   0.0000   0.0000   0.0000   1.7882
  -5.700   0.0678   0.05762   0.05497  -0.0945  0.8636  0.0160  -1.1362   0.0000   0.0000   0.0000   1.6655
  -5.600   0.0736   0.05692   0.05424  -0.0949  0.8549  0.0168  -1.0813   0.0000   0.0000   0.0000   1.5582
  -5.500   0.0798   0.05619   0.05348  -0.0955  0.8449  0.0179  -1.0366   0.0000   0.0000   0.0000   1.4633
  -5.400   0.0864   0.05548   0.05272  -0.0961  0.8341  0.0193  -1.0012   0.0000   0.0000   0.0000   1.3787
  -5.300   0.0939   0.05498   0.05216  -0.0968  0.8225  0.0212  -0.9721   0.0000   0.0000   0.0000   1.2952
  -5.200   0.1078   0.05569   0.05282  -0.0982  0.8110  0.0237  -0.9345   0.0000   0.0000   0.0000   1.1733
  -5.100   0.1178   0.05543   0.05253  -0.0992  0.8021  0.0243  -0.9140   0.0000   0.0000   0.0000   1.1038
  -5.000   0.1261   0.05468   0.05176  -0.1000  0.7988  0.0246  -0.9008   0.0000   0.0000   0.0000   1.0532
  -4.900   0.1342   0.05375   0.05082  -0.1008  0.7969  0.0247  -0.8898   0.0000   0.0000   0.0000   1.0105
  -4.800   0.1420   0.05275   0.04981  -0.1014  0.7949  0.0248  -0.8811   0.0000   0.0000   0.0000   0.9734
  -4.700   0.1498   0.05170   0.04874  -0.1021  0.7926  0.0249  -0.8737   0.0000   0.0000   0.0000   0.9399
  -4.600   0.1579   0.05061   0.04763  -0.1028  0.7900  0.0250  -0.8672   0.0000   0.0000   0.0000   0.9088
  -4.500   0.1660   0.04939   0.04638  -0.1035  0.7869  0.0250  -0.8644   0.0000   0.0000   0.0000   0.8810
  -4.400   0.1741   0.04803   0.04500  -0.1043  0.7832  0.0250  -0.8655   0.0000   0.0000   0.0000   0.8559
  -4.300   0.1825   0.04664   0.04357  -0.1050  0.7785  0.0249  -0.8671   0.0000   0.0000   0.0000   0.8321
  -4.200   0.1912   0.04522   0.04211  -0.1058  0.7717  0.0249  -0.8693   0.0000   0.0000   0.0000   0.8095
  -4.100   0.1998   0.04381   0.04063  -0.1065  0.7600  0.0248  -0.8725   0.0000   0.0000   0.0000   0.7887
  -4.000   0.2081   0.04242   0.03913  -0.1070  0.7403  0.0248  -0.8774   0.0000   0.0000   0.0000   0.7697
  -3.900   0.2158   0.04107   0.03758  -0.1073  0.7114  0.0247  -0.8851   0.0000   0.0000   0.0000   0.7526
  -3.800   0.2248   0.03941   0.03581  -0.1081  0.6933  0.0245  -0.8998   0.0000   0.0000   0.0000   0.7357
  -3.700   0.2336   0.03676   0.03301  -0.1093  0.6785  0.0238  -0.9571   0.0000   0.0000   0.0000   0.7226
  -3.300   0.2858   0.03235   0.02795  -0.1112  0.6051  0.0255  -1.0570   0.0000   0.0000   0.0000   0.6429
  -3.200   0.2979   0.02631   0.02160  -0.1138  0.5935  0.0274  -1.2595   0.0000   0.0000   0.0000   0.6357
  -3.100   0.3067   0.02537   0.02062  -0.1143  0.5899  0.0284  -1.1839   0.0000   0.0000   0.0000   0.6260
  -3.000   0.3161   0.02485   0.02007  -0.1146  0.5870  0.0290  -1.1007   0.0000   0.0000   0.0000   0.6157
  -2.900   0.3259   0.02436   0.01954  -0.1149  0.5839  0.0294  -1.0716   0.0000   0.0000   0.0000   0.6054
  -2.500   0.3663   0.02243   0.01737  -0.1158  0.5601  0.0301  -0.9971   0.0000   0.0000   0.0000   0.5685
  -2.400   0.3754   0.02217   0.01706  -0.1159  0.5509  0.0305  -0.9608   0.0000   0.0000   0.0000   0.5609
  -2.300   0.3846   0.02188   0.01669  -0.1159  0.5408  0.0309  -0.9325   0.0000   0.0000   0.0000   0.5535
  -2.200   0.3943   0.02147   0.01618  -0.1160  0.5285  0.0310  -0.9215   0.0000   0.0000   0.0000   0.5461
  -2.100   0.4045   0.02095   0.01552  -0.1160  0.5133  0.0308  -0.9262   0.0000   0.0000   0.0000   0.5387
  -2.000   0.4152   0.02041   0.01488  -0.1162  0.5012  0.0305  -0.9297   0.0000   0.0000   0.0000   0.5315
  -1.900   0.4260   0.01987   0.01426  -0.1163  0.4960  0.0303  -0.9314   0.0000   0.0000   0.0000   0.5246
  -1.800   0.4367   0.01939   0.01370  -0.1164  0.4914  0.0301  -0.9295   0.0000   0.0000   0.0000   0.5181
  -1.700   0.4474   0.01894   0.01317  -0.1166  0.4866  0.0299  -0.9260   0.0000   0.0000   0.0000   0.5119
  -1.600   0.4579   0.01853   0.01267  -0.1167  0.4811  0.0297  -0.9211   0.0000   0.0000   0.0000   0.5060
  -1.500   0.4685   0.01812   0.01219  -0.1168  0.4776  0.0295  -0.9149   0.0000   0.0000   0.0000   0.5003
  -1.400   0.4780   0.01787   0.01179  -0.1167  0.4598  0.0294  -0.9078   0.0000   0.0000   0.0000   0.4951
  -1.300   0.4865   0.01773   0.01145  -0.1164  0.4344  0.0292  -0.9001   0.0000   0.0000   0.0000   0.4901
  -1.200   0.4955   0.01755   0.01111  -0.1162  0.4036  0.0291  -0.8909   0.0000   0.0000   0.0000   0.4853
  -1.100   0.5054   0.01730   0.01075  -0.1162  0.3917  0.0289  -0.8797   0.0000   0.0000   0.0000   0.4805
  -1.000   0.5153   0.01709   0.01043  -0.1161  0.3818  0.0287  -0.8668   0.0000   0.0000   0.0000   0.4760
  -0.900   0.5250   0.01690   0.01014  -0.1161  0.3720  0.0286  -0.8522   0.0000   0.0000   0.0000   0.4716
  -0.800   0.5347   0.01675   0.00987  -0.1160  0.3612  0.0284  -0.8361   0.0000   0.0000   0.0000   0.4674
  -0.700   0.5443   0.01663   0.00965  -0.1160  0.3513  0.0282  -0.8185   0.0000   0.0000   0.0000   0.4633
  -0.600   0.5540   0.01652   0.00945  -0.1159  0.3427  0.0280  -0.7989   0.0000   0.0000   0.0000   0.4594
  -0.500   0.5640   0.01640   0.00927  -0.1159  0.3357  0.0278  -0.7793   0.0000   0.0000   0.0000   0.4556
  -0.400   0.5741   0.01631   0.00913  -0.1159  0.3301  0.0276  -0.7896   0.0000   0.0000   0.0000   0.4519
   0.200   0.6334   0.01752   0.01044  -0.1160  0.3211  0.0255  -0.8541   0.0000   0.0000   0.0000   0.4325
   0.300   0.6438   0.01725   0.01013  -0.1161  0.3185  0.0255  -0.8644   0.0000   0.0000   0.0000   0.4296
   0.400   0.6542   0.01699   0.00982  -0.1161  0.3161  0.0255  -0.8747   0.0000   0.0000   0.0000   0.4268
   0.500   0.6646   0.01673   0.00953  -0.1162  0.3137  0.0255  -0.8923   0.0000   0.0000   0.0000   0.4240
   0.600   0.6749   0.01649   0.00925  -0.1163  0.3116  0.0255  -0.9113   0.0000   0.0000   0.0000   0.4213
   0.700   0.6853   0.01625   0.00897  -0.1163  0.3095  0.0255  -0.9304   0.0000   0.0000   0.0000   0.4187
   0.800   0.6957   0.01602   0.00871  -0.1164  0.3076  0.0255  -0.9496   0.0000   0.0000   0.0000   0.4162
   0.900   0.7061   0.01580   0.00845  -0.1164  0.3059  0.0255  -0.9689   0.0000   0.0000   0.0000   0.4137
   1.000   0.7164   0.01559   0.00821  -0.1165  0.3043  0.0255  -0.9884   0.0000   0.0000   0.0000   0.4113
   1.100   0.7268   0.01539   0.00797  -0.1165  0.3029  0.0255  -1.0079   0.0000   0.0000   0.0000   0.4089
   1.200   0.7372   0.01519   0.00774  -0.1166  0.3015  0.0255  -1.0275   0.0000   0.0000   0.0000   0.4066
   1.300   0.7475   0.01500   0.00752  -0.1166  0.3002  0.0255  -1.0472   0.0000   0.0000   0.0000   0.4044
   1.400   0.7579   0.01482   0.00731  -0.1166  0.3000  0.0255  -1.0670   0.0000   0.0000   0.0000   0.4022
   1.500   0.7683   0.01464   0.00711  -0.1167  0.2998  0.0255  -1.0869   0.0000   0.0000   0.0000   0.4000
   1.600   0.7786   0.01447   0.00692  -0.1167  0.2996  0.0256  -1.1069   0.0000   0.0000   0.0000   0.3979
   1.700   0.7890   0.01431   0.00673  -0.1167  0.2994  0.0256  -1.1270   0.0000   0.0000   0.0000   0.3959
   1.800   0.8007   0.01283   0.00504  -0.1167  0.2988  0.0276  -1.1431   0.0000   0.0000   0.0000   0.3936
   1.900   0.8116   0.01238   0.00470  -0.1168  0.3101  0.0298  -1.1629   0.0000   0.0000   0.0000   0.3918
   2.000   0.8221   0.01225   0.00460  -0.1169  0.3168  0.0303  -1.1837   0.0000   0.0000   0.0000   0.3899
   2.100   0.8324   0.01215   0.00450  -0.1169  0.3185  0.0307  -1.2042   0.0000   0.0000   0.0000   0.3881
   2.200   0.8426   0.01207   0.00442  -0.1169  0.3184  0.0311  -1.2247   0.0000   0.0000   0.0000   0.3863
   2.300   0.8527   0.01200   0.00435  -0.1169  0.3174  0.0316  -1.2452   0.0000   0.0000   0.0000   0.3845
   2.400   0.8628   0.01193   0.00428  -0.1169  0.3157  0.0321  -1.2658   0.0000   0.0000   0.0000   0.3828
   2.500   0.8728   0.01187   0.00422  -0.1168  0.3136  0.0326  -1.2863   0.0000   0.0000   0.0000   0.3811
   2.600   0.8828   0.01183   0.00417  -0.1168  0.3107  0.0332  -1.3068   0.0000   0.0000   0.0000   0.3794
   2.700   0.8927   0.01178   0.00412  -0.1167  0.3075  0.0338  -1.3273   0.0000   0.0000   0.0000   0.3777
   2.800   0.9027   0.01174   0.00408  -0.1166  0.3053  0.0344  -1.3479   0.0000   0.0000   0.0000   0.3761
   2.900   0.9127   0.01170   0.00404  -0.1166  0.3043  0.0351  -1.3686   0.0000   0.0000   0.0000   0.3746
   3.000   0.9227   0.01167   0.00401  -0.1165  0.3030  0.0359  -1.3891   0.0000   0.0000   0.0000   0.3730
   3.100   0.9324   0.01165   0.00399  -0.1164  0.3003  0.0367  -1.4094   0.0000   0.0000   0.0000   0.3714
   3.200   0.9423   0.01163   0.00397  -0.1163  0.3001  0.0376  -1.4299   0.0000   0.0000   0.0000   0.3699
   3.300   0.9522   0.01161   0.00396  -0.1162  0.3000  0.0386  -1.4504   0.0000   0.0000   0.0000   0.3685
   3.400   0.9621   0.01160   0.00396  -0.1161  0.2999  0.0397  -1.4709   0.0000   0.0000   0.0000   0.3670
   3.500   0.9720   0.01160   0.00397  -0.1160  0.2998  0.0408  -1.4914   0.0000   0.0000   0.0000   0.3656
   3.600   0.9819   0.01159   0.00398  -0.1160  0.2997  0.0421  -1.5121   0.0000   0.0000   0.0000   0.3642
   3.700   0.9919   0.01158   0.00397  -0.1159  0.2996  0.0435  -1.5332   0.0000   0.0000   0.0000   0.3628
   3.800   1.0019   0.01156   0.00396  -0.1158  0.2995  0.0451  -1.5546   0.0000   0.0000   0.0000   0.3614
   3.900   1.0119   0.01155   0.00396  -0.1158  0.2994  0.0467  -1.5760   0.0000   0.0000   0.0000   0.3601
   4.000   1.0219   0.01155   0.00397  -0.1157  0.2993  0.0483  -1.5975   0.0000   0.0000   0.0000   0.3588
   4.100   1.0319   0.01157   0.00400  -0.1156  0.2991  0.0497  -1.6192   0.0000   0.0000   0.0000   0.3575
   4.500   1.0719   0.01136   0.00383  -0.1154  0.2986  0.0641  -1.7054   0.0000   0.0000   0.0000   0.3526
   4.600   1.0819   0.01136   0.00384  -0.1153  0.2984  0.0670  -1.7274   0.0000   0.0000   0.0000   0.3514
   4.700   1.0920   0.01136   0.00385  -0.1152  0.2982  0.0695  -1.7493   0.0000   0.0000   0.0000   0.3503
   4.800   1.1020   0.01137   0.00386  -0.1151  0.2980  0.0716  -1.7714   0.0000   0.0000   0.0000   0.3491
   4.900   1.1120   0.01138   0.00388  -0.1150  0.2978  0.0732  -1.7936   0.0000   0.0000   0.0000   0.3480
   5.000   1.1220   0.01139   0.00389  -0.1149  0.2976  0.0743  -1.8158   0.0000   0.0000   0.0000   0.3468
   5.100   1.1321   0.01139   0.00389  -0.1148  0.2971  0.0750  -1.8385   0.0000   0.0000   0.0000   0.3457
   5.200   1.1422   0.01139   0.00388  -0.1148  0.2963  0.0756  -1.8616   0.0000   0.0000   0.0000   0.3446
   5.300   1.1522   0.01140   0.00388  -0.1147  0.2954  0.0767  -1.8844   0.0000   0.0000   0.0000   0.3435
   5.400   1.1622   0.01142   0.00389  -0.1145  0.2938  0.0767  -1.9074   0.0000   0.0000   0.0000   0.3424
   5.500   1.1720   0.01146   0.00389  -0.1144  0.2908  0.0752  -1.9304   0.0000   0.0000   0.0000   0.3413
   5.600   1.1812   0.01153   0.00392  -0.1141  0.2853  0.0739  -1.9528   0.0000   0.0000   0.0000   0.3402
   5.700   1.1898   0.01165   0.00398  -0.1138  0.2760  0.0723  -1.9744   0.0000   0.0000   0.0000   0.3391
   5.800   1.1967   0.01188   0.00407  -0.1131  0.2586  0.0704  -1.9940   0.0000   0.0000   0.0000   0.3379
   5.900   1.2024   0.01218   0.00419  -0.1123  0.2385  0.0683  -2.0119   0.0000   0.0000   0.0000   0.3366
   6.000   1.2082   0.01247   0.00429  -0.1115  0.2139  0.0661  -2.0297   0.0000   0.0000   0.0000   0.3353
   6.100   1.2158   0.01265   0.00437  -0.1109  0.1967  0.0638  -2.0497   0.0000   0.0000   0.0000   0.3342
   6.200   1.2228   0.01285   0.00446  -0.1103  0.1878  0.0619  -2.0694   0.0000   0.0000   0.0000   0.3330
   6.300   1.2291   0.01312   0.00457  -0.1096  0.1779  0.0603  -2.0882   0.0000   0.0000   0.0000   0.3319
   6.400   1.2346   0.01344   0.00474  -0.1087  0.1675  0.0589  -2.1059   0.0000   0.0000   0.0000   0.3306
   6.500   1.2412   0.01369   0.00489  -0.1081  0.1556  0.0576  -2.1247   0.0000   0.0000   0.0000   0.3295
   6.600   1.2491   0.01383   0.00500  -0.1076  0.1488  0.0563  -2.1456   0.0000   0.0000   0.0000   0.3284
   6.700   1.2569   0.01397   0.00512  -0.1071  0.1451  0.0551  -2.1670   0.0000   0.0000   0.0000   0.3273
   6.800   1.2643   0.01414   0.00525  -0.1065  0.1403  0.0541  -2.1881   0.0000   0.0000   0.0000   0.3263
   6.900   1.2711   0.01435   0.00539  -0.1059  0.1342  0.0532  -2.2086   0.0000   0.0000   0.0000   0.3252
   7.000   1.2775   0.01458   0.00555  -0.1052  0.1272  0.0525  -2.2289   0.0000   0.0000   0.0000   0.3240
   7.100   1.2843   0.01481   0.00570  -0.1045  0.1192  0.0520  -2.2496   0.0000   0.0000   0.0000   0.3230
   7.200   1.2920   0.01500   0.00583  -0.1040  0.1099  0.0515  -2.2712   0.0000   0.0000   0.0000   0.3220
   7.300   1.3000   0.01513   0.00594  -0.1036  0.1010  0.0507  -2.3008   0.0000   0.0000   0.0000   0.3210
   7.400   1.3079   0.01526   0.00605  -0.1031  0.0983  0.0506  -2.3416   0.0000   0.0000   0.0000   0.3200
   7.500   1.3152   0.01541   0.00615  -0.1025  0.0940  0.0496  -2.3824   0.0000   0.0000   0.0000   0.3189
   7.600   1.3178   0.01591   0.00646  -0.1012  0.0746  0.0490  -2.4126   0.0000   0.0000   0.0000   0.3177
   7.700   1.3202   0.01638   0.00670  -0.0998  0.0638  0.0485  -2.4430   0.0000   0.0000   0.0000   0.3163
   7.800   1.3248   0.01669   0.00690  -0.0987  0.0501  0.0480  -2.4795   0.0000   0.0000   0.0000   0.3151
   7.900   1.3289   0.01699   0.00711  -0.0976  0.0411  0.0475  -2.5301   0.0000   0.0000   0.0000   0.3139
   8.000   1.3260   0.01754   0.00754  -0.0951  0.0253  0.0473  -2.5757   0.0000   0.0000   0.0000   0.3121


