xflr5 v6.61

 Calculated polar for: GOE 398 AIRFOIL

 1 1 Reynolds number fixed          Mach number fixed         

 xtrf =   1.000 (top)        1.000 (bottom)
 Mach =   0.000     Re =     0.200 e 6     Ncrit =   9.000

  alpha     CL        CD       CDp       Cm    Top Xtr Bot Xtr   Cpmin    Chinge    XCp    
 ------- -------- --------- --------- -------- ------- ------- -------- --------- ---------
  -9.800  -0.1691   0.09352   0.08989  -0.0643  0.9647  0.0456  -1.5148   0.0000   0.0000   0.0000  -0.1641
  -9.700  -0.1677   0.09068   0.08705  -0.0662  0.9627  0.0436  -1.5736   0.0000   0.0000   0.0000  -0.1788
  -9.600  -0.1678   0.08763   0.08399  -0.0686  0.9607  0.0428  -1.6543   0.0000   0.0000   0.0000  -0.1930
  -9.500  -0.1696   0.08425   0.08061  -0.0716  0.9587  0.0433  -1.7580   0.0000   0.0000   0.0000  -0.2056
  -9.000  -0.1260   0.08019   0.07658  -0.0895  0.9501  0.0759  -1.6611   0.0000   0.0000   0.0000  -0.5007
  -8.900  -0.1789   0.07092   0.06734  -0.0845  0.9411  0.0566  -2.0077   0.0000   0.0000   0.0000  -0.2516
  -8.800  -0.1882   0.06875   0.06518  -0.0854  0.9356  0.0565  -2.0684   0.0000   0.0000   0.0000  -0.2312
  -8.700  -0.1955   0.06620   0.06263  -0.0876  0.9310  0.0566  -2.1286   0.0000   0.0000   0.0000  -0.2241
  -8.600  -0.2007   0.06377   0.06019  -0.0902  0.9269  0.0568  -2.1727   0.0000   0.0000   0.0000  -0.2243
  -8.500  -0.2054   0.06134   0.05774  -0.0925  0.9231  0.0571  -2.2148   0.0000   0.0000   0.0000  -0.2240
  -8.400  -0.2108   0.05902   0.05537  -0.0940  0.9194  0.0573  -2.2571   0.0000   0.0000   0.0000  -0.2189
  -8.100  -0.1567   0.06173   0.05809  -0.0957  0.9142  0.0724  -1.8533   0.0000   0.0000   0.0000  -0.3883
  -8.000  -0.1586   0.05946   0.05578  -0.0969  0.9118  0.0714  -1.8728   0.0000   0.0000   0.0000  -0.3881
  -7.900  -0.1581   0.05690   0.05317  -0.0988  0.9095  0.0706  -1.8927   0.0000   0.0000   0.0000  -0.4019
  -7.800  -0.1564   0.05433   0.05053  -0.1009  0.9075  0.0698  -1.9116   0.0000   0.0000   0.0000  -0.4217
  -7.700  -0.1538   0.05174   0.04787  -0.1030  0.9055  0.0690  -1.9288   0.0000   0.0000   0.0000  -0.4467
  -7.600  -0.1502   0.04921   0.04523  -0.1051  0.9036  0.0682  -1.9427   0.0000   0.0000   0.0000  -0.4774
  -7.500  -0.1456   0.04666   0.04257  -0.1073  0.9015  0.0674  -1.9542   0.0000   0.0000   0.0000  -0.5150
  -7.400  -0.1486   0.04503   0.04085  -0.1068  0.8985  0.0667  -1.9709   0.0000   0.0000   0.0000  -0.4955
  -7.300  -0.1632   0.04465   0.04045  -0.1027  0.8937  0.0663  -1.9963   0.0000   0.0000   0.0000  -0.4034
  -7.200  -0.1734   0.04378   0.03953  -0.0998  0.8885  0.0658  -2.0185   0.0000   0.0000   0.0000  -0.3480
  -7.100  -0.1802   0.04254   0.03822  -0.0978  0.8834  0.0652  -2.0380   0.0000   0.0000   0.0000  -0.3143
  -7.000  -0.1843   0.04115   0.03672  -0.0963  0.8785  0.0646  -2.0523   0.0000   0.0000   0.0000  -0.2933
  -6.900  -0.1860   0.03969   0.03515  -0.0952  0.8739  0.0640  -2.0597   0.0000   0.0000   0.0000  -0.2821
  -6.800  -0.1860   0.03818   0.03352  -0.0943  0.8696  0.0635  -2.0617   0.0000   0.0000   0.0000  -0.2774
  -6.700  -0.1838   0.03677   0.03199  -0.0936  0.8656  0.0631  -2.0537   0.0000   0.0000   0.0000  -0.2797
  -6.600  -0.1759   0.03627   0.03145  -0.0935  0.8624  0.0642  -1.9998   0.0000   0.0000   0.0000  -0.3026
  -6.500  -0.1660   0.03605   0.03120  -0.0937  0.8596  0.0662  -1.9572   0.0000   0.0000   0.0000  -0.3362
  -6.400  -0.1561   0.03568   0.03078  -0.0939  0.8568  0.0682  -1.9226   0.0000   0.0000   0.0000  -0.3740
  -6.300  -0.1462   0.03516   0.03019  -0.0941  0.8540  0.0699  -1.8957   0.0000   0.0000   0.0000  -0.4170
  -6.200  -0.1366   0.03452   0.02947  -0.0942  0.8513  0.0712  -1.8746   0.0000   0.0000   0.0000  -0.4651
  -6.100  -0.1275   0.03369   0.02855  -0.0944  0.8486  0.0717  -1.8602   0.0000   0.0000   0.0000  -0.5167
  -6.000  -0.1195   0.03262   0.02737  -0.0944  0.8459  0.0716  -1.8545   0.0000   0.0000   0.0000  -0.5672
  -5.900  -0.1127   0.03134   0.02597  -0.0942  0.8430  0.0709  -1.8574   0.0000   0.0000   0.0000  -0.6148
  -5.800  -0.1060   0.02998   0.02446  -0.0939  0.8401  0.0697  -1.8652   0.0000   0.0000   0.0000  -0.6666
  -5.700  -0.0981   0.02866   0.02299  -0.0938  0.8373  0.0685  -1.8721   0.0000   0.0000   0.0000  -0.7388
  -5.600  -0.0895   0.02740   0.02157  -0.0937  0.8346  0.0674  -1.8779   0.0000   0.0000   0.0000  -0.8328
  -5.500  -0.0802   0.02622   0.02022  -0.0936  0.8318  0.0663  -1.8826   0.0000   0.0000   0.0000  -0.9568
  -5.400  -0.0704   0.02512   0.01894  -0.0936  0.8289  0.0653  -1.8857   0.0000   0.0000   0.0000  -1.1249
  -5.300  -0.0599   0.02410   0.01775  -0.0936  0.8259  0.0644  -1.8866   0.0000   0.0000   0.0000  -1.3641
  -5.200  -0.0490   0.02319   0.01667  -0.0937  0.8226  0.0636  -1.8848   0.0000   0.0000   0.0000  -1.7241
  -5.100  -0.0378   0.02242   0.01575  -0.0938  0.8189  0.0629  -1.8783   0.0000   0.0000   0.0000  -2.3141
  -5.000  -0.0265   0.02179   0.01498  -0.0940  0.8144  0.0623  -1.8683   0.0000   0.0000   0.0000  -3.4086
  -4.900  -0.0161   0.02134   0.01442  -0.0940  0.8086  0.0618  -1.8568   0.0000   0.0000   0.0000  -5.7770
  -4.800  -0.0111   0.02136   0.01436  -0.0932  0.7998  0.0616  -1.8479   0.0000   0.0000   0.0000  -8.4261
  -4.700  -0.0034   0.02087   0.01378  -0.0924  0.7990  0.0613  -1.8353   0.0000   0.0000   0.0000  -27.8748
  -4.600   0.0041   0.02043   0.01326  -0.0917  0.7980  0.0610  -1.8214   0.0000   0.0000   0.0000  23.2703
  -4.500   0.0116   0.02002   0.01278  -0.0909  0.7969  0.0609  -1.8064   0.0000   0.0000   0.0000   8.3075
  -4.400   0.0192   0.01965   0.01234  -0.0901  0.7957  0.0608  -1.7903   0.0000   0.0000   0.0000   5.0936
  -4.300   0.0267   0.01930   0.01194  -0.0894  0.7943  0.0607  -1.7733   0.0000   0.0000   0.0000   3.6929
  -4.200   0.0343   0.01898   0.01156  -0.0886  0.7926  0.0607  -1.7555   0.0000   0.0000   0.0000   2.9078
  -4.100   0.0419   0.01868   0.01121  -0.0879  0.7908  0.0608  -1.7370   0.0000   0.0000   0.0000   2.4043
  -4.000   0.0497   0.01839   0.01088  -0.0871  0.7888  0.0609  -1.7177   0.0000   0.0000   0.0000   2.0530
  -3.900   0.0575   0.01812   0.01057  -0.0864  0.7865  0.0611  -1.6979   0.0000   0.0000   0.0000   1.7931
  -3.800   0.0656   0.01786   0.01028  -0.0858  0.7841  0.0614  -1.6774   0.0000   0.0000   0.0000   1.5930
  -3.700   0.0738   0.01761   0.01000  -0.0852  0.7816  0.0617  -1.6563   0.0000   0.0000   0.0000   1.4337
  -3.600   0.0823   0.01738   0.00974  -0.0846  0.7789  0.0622  -1.6349   0.0000   0.0000   0.0000   1.3039
  -3.500   0.0912   0.01715   0.00948  -0.0841  0.7761  0.0628  -1.6130   0.0000   0.0000   0.0000   1.1958
  -3.400   0.1004   0.01693   0.00924  -0.0837  0.7733  0.0637  -1.5907   0.0000   0.0000   0.0000   1.1042
  -3.300   0.1099   0.01671   0.00900  -0.0834  0.7704  0.0647  -1.5683   0.0000   0.0000   0.0000   1.0262
  -3.200   0.1198   0.01650   0.00876  -0.0831  0.7676  0.0662  -1.5462   0.0000   0.0000   0.0000   0.9593
  -3.100   0.1299   0.01629   0.00853  -0.0828  0.7647  0.0682  -1.5249   0.0000   0.0000   0.0000   0.9017
  -3.000   0.1403   0.01608   0.00829  -0.0826  0.7619  0.0710  -1.5050   0.0000   0.0000   0.0000   0.8514
  -2.900   0.1512   0.01589   0.00807  -0.0825  0.7591  0.0746  -1.4852   0.0000   0.0000   0.0000   0.8068
  -2.800   0.1598   0.01537   0.00769  -0.0820  0.7563  0.0932  -1.4926   0.0000   0.0000   0.0000   0.7733
  -2.700   0.1688   0.01495   0.00745  -0.0816  0.7535  0.1301  -1.4866   0.0000   0.0000   0.0000   0.7426
  -2.600   0.1799   0.01477   0.00737  -0.0816  0.7508  0.1476  -1.4528   0.0000   0.0000   0.0000   0.7120
  -2.500   0.1908   0.01456   0.00728  -0.0817  0.7482  0.1662  -1.4171   0.0000   0.0000   0.0000   0.6854
  -2.400   0.2020   0.01439   0.00720  -0.0818  0.7455  0.1832  -1.3786   0.0000   0.0000   0.0000   0.6614
  -2.300   0.2146   0.01429   0.00710  -0.0821  0.7429  0.1940  -1.3374   0.0000   0.0000   0.0000   0.6383
  -2.200   0.2280   0.01424   0.00700  -0.0826  0.7402  0.1996  -1.2944   0.0000   0.0000   0.0000   0.6173
  -2.100   0.2411   0.01416   0.00689  -0.0830  0.7375  0.2073  -1.2529   0.0000   0.0000   0.0000   0.5986
  -2.000   0.2539   0.01404   0.00674  -0.0833  0.7346  0.2229  -1.2135   0.0000   0.0000   0.0000   0.5821
  -1.900   0.2665   0.01394   0.00665  -0.0836  0.7316  0.2395  -1.1735   0.0000   0.0000   0.0000   0.5673
  -1.800   0.2791   0.01384   0.00660  -0.0839  0.7284  0.2533  -1.1336   0.0000   0.0000   0.0000   0.5540
  -1.700   0.2914   0.01377   0.00657  -0.0843  0.7249  0.2645  -1.0941   0.0000   0.0000   0.0000   0.5420
  -1.600   0.3036   0.01374   0.00657  -0.0846  0.7209  0.2746  -1.0551   0.0000   0.0000   0.0000   0.5311
  -1.500   0.3153   0.01376   0.00661  -0.0848  0.7165  0.2841  -1.0172   0.0000   0.0000   0.0000   0.5212
  -1.400   0.3262   0.01386   0.00673  -0.0850  0.7114  0.2933  -0.9810   0.0000   0.0000   0.0000   0.5124
  -1.300   0.3352   0.01409   0.00698  -0.0848  0.7055  0.3032  -0.9483   0.0000   0.0000   0.0000   0.5047
  -1.200   0.3404   0.01440   0.00739  -0.0840  0.6998  0.3278  -0.9224   0.0000   0.0000   0.0000   0.4982
  -1.100   0.3484   0.01424   0.00736  -0.0834  0.6991  0.3568  -0.8911   0.0000   0.0000   0.0000   0.4907
  -1.000   0.3568   0.01411   0.00732  -0.0829  0.6984  0.3835  -0.8594   0.0000   0.0000   0.0000   0.4833
  -0.900   0.3653   0.01398   0.00726  -0.0824  0.6975  0.4119  -0.8277   0.0000   0.0000   0.0000   0.4763
  -0.800   0.3721   0.01375   0.00723  -0.0815  0.6964  0.4582  -0.8043   0.0000   0.0000   0.0000   0.4696
  -0.700   0.3802   0.01357   0.00716  -0.0809  0.6950  0.4976  -0.8136   0.0000   0.0000   0.0000   0.4630
  -0.600   0.3864   0.01330   0.00712  -0.0798  0.6935  0.5510  -0.8217   0.0000   0.0000   0.0000   0.4566
  -0.500   0.3943   0.01309   0.00705  -0.0790  0.6916  0.5993  -0.8310   0.0000   0.0000   0.0000   0.4503
  -0.400   0.5415   0.01214   0.00697  -0.1063  0.6881  0.9489  -0.9405   0.0000   0.0000   0.0000   0.4456
  -0.300   0.5569   0.01216   0.00696  -0.1072  0.6854  0.9820  -0.9573   0.0000   0.0000   0.0000   0.4416
  -0.200   0.5990   0.01215   0.00691  -0.1134  0.6823  0.9948  -0.9934   0.0000   0.0000   0.0000   0.4383
  -0.100   0.6349   0.01211   0.00684  -0.1184  0.6789  0.9999  -1.0253   0.0000   0.0000   0.0000   0.4353
   0.000   0.6426   0.01209   0.00679  -0.1178  0.6755  1.0000  -1.0365   0.0000   0.0000   0.0000   0.4320
   0.100   0.6496   0.01206   0.00673  -0.1171  0.6719  1.0000  -1.0473   0.0000   0.0000   0.0000   0.4287
   0.200   0.6569   0.01204   0.00668  -0.1164  0.6680  1.0000  -1.0585   0.0000   0.0000   0.0000   0.4255
   0.300   0.6647   0.01201   0.00661  -0.1157  0.6638  1.0000  -1.0699   0.0000   0.0000   0.0000   0.4223
   0.400   0.6732   0.01198   0.00654  -0.1152  0.6593  1.0000  -1.0820   0.0000   0.0000   0.0000   0.4192
   0.500   0.6823   0.01194   0.00645  -0.1148  0.6544  1.0000  -1.0945   0.0000   0.0000   0.0000   0.4162
   0.600   0.6918   0.01190   0.00635  -0.1145  0.6492  1.0000  -1.1074   0.0000   0.0000   0.0000   0.4133
   0.700   0.7018   0.01186   0.00624  -0.1142  0.6433  1.0000  -1.1208   0.0000   0.0000   0.0000   0.4104
   0.800   0.7118   0.01182   0.00612  -0.1140  0.6366  1.0000  -1.1342   0.0000   0.0000   0.0000   0.4076
   0.900   0.7217   0.01181   0.00601  -0.1137  0.6284  1.0000  -1.1474   0.0000   0.0000   0.0000   0.4049
   1.000   0.7321   0.01186   0.00597  -0.1136  0.6171  1.0000  -1.1609   0.0000   0.0000   0.0000   0.4023
   1.100   0.7442   0.01208   0.00613  -0.1139  0.6000  1.0000  -1.1750   0.0000   0.0000   0.0000   0.4002
   1.200   0.7510   0.01203   0.00606  -0.1130  0.5984  1.0000  -1.1862   0.0000   0.0000   0.0000   0.3975
   1.300   0.7575   0.01199   0.00600  -0.1121  0.5963  1.0000  -1.1972   0.0000   0.0000   0.0000   0.3948
   1.400   0.7638   0.01195   0.00596  -0.1111  0.5934  1.0000  -1.2081   0.0000   0.0000   0.0000   0.3922
   1.500   0.7702   0.01193   0.00593  -0.1102  0.5892  1.0000  -1.2191   0.0000   0.0000   0.0000   0.3895
   1.600   0.7768   0.01192   0.00590  -0.1092  0.5837  1.0000  -1.2302   0.0000   0.0000   0.0000   0.3870
   1.700   0.7838   0.01192   0.00586  -0.1084  0.5767  1.0000  -1.2416   0.0000   0.0000   0.0000   0.3845
   1.800   0.7912   0.01193   0.00582  -0.1076  0.5682  1.0000  -1.2533   0.0000   0.0000   0.0000   0.3821
   1.900   0.7997   0.01202   0.00587  -0.1071  0.5623  1.0000  -1.2651   0.0000   0.0000   0.0000   0.3799
   2.000   0.8082   0.01208   0.00588  -0.1066  0.5555  1.0000  -1.2773   0.0000   0.0000   0.0000   0.3778
   2.100   0.8167   0.01213   0.00584  -0.1061  0.5471  1.0000  -1.2897   0.0000   0.0000   0.0000   0.3756
   2.200   0.8247   0.01220   0.00579  -0.1054  0.5379  1.0000  -1.3018   0.0000   0.0000   0.0000   0.3734
   2.300   0.8318   0.01229   0.00576  -0.1046  0.5275  1.0000  -1.3131   0.0000   0.0000   0.0000   0.3712
   2.400   0.8391   0.01243   0.00580  -0.1039  0.5147  1.0000  -1.3263   0.0000   0.0000   0.0000   0.3691
   2.500   0.8498   0.01265   0.00593  -0.1039  0.4999  1.0000  -1.3432   0.0000   0.0000   0.0000   0.3675
   2.600   0.8572   0.01270   0.00597  -0.1033  0.4984  1.0000  -1.3582   0.0000   0.0000   0.0000   0.3655
   2.700   0.8647   0.01274   0.00601  -0.1026  0.4964  1.0000  -1.3732   0.0000   0.0000   0.0000   0.3636
   2.800   0.8723   0.01280   0.00606  -0.1019  0.4940  1.0000  -1.3883   0.0000   0.0000   0.0000   0.3617
   2.900   0.8799   0.01286   0.00611  -0.1013  0.4912  1.0000  -1.4034   0.0000   0.0000   0.0000   0.3598
   3.000   0.8876   0.01292   0.00616  -0.1006  0.4879  1.0000  -1.4187   0.0000   0.0000   0.0000   0.3579
   3.100   0.8953   0.01300   0.00621  -0.1000  0.4843  1.0000  -1.4340   0.0000   0.0000   0.0000   0.3561
   3.200   0.9031   0.01307   0.00626  -0.0994  0.4805  1.0000  -1.4494   0.0000   0.0000   0.0000   0.3544
   3.300   0.9109   0.01315   0.00631  -0.0988  0.4767  1.0000  -1.4648   0.0000   0.0000   0.0000   0.3526
   3.400   0.9186   0.01324   0.00635  -0.0982  0.4727  1.0000  -1.4802   0.0000   0.0000   0.0000   0.3509
   3.500   0.9263   0.01333   0.00640  -0.0975  0.4685  1.0000  -1.4956   0.0000   0.0000   0.0000   0.3492
   3.600   0.9339   0.01343   0.00645  -0.0969  0.4643  1.0000  -1.5109   0.0000   0.0000   0.0000   0.3475
   3.700   0.9414   0.01353   0.00649  -0.0962  0.4599  1.0000  -1.5261   0.0000   0.0000   0.0000   0.3458
   3.800   0.9486   0.01364   0.00654  -0.0955  0.4553  1.0000  -1.5411   0.0000   0.0000   0.0000   0.3442
   3.900   0.9556   0.01376   0.00659  -0.0948  0.4506  1.0000  -1.5559   0.0000   0.0000   0.0000   0.3425
   4.000   0.9625   0.01388   0.00665  -0.0940  0.4457  1.0000  -1.5705   0.0000   0.0000   0.0000   0.3409
   4.100   0.9694   0.01400   0.00673  -0.0932  0.4405  1.0000  -1.5851   0.0000   0.0000   0.0000   0.3392
   4.200   0.9766   0.01413   0.00681  -0.0925  0.4351  1.0000  -1.5999   0.0000   0.0000   0.0000   0.3377
   4.300   0.9844   0.01426   0.00690  -0.0919  0.4295  1.0000  -1.6153   0.0000   0.0000   0.0000   0.3362
   4.400   0.9931   0.01440   0.00701  -0.0915  0.4240  1.0000  -1.6314   0.0000   0.0000   0.0000   0.3349
   4.500   1.0024   0.01455   0.00713  -0.0913  0.4186  1.0000  -1.6481   0.0000   0.0000   0.0000   0.3336
   4.600   1.0123   0.01470   0.00728  -0.0911  0.4135  1.0000  -1.6652   0.0000   0.0000   0.0000   0.3325
   4.700   1.0224   0.01486   0.00744  -0.0911  0.4087  1.0000  -1.6824   0.0000   0.0000   0.0000   0.3314
   4.800   1.0326   0.01504   0.00762  -0.0910  0.4042  1.0000  -1.6997   0.0000   0.0000   0.0000   0.3303
   4.900   1.0426   0.01523   0.00782  -0.0909  0.4000  1.0000  -1.7168   0.0000   0.0000   0.0000   0.3293
   5.000   1.0500   0.01528   0.00789  -0.0903  0.3996  1.0000  -1.7325   0.0000   0.0000   0.0000   0.3279
   5.100   1.0573   0.01534   0.00795  -0.0896  0.3991  1.0000  -1.7479   0.0000   0.0000   0.0000   0.3265
   5.200   1.0644   0.01539   0.00803  -0.0889  0.3986  1.0000  -1.7632   0.0000   0.0000   0.0000   0.3251
   5.300   1.0713   0.01545   0.00810  -0.0881  0.3979  1.0000  -1.7934   0.0000   0.0000   0.0000   0.3237
   5.400   1.0780   0.01552   0.00818  -0.0873  0.3972  1.0000  -1.8256   0.0000   0.0000   0.0000   0.3223
   5.500   1.0844   0.01558   0.00827  -0.0864  0.3963  1.0000  -1.8577   0.0000   0.0000   0.0000   0.3209
   5.600   1.0906   0.01565   0.00836  -0.0855  0.3952  1.0000  -1.8894   0.0000   0.0000   0.0000   0.3195
   5.700   1.0966   0.01573   0.00845  -0.0846  0.3940  1.0000  -1.9209   0.0000   0.0000   0.0000   0.3181
   5.800   1.1024   0.01580   0.00855  -0.0836  0.3925  1.0000  -1.9521   0.0000   0.0000   0.0000   0.3166
   5.900   1.1077   0.01588   0.00865  -0.0825  0.3909  1.0000  -1.9826   0.0000   0.0000   0.0000   0.3152
   6.000   1.1120   0.01596   0.00875  -0.0812  0.3889  1.0000  -2.0113   0.0000   0.0000   0.0000   0.3136
   6.100   1.1158   0.01605   0.00885  -0.0799  0.3868  1.0000  -2.0392   0.0000   0.0000   0.0000   0.3120
   6.200   1.1197   0.01613   0.00896  -0.0785  0.3843  1.0000  -2.0674   0.0000   0.0000   0.0000   0.3104
   6.300   1.1238   0.01622   0.00906  -0.0772  0.3815  1.0000  -2.0961   0.0000   0.0000   0.0000   0.3088
   6.400   1.1281   0.01632   0.00917  -0.0760  0.3782  1.0000  -2.1253   0.0000   0.0000   0.0000   0.3073
   6.500   1.1327   0.01643   0.00928  -0.0748  0.3746  1.0000  -2.1549   0.0000   0.0000   0.0000   0.3058
   6.600   1.1373   0.01655   0.00939  -0.0736  0.3706  1.0000  -2.1849   0.0000   0.0000   0.0000   0.3044
   6.700   1.1421   0.01667   0.00950  -0.0725  0.3662  1.0000  -2.2152   0.0000   0.0000   0.0000   0.3030
   6.800   1.1468   0.01681   0.00962  -0.0714  0.3614  1.0000  -2.2456   0.0000   0.0000   0.0000   0.3016
   6.900   1.1515   0.01695   0.00973  -0.0703  0.3563  1.0000  -2.2759   0.0000   0.0000   0.0000   0.3003
   7.000   1.1559   0.01711   0.00984  -0.0691  0.3512  1.0000  -2.3060   0.0000   0.0000   0.0000   0.2989
   7.100   1.1600   0.01727   0.00996  -0.0679  0.3458  1.0000  -2.3353   0.0000   0.0000   0.0000   0.2975
   7.200   1.1634   0.01746   0.01009  -0.0666  0.3404  1.0000  -2.3635   0.0000   0.0000   0.0000   0.2960
   7.300   1.1660   0.01766   0.01025  -0.0652  0.3348  1.0000  -2.3900   0.0000   0.0000   0.0000   0.2945
   7.400   1.1679   0.01789   0.01043  -0.0637  0.3288  1.0000  -2.4150   0.0000   0.0000   0.0000   0.2930
   7.500   1.1699   0.01813   0.01064  -0.0622  0.3222  1.0000  -2.4401   0.0000   0.0000   0.0000   0.2915
   7.600   1.1729   0.01841   0.01089  -0.0609  0.3150  1.0000  -2.4670   0.0000   0.0000   0.0000   0.2901
   7.700   1.1782   0.01870   0.01117  -0.0601  0.3073  1.0000  -2.4980   0.0000   0.0000   0.0000   0.2890
   7.800   1.1863   0.01902   0.01148  -0.0597  0.3001  1.0000  -2.5344   0.0000   0.0000   0.0000   0.2882
   7.900   1.1916   0.01915   0.01163  -0.0588  0.2995  1.0000  -2.5670   0.0000   0.0000   0.0000   0.2870
   8.000   1.1961   0.01928   0.01179  -0.0578  0.2989  1.0000  -2.5982   0.0000   0.0000   0.0000   0.2859
   8.100   1.2000   0.01943   0.01196  -0.0567  0.2980  1.0000  -2.6281   0.0000   0.0000   0.0000   0.2846
   8.200   1.2037   0.01958   0.01214  -0.0556  0.2969  1.0000  -2.6578   0.0000   0.0000   0.0000   0.2834
   8.300   1.2077   0.01974   0.01233  -0.0545  0.2955  1.0000  -2.6879   0.0000   0.0000   0.0000   0.2822
   8.400   1.2119   0.01991   0.01252  -0.0535  0.2939  1.0000  -2.7186   0.0000   0.0000   0.0000   0.2810
   8.500   1.2163   0.02009   0.01272  -0.0526  0.2922  1.0000  -2.7498   0.0000   0.0000   0.0000   0.2799
   8.600   1.2209   0.02028   0.01293  -0.0517  0.2903  1.0000  -2.7812   0.0000   0.0000   0.0000   0.2789
   8.700   1.2254   0.02048   0.01314  -0.0507  0.2881  1.0000  -2.8125   0.0000   0.0000   0.0000   0.2778
   8.800   1.2298   0.02068   0.01335  -0.0498  0.2857  1.0000  -2.8436   0.0000   0.0000   0.0000   0.2767
   8.900   1.2342   0.02089   0.01356  -0.0489  0.2829  1.0000  -2.8745   0.0000   0.0000   0.0000   0.2757
   9.000   1.2382   0.02111   0.01378  -0.0480  0.2799  1.0000  -2.9049   0.0000   0.0000   0.0000   0.2746
   9.100   1.2411   0.02136   0.01404  -0.0469  0.2767  1.0000  -2.9327   0.0000   0.0000   0.0000   0.2735
   9.200   1.2437   0.02164   0.01430  -0.0458  0.2733  1.0000  -2.9601   0.0000   0.0000   0.0000   0.2723
   9.300   1.2467   0.02191   0.01456  -0.0447  0.2696  1.0000  -2.9882   0.0000   0.0000   0.0000   0.2712
   9.400   1.2500   0.02219   0.01481  -0.0438  0.2655  1.0000  -3.0169   0.0000   0.0000   0.0000   0.2702
   9.500   1.2534   0.02247   0.01506  -0.0428  0.2611  1.0000  -3.0458   0.0000   0.0000   0.0000   0.2691
   9.600   1.2568   0.02276   0.01530  -0.0418  0.2565  1.0000  -3.0745   0.0000   0.0000   0.0000   0.2681
   9.700   1.2599   0.02307   0.01555  -0.0409  0.2515  1.0000  -3.1026   0.0000   0.0000   0.0000   0.2671
   9.800   1.2625   0.02340   0.01582  -0.0399  0.2462  1.0000  -3.1297   0.0000   0.0000   0.0000   0.2660
   9.900   1.2647   0.02375   0.01612  -0.0388  0.2406  1.0000  -3.1554   0.0000   0.0000   0.0000   0.2650
  10.000   1.2664   0.02414   0.01646  -0.0377  0.2346  1.0000  -3.1796   0.0000   0.0000   0.0000   0.2639
  10.100   1.2679   0.02454   0.01683  -0.0366  0.2279  1.0000  -3.2031   0.0000   0.0000   0.0000   0.2628
  10.200   1.2697   0.02494   0.01721  -0.0356  0.2206  1.0000  -3.2268   0.0000   0.0000   0.0000   0.2618
  10.300   1.2725   0.02532   0.01758  -0.0347  0.2128  1.0000  -3.2518   0.0000   0.0000   0.0000   0.2608
  10.400   1.2760   0.02570   0.01797  -0.0339  0.2046  1.0000  -3.2773   0.0000   0.0000   0.0000   0.2599
  10.500   1.2796   0.02603   0.01832  -0.0331  0.1994  1.0000  -3.3028   0.0000   0.0000   0.0000   0.2590
  10.600   1.2817   0.02641   0.01873  -0.0323  0.1961  1.0000  -3.3238   0.0000   0.0000   0.0000   0.2581
  10.700   1.2786   0.02709   0.01934  -0.0310  0.1869  1.0000  -3.3323   0.0000   0.0000   0.0000   0.2569
  10.800   1.2701   0.02811   0.02028  -0.0293  0.1776  1.0000  -3.3287   0.0000   0.0000   0.0000   0.2555
  10.900   1.2601   0.02926   0.02128  -0.0275  0.1666  1.0000  -3.3217   0.0000   0.0000   0.0000   0.2541
  11.000   1.2490   0.03054   0.02237  -0.0258  0.1554  1.0000  -3.3119   0.0000   0.0000   0.0000   0.2526
  11.100   1.2407   0.03175   0.02341  -0.0243  0.1355  1.0000  -3.2986   0.0000   0.0000   0.0000   0.2514
  11.600   1.1887   0.03946   0.03062  -0.0186  0.0735  1.0000  -3.2392   0.0000   0.0000   0.0000   0.2462
  11.700   1.1866   0.04050   0.03166  -0.0179  0.0707  1.0000  -3.2430   0.0000   0.0000   0.0000   0.2455
  12.500   1.1306   0.05378   0.04586  -0.0140  0.0479  1.0000  -3.2537   0.0000   0.0000   0.0000   0.2409
  12.600   1.1302   0.05485   0.04698  -0.0138  0.0464  1.0000  -3.2839   0.0000   0.0000   0.0000   0.2405
  12.700   1.1299   0.05591   0.04808  -0.0136  0.0451  1.0000  -3.3105   0.0000   0.0000   0.0000   0.2401
  12.800   1.1297   0.05695   0.04916  -0.0134  0.0439  1.0000  -3.3361   0.0000   0.0000   0.0000   0.2397
  12.900   1.1297   0.05798   0.05023  -0.0132  0.0428  1.0000  -3.3609   0.0000   0.0000   0.0000   0.2394
  13.000   1.1296   0.05902   0.05130  -0.0130  0.0418  1.0000  -3.3849   0.0000   0.0000   0.0000   0.2390
  13.100   1.1295   0.06008   0.05238  -0.0129  0.0409  1.0000  -3.4083   0.0000   0.0000   0.0000   0.2387
  13.200   1.1292   0.06116   0.05350  -0.0128  0.0400  1.0000  -3.4306   0.0000   0.0000   0.0000   0.2384
  13.300   1.1285   0.06230   0.05466  -0.0127  0.0393  1.0000  -3.4512   0.0000   0.0000   0.0000   0.2381
  13.400   1.1275   0.06349   0.05588  -0.0127  0.0386  1.0000  -3.4697   0.0000   0.0000   0.0000   0.2379
  13.500   1.1258   0.06477   0.05718  -0.0127  0.0379  1.0000  -3.4855   0.0000   0.0000   0.0000   0.2377
  13.600   1.1237   0.06616   0.05860  -0.0128  0.0374  1.0000  -3.4988   0.0000   0.0000   0.0000   0.2376
  13.700   1.1177   0.06822   0.06072  -0.0132  0.0372  1.0000  -3.4955   0.0000   0.0000   0.0000   0.2378
  13.800   1.1137   0.06997   0.06251  -0.0135  0.0368  1.0000  -3.4999   0.0000   0.0000   0.0000   0.2379
  13.900   1.1114   0.07143   0.06399  -0.0137  0.0363  1.0000  -3.5112   0.0000   0.0000   0.0000   0.2379
  14.000   1.1097   0.07276   0.06534  -0.0138  0.0357  1.0000  -3.5247   0.0000   0.0000   0.0000   0.2378
  14.100   1.1082   0.07404   0.06664  -0.0139  0.0352  1.0000  -3.5390   0.0000   0.0000   0.0000   0.2377
  14.200   1.1070   0.07531   0.06793  -0.0140  0.0346  1.0000  -3.5533   0.0000   0.0000   0.0000   0.2376
  14.300   1.1057   0.07658   0.06922  -0.0141  0.0341  1.0000  -3.5672   0.0000   0.0000   0.0000   0.2375
  14.400   1.1043   0.07788   0.07054  -0.0142  0.0336  1.0000  -3.5802   0.0000   0.0000   0.0000   0.2374
  14.500   1.1028   0.07922   0.07190  -0.0144  0.0331  1.0000  -3.5920   0.0000   0.0000   0.0000   0.2373
  14.600   1.1010   0.08062   0.07332  -0.0145  0.0326  1.0000  -3.6021   0.0000   0.0000   0.0000   0.2373
  14.700   1.0987   0.08211   0.07484  -0.0148  0.0322  1.0000  -3.6098   0.0000   0.0000   0.0000   0.2373
  14.800   1.0961   0.08374   0.07650  -0.0151  0.0318  1.0000  -3.6155   0.0000   0.0000   0.0000   0.2374
  14.900   1.0916   0.08570   0.07851  -0.0156  0.0316  1.0000  -3.6133   0.0000   0.0000   0.0000   0.2377
  15.000   1.0727   0.09032   0.08327  -0.0176  0.0324  1.0000  -3.5508   0.0000   0.0000   0.0000   0.2397
  15.100   1.0694   0.09208   0.08506  -0.0180  0.0321  1.0000  -3.5528   0.0000   0.0000   0.0000   0.2399
  15.200   1.0676   0.09356   0.08656  -0.0183  0.0316  1.0000  -3.5606   0.0000   0.0000   0.0000   0.2400
  15.300   1.0666   0.09490   0.08791  -0.0185  0.0312  1.0000  -3.5715   0.0000   0.0000   0.0000   0.2400
  15.400   1.0662   0.09612   0.08915  -0.0186  0.0307  1.0000  -3.5843   0.0000   0.0000   0.0000   0.2399
  15.500   1.0663   0.09727   0.09030  -0.0187  0.0301  1.0000  -3.5985   0.0000   0.0000   0.0000   0.2397
  15.600   1.0668   0.09833   0.09137  -0.0188  0.0296  1.0000  -3.6137   0.0000   0.0000   0.0000   0.2395
  15.700   1.0676   0.09933   0.09237  -0.0188  0.0291  1.0000  -3.6297   0.0000   0.0000   0.0000   0.2393
  15.800   1.0688   0.10025   0.09331  -0.0187  0.0285  1.0000  -3.6465   0.0000   0.0000   0.0000   0.2390
  15.900   1.0699   0.10120   0.09427  -0.0187  0.0280  1.0000  -3.6619   0.0000   0.0000   0.0000   0.2387
  16.000   1.0708   0.10219   0.09528  -0.0186  0.0275  1.0000  -3.6753   0.0000   0.0000   0.0000   0.2384
  16.100   1.0716   0.10316   0.09628  -0.0186  0.0271  1.0000  -3.6880   0.0000   0.0000   0.0000   0.2381
  16.200   1.0725   0.10413   0.09728  -0.0185  0.0266  1.0000  -3.6996   0.0000   0.0000   0.0000   0.2378
  16.300   1.0733   0.10509   0.09827  -0.0184  0.0262  1.0000  -3.7098   0.0000   0.0000   0.0000   0.2375
  16.400   1.0746   0.10605   0.09922  -0.0184  0.0259  1.0000  -3.7298   0.0000   0.0000   0.0000   0.2373
  16.500   1.0770   0.10698   0.10015  -0.0188  0.0258  1.0000  -3.7679   0.0000   0.0000   0.0000   0.2373
  16.600   1.0793   0.10789   0.10107  -0.0191  0.0257  1.0000  -3.8059   0.0000   0.0000   0.0000   0.2373
  16.700   1.0819   0.10880   0.10198  -0.0194  0.0255  1.0000  -3.8445   0.0000   0.0000   0.0000   0.2374
  16.800   1.0846   0.10970   0.10288  -0.0197  0.0253  1.0000  -3.8831   0.0000   0.0000   0.0000   0.2374
  16.900   1.0872   0.11060   0.10380  -0.0200  0.0252  1.0000  -3.9205   0.0000   0.0000   0.0000   0.2373
  17.000   1.0896   0.11153   0.10473  -0.0203  0.0250  1.0000  -3.9566   0.0000   0.0000   0.0000   0.2373
  17.100   1.0918   0.11247   0.10568  -0.0206  0.0247  1.0000  -3.9912   0.0000   0.0000   0.0000   0.2373
  17.200   1.0938   0.11345   0.10667  -0.0209  0.0245  1.0000  -4.0237   0.0000   0.0000   0.0000   0.2373
  17.300   1.0955   0.11447   0.10771  -0.0212  0.0243  1.0000  -4.0544   0.0000   0.0000   0.0000   0.2374
  17.400   1.0969   0.11553   0.10878  -0.0215  0.0241  1.0000  -4.0831   0.0000   0.0000   0.0000   0.2374
  17.500   1.0979   0.11664   0.10992  -0.0219  0.0239  1.0000  -4.1093   0.0000   0.0000   0.0000   0.2375
  17.600   1.0985   0.11784   0.11113  -0.0223  0.0237  1.0000  -4.1325   0.0000   0.0000   0.0000   0.2376
  17.700   1.0984   0.11914   0.11246  -0.0228  0.0235  1.0000  -4.1517   0.0000   0.0000   0.0000   0.2378
  17.800   1.0973   0.12063   0.11398  -0.0233  0.0233  1.0000  -4.1645   0.0000   0.0000   0.0000   0.2381
  17.900   1.0943   0.12246   0.11586  -0.0241  0.0232  1.0000  -4.1655   0.0000   0.0000   0.0000   0.2387
  18.000   1.0596   0.13017   0.12382  -0.0281  0.0239  1.0000  -3.9706   0.0000   0.0000   0.0000   0.2432
  18.100   1.0566   0.13206   0.12575  -0.0290  0.0238  1.0000  -3.9692   0.0000   0.0000   0.0000   0.2439
  18.200   1.0556   0.13357   0.12728  -0.0297  0.0237  1.0000  -3.9800   0.0000   0.0000   0.0000   0.2443
  18.300   1.0554   0.13491   0.12864  -0.0302  0.0235  1.0000  -3.9957   0.0000   0.0000   0.0000   0.2446
  18.400   1.0556   0.13616   0.12990  -0.0307  0.0233  1.0000  -4.0142   0.0000   0.0000   0.0000   0.2449
  18.500   1.0562   0.13733   0.13109  -0.0312  0.0230  1.0000  -4.0347   0.0000   0.0000   0.0000   0.2451
  18.600   1.0600   0.13740   0.13137  -0.0306  0.0253  1.0000  -3.9076   0.0000   0.0000   0.0000   0.2442
  18.700   1.0601   0.13857   0.13258  -0.0310  0.0253  1.0000  -3.9086   0.0000   0.0000   0.0000   0.2443
  18.800   1.0607   0.13968   0.13371  -0.0314  0.0253  1.0000  -3.9206   0.0000   0.0000   0.0000   0.2445
  18.900   1.0618   0.14071   0.13476  -0.0319  0.0252  1.0000  -3.9399   0.0000   0.0000   0.0000   0.2447
  19.000   1.0631   0.14169   0.13576  -0.0324  0.0251  1.0000  -3.9642   0.0000   0.0000   0.0000   0.2448
  19.100   1.0647   0.14263   0.13671  -0.0328  0.0249  1.0000  -3.9919   0.0000   0.0000   0.0000   0.2450
  19.200   1.0664   0.14354   0.13763  -0.0333  0.0247  1.0000  -4.0219   0.0000   0.0000   0.0000   0.2451
  19.300   1.0682   0.14444   0.13853  -0.0337  0.0245  1.0000  -4.0530   0.0000   0.0000   0.0000   0.2452
  19.400   1.0700   0.14534   0.13944  -0.0342  0.0242  1.0000  -4.0841   0.0000   0.0000   0.0000   0.2453
  19.500   1.0717   0.14625   0.14036  -0.0346  0.0240  1.0000  -4.1149   0.0000   0.0000   0.0000   0.2454
  19.600   1.0734   0.14716   0.14128  -0.0350  0.0237  1.0000  -4.1456   0.0000   0.0000   0.0000   0.2455
  19.700   1.0750   0.14807   0.14220  -0.0355  0.0234  1.0000  -4.1759   0.0000   0.0000   0.0000   0.2456
  19.800   1.0766   0.14899   0.14313  -0.0359  0.0231  1.0000  -4.2058   0.0000   0.0000   0.0000   0.2457
  19.900   1.0781   0.14992   0.14408  -0.0364  0.0228  1.0000  -4.2351   0.0000   0.0000   0.0000   0.2458
  20.000   1.0795   0.15087   0.14504  -0.0368  0.0224  1.0000  -4.2638   0.0000   0.0000   0.0000   0.2459
  20.100   1.0808   0.15184   0.14602  -0.0373  0.0221  1.0000  -4.2917   0.0000   0.0000   0.0000   0.2460
  20.200   1.0820   0.15283   0.14702  -0.0377  0.0218  1.0000  -4.3189   0.0000   0.0000   0.0000   0.2462
  20.300   1.0830   0.15387   0.14807  -0.0382  0.0215  1.0000  -4.3446   0.0000   0.0000   0.0000   0.2463
  20.400   1.0839   0.15494   0.14916  -0.0387  0.0212  1.0000  -4.3690   0.0000   0.0000   0.0000   0.2465
  20.500   1.0846   0.15605   0.15029  -0.0392  0.0209  1.0000  -4.3920   0.0000   0.0000   0.0000   0.2467
  20.600   1.0850   0.15721   0.15146  -0.0398  0.0207  1.0000  -4.4134   0.0000   0.0000   0.0000   0.2470
  20.700   1.0852   0.15843   0.15270  -0.0404  0.0204  1.0000  -4.4327   0.0000   0.0000   0.0000   0.2472
  20.800   1.0852   0.15972   0.15401  -0.0410  0.0202  1.0000  -4.4495   0.0000   0.0000   0.0000   0.2476
  20.900   1.0847   0.16110   0.15542  -0.0417  0.0200  1.0000  -4.4630   0.0000   0.0000   0.0000   0.2480
  21.000   1.0838   0.16259   0.15694  -0.0424  0.0198  1.0000  -4.4722   0.0000   0.0000   0.0000   0.2485
  21.100   1.0822   0.16424   0.15862  -0.0432  0.0196  1.0000  -4.4755   0.0000   0.0000   0.0000   0.2491
  21.200   1.0797   0.16612   0.16054  -0.0442  0.0195  1.0000  -4.4697   0.0000   0.0000   0.0000   0.2499
  21.300   1.0712   0.16945   0.16395  -0.0459  0.0195  1.0000  -4.4087   0.0000   0.0000   0.0000   0.2517
  21.400   1.0638   0.17268   0.16725  -0.0476  0.0195  1.0000  -4.3544   0.0000   0.0000   0.0000   0.2535
  21.500   1.0605   0.17493   0.16955  -0.0486  0.0194  1.0000  -4.3363   0.0000   0.0000   0.0000   0.2545
  21.600   1.0578   0.17705   0.17170  -0.0497  0.0193  1.0000  -4.3231   0.0000   0.0000   0.0000   0.2554
  21.700   1.0550   0.17920   0.17389  -0.0507  0.0192  1.0000  -4.3084   0.0000   0.0000   0.0000   0.2563
  21.800   1.0517   0.18150   0.17623  -0.0518  0.0191  1.0000  -4.2877   0.0000   0.0000   0.0000   0.2574
  21.900   1.0473   0.18411   0.17888  -0.0530  0.0190  1.0000  -4.2546   0.0000   0.0000   0.0000   0.2586
  22.000   1.0404   0.18743   0.18227  -0.0545  0.0190  1.0000  -4.1931   0.0000   0.0000   0.0000   0.2604
  22.200   0.9929   0.20432   0.19945  -0.0619  0.0200  1.0000  -3.6691   0.0000   0.0000   0.0000   0.2714
  22.300   0.9843   0.20875   0.20391  -0.0636  0.0200  1.0000  -3.5618   0.0000   0.0000   0.0000   0.2738
  22.400   0.9745   0.21379   0.20900  -0.0655  0.0201  1.0000  -3.4291   0.0000   0.0000   0.0000   0.2765
  22.500   0.9624   0.21997   0.21521  -0.0676  0.0201  1.0000  -3.2516   0.0000   0.0000   0.0000   0.2799
  22.600   0.9535   0.22536   0.22062  -0.0693  0.0201  1.0000  -3.1063   0.0000   0.0000   0.0000   0.2826
  22.700   0.9484   0.22946   0.22473  -0.0705  0.0200  1.0000  -3.0103   0.0000   0.0000   0.0000   0.2844
  22.800   0.9441   0.23335   0.22862  -0.0716  0.0199  1.0000  -2.9236   0.0000   0.0000   0.0000   0.2860
  22.900   0.9402   0.23714   0.23241  -0.0727  0.0199  1.0000  -2.8416   0.0000   0.0000   0.0000   0.2876
  23.000   0.9366   0.24086   0.23614  -0.0738  0.0198  1.0000  -2.7628   0.0000   0.0000   0.0000   0.2890
  23.100   0.9333   0.24453   0.23980  -0.0748  0.0198  1.0000  -2.6869   0.0000   0.0000   0.0000   0.2904
  23.200   0.9303   0.24813   0.24340  -0.0758  0.0198  1.0000  -2.6139   0.0000   0.0000   0.0000   0.2918
  23.300   0.9276   0.25166   0.24693  -0.0768  0.0198  1.0000  -2.5439   0.0000   0.0000   0.0000   0.2931
  23.400   0.9251   0.25512   0.25040  -0.0777  0.0199  1.0000  -2.4770   0.0000   0.0000   0.0000   0.2943
  23.500   0.9229   0.25851   0.25378  -0.0785  0.0200  1.0000  -2.4133   0.0000   0.0000   0.0000   0.2954
  23.600   0.9209   0.26182   0.25709  -0.0793  0.0202  1.0000  -2.3529   0.0000   0.0000   0.0000   0.2965
  23.700   0.9191   0.26505   0.26032  -0.0801  0.0204  1.0000  -2.2960   0.0000   0.0000   0.0000   0.2975
  23.800   0.9175   0.26819   0.26347  -0.0809  0.0207  1.0000  -2.2426   0.0000   0.0000   0.0000   0.2984
  23.900   0.9161   0.27126   0.26654  -0.0816  0.0210  1.0000  -2.1927   0.0000   0.0000   0.0000   0.2992
  24.000   0.9149   0.27425   0.26953  -0.0822  0.0213  1.0000  -2.1462   0.0000   0.0000   0.0000   0.3000
  24.100   0.9137   0.27718   0.27246  -0.0829  0.0217  1.0000  -2.1026   0.0000   0.0000   0.0000   0.3008
  24.200   0.9125   0.28008   0.27537  -0.0834  0.0222  1.0000  -2.0610   0.0000   0.0000   0.0000   0.3014
  24.300   0.9113   0.28301   0.27830  -0.0840  0.0227  1.0000  -2.0197   0.0000   0.0000   0.0000   0.3021
  24.400   0.9096   0.28611   0.28140  -0.0845  0.0233  1.0000  -1.9747   0.0000   0.0000   0.0000   0.3027
  24.500   0.9054   0.29051   0.28580  -0.0849  0.0244  1.0000  -1.8938   0.0000   0.0000   0.0000   0.3037
  25.200   0.8971   0.31492   0.31017  -0.0902  0.0340  1.0000  -1.4947   0.0000   0.0000   0.0000   0.3106
  25.300   0.9011   0.31426   0.30965  -0.0903  0.0329  1.0000  -1.5384   0.0000   0.0000   0.0000   0.3098
  25.400   0.9012   0.31632   0.31171  -0.0907  0.0329  1.0000  -1.5298   0.0000   0.0000   0.0000   0.3101
  25.500   0.9013   0.31836   0.31375  -0.0911  0.0329  1.0000  -1.5222   0.0000   0.0000   0.0000   0.3103
  25.600   0.9014   0.32037   0.31576  -0.0915  0.0328  1.0000  -1.5154   0.0000   0.0000   0.0000   0.3106
  25.700   0.9014   0.32236   0.31776  -0.0918  0.0327  1.0000  -1.5092   0.0000   0.0000   0.0000   0.3108
  25.800   0.9014   0.32433   0.31973  -0.0922  0.0326  1.0000  -1.5035   0.0000   0.0000   0.0000   0.3110
  25.900   0.9014   0.32628   0.32168  -0.0925  0.0326  1.0000  -1.4982   0.0000   0.0000   0.0000   0.3112
  26.000   0.9013   0.32821   0.32362  -0.0928  0.0325  1.0000  -1.4932   0.0000   0.0000   0.0000   0.3113
  26.100   0.9012   0.33013   0.32554  -0.0931  0.0324  1.0000  -1.4884   0.0000   0.0000   0.0000   0.3115
  26.200   0.9010   0.33203   0.32744  -0.0934  0.0323  1.0000  -1.4837   0.0000   0.0000   0.0000   0.3116
  26.300   0.9007   0.33391   0.32932  -0.0936  0.0321  1.0000  -1.4792   0.0000   0.0000   0.0000   0.3118
  26.400   0.9004   0.33577   0.33118  -0.0938  0.0320  1.0000  -1.4747   0.0000   0.0000   0.0000   0.3119
  26.500   0.8999   0.33761   0.33302  -0.0940  0.0319  1.0000  -1.4702   0.0000   0.0000   0.0000   0.3120
  26.600   0.8994   0.33942   0.33484  -0.0942  0.0318  1.0000  -1.4657   0.0000   0.0000   0.0000   0.3121
  26.700   0.8987   0.34121   0.33663  -0.0944  0.0317  1.0000  -1.4611   0.0000   0.0000   0.0000   0.3122
  26.800   0.8980   0.34297   0.33839  -0.0945  0.0316  1.0000  -1.4563   0.0000   0.0000   0.0000   0.3122
  26.900   0.8970   0.34469   0.34012  -0.0946  0.0315  1.0000  -1.4513   0.0000   0.0000   0.0000   0.3123
  27.000   0.8960   0.34637   0.34180  -0.0946  0.0314  1.0000  -1.4461   0.0000   0.0000   0.0000   0.3123
  27.100   0.8947   0.34800   0.34344  -0.0946  0.0314  1.0000  -1.4406   0.0000   0.0000   0.0000   0.3123
  27.200   0.8933   0.34958   0.34501  -0.0945  0.0313  1.0000  -1.4347   0.0000   0.0000   0.0000   0.3122
  27.300   0.8916   0.35109   0.34652  -0.0944  0.0312  1.0000  -1.4286   0.0000   0.0000   0.0000   0.3122
  27.400   0.8897   0.35251   0.34795  -0.0942  0.0311  1.0000  -1.4220   0.0000   0.0000   0.0000   0.3121
  27.500   0.8874   0.35384   0.34928  -0.0940  0.0310  1.0000  -1.4149   0.0000   0.0000   0.0000   0.3119
  27.600   0.8848   0.35504   0.35048  -0.0936  0.0310  1.0000  -1.4074   0.0000   0.0000   0.0000   0.3117
  27.700   0.8819   0.35610   0.35154  -0.0931  0.0309  1.0000  -1.3992   0.0000   0.0000   0.0000   0.3114
  27.800   0.8785   0.35698   0.35243  -0.0925  0.0308  1.0000  -1.3906   0.0000   0.0000   0.0000   0.3110
  27.900   0.8745   0.35766   0.35310  -0.0917  0.0308  1.0000  -1.3812   0.0000   0.0000   0.0000   0.3105
  28.000   0.8700   0.35810   0.35354  -0.0907  0.0307  1.0000  -1.3709   0.0000   0.0000   0.0000   0.3099
  29.800   0.9011   0.39192   0.38904  -0.1920  0.0131  1.0000  -0.8433   0.0000   0.0000   0.0000   0.4202
  29.900   0.9011   0.39323   0.39035  -0.1926  0.0131  1.0000  -0.8338   0.0000   0.0000   0.0000   0.4207
  30.000   0.9009   0.39466   0.39184  -0.1933  0.0130  1.0000  -0.8210   0.0000   0.0000   0.0000   0.4213


