xflr5 v6.61

 Calculated polar for: LISSAMAN 7769 AIRFOIL

 1 1 Reynolds number fixed          Mach number fixed         

 xtrf =   1.000 (top)        1.000 (bottom)
 Mach =   0.000     Re =     0.300 e 6     Ncrit =   9.000

  alpha     CL        CD       CDp       Cm    Top Xtr Bot Xtr   Cpmin    Chinge    XCp    
 ------- -------- --------- --------- -------- ------- ------- -------- --------- ---------
 -10.000  -0.2779   0.11546   0.11111  -0.0111  0.5331  0.0499  -1.1992   0.0000   0.0000   0.0000   0.2015
  -9.900  -0.2753   0.11441   0.11006  -0.0115  0.5325  0.0499  -1.2022   0.0000   0.0000   0.0000   0.1995
  -9.800  -0.2727   0.11335   0.10901  -0.0120  0.5319  0.0499  -1.2051   0.0000   0.0000   0.0000   0.1975
  -9.700  -0.2701   0.11229   0.10796  -0.0124  0.5313  0.0499  -1.2082   0.0000   0.0000   0.0000   0.1955
  -9.600  -0.2676   0.11124   0.10691  -0.0128  0.5306  0.0499  -1.2114   0.0000   0.0000   0.0000   0.1936
  -9.500  -0.2652   0.11019   0.10587  -0.0132  0.5299  0.0499  -1.2147   0.0000   0.0000   0.0000   0.1916
  -9.400  -0.2628   0.10915   0.10483  -0.0137  0.5292  0.0499  -1.2181   0.0000   0.0000   0.0000   0.1896
  -9.300  -0.2605   0.10811   0.10380  -0.0141  0.5285  0.0499  -1.2216   0.0000   0.0000   0.0000   0.1877
  -9.200  -0.2583   0.10708   0.10277  -0.0144  0.5278  0.0499  -1.2253   0.0000   0.0000   0.0000   0.1857
  -9.100  -0.2562   0.10606   0.10175  -0.0148  0.5270  0.0499  -1.2292   0.0000   0.0000   0.0000   0.1838
  -9.000  -0.2541   0.10504   0.10074  -0.0152  0.5262  0.0500  -1.2332   0.0000   0.0000   0.0000   0.1819
  -8.900  -0.2521   0.10403   0.09973  -0.0156  0.5254  0.0500  -1.2374   0.0000   0.0000   0.0000   0.1800
  -8.800  -0.2502   0.10302   0.09874  -0.0159  0.5245  0.0500  -1.2417   0.0000   0.0000   0.0000   0.1782
  -8.700  -0.2484   0.10203   0.09775  -0.0163  0.5236  0.0500  -1.2463   0.0000   0.0000   0.0000   0.1763
  -8.600  -0.2467   0.10104   0.09677  -0.0166  0.5227  0.0500  -1.2510   0.0000   0.0000   0.0000   0.1746
  -8.500  -0.2452   0.10006   0.09581  -0.0170  0.5217  0.0500  -1.2560   0.0000   0.0000   0.0000   0.1729
  -8.400  -0.2437   0.09910   0.09485  -0.0173  0.5207  0.0500  -1.2612   0.0000   0.0000   0.0000   0.1712
  -8.300  -0.2424   0.09813   0.09390  -0.0176  0.5196  0.0500  -1.2667   0.0000   0.0000   0.0000   0.1696
  -8.200  -0.2413   0.09718   0.09295  -0.0179  0.5184  0.0500  -1.2725   0.0000   0.0000   0.0000   0.1681
  -8.100  -0.2403   0.09622   0.09201  -0.0182  0.5172  0.0500  -1.2786   0.0000   0.0000   0.0000   0.1667
  -8.000  -0.2396   0.09528   0.09109  -0.0185  0.5159  0.0500  -1.2851   0.0000   0.0000   0.0000   0.1654
  -7.900  -0.2391   0.09436   0.09018  -0.0187  0.5144  0.0501  -1.2920   0.0000   0.0000   0.0000   0.1642
  -7.800  -0.2388   0.09346   0.08930  -0.0190  0.5128  0.0501  -1.2994   0.0000   0.0000   0.0000   0.1632
  -7.700  -0.2389   0.09259   0.08845  -0.0192  0.5110  0.0501  -1.3072   0.0000   0.0000   0.0000   0.1624
  -7.600  -0.2685   0.08478   0.08069  -0.0207  0.5129  0.0516  -1.5160   0.0000   0.0000   0.0000   0.1663
  -7.500  -0.2703   0.08326   0.07920  -0.0207  0.5112  0.0521  -1.5261   0.0000   0.0000   0.0000   0.1668
  -7.400  -0.2717   0.08219   0.07816  -0.0207  0.5090  0.0523  -1.5299   0.0000   0.0000   0.0000   0.1674
  -7.300  -0.2732   0.08136   0.07737  -0.0206  0.5060  0.0526  -1.5326   0.0000   0.0000   0.0000   0.1682
  -7.200  -0.2726   0.08097   0.07707  -0.0208  0.4999  0.0528  -1.5273   0.0000   0.0000   0.0000   0.1674
  -7.100  -0.2721   0.08006   0.07615  -0.0205  0.4997  0.0530  -1.5198   0.0000   0.0000   0.0000   0.1684
  -7.000  -0.2712   0.07915   0.07524  -0.0203  0.4995  0.0532  -1.5118   0.0000   0.0000   0.0000   0.1692
  -6.900  -0.2698   0.07821   0.07430  -0.0201  0.4994  0.0535  -1.5025   0.0000   0.0000   0.0000   0.1695
  -6.800  -0.2676   0.07724   0.07333  -0.0201  0.4992  0.0537  -1.4922   0.0000   0.0000   0.0000   0.1691
  -6.700  -0.2652   0.07629   0.07237  -0.0201  0.4990  0.0540  -1.4808   0.0000   0.0000   0.0000   0.1686
  -6.600  -0.2626   0.07535   0.07142  -0.0200  0.4988  0.0542  -1.4689   0.0000   0.0000   0.0000   0.1681
  -6.500  -0.2599   0.07441   0.07048  -0.0200  0.4985  0.0545  -1.4575   0.0000   0.0000   0.0000   0.1675
  -6.400  -0.2573   0.07347   0.06954  -0.0200  0.4983  0.0547  -1.4467   0.0000   0.0000   0.0000   0.1667
  -6.300  -0.2546   0.07254   0.06859  -0.0201  0.4980  0.0550  -1.4362   0.0000   0.0000   0.0000   0.1658
  -6.200  -0.2519   0.07160   0.06765  -0.0201  0.4977  0.0553  -1.4261   0.0000   0.0000   0.0000   0.1648
  -6.100  -0.2490   0.07067   0.06671  -0.0202  0.4974  0.0557  -1.4158   0.0000   0.0000   0.0000   0.1637
  -6.000  -0.2461   0.06972   0.06575  -0.0203  0.4971  0.0560  -1.4068   0.0000   0.0000   0.0000   0.1624
  -5.900  -0.2431   0.06876   0.06477  -0.0205  0.4967  0.0563  -1.3984   0.0000   0.0000   0.0000   0.1608
  -5.800  -0.2399   0.06779   0.06379  -0.0207  0.4963  0.0567  -1.3903   0.0000   0.0000   0.0000   0.1589
  -5.700  -0.2365   0.06680   0.06279  -0.0209  0.4959  0.0570  -1.3823   0.0000   0.0000   0.0000   0.1567
  -5.600  -0.2329   0.06582   0.06179  -0.0212  0.4954  0.0574  -1.3746   0.0000   0.0000   0.0000   0.1544
  -5.500  -0.2292   0.06483   0.06079  -0.0214  0.4949  0.0579  -1.3671   0.0000   0.0000   0.0000   0.1519
  -5.400  -0.2253   0.06384   0.05977  -0.0217  0.4944  0.0583  -1.3598   0.0000   0.0000   0.0000   0.1491
  -5.300  -0.2211   0.06283   0.05874  -0.0220  0.4938  0.0588  -1.3526   0.0000   0.0000   0.0000   0.1459
  -5.200  -0.2166   0.06181   0.05770  -0.0224  0.4932  0.0593  -1.3456   0.0000   0.0000   0.0000   0.1422
  -5.100  -0.2118   0.06077   0.05664  -0.0228  0.4925  0.0599  -1.3387   0.0000   0.0000   0.0000   0.1381
  -5.000  -0.2066   0.05973   0.05557  -0.0232  0.4917  0.0605  -1.3320   0.0000   0.0000   0.0000   0.1334
  -4.900  -0.2012   0.05867   0.05449  -0.0236  0.4908  0.0612  -1.3255   0.0000   0.0000   0.0000   0.1282
  -4.800  -0.1956   0.05762   0.05340  -0.0241  0.4899  0.0619  -1.3194   0.0000   0.0000   0.0000   0.1226
  -4.700  -0.1898   0.05657   0.05231  -0.0245  0.4889  0.0627  -1.3137   0.0000   0.0000   0.0000   0.1164
  -4.600  -0.1836   0.05550   0.05122  -0.0250  0.4877  0.0636  -1.3084   0.0000   0.0000   0.0000   0.1094
  -4.500  -0.1770   0.05443   0.05011  -0.0255  0.4864  0.0645  -1.3036   0.0000   0.0000   0.0000   0.1014
  -4.400  -0.1700   0.05336   0.04899  -0.0261  0.4851  0.0656  -1.2997   0.0000   0.0000   0.0000   0.0920
  -4.300  -0.1624   0.05228   0.04787  -0.0267  0.4835  0.0669  -1.2972   0.0000   0.0000   0.0000   0.0810
  -4.200  -0.1541   0.05125   0.04677  -0.0273  0.4818  0.0683  -1.2958   0.0000   0.0000   0.0000   0.0678
  -4.100  -0.1449   0.05036   0.04582  -0.0280  0.4800  0.0701  -1.2981   0.0000   0.0000   0.0000   0.0514
  -4.000  -0.1308   0.05059   0.04590  -0.0290  0.4777  0.0730  -1.3059   0.0000   0.0000   0.0000   0.0226
  -3.900  -0.1179   0.05107   0.04629  -0.0292  0.4752  0.0741  -1.2880   0.0000   0.0000   0.0000  -0.0043
  -3.800  -0.1080   0.05075   0.04590  -0.0295  0.4730  0.0745  -1.2763   0.0000   0.0000   0.0000  -0.0294
  -3.700  -0.0988   0.05017   0.04524  -0.0297  0.4708  0.0747  -1.2668   0.0000   0.0000   0.0000  -0.0577
  -3.600  -0.0898   0.04947   0.04448  -0.0299  0.4686  0.0748  -1.2582   0.0000   0.0000   0.0000  -0.0912
  -3.500  -0.0808   0.04871   0.04365  -0.0301  0.4667  0.0749  -1.2500   0.0000   0.0000   0.0000  -0.1321
  -3.400  -0.0717   0.04791   0.04279  -0.0304  0.4648  0.0750  -1.2418   0.0000   0.0000   0.0000  -0.1835
  -3.300  -0.0729   0.04139   0.03609  -0.0322  0.4643  0.0769  -1.3519   0.0000   0.0000   0.0000  -0.2019
  -3.200  -0.0663   0.03960   0.03430  -0.0325  0.4626  0.0781  -1.3364   0.0000   0.0000   0.0000  -0.2521
  -3.100  -0.0575   0.03878   0.03350  -0.0326  0.4610  0.0788  -1.3049   0.0000   0.0000   0.0000  -0.3289
  -3.000  -0.0485   0.03815   0.03289  -0.0326  0.4595  0.0794  -1.2714   0.0000   0.0000   0.0000  -0.4374
  -2.900  -0.0392   0.03759   0.03236  -0.0327  0.4581  0.0801  -1.2384   0.0000   0.0000   0.0000  -0.5997
  -2.800  -0.0298   0.03710   0.03188  -0.0327  0.4569  0.0809  -1.2062   0.0000   0.0000   0.0000  -0.8681
  -2.700  -0.0203   0.03665   0.03144  -0.0328  0.4559  0.0817  -1.1752   0.0000   0.0000   0.0000  -1.3969
  -2.600  -0.0106   0.03622   0.03102  -0.0329  0.4549  0.0826  -1.1454   0.0000   0.0000   0.0000  -2.9183
  -2.500  -0.0007   0.03583   0.03062  -0.0330  0.4541  0.0837  -1.1169   0.0000   0.0000   0.0000  -50.4807
  -2.400   0.0094   0.03545   0.03025  -0.0331  0.4533  0.0849  -1.0899   0.0000   0.0000   0.0000   3.8146
  -2.300   0.0198   0.03511   0.02990  -0.0333  0.4527  0.0862  -1.0642   0.0000   0.0000   0.0000   1.9586
  -2.200   0.0304   0.03482   0.02959  -0.0334  0.4521  0.0877  -1.0397   0.0000   0.0000   0.0000   1.3672
  -2.100   0.0412   0.03459   0.02935  -0.0336  0.4516  0.0894  -1.0159   0.0000   0.0000   0.0000   1.0761
  -2.000   0.0524   0.03446   0.02920  -0.0337  0.4512  0.0912  -0.9922   0.0000   0.0000   0.0000   0.9024
  -1.900   0.0638   0.03448   0.02921  -0.0338  0.4508  0.0930  -0.9676   0.0000   0.0000   0.0000   0.7866
  -1.800   0.0756   0.03470   0.02942  -0.0338  0.4505  0.0949  -0.9406   0.0000   0.0000   0.0000   0.7038
  -1.700   0.0876   0.03519   0.02990  -0.0338  0.4503  0.0966  -0.9099   0.0000   0.0000   0.0000   0.6411
  -1.600   0.0999   0.03602   0.03074  -0.0337  0.4501  0.0981  -0.8744   0.0000   0.0000   0.0000   0.5918
  -1.500   0.1120   0.03679   0.03150  -0.0337  0.4500  0.0991  -0.8409   0.0000   0.0000   0.0000   0.5543
  -1.000   0.1676   0.02129   0.01421  -0.0350  0.4499  0.0547  -1.2707   0.0000   0.0000   0.0000   0.4633
  -0.900   0.1791   0.02143   0.01432  -0.0351  0.4500  0.0530  -1.2445   0.0000   0.0000   0.0000   0.4501
  -0.800   0.1903   0.02170   0.01462  -0.0353  0.4503  0.0520  -1.2085   0.0000   0.0000   0.0000   0.4390
  -0.700   0.2015   0.02204   0.01499  -0.0355  0.4505  0.0513  -1.1700   0.0000   0.0000   0.0000   0.4294
  -0.600   0.2127   0.02242   0.01542  -0.0357  0.4509  0.0507  -1.1304   0.0000   0.0000   0.0000   0.4209
  -0.500   0.2236   0.02182   0.01473  -0.0359  0.4513  0.0491  -1.1360   0.0000   0.0000   0.0000   0.4131
  -0.400   0.2345   0.02142   0.01426  -0.0360  0.4517  0.0482  -1.1337   0.0000   0.0000   0.0000   0.4061
  -0.300   0.2453   0.02131   0.01411  -0.0362  0.4522  0.0474  -1.1203   0.0000   0.0000   0.0000   0.3999
  -0.200   0.2561   0.02133   0.01411  -0.0364  0.4528  0.0468  -1.1026   0.0000   0.0000   0.0000   0.3944
  -0.100   0.2668   0.02145   0.01421  -0.0367  0.4534  0.0462  -1.0825   0.0000   0.0000   0.0000   0.3895
   0.000   0.2773   0.02164   0.01439  -0.0370  0.4542  0.0456  -1.0606   0.0000   0.0000   0.0000   0.3851
   0.100   0.2878   0.02189   0.01463  -0.0373  0.4550  0.0451  -1.0375   0.0000   0.0000   0.0000   0.3811
   0.200   0.2982   0.02220   0.01495  -0.0376  0.4560  0.0446  -1.0133   0.0000   0.0000   0.0000   0.3776
   0.300   0.3085   0.02261   0.01537  -0.0380  0.4570  0.0442  -0.9883   0.0000   0.0000   0.0000   0.3747
   0.400   0.3189   0.02283   0.01559  -0.0383  0.4573  0.0437  -0.9618   0.0000   0.0000   0.0000   0.3712
   0.500   0.3294   0.02286   0.01560  -0.0383  0.4568  0.0433  -0.9338   0.0000   0.0000   0.0000   0.3672
   0.600   0.3399   0.02285   0.01557  -0.0382  0.4560  0.0430  -0.9049   0.0000   0.0000   0.0000   0.3632
   0.700   0.3505   0.02283   0.01554  -0.0382  0.4552  0.0426  -0.8752   0.0000   0.0000   0.0000   0.3594
   0.800   0.3611   0.02284   0.01553  -0.0381  0.4545  0.0423  -0.8449   0.0000   0.0000   0.0000   0.3559
   0.900   0.3717   0.02291   0.01559  -0.0381  0.4539  0.0420  -0.8416   0.0000   0.0000   0.0000   0.3528
   1.000   0.3820   0.02322   0.01591  -0.0383  0.4540  0.0418  -0.8496   0.0000   0.0000   0.0000   0.3505
   1.100   0.3919   0.02373   0.01643  -0.0387  0.4547  0.0416  -0.8564   0.0000   0.0000   0.0000   0.3489
   1.200   0.4017   0.02426   0.01698  -0.0392  0.4554  0.0414  -0.8629   0.0000   0.0000   0.0000   0.3474
   1.300   0.4114   0.02482   0.01754  -0.0396  0.4562  0.0413  -0.8693   0.0000   0.0000   0.0000   0.3460
   1.400   0.4209   0.02539   0.01812  -0.0400  0.4569  0.0413  -0.8756   0.0000   0.0000   0.0000   0.3447
   1.500   0.4302   0.02597   0.01872  -0.0404  0.4576  0.0413  -0.8817   0.0000   0.0000   0.0000   0.3435
   1.600   0.4391   0.02666   0.01960  -0.0409  0.4586  0.0426  -0.8868   0.0000   0.0000   0.0000   0.3426
   1.700   0.4481   0.02728   0.02022  -0.0413  0.4593  0.0428  -0.8935   0.0000   0.0000   0.0000   0.3416
   1.800   0.4568   0.02790   0.02084  -0.0417  0.4599  0.0430  -0.9018   0.0000   0.0000   0.0000   0.3406
   1.900   0.4655   0.02852   0.02146  -0.0421  0.4605  0.0433  -0.9099   0.0000   0.0000   0.0000   0.3396
   2.000   0.4739   0.02913   0.02207  -0.0425  0.4610  0.0437  -0.9180   0.0000   0.0000   0.0000   0.3386
   2.100   0.4822   0.02973   0.02268  -0.0428  0.4615  0.0442  -0.9260   0.0000   0.0000   0.0000   0.3376
   2.200   0.4905   0.03027   0.02322  -0.0430  0.4617  0.0449  -0.9344   0.0000   0.0000   0.0000   0.3365
   2.300   0.4993   0.03066   0.02362  -0.0432  0.4615  0.0458  -0.9439   0.0000   0.0000   0.0000   0.3351
   2.400   0.5086   0.03093   0.02390  -0.0432  0.4608  0.0471  -0.9543   0.0000   0.0000   0.0000   0.3335
   2.500   0.5182   0.03109   0.02408  -0.0432  0.4598  0.0487  -0.9657   0.0000   0.0000   0.0000   0.3317
   2.600   0.5277   0.03101   0.02421  -0.0431  0.4586  0.0965  -0.9773   0.0000   0.0000   0.0000   0.3299
   2.700   0.5375   0.03095   0.02429  -0.0430  0.4572  0.1339  -0.9895   0.0000   0.0000   0.0000   0.3281
   2.800   0.5476   0.03095   0.02432  -0.0429  0.4558  0.1461  -1.0022   0.0000   0.0000   0.0000   0.3262
   2.900   0.5577   0.03100   0.02437  -0.0427  0.4545  0.1500  -1.0149   0.0000   0.0000   0.0000   0.3244
   3.000   0.5675   0.03111   0.02451  -0.0426  0.4533  0.1603  -1.0269   0.0000   0.0000   0.0000   0.3228
   3.100   0.5764   0.03135   0.02481  -0.0426  0.4526  0.1712  -1.0376   0.0000   0.0000   0.0000   0.3215
   3.200   0.5848   0.03170   0.02523  -0.0427  0.4521  0.1805  -1.0470   0.0000   0.0000   0.0000   0.3205
   3.300   0.5931   0.03204   0.02562  -0.0428  0.4515  0.1896  -1.0567   0.0000   0.0000   0.0000   0.3195
   3.400   0.6016   0.03234   0.02596  -0.0428  0.4508  0.1995  -1.0666   0.0000   0.0000   0.0000   0.3184
   3.500   0.6099   0.03252   0.02626  -0.0428  0.4500  0.2555  -1.0767   0.0000   0.0000   0.0000   0.3173
   3.600   0.6167   0.03232   0.02658  -0.0427  0.4492  0.4477  -1.0857   0.0000   0.0000   0.0000   0.3162
   3.800   0.6507   0.03134   0.02689  -0.0449  0.4470  1.0000  -1.1228   0.0000   0.0000   0.0000   0.3156
   3.900   0.6598   0.03150   0.02704  -0.0447  0.4459  1.0000  -1.1345   0.0000   0.0000   0.0000   0.3142
   4.000   0.6691   0.03162   0.02715  -0.0444  0.4448  1.0000  -1.1465   0.0000   0.0000   0.0000   0.3128
   4.100   0.6785   0.03171   0.02723  -0.0442  0.4437  1.0000  -1.1590   0.0000   0.0000   0.0000   0.3114
   4.200   0.6882   0.03175   0.02726  -0.0439  0.4425  1.0000  -1.1765   0.0000   0.0000   0.0000   0.3099
   4.300   0.6981   0.03177   0.02726  -0.0435  0.4414  1.0000  -1.1957   0.0000   0.0000   0.0000   0.3084
   4.400   0.7082   0.03174   0.02722  -0.0432  0.4402  1.0000  -1.2153   0.0000   0.0000   0.0000   0.3069
   4.500   0.7185   0.03169   0.02715  -0.0428  0.4390  1.0000  -1.2354   0.0000   0.0000   0.0000   0.3054
   4.600   0.7286   0.03164   0.02709  -0.0425  0.4378  1.0000  -1.2554   0.0000   0.0000   0.0000   0.3039
   4.700   0.7389   0.03158   0.02701  -0.0421  0.4366  1.0000  -1.2757   0.0000   0.0000   0.0000   0.3025
   4.800   0.7494   0.03149   0.02691  -0.0417  0.4354  1.0000  -1.2963   0.0000   0.0000   0.0000   0.3011
   4.900   0.7601   0.03137   0.02677  -0.0414  0.4341  1.0000  -1.3174   0.0000   0.0000   0.0000   0.2997
   5.000   0.7710   0.03123   0.02661  -0.0410  0.4329  1.0000  -1.3389   0.0000   0.0000   0.0000   0.2983
   5.100   0.7821   0.03106   0.02643  -0.0406  0.4318  1.0000  -1.3608   0.0000   0.0000   0.0000   0.2969
   5.200   0.7933   0.03087   0.02623  -0.0402  0.4306  1.0000  -1.3830   0.0000   0.0000   0.0000   0.2955
   5.300   0.8046   0.03067   0.02601  -0.0398  0.4295  1.0000  -1.4055   0.0000   0.0000   0.0000   0.2942
   5.400   0.8162   0.03042   0.02574  -0.0394  0.4283  1.0000  -1.4287   0.0000   0.0000   0.0000   0.2928
   5.500   0.8290   0.02993   0.02522  -0.0388  0.4270  1.0000  -1.4544   0.0000   0.0000   0.0000   0.2912
   5.600   0.8429   0.02923   0.02448  -0.0381  0.4254  1.0000  -1.4823   0.0000   0.0000   0.0000   0.2895
   5.700   0.8572   0.02836   0.02357  -0.0373  0.4237  1.0000  -1.5115   0.0000   0.0000   0.0000   0.2877
   5.800   0.8716   0.02746   0.02261  -0.0366  0.4217  1.0000  -1.5412   0.0000   0.0000   0.0000   0.2859
   5.900   0.8858   0.02667   0.02176  -0.0359  0.4193  1.0000  -1.5704   0.0000   0.0000   0.0000   0.2843
   6.000   0.8984   0.02620   0.02125  -0.0353  0.4166  1.0000  -1.5966   0.0000   0.0000   0.0000   0.2830
   6.100   0.9083   0.02627   0.02129  -0.0349  0.4135  1.0000  -1.6178   0.0000   0.0000   0.0000   0.2820
   6.200   0.9137   0.02721   0.02226  -0.0346  0.4098  1.0000  -1.6309   0.0000   0.0000   0.0000   0.2813
   6.400   0.8893   0.03437   0.02963  -0.0343  0.3989  1.0000  -1.5997   0.0000   0.0000   0.0000   0.2818
   6.500   0.9020   0.03391   0.02916  -0.0341  0.3987  1.0000  -1.6249   0.0000   0.0000   0.0000   0.2809
   6.600   0.9147   0.03346   0.02871  -0.0339  0.3984  1.0000  -1.6502   0.0000   0.0000   0.0000   0.2800
   6.700   0.9274   0.03302   0.02826  -0.0338  0.3981  1.0000  -1.6756   0.0000   0.0000   0.0000   0.2792
   6.800   0.9402   0.03257   0.02781  -0.0336  0.3979  1.0000  -1.7012   0.0000   0.0000   0.0000   0.2784
   6.900   0.9530   0.03213   0.02736  -0.0334  0.3975  1.0000  -1.7269   0.0000   0.0000   0.0000   0.2776
   7.000   0.9658   0.03169   0.02692  -0.0333  0.3972  1.0000  -1.7527   0.0000   0.0000   0.0000   0.2768
   7.100   0.9787   0.03125   0.02647  -0.0331  0.3969  1.0000  -1.7787   0.0000   0.0000   0.0000   0.2760
   7.200   0.9916   0.03080   0.02602  -0.0330  0.3965  1.0000  -1.8048   0.0000   0.0000   0.0000   0.2753
   7.300   1.0045   0.03035   0.02557  -0.0328  0.3961  1.0000  -1.8371   0.0000   0.0000   0.0000   0.2746
   7.400   1.0175   0.02990   0.02511  -0.0327  0.3957  1.0000  -1.8839   0.0000   0.0000   0.0000   0.2738
   7.500   1.0305   0.02944   0.02465  -0.0325  0.3953  1.0000  -1.9312   0.0000   0.0000   0.0000   0.2731
   7.600   1.0435   0.02898   0.02419  -0.0324  0.3948  1.0000  -1.9790   0.0000   0.0000   0.0000   0.2725
   7.700   1.0566   0.02851   0.02372  -0.0323  0.3943  1.0000  -2.0274   0.0000   0.0000   0.0000   0.2718
   7.800   1.0707   0.02789   0.02309  -0.0321  0.3937  1.0000  -2.0787   0.0000   0.0000   0.0000   0.2711
   7.900   1.0885   0.02662   0.02179  -0.0320  0.3928  1.0000  -2.1410   0.0000   0.0000   0.0000   0.2703
   8.000   1.1114   0.02449   0.01957  -0.0318  0.3913  1.0000  -2.2180   0.0000   0.0000   0.0000   0.2693
   8.100   1.1364   0.02185   0.01680  -0.0315  0.3885  1.0000  -2.3024   0.0000   0.0000   0.0000   0.2682
   8.200   1.1585   0.01964   0.01446  -0.0313  0.3846  1.0000  -2.3797   0.0000   0.0000   0.0000   0.2673
   8.300   1.1765   0.01814   0.01287  -0.0311  0.3798  1.0000  -2.4464   0.0000   0.0000   0.0000   0.2665
   8.400   1.1914   0.01727   0.01194  -0.0309  0.3747  1.0000  -2.5042   0.0000   0.0000   0.0000   0.2658
   8.500   1.2055   0.01656   0.01117  -0.0308  0.3685  1.0000  -2.5601   0.0000   0.0000   0.0000   0.2653
   8.600   1.2192   0.01591   0.01046  -0.0306  0.3612  1.0000  -2.6154   0.0000   0.0000   0.0000   0.2647
   8.700   1.2324   0.01533   0.00978  -0.0305  0.3513  1.0000  -2.6701   0.0000   0.0000   0.0000   0.2641
   8.800   1.2453   0.01475   0.00905  -0.0303  0.3369  1.0000  -2.7246   0.0000   0.0000   0.0000   0.2635
   8.900   1.2573   0.01420   0.00823  -0.0299  0.3156  1.0000  -2.7779   0.0000   0.0000   0.0000   0.2628
   9.000   1.2668   0.01416   0.00805  -0.0297  0.2961  1.0000  -2.8234   0.0000   0.0000   0.0000   0.2622
   9.100   1.2762   0.01430   0.00812  -0.0295  0.2855  1.0000  -2.8682   0.0000   0.0000   0.0000   0.2618
   9.200   1.2852   0.01449   0.00823  -0.0294  0.2738  1.0000  -2.9122   0.0000   0.0000   0.0000   0.2614
   9.300   1.2935   0.01474   0.00837  -0.0292  0.2612  1.0000  -2.9548   0.0000   0.0000   0.0000   0.2609
   9.400   1.3012   0.01505   0.00854  -0.0290  0.2481  1.0000  -2.9963   0.0000   0.0000   0.0000   0.2604
  10.100   1.2485   0.02411   0.01678  -0.0205  0.0818  1.0000  -3.0897   0.0000   0.0000   0.0000   0.2535
  10.200   1.2392   0.02513   0.01791  -0.0193  0.0851  1.0000  -3.0838   0.0000   0.0000   0.0000   0.2524
  10.300   1.2299   0.02630   0.01918  -0.0184  0.0891  1.0000  -3.0770   0.0000   0.0000   0.0000   0.2516
  10.400   1.2207   0.02743   0.02036  -0.0173  0.0907  1.0000  -3.0713   0.0000   0.0000   0.0000   0.2507
  10.500   1.2115   0.02855   0.02152  -0.0163  0.0909  1.0000  -3.0660   0.0000   0.0000   0.0000   0.2497
  10.600   1.2023   0.02970   0.02271  -0.0152  0.0908  1.0000  -3.0608   0.0000   0.0000   0.0000   0.2488
  10.700   1.1932   0.03091   0.02397  -0.0144  0.0915  1.0000  -3.0549   0.0000   0.0000   0.0000   0.2480
  10.800   1.1842   0.03224   0.02539  -0.0137  0.0956  1.0000  -3.0460   0.0000   0.0000   0.0000   0.2474
  12.200   1.0731   0.05080   0.04346  -0.0076  0.0260  1.0000  -3.0260   0.0000   0.0000   0.0000   0.2403
  12.300   1.0738   0.05162   0.04427  -0.0074  0.0232  1.0000  -3.0894   0.0000   0.0000   0.0000   0.2400
  12.400   1.0741   0.05250   0.04516  -0.0073  0.0216  1.0000  -3.1444   0.0000   0.0000   0.0000   0.2396
  12.500   1.0739   0.05347   0.04612  -0.0072  0.0205  1.0000  -3.1916   0.0000   0.0000   0.0000   0.2394
  12.600   1.0731   0.05455   0.04720  -0.0072  0.0197  1.0000  -3.2317   0.0000   0.0000   0.0000   0.2392
  12.700   1.0708   0.05586   0.04853  -0.0073  0.0191  1.0000  -3.2597   0.0000   0.0000   0.0000   0.2391
  12.800   1.0214   0.06547   0.05957  -0.0125  0.0899  1.0000  -2.8870   0.0000   0.0000   0.0000   0.2446
  12.900   1.0141   0.06742   0.06153  -0.0130  0.0872  1.0000  -2.8783   0.0000   0.0000   0.0000   0.2449
  13.000   1.0066   0.06933   0.06336  -0.0134  0.0802  1.0000  -2.8711   0.0000   0.0000   0.0000   0.2453
  13.100   0.9993   0.07122   0.06512  -0.0138  0.0714  1.0000  -2.8647   0.0000   0.0000   0.0000   0.2456
  13.200   0.9919   0.07305   0.06674  -0.0141  0.0541  1.0000  -2.8599   0.0000   0.0000   0.0000   0.2459
  13.300   0.9861   0.07471   0.06814  -0.0143  0.0383  1.0000  -2.8722   0.0000   0.0000   0.0000   0.2460
  13.400   0.9864   0.07575   0.06907  -0.0143  0.0245  1.0000  -2.9216   0.0000   0.0000   0.0000   0.2457
  13.500   0.9883   0.07661   0.06993  -0.0143  0.0222  1.0000  -2.9973   0.0000   0.0000   0.0000   0.2455
  13.600   0.9901   0.07748   0.07077  -0.0143  0.0207  1.0000  -3.0611   0.0000   0.0000   0.0000   0.2453
  13.700   0.9921   0.07835   0.07162  -0.0144  0.0195  1.0000  -3.1196   0.0000   0.0000   0.0000   0.2451
  13.800   0.9944   0.07920   0.07245  -0.0144  0.0186  1.0000  -3.1748   0.0000   0.0000   0.0000   0.2450
  13.900   0.9970   0.08001   0.07327  -0.0144  0.0179  1.0000  -3.2277   0.0000   0.0000   0.0000   0.2447
  14.000   0.9999   0.08081   0.07407  -0.0145  0.0173  1.0000  -3.2783   0.0000   0.0000   0.0000   0.2445
  14.100   1.0028   0.08159   0.07489  -0.0145  0.0169  1.0000  -3.3265   0.0000   0.0000   0.0000   0.2443
  14.200   1.0059   0.08238   0.07570  -0.0146  0.0165  1.0000  -3.3728   0.0000   0.0000   0.0000   0.2441
  14.300   1.0089   0.08317   0.07651  -0.0146  0.0162  1.0000  -3.4177   0.0000   0.0000   0.0000   0.2439
  14.400   1.0119   0.08395   0.07732  -0.0147  0.0160  1.0000  -3.4614   0.0000   0.0000   0.0000   0.2437
  14.500   1.0150   0.08474   0.07813  -0.0148  0.0158  1.0000  -3.5041   0.0000   0.0000   0.0000   0.2436
  14.600   1.0180   0.08553   0.07894  -0.0148  0.0156  1.0000  -3.5461   0.0000   0.0000   0.0000   0.2434
  14.700   1.0211   0.08630   0.07974  -0.0149  0.0154  1.0000  -3.5877   0.0000   0.0000   0.0000   0.2432
  14.800   1.0242   0.08707   0.08053  -0.0150  0.0153  1.0000  -3.6290   0.0000   0.0000   0.0000   0.2430
  14.900   1.0274   0.08784   0.08133  -0.0151  0.0153  1.0000  -3.6700   0.0000   0.0000   0.0000   0.2429
  15.000   1.0305   0.08861   0.08212  -0.0152  0.0152  1.0000  -3.7108   0.0000   0.0000   0.0000   0.2427
  15.100   1.0336   0.08939   0.08293  -0.0153  0.0151  1.0000  -3.7512   0.0000   0.0000   0.0000   0.2426
  15.200   1.0367   0.09019   0.08375  -0.0154  0.0151  1.0000  -3.7913   0.0000   0.0000   0.0000   0.2424
  15.300   1.0399   0.09099   0.08458  -0.0155  0.0151  1.0000  -3.8315   0.0000   0.0000   0.0000   0.2423
  15.400   1.0430   0.09180   0.08541  -0.0156  0.0151  1.0000  -3.8719   0.0000   0.0000   0.0000   0.2421
  15.500   1.0463   0.09260   0.08623  -0.0157  0.0151  1.0000  -3.9127   0.0000   0.0000   0.0000   0.2419
  15.600   1.0496   0.09340   0.08706  -0.0158  0.0152  1.0000  -3.9534   0.0000   0.0000   0.0000   0.2418
  15.700   1.0530   0.09421   0.08790  -0.0159  0.0152  1.0000  -3.9943   0.0000   0.0000   0.0000   0.2416
  15.800   1.0563   0.09502   0.08874  -0.0161  0.0153  1.0000  -4.0351   0.0000   0.0000   0.0000   0.2415
  15.900   1.0597   0.09584   0.08958  -0.0162  0.0154  1.0000  -4.0758   0.0000   0.0000   0.0000   0.2413
  16.000   1.0631   0.09666   0.09043  -0.0163  0.0155  1.0000  -4.1163   0.0000   0.0000   0.0000   0.2412
  16.100   1.0665   0.09749   0.09128  -0.0164  0.0156  1.0000  -4.1564   0.0000   0.0000   0.0000   0.2410
  16.200   1.0699   0.09833   0.09216  -0.0165  0.0157  1.0000  -4.1956   0.0000   0.0000   0.0000   0.2408
  16.300   1.0733   0.09918   0.09305  -0.0167  0.0159  1.0000  -4.2334   0.0000   0.0000   0.0000   0.2407
  16.400   1.0766   0.10004   0.09396  -0.0168  0.0161  1.0000  -4.2694   0.0000   0.0000   0.0000   0.2405
  16.500   1.0800   0.10091   0.09488  -0.0169  0.0164  1.0000  -4.3023   0.0000   0.0000   0.0000   0.2403
  16.600   1.0833   0.10180   0.09582  -0.0169  0.0167  1.0000  -4.3301   0.0000   0.0000   0.0000   0.2401
  16.700   1.0865   0.10273   0.09683  -0.0169  0.0171  1.0000  -4.3495   0.0000   0.0000   0.0000   0.2399
  16.800   1.0891   0.10380   0.09801  -0.0169  0.0176  1.0000  -4.3560   0.0000   0.0000   0.0000   0.2396
  16.900   1.0907   0.10509   0.09944  -0.0170  0.0182  1.0000  -4.3483   0.0000   0.0000   0.0000   0.2394
  17.000   1.0908   0.10668   0.10117  -0.0171  0.0189  1.0000  -4.3286   0.0000   0.0000   0.0000   0.2394
  17.100   1.0892   0.10862   0.10326  -0.0176  0.0196  1.0000  -4.2987   0.0000   0.0000   0.0000   0.2396
  17.200   1.0855   0.11097   0.10576  -0.0183  0.0202  1.0000  -4.2594   0.0000   0.0000   0.0000   0.2402
  17.300   1.0801   0.11362   0.10854  -0.0194  0.0207  1.0000  -4.2161   0.0000   0.0000   0.0000   0.2412
  17.400   1.0730   0.11659   0.11162  -0.0209  0.0210  1.0000  -4.1710   0.0000   0.0000   0.0000   0.2425
  17.500   1.0633   0.12003   0.11514  -0.0229  0.0209  1.0000  -4.1273   0.0000   0.0000   0.0000   0.2445
  17.600   1.0468   0.12515   0.12026  -0.0266  0.0200  1.0000  -4.0809   0.0000   0.0000   0.0000   0.2483
  17.700   1.0408   0.12802   0.12323  -0.0280  0.0204  1.0000  -4.0351   0.0000   0.0000   0.0000   0.2496
  17.800   1.0351   0.13082   0.12613  -0.0293  0.0208  1.0000  -3.9863   0.0000   0.0000   0.0000   0.2509
  17.900   1.0292   0.13367   0.12908  -0.0307  0.0212  1.0000  -3.9336   0.0000   0.0000   0.0000   0.2523
  18.000   1.0229   0.13664   0.13216  -0.0321  0.0216  1.0000  -3.8760   0.0000   0.0000   0.0000   0.2538
  18.100   1.0161   0.13977   0.13538  -0.0337  0.0220  1.0000  -3.8130   0.0000   0.0000   0.0000   0.2555
  18.200   1.0085   0.14309   0.13880  -0.0355  0.0223  1.0000  -3.7446   0.0000   0.0000   0.0000   0.2575
  18.300   1.0003   0.14652   0.14231  -0.0374  0.0226  1.0000  -3.6717   0.0000   0.0000   0.0000   0.2596
  18.400   0.9916   0.14998   0.14585  -0.0395  0.0228  1.0000  -3.5956   0.0000   0.0000   0.0000   0.2621
  18.500   0.9823   0.15369   0.14962  -0.0417  0.0228  1.0000  -3.5164   0.0000   0.0000   0.0000   0.2648
  18.600   0.9722   0.15788   0.15387  -0.0443  0.0227  1.0000  -3.4351   0.0000   0.0000   0.0000   0.2681
  18.700   0.9620   0.16219   0.15823  -0.0468  0.0227  1.0000  -3.3356   0.0000   0.0000   0.0000   0.2713
  18.800   0.9509   0.16691   0.16300  -0.0494  0.0228  1.0000  -3.2167   0.0000   0.0000   0.0000   0.2748
  18.900   0.9376   0.17279   0.16892  -0.0525  0.0228  1.0000  -3.0614   0.0000   0.0000   0.0000   0.2791
  19.000   0.9225   0.17955   0.17572  -0.0557  0.0232  1.0000  -2.8568   0.0000   0.0000   0.0000   0.2840
  19.800   0.8795   0.22703   0.22332  -0.0704  0.0498  1.0000  -1.6777   0.0000   0.0000   0.0000   0.3057
  19.900   0.8808   0.22931   0.22561  -0.0712  0.0497  1.0000  -1.6674   0.0000   0.0000   0.0000   0.3065
  20.000   0.8822   0.23156   0.22785  -0.0721  0.0497  1.0000  -1.6578   0.0000   0.0000   0.0000   0.3072
  20.100   0.8835   0.23376   0.23005  -0.0730  0.0497  1.0000  -1.6488   0.0000   0.0000   0.0000   0.3080
  20.200   0.8849   0.23590   0.23219  -0.0738  0.0496  1.0000  -1.6406   0.0000   0.0000   0.0000   0.3087
  20.300   0.8864   0.23798   0.23427  -0.0746  0.0495  1.0000  -1.6332   0.0000   0.0000   0.0000   0.3094
  20.400   0.8879   0.23996   0.23625  -0.0755  0.0494  1.0000  -1.6269   0.0000   0.0000   0.0000   0.3100
  20.500   0.8895   0.24182   0.23810  -0.0763  0.0493  1.0000  -1.6219   0.0000   0.0000   0.0000   0.3107
  20.600   0.8911   0.24349   0.23977  -0.0771  0.0490  1.0000  -1.6188   0.0000   0.0000   0.0000   0.3113
  20.700   0.8929   0.24488   0.24117  -0.0779  0.0487  1.0000  -1.6184   0.0000   0.0000   0.0000   0.3118
  20.800   0.8948   0.24602   0.24230  -0.0786  0.0481  1.0000  -1.6190   0.0000   0.0000   0.0000   0.3124
  20.900   0.8961   0.24733   0.24360  -0.0795  0.0472  1.0000  -1.6115   0.0000   0.0000   0.0000   0.3131
  21.000   0.8960   0.24909   0.24537  -0.0806  0.0463  1.0000  -1.5907   0.0000   0.0000   0.0000   0.3143
  21.100   0.8963   0.25113   0.24740  -0.0816  0.0454  1.0000  -1.5722   0.0000   0.0000   0.0000   0.3153
  21.200   0.8971   0.25328   0.24956  -0.0826  0.0446  1.0000  -1.5571   0.0000   0.0000   0.0000   0.3162
  21.300   0.8979   0.25537   0.25164  -0.0836  0.0429  1.0000  -1.5436   0.0000   0.0000   0.0000   0.3172
  21.400   0.8990   0.25737   0.25365  -0.0846  0.0409  1.0000  -1.5390   0.0000   0.0000   0.0000   0.3180
  21.500   0.9007   0.25928   0.25555  -0.0854  0.0392  1.0000  -1.5419   0.0000   0.0000   0.0000   0.3186
  21.600   0.9026   0.26107   0.25734  -0.0862  0.0375  1.0000  -1.5506   0.0000   0.0000   0.0000   0.3191
  21.700   0.9049   0.26275   0.25902  -0.0869  0.0361  1.0000  -1.5649   0.0000   0.0000   0.0000   0.3194
  21.800   0.9075   0.26430   0.26057  -0.0876  0.0347  1.0000  -1.5848   0.0000   0.0000   0.0000   0.3197
  21.900   0.9103   0.26571   0.26198  -0.0881  0.0335  1.0000  -1.6106   0.0000   0.0000   0.0000   0.3198
  22.000   0.9136   0.26698   0.26325  -0.0887  0.0324  1.0000  -1.6431   0.0000   0.0000   0.0000   0.3197
  22.100   0.9173   0.26809   0.26435  -0.0891  0.0314  1.0000  -1.6836   0.0000   0.0000   0.0000   0.3196
  22.200   0.9215   0.26902   0.26528  -0.0895  0.0304  1.0000  -1.7333   0.0000   0.0000   0.0000   0.3192
  22.300   0.9264   0.26976   0.26602  -0.0897  0.0296  1.0000  -1.7943   0.0000   0.0000   0.0000   0.3185
  22.400   0.9320   0.27038   0.26664  -0.0898  0.0288  1.0000  -1.8656   0.0000   0.0000   0.0000   0.3177
  22.500   0.9360   0.27152   0.26778  -0.0902  0.0280  1.0000  -1.9189   0.0000   0.0000   0.0000   0.3173
  22.600   0.9386   0.27381   0.27008  -0.0909  0.0269  1.0000  -1.9509   0.0000   0.0000   0.0000   0.3175
  24.400   0.9625   0.31674   0.31302  -0.1092  0.0149  1.0000  -1.9273   0.0000   0.0000   0.0000   0.3312
  24.500   0.9658   0.31816   0.31444  -0.1098  0.0146  1.0000  -1.9804   0.0000   0.0000   0.0000   0.3312
  24.600   0.9691   0.31962   0.31590  -0.1105  0.0143  1.0000  -2.0354   0.0000   0.0000   0.0000   0.3312
  24.700   0.9721   0.32133   0.31761  -0.1113  0.0139  1.0000  -2.0867   0.0000   0.0000   0.0000   0.3313
  24.800   0.9738   0.32440   0.32070  -0.1126  0.0134  1.0000  -2.1118   0.0000   0.0000   0.0000   0.3322


