xflr5 v6.61

 Calculated polar for: LISSAMAN 7769 AIRFOIL

 1 1 Reynolds number fixed          Mach number fixed         

 xtrf =   1.000 (top)        1.000 (bottom)
 Mach =   0.000     Re =     0.130 e 6     Ncrit =   9.000

  alpha     CL        CD       CDp       Cm    Top Xtr Bot Xtr   Cpmin    Chinge    XCp    
 ------- -------- --------- --------- -------- ------- ------- -------- --------- ---------
 -10.000  -0.2983   0.12506   0.12003  -0.0177  0.5991  0.0750  -1.2090   0.0000   0.0000   0.0000   0.1826
  -9.900  -0.2965   0.12405   0.11903  -0.0181  0.5988  0.0751  -1.2137   0.0000   0.0000   0.0000   0.1807
  -9.800  -0.2948   0.12306   0.11804  -0.0186  0.5986  0.0751  -1.2186   0.0000   0.0000   0.0000   0.1789
  -9.700  -0.2884   0.11517   0.11018  -0.0198  0.5984  0.0763  -1.2456   0.0000   0.0000   0.0000   0.1731
  -9.600  -0.2786   0.11243   0.10743  -0.0198  0.5980  0.0767  -1.2202   0.0000   0.0000   0.0000   0.1701
  -9.500  -0.2710   0.11045   0.10545  -0.0200  0.5976  0.0771  -1.1995   0.0000   0.0000   0.0000   0.1676
  -9.400  -0.2634   0.10872   0.10371  -0.0200  0.5971  0.0775  -1.1785   0.0000   0.0000   0.0000   0.1650
  -9.300  -0.2563   0.10717   0.10216  -0.0201  0.5967  0.0778  -1.1589   0.0000   0.0000   0.0000   0.1624
  -9.200  -0.2500   0.10577   0.10076  -0.0202  0.5962  0.0782  -1.1416   0.0000   0.0000   0.0000   0.1598
  -9.100  -0.2437   0.10444   0.09943  -0.0204  0.5957  0.0785  -1.1251   0.0000   0.0000   0.0000   0.1571
  -9.000  -0.2381   0.10320   0.09819  -0.0205  0.5951  0.0789  -1.1104   0.0000   0.0000   0.0000   0.1545
  -8.900  -0.2329   0.10204   0.09703  -0.0206  0.5945  0.0793  -1.0973   0.0000   0.0000   0.0000   0.1519
  -8.800  -0.2281   0.10093   0.09593  -0.0208  0.5939  0.0797  -1.0858   0.0000   0.0000   0.0000   0.1493
  -8.700  -0.2237   0.09988   0.09488  -0.0210  0.5932  0.0801  -1.0756   0.0000   0.0000   0.0000   0.1467
  -8.600  -0.2196   0.09886   0.09386  -0.0211  0.5925  0.0805  -1.0665   0.0000   0.0000   0.0000   0.1441
  -8.500  -0.2158   0.09788   0.09289  -0.0213  0.5918  0.0809  -1.0585   0.0000   0.0000   0.0000   0.1416
  -8.400  -0.2122   0.09692   0.09194  -0.0215  0.5910  0.0814  -1.0514   0.0000   0.0000   0.0000   0.1391
  -8.300  -0.2089   0.09600   0.09102  -0.0216  0.5901  0.0818  -1.0453   0.0000   0.0000   0.0000   0.1367
  -8.200  -0.2058   0.09509   0.09012  -0.0218  0.5892  0.0823  -1.0400   0.0000   0.0000   0.0000   0.1342
  -8.100  -0.2030   0.09421   0.08924  -0.0220  0.5882  0.0828  -1.0355   0.0000   0.0000   0.0000   0.1319
  -8.000  -0.2003   0.09334   0.08838  -0.0222  0.5871  0.0833  -1.0318   0.0000   0.0000   0.0000   0.1296
  -7.900  -0.1979   0.09249   0.08754  -0.0223  0.5859  0.0838  -1.0288   0.0000   0.0000   0.0000   0.1274
  -7.800  -0.1957   0.09166   0.08672  -0.0225  0.5847  0.0843  -1.0266   0.0000   0.0000   0.0000   0.1254
  -7.700  -0.1937   0.09085   0.08591  -0.0227  0.5834  0.0849  -1.0251   0.0000   0.0000   0.0000   0.1234
  -7.600  -0.1920   0.09006   0.08512  -0.0228  0.5820  0.0854  -1.0243   0.0000   0.0000   0.0000   0.1216
  -7.500  -0.1905   0.08927   0.08435  -0.0230  0.5804  0.0860  -1.0243   0.0000   0.0000   0.0000   0.1200
  -7.400  -0.1893   0.08850   0.08359  -0.0231  0.5788  0.0866  -1.0251   0.0000   0.0000   0.0000   0.1185
  -7.300  -0.1883   0.08775   0.08284  -0.0232  0.5771  0.0872  -1.0267   0.0000   0.0000   0.0000   0.1174
  -7.200  -0.1877   0.08702   0.08212  -0.0234  0.5752  0.0878  -1.0292   0.0000   0.0000   0.0000   0.1165
  -7.100  -0.1875   0.08631   0.08142  -0.0235  0.5732  0.0884  -1.0325   0.0000   0.0000   0.0000   0.1160
  -7.000  -0.1878   0.08564   0.08075  -0.0235  0.5711  0.0891  -1.0369   0.0000   0.0000   0.0000   0.1160
  -6.900  -0.1886   0.08499   0.08012  -0.0236  0.5688  0.0897  -1.0424   0.0000   0.0000   0.0000   0.1165
  -6.800  -0.1900   0.08439   0.07953  -0.0236  0.5664  0.0903  -1.0491   0.0000   0.0000   0.0000   0.1178
  -6.700  -0.1923   0.08384   0.07899  -0.0235  0.5639  0.0909  -1.0572   0.0000   0.0000   0.0000   0.1199
  -6.600  -0.1955   0.08336   0.07851  -0.0233  0.5613  0.0915  -1.0668   0.0000   0.0000   0.0000   0.1230
  -6.500  -0.1997   0.08298   0.07814  -0.0231  0.5588  0.0920  -1.0780   0.0000   0.0000   0.0000   0.1270
  -6.400  -0.2034   0.08264   0.07781  -0.0230  0.5563  0.0926  -1.0890   0.0000   0.0000   0.0000   0.1300
  -6.300  -0.2052   0.08225   0.07741  -0.0233  0.5537  0.0933  -1.0995   0.0000   0.0000   0.0000   0.1296
  -6.200  -0.2061   0.08191   0.07706  -0.0238  0.5511  0.0941  -1.1100   0.0000   0.0000   0.0000   0.1277
  -6.100  -0.2064   0.08170   0.07683  -0.0245  0.5486  0.0950  -1.1205   0.0000   0.0000   0.0000   0.1250
  -6.000  -0.2054   0.08166   0.07676  -0.0252  0.5460  0.0959  -1.1287   0.0000   0.0000   0.0000   0.1211
  -5.900  -0.2021   0.08180   0.07686  -0.0257  0.5434  0.0969  -1.1296   0.0000   0.0000   0.0000   0.1165
  -5.800  -0.1980   0.08204   0.07707  -0.0262  0.5409  0.0977  -1.1281   0.0000   0.0000   0.0000   0.1113
  -5.700  -0.1937   0.08220   0.07719  -0.0267  0.5386  0.0984  -1.1254   0.0000   0.0000   0.0000   0.1061
  -5.600  -0.1893   0.08215   0.07710  -0.0270  0.5364  0.0988  -1.1225   0.0000   0.0000   0.0000   0.1009
  -5.500  -0.1848   0.08190   0.07681  -0.0274  0.5344  0.0991  -1.1200   0.0000   0.0000   0.0000   0.0953
  -5.400  -0.1802   0.08150   0.07636  -0.0278  0.5324  0.0993  -1.1176   0.0000   0.0000   0.0000   0.0894
  -5.300  -0.1755   0.08099   0.07582  -0.0281  0.5306  0.0995  -1.1151   0.0000   0.0000   0.0000   0.0832
  -5.200  -0.1706   0.08040   0.07519  -0.0285  0.5289  0.0996  -1.1126   0.0000   0.0000   0.0000   0.0764
  -5.100  -0.1655   0.07976   0.07452  -0.0289  0.5273  0.0997  -1.1099   0.0000   0.0000   0.0000   0.0689
  -5.000  -0.1602   0.07908   0.07380  -0.0293  0.5257  0.0998  -1.1069   0.0000   0.0000   0.0000   0.0604
  -4.900  -0.1546   0.07837   0.07306  -0.0297  0.5242  0.0999  -1.1037   0.0000   0.0000   0.0000   0.0510
  -4.800  -0.1487   0.07764   0.07229  -0.0301  0.5228  0.1000  -1.1003   0.0000   0.0000   0.0000   0.0403
  -4.700  -0.1646   0.06884   0.06348  -0.0331  0.5230  0.1029  -1.2227   0.0000   0.0000   0.0000   0.0425
  -4.600  -0.1636   0.06586   0.06050  -0.0337  0.5220  0.1045  -1.2317   0.0000   0.0000   0.0000   0.0374
  -4.500  -0.1589   0.06423   0.05888  -0.0340  0.5208  0.1056  -1.2229   0.0000   0.0000   0.0000   0.0294
  -4.400  -0.1530   0.06301   0.05768  -0.0342  0.5196  0.1066  -1.2078   0.0000   0.0000   0.0000   0.0196
  -4.300  -0.1461   0.06203   0.05672  -0.0342  0.5186  0.1074  -1.1880   0.0000   0.0000   0.0000   0.0084
  -4.200  -0.1391   0.06116   0.05588  -0.0343  0.5177  0.1083  -1.1681   0.0000   0.0000   0.0000  -0.0044
  -4.100  -0.1320   0.06037   0.05511  -0.0345  0.5169  0.1092  -1.1485   0.0000   0.0000   0.0000  -0.0190
  -4.000  -0.1248   0.05965   0.05441  -0.0346  0.5162  0.1102  -1.1293   0.0000   0.0000   0.0000  -0.0358
  -3.900  -0.1175   0.05897   0.05374  -0.0348  0.5157  0.1112  -1.1107   0.0000   0.0000   0.0000  -0.0551
  -3.800  -0.1101   0.05832   0.05311  -0.0351  0.5152  0.1122  -1.0927   0.0000   0.0000   0.0000  -0.0777
  -3.700  -0.1025   0.05770   0.05249  -0.0353  0.5149  0.1134  -1.0752   0.0000   0.0000   0.0000  -0.1044
  -3.600  -0.0948   0.05708   0.05188  -0.0357  0.5147  0.1146  -1.0583   0.0000   0.0000   0.0000  -0.1364
  -3.500  -0.0869   0.05648   0.05128  -0.0360  0.5146  0.1158  -1.0416   0.0000   0.0000   0.0000  -0.1754
  -3.400  -0.0789   0.05589   0.05069  -0.0364  0.5146  0.1172  -1.0256   0.0000   0.0000   0.0000  -0.2238
  -3.300  -0.0706   0.05530   0.05009  -0.0368  0.5146  0.1187  -1.0102   0.0000   0.0000   0.0000  -0.2854
  -3.200  -0.0621   0.05471   0.04950  -0.0373  0.5147  0.1202  -0.9954   0.0000   0.0000   0.0000  -0.3662
  -3.100  -0.0534   0.05413   0.04891  -0.0378  0.5149  0.1219  -0.9812   0.0000   0.0000   0.0000  -0.4764
  -3.000  -0.0444   0.05356   0.04833  -0.0384  0.5152  0.1237  -0.9675   0.0000   0.0000   0.0000  -0.6351
  -2.900  -0.0353   0.05300   0.04775  -0.0390  0.5155  0.1256  -0.9543   0.0000   0.0000   0.0000  -0.8821
  -2.800  -0.0258   0.05246   0.04719  -0.0396  0.5159  0.1276  -0.9416   0.0000   0.0000   0.0000  -1.3191
  -2.700  -0.0162   0.05195   0.04665  -0.0403  0.5164  0.1297  -0.9293   0.0000   0.0000   0.0000  -2.3023
  -2.600  -0.0062   0.05148   0.04615  -0.0410  0.5169  0.1319  -0.9173   0.0000   0.0000   0.0000  -6.5616
  -2.500   0.0042   0.05107   0.04570  -0.0418  0.5176  0.1343  -0.9054   0.0000   0.0000   0.0000  10.4521
  -2.400   0.0150   0.05076   0.04536  -0.0426  0.5183  0.1368  -0.8935   0.0000   0.0000   0.0000   3.1594
  -2.300   0.0263   0.05065   0.04520  -0.0434  0.5192  0.1395  -0.8809   0.0000   0.0000   0.0000   1.9354
  -2.200   0.0388   0.05099   0.04550  -0.0443  0.5204  0.1429  -0.8642   0.0000   0.0000   0.0000   1.4141
  -2.100   0.0568   0.05410   0.04856  -0.0447  0.5221  0.1483  -0.8230   0.0000   0.0000   0.0000   1.0543
  -2.000   0.0687   0.05452   0.04897  -0.0458  0.5239  0.1490  -0.8057   0.0000   0.0000   0.0000   0.9291
  -1.900   0.0801   0.05463   0.04909  -0.0472  0.5264  0.1493  -0.7920   0.0000   0.0000   0.0000   0.8503
  -1.700   0.1042   0.04131   0.03433  -0.0511  0.5277  0.0765  -1.1836   0.0000   0.0000   0.0000   0.7529
  -1.600   0.1170   0.04278   0.03588  -0.0532  0.5326  0.0755  -1.1486   0.0000   0.0000   0.0000   0.7153
  -1.500   0.1252   0.04224   0.03539  -0.0564  0.5403  0.0725  -1.1668   0.0000   0.0000   0.0000   0.7110
  -1.200   0.1210   0.05275   0.04613  -0.0644  0.6049  0.0719  -1.1728   0.0000   0.0000   0.0000   0.7931
  -1.100   0.1323   0.05132   0.04458  -0.0645  0.6059  0.0703  -1.1715   0.0000   0.0000   0.0000   0.7477
  -1.000   0.1439   0.05004   0.04317  -0.0646  0.6069  0.0688  -1.1695   0.0000   0.0000   0.0000   0.7086
  -0.900   0.1555   0.04880   0.04180  -0.0648  0.6082  0.0673  -1.1683   0.0000   0.0000   0.0000   0.6754
  -0.800   0.1669   0.04760   0.04046  -0.0651  0.6100  0.0659  -1.1685   0.0000   0.0000   0.0000   0.6479
  -0.700   0.1770   0.04646   0.03919  -0.0655  0.6125  0.0646  -1.1697   0.0000   0.0000   0.0000   0.6273
  -0.600   0.1825   0.04575   0.03840  -0.0658  0.6159  0.0637  -1.1717   0.0000   0.0000   0.0000   0.6178
  -0.500   0.1866   0.04553   0.03809  -0.0657  0.6176  0.0629  -1.1733   0.0000   0.0000   0.0000   0.6090
  -0.400   0.1920   0.04540   0.03787  -0.0654  0.6181  0.0621  -1.1725   0.0000   0.0000   0.0000   0.5972
  -0.300   0.1983   0.04533   0.03770  -0.0651  0.6181  0.0614  -1.1688   0.0000   0.0000   0.0000   0.5844
  -0.200   0.2050   0.04530   0.03758  -0.0647  0.6178  0.0607  -1.1631   0.0000   0.0000   0.0000   0.5713
   0.100   0.1743   0.05825   0.05050  -0.0603  0.6000  0.0608  -1.1709   0.0000   0.0000   0.0000   0.6021
   0.200   0.1810   0.05828   0.05046  -0.0600  0.5999  0.0602  -1.1635   0.0000   0.0000   0.0000   0.5870
   0.300   0.1875   0.05836   0.05046  -0.0596  0.5999  0.0597  -1.1542   0.0000   0.0000   0.0000   0.5731
   0.400   0.1939   0.05848   0.05052  -0.0593  0.5998  0.0592  -1.1432   0.0000   0.0000   0.0000   0.5604
   0.500   0.2002   0.05862   0.05061  -0.0589  0.5998  0.0589  -1.1306   0.0000   0.0000   0.0000   0.5487
   0.600   0.2063   0.05880   0.05074  -0.0585  0.5998  0.0586  -1.1166   0.0000   0.0000   0.0000   0.5378
   0.700   0.2123   0.05899   0.05090  -0.0581  0.5997  0.0583  -1.1014   0.0000   0.0000   0.0000   0.5276
   0.800   0.2182   0.05922   0.05109  -0.0577  0.5997  0.0581  -1.0852   0.0000   0.0000   0.0000   0.5181
   0.900   0.2240   0.05945   0.05130  -0.0573  0.5996  0.0580  -1.0682   0.0000   0.0000   0.0000   0.5092
   1.000   0.2296   0.05970   0.05152  -0.0569  0.5996  0.0579  -1.0507   0.0000   0.0000   0.0000   0.5009
   1.100   0.2352   0.05995   0.05176  -0.0565  0.5995  0.0579  -1.0327   0.0000   0.0000   0.0000   0.4930
   1.200   0.2406   0.06021   0.05200  -0.0561  0.5994  0.0579  -1.0143   0.0000   0.0000   0.0000   0.4855
   1.300   0.2459   0.06048   0.05225  -0.0556  0.5994  0.0579  -0.9956   0.0000   0.0000   0.0000   0.4785
   1.400   0.2511   0.06075   0.05250  -0.0552  0.5993  0.0580  -0.9767   0.0000   0.0000   0.0000   0.4718
   1.500   0.2563   0.06102   0.05276  -0.0548  0.5992  0.0582  -0.9577   0.0000   0.0000   0.0000   0.4654
   1.600   0.2614   0.06129   0.05301  -0.0543  0.5991  0.0584  -0.9385   0.0000   0.0000   0.0000   0.4593
   1.700   0.2663   0.06156   0.05327  -0.0539  0.5990  0.0588  -0.9194   0.0000   0.0000   0.0000   0.4535
   1.800   0.2711   0.06181   0.05351  -0.0534  0.5989  0.0592  -0.9004   0.0000   0.0000   0.0000   0.4480
   1.900   0.2757   0.06206   0.05374  -0.0529  0.5988  0.0597  -0.8815   0.0000   0.0000   0.0000   0.4426
   2.000   0.2802   0.06228   0.05396  -0.0524  0.5986  0.0603  -0.8629   0.0000   0.0000   0.0000   0.4375
   2.100   0.2840   0.06247   0.05413  -0.0518  0.5984  0.0610  -0.8452   0.0000   0.0000   0.0000   0.4327
   2.200   0.2868   0.06259   0.05425  -0.0510  0.5982  0.0618  -0.8289   0.0000   0.0000   0.0000   0.4280
   2.300   0.2888   0.06263   0.05428  -0.0501  0.5979  0.0627  -0.8138   0.0000   0.0000   0.0000   0.4234
   2.400   0.2904   0.06256   0.05421  -0.0491  0.5974  0.0638  -0.7994   0.0000   0.0000   0.0000   0.4189
   2.500   0.2917   0.06227   0.05391  -0.0480  0.5968  0.0650  -0.7855   0.0000   0.0000   0.0000   0.4142
   2.600   0.2843   0.05278   0.04433  -0.0426  0.5782  0.0660  -0.7811   0.0000   0.0000   0.0000   0.3992
   2.700   0.2848   0.05148   0.04301  -0.0408  0.5668  0.0679  -0.7674   0.0000   0.0000   0.0000   0.3927
   2.800   0.2924   0.05107   0.04261  -0.0401  0.5583  0.0720  -0.7434   0.0000   0.0000   0.0000   0.3861
   2.900   0.3040   0.05083   0.04248  -0.0397  0.5510  0.0884  -0.7122   0.0000   0.0000   0.0000   0.3794
   3.000   0.3191   0.05063   0.04242  -0.0396  0.5445  0.1290  -0.7089   0.0000   0.0000   0.0000   0.3728
   3.100   0.3375   0.05050   0.04236  -0.0398  0.5388  0.1654  -0.7289   0.0000   0.0000   0.0000   0.3664
   3.300   0.4542   0.04883   0.04301  -0.0516  0.5263  1.0000  -0.8379   0.0000   0.0000   0.0000   0.3616
   3.400   0.4909   0.04860   0.04270  -0.0532  0.5226  1.0000  -0.8777   0.0000   0.0000   0.0000   0.3560
   3.500   0.5250   0.04834   0.04235  -0.0540  0.5193  1.0000  -0.9162   0.0000   0.0000   0.0000   0.3506
   3.600   0.5460   0.04836   0.04229  -0.0536  0.5157  1.0000  -0.9426   0.0000   0.0000   0.0000   0.3456
   3.700   0.5630   0.04885   0.04273  -0.0528  0.5119  1.0000  -0.9647   0.0000   0.0000   0.0000   0.3412
   3.800   0.5370   0.05275   0.04661  -0.0497  0.4941  1.0000  -0.9413   0.0000   0.0000   0.0000   0.3398
   3.900   0.5466   0.05165   0.04549  -0.0494  0.4916  1.0000  -0.9542   0.0000   0.0000   0.0000   0.3373
   4.000   0.5534   0.05095   0.04476  -0.0490  0.4888  1.0000  -0.9633   0.0000   0.0000   0.0000   0.3353
   4.100   0.5577   0.05046   0.04426  -0.0485  0.4854  1.0000  -0.9690   0.0000   0.0000   0.0000   0.3336
   4.200   0.5576   0.05016   0.04394  -0.0476  0.4811  1.0000  -0.9720   0.0000   0.0000   0.0000   0.3319
   4.300   0.5516   0.05001   0.04378  -0.0461  0.4758  1.0000  -0.9697   0.0000   0.0000   0.0000   0.3299
   4.400   0.5470   0.05001   0.04377  -0.0447  0.4696  1.0000  -0.9684   0.0000   0.0000   0.0000   0.3279
   4.500   0.5458   0.05012   0.04386  -0.0436  0.4633  1.0000  -0.9705   0.0000   0.0000   0.0000   0.3260
   4.600   0.5476   0.05030   0.04402  -0.0428  0.4577  1.0000  -0.9760   0.0000   0.0000   0.0000   0.3241
   4.700   0.5515   0.05052   0.04422  -0.0421  0.4529  1.0000  -0.9848   0.0000   0.0000   0.0000   0.3222
   4.800   0.5568   0.05075   0.04443  -0.0415  0.4487  1.0000  -0.9964   0.0000   0.0000   0.0000   0.3203
   4.900   0.5631   0.05099   0.04465  -0.0410  0.4450  1.0000  -1.0093   0.0000   0.0000   0.0000   0.3184
   5.000   0.5702   0.05124   0.04487  -0.0405  0.4419  1.0000  -1.0232   0.0000   0.0000   0.0000   0.3165
   5.100   0.5779   0.05148   0.04510  -0.0401  0.4391  1.0000  -1.0379   0.0000   0.0000   0.0000   0.3147
   5.200   0.5861   0.05172   0.04532  -0.0397  0.4366  1.0000  -1.0534   0.0000   0.0000   0.0000   0.3129
   5.300   0.5948   0.05196   0.04554  -0.0393  0.4343  1.0000  -1.0696   0.0000   0.0000   0.0000   0.3112
   5.400   0.6040   0.05219   0.04575  -0.0390  0.4323  1.0000  -1.0865   0.0000   0.0000   0.0000   0.3095
   5.500   0.6137   0.05240   0.04594  -0.0387  0.4304  1.0000  -1.1042   0.0000   0.0000   0.0000   0.3078
   5.600   0.6239   0.05260   0.04613  -0.0384  0.4287  1.0000  -1.1227   0.0000   0.0000   0.0000   0.3062
   5.700   0.6346   0.05279   0.04630  -0.0381  0.4271  1.0000  -1.1420   0.0000   0.0000   0.0000   0.3046
   5.800   0.6460   0.05295   0.04645  -0.0379  0.4255  1.0000  -1.1622   0.0000   0.0000   0.0000   0.3031
   5.900   0.6577   0.05310   0.04658  -0.0376  0.4241  1.0000  -1.1831   0.0000   0.0000   0.0000   0.3015
   6.000   0.6677   0.05329   0.04676  -0.0373  0.4225  1.0000  -1.2018   0.0000   0.0000   0.0000   0.3001
   6.100   0.6795   0.05336   0.04682  -0.0370  0.4210  1.0000  -1.2234   0.0000   0.0000   0.0000   0.2985
   6.200   0.6938   0.05325   0.04669  -0.0367  0.4194  1.0000  -1.2492   0.0000   0.0000   0.0000   0.2969
   6.300   0.7105   0.05300   0.04643  -0.0366  0.4179  1.0000  -1.2787   0.0000   0.0000   0.0000   0.2952
   6.400   0.7292   0.05264   0.04606  -0.0364  0.4164  1.0000  -1.3115   0.0000   0.0000   0.0000   0.2936
   6.500   0.7498   0.05221   0.04561  -0.0365  0.4149  1.0000  -1.3471   0.0000   0.0000   0.0000   0.2921
   6.600   0.7718   0.05176   0.04515  -0.0366  0.4135  1.0000  -1.3847   0.0000   0.0000   0.0000   0.2908
   6.700   0.7930   0.05139   0.04478  -0.0367  0.4121  1.0000  -1.4213   0.0000   0.0000   0.0000   0.2895
   6.800   0.8103   0.05128   0.04466  -0.0365  0.4104  1.0000  -1.4525   0.0000   0.0000   0.0000   0.2881
   6.900   0.8227   0.05170   0.04507  -0.0361  0.4083  1.0000  -1.4762   0.0000   0.0000   0.0000   0.2867
   7.000   0.7496   0.06087   0.05427  -0.0335  0.3977  1.0000  -1.3650   0.0000   0.0000   0.0000   0.2875
   7.100   0.7529   0.06068   0.05407  -0.0328  0.3968  1.0000  -1.3755   0.0000   0.0000   0.0000   0.2863
   7.200   0.7559   0.06056   0.05395  -0.0322  0.3958  1.0000  -1.3853   0.0000   0.0000   0.0000   0.2852
   7.300   0.7586   0.06051   0.05390  -0.0317  0.3947  1.0000  -1.3943   0.0000   0.0000   0.0000   0.2842
   7.400   0.7607   0.06053   0.05391  -0.0312  0.3933  1.0000  -1.4021   0.0000   0.0000   0.0000   0.2832
   7.500   0.7620   0.06060   0.05398  -0.0307  0.3916  1.0000  -1.4087   0.0000   0.0000   0.0000   0.2824
   7.600   0.7621   0.06077   0.05415  -0.0302  0.3895  1.0000  -1.4128   0.0000   0.0000   0.0000   0.2816
   7.700   0.7600   0.06109   0.05447  -0.0298  0.3869  1.0000  -1.4132   0.0000   0.0000   0.0000   0.2810
   7.800   0.7552   0.06162   0.05500  -0.0294  0.3835  1.0000  -1.4086   0.0000   0.0000   0.0000   0.2806
   7.900   0.7478   0.06236   0.05574  -0.0291  0.3792  1.0000  -1.3992   0.0000   0.0000   0.0000   0.2804
   8.000   0.7398   0.06324   0.05663  -0.0288  0.3742  1.0000  -1.3883   0.0000   0.0000   0.0000   0.2803
   8.100   0.7337   0.06410   0.05750  -0.0285  0.3690  1.0000  -1.3800   0.0000   0.0000   0.0000   0.2801
   8.200   0.7304   0.06485   0.05825  -0.0283  0.3640  1.0000  -1.3766   0.0000   0.0000   0.0000   0.2798
   8.300   0.7299   0.06543   0.05883  -0.0280  0.3592  1.0000  -1.3780   0.0000   0.0000   0.0000   0.2793
   8.400   0.7321   0.06587   0.05927  -0.0277  0.3547  1.0000  -1.3839   0.0000   0.0000   0.0000   0.2786
   8.500   0.7362   0.06617   0.05957  -0.0273  0.3505  1.0000  -1.3934   0.0000   0.0000   0.0000   0.2778
   8.600   0.7419   0.06636   0.05976  -0.0270  0.3466  1.0000  -1.4058   0.0000   0.0000   0.0000   0.2768
   8.700   0.7489   0.06647   0.05987  -0.0266  0.3431  1.0000  -1.4204   0.0000   0.0000   0.0000   0.2758
   8.800   0.7566   0.06654   0.05994  -0.0262  0.3400  1.0000  -1.4366   0.0000   0.0000   0.0000   0.2748
   8.900   0.7649   0.06659   0.06000  -0.0258  0.3371  1.0000  -1.4535   0.0000   0.0000   0.0000   0.2737
   9.000   0.7734   0.06663   0.06004  -0.0254  0.3344  1.0000  -1.4828   0.0000   0.0000   0.0000   0.2727
   9.100   0.7819   0.06664   0.06004  -0.0250  0.3318  1.0000  -1.5173   0.0000   0.0000   0.0000   0.2717
   9.200   0.7914   0.06655   0.05996  -0.0246  0.3294  1.0000  -1.5546   0.0000   0.0000   0.0000   0.2706
   9.300   0.8017   0.06638   0.05980  -0.0241  0.3272  1.0000  -1.5946   0.0000   0.0000   0.0000   0.2694
   9.400   0.8129   0.06613   0.05955  -0.0236  0.3251  1.0000  -1.6374   0.0000   0.0000   0.0000   0.2682
   9.500   0.8248   0.06580   0.05922  -0.0231  0.3232  1.0000  -1.6827   0.0000   0.0000   0.0000   0.2670
   9.600   0.8375   0.06539   0.05882  -0.0226  0.3214  1.0000  -1.7304   0.0000   0.0000   0.0000   0.2658
   9.700   0.8508   0.06490   0.05834  -0.0220  0.3197  1.0000  -1.7804   0.0000   0.0000   0.0000   0.2645
   9.800   0.8647   0.06435   0.05781  -0.0215  0.3180  1.0000  -1.8325   0.0000   0.0000   0.0000   0.2633
   9.900   0.8790   0.06375   0.05722  -0.0209  0.3165  1.0000  -1.8863   0.0000   0.0000   0.0000   0.2620
  10.000   0.8935   0.06312   0.05660  -0.0203  0.3149  1.0000  -1.9412   0.0000   0.0000   0.0000   0.2608
  10.100   0.9079   0.06248   0.05597  -0.0196  0.3133  1.0000  -1.9966   0.0000   0.0000   0.0000   0.2595
  10.200   0.9218   0.06190   0.05540  -0.0190  0.3115  1.0000  -2.0509   0.0000   0.0000   0.0000   0.2583
  10.300   0.9339   0.06150   0.05502  -0.0184  0.3094  1.0000  -2.1008   0.0000   0.0000   0.0000   0.2572
  10.400   0.9389   0.06208   0.05560  -0.0177  0.3056  1.0000  -2.1302   0.0000   0.0000   0.0000   0.2563
  10.500   0.9073   0.06790   0.06142  -0.0182  0.2987  1.0000  -2.0487   0.0000   0.0000   0.0000   0.2574
  10.600   0.9131   0.06804   0.06156  -0.0180  0.2979  1.0000  -2.0791   0.0000   0.0000   0.0000   0.2569
  10.700   0.9186   0.06821   0.06175  -0.0178  0.2968  1.0000  -2.1087   0.0000   0.0000   0.0000   0.2564
  10.800   0.9240   0.06840   0.06195  -0.0177  0.2955  1.0000  -2.1380   0.0000   0.0000   0.0000   0.2560
  10.900   0.9288   0.06866   0.06223  -0.0175  0.2939  1.0000  -2.1656   0.0000   0.0000   0.0000   0.2555
  11.000   0.9324   0.06908   0.06266  -0.0174  0.2919  1.0000  -2.1896   0.0000   0.0000   0.0000   0.2552
  11.100   0.9338   0.06979   0.06338  -0.0175  0.2891  1.0000  -2.2064   0.0000   0.0000   0.0000   0.2551
  11.200   0.9307   0.07108   0.06469  -0.0177  0.2852  1.0000  -2.2082   0.0000   0.0000   0.0000   0.2553
  11.300   0.9164   0.07379   0.06740  -0.0185  0.2789  1.0000  -2.1730   0.0000   0.0000   0.0000   0.2564
  11.400   0.8871   0.07845   0.07205  -0.0201  0.2693  1.0000  -2.0867   0.0000   0.0000   0.0000   0.2588
  11.500   0.8685   0.08187   0.07548  -0.0213  0.2618  1.0000  -2.0345   0.0000   0.0000   0.0000   0.2606
  11.600   0.8587   0.08426   0.07788  -0.0220  0.2564  1.0000  -2.0107   0.0000   0.0000   0.0000   0.2616
  11.700   0.8527   0.08625   0.07988  -0.0225  0.2520  1.0000  -1.9985   0.0000   0.0000   0.0000   0.2623
  11.800   0.8491   0.08795   0.08159  -0.0230  0.2482  1.0000  -1.9943   0.0000   0.0000   0.0000   0.2628
  11.900   0.8477   0.08939   0.08304  -0.0233  0.2449  1.0000  -1.9971   0.0000   0.0000   0.0000   0.2631
  12.000   0.8477   0.09063   0.08430  -0.0235  0.2418  1.0000  -2.0051   0.0000   0.0000   0.0000   0.2632
  12.100   0.8490   0.09169   0.08538  -0.0237  0.2390  1.0000  -2.0173   0.0000   0.0000   0.0000   0.2632
  12.200   0.8513   0.09262   0.08632  -0.0238  0.2364  1.0000  -2.0332   0.0000   0.0000   0.0000   0.2631
  12.300   0.8545   0.09342   0.08713  -0.0238  0.2339  1.0000  -2.0524   0.0000   0.0000   0.0000   0.2629
  12.400   0.8585   0.09411   0.08784  -0.0238  0.2316  1.0000  -2.0744   0.0000   0.0000   0.0000   0.2626
  12.500   0.8631   0.09471   0.08845  -0.0237  0.2294  1.0000  -2.0989   0.0000   0.0000   0.0000   0.2622
  12.600   0.8685   0.09518   0.08894  -0.0236  0.2273  1.0000  -2.1265   0.0000   0.0000   0.0000   0.2617
  12.700   0.8768   0.09510   0.08887  -0.0232  0.2251  1.0000  -2.1667   0.0000   0.0000   0.0000   0.2607
  12.800   0.9676   0.07839   0.07205  -0.0155  0.2090  1.0000  -2.5682   0.0000   0.0000   0.0000   0.2492
  12.900   0.9494   0.08283   0.07654  -0.0167  0.2062  1.0000  -2.5050   0.0000   0.0000   0.0000   0.2508
  13.000   0.9289   0.08808   0.08183  -0.0184  0.2048  1.0000  -2.4281   0.0000   0.0000   0.0000   0.2531
  13.100   0.9087   0.09376   0.08754  -0.0203  0.2035  1.0000  -2.3487   0.0000   0.0000   0.0000   0.2557
  13.200   0.8887   0.10000   0.09382  -0.0225  0.2022  1.0000  -2.2654   0.0000   0.0000   0.0000   0.2587
  13.300   0.8679   0.10692   0.10078  -0.0250  0.2011  1.0000  -2.1763   0.0000   0.0000   0.0000   0.2624
  13.400   0.8437   0.11521   0.10907  -0.0281  0.1999  1.0000  -2.0699   0.0000   0.0000   0.0000   0.2671
  13.500   0.9929   0.07891   0.07134  -0.0149  0.0812  1.0000  -2.9752   0.0000   0.0000   0.0000   0.2461
  13.600   0.9872   0.08075   0.07295  -0.0154  0.0672  1.0000  -2.9726   0.0000   0.0000   0.0000   0.2465
  13.700   0.9824   0.08250   0.07448  -0.0159  0.0543  1.0000  -2.9741   0.0000   0.0000   0.0000   0.2468
  13.800   0.9809   0.08390   0.07574  -0.0161  0.0465  1.0000  -2.9914   0.0000   0.0000   0.0000   0.2469
  13.900   0.9809   0.08513   0.07688  -0.0163  0.0423  1.0000  -3.0178   0.0000   0.0000   0.0000   0.2469
  14.000   0.9810   0.08633   0.07802  -0.0165  0.0390  1.0000  -3.0448   0.0000   0.0000   0.0000   0.2470
  14.100   0.9815   0.08751   0.07917  -0.0167  0.0363  1.0000  -3.0720   0.0000   0.0000   0.0000   0.2470
  14.200   0.9824   0.08866   0.08032  -0.0169  0.0341  1.0000  -3.0996   0.0000   0.0000   0.0000   0.2470
  14.300   0.9835   0.08980   0.08149  -0.0171  0.0324  1.0000  -3.1263   0.0000   0.0000   0.0000   0.2469
  14.400   0.9847   0.09094   0.08267  -0.0173  0.0310  1.0000  -3.1525   0.0000   0.0000   0.0000   0.2469
  14.500   0.9860   0.09206   0.08384  -0.0175  0.0299  1.0000  -3.1786   0.0000   0.0000   0.0000   0.2469
  14.600   0.9874   0.09316   0.08500  -0.0177  0.0290  1.0000  -3.2045   0.0000   0.0000   0.0000   0.2469
  14.700   0.9890   0.09423   0.08612  -0.0178  0.0282  1.0000  -3.2307   0.0000   0.0000   0.0000   0.2468
  14.800   0.9909   0.09524   0.08719  -0.0179  0.0276  1.0000  -3.2576   0.0000   0.0000   0.0000   0.2467
  14.900   0.9932   0.09618   0.08819  -0.0180  0.0270  1.0000  -3.2857   0.0000   0.0000   0.0000   0.2465
  15.000   0.9960   0.09702   0.08909  -0.0180  0.0265  1.0000  -3.3153   0.0000   0.0000   0.0000   0.2462
  15.100   0.9994   0.09775   0.08988  -0.0179  0.0261  1.0000  -3.3471   0.0000   0.0000   0.0000   0.2458
  15.200   1.0029   0.09846   0.09064  -0.0178  0.0257  1.0000  -3.3786   0.0000   0.0000   0.0000   0.2454
  15.300   1.0064   0.09919   0.09142  -0.0177  0.0254  1.0000  -3.4091   0.0000   0.0000   0.0000   0.2450
  15.400   1.0102   0.09989   0.09217  -0.0175  0.0252  1.0000  -3.4402   0.0000   0.0000   0.0000   0.2446
  15.500   1.0142   0.10058   0.09284  -0.0173  0.0250  1.0000  -3.4723   0.0000   0.0000   0.0000   0.2441
  15.600   1.0177   0.10142   0.09373  -0.0174  0.0249  1.0000  -3.5083   0.0000   0.0000   0.0000   0.2439
  15.700   1.0209   0.10236   0.09471  -0.0175  0.0249  1.0000  -3.5406   0.0000   0.0000   0.0000   0.2438
  15.800   1.0239   0.10333   0.09573  -0.0176  0.0249  1.0000  -3.5710   0.0000   0.0000   0.0000   0.2437
  15.900   1.0266   0.10437   0.09682  -0.0178  0.0248  1.0000  -3.5984   0.0000   0.0000   0.0000   0.2436
  16.000   1.0290   0.10548   0.09798  -0.0180  0.0248  1.0000  -3.6227   0.0000   0.0000   0.0000   0.2435
  16.100   1.0310   0.10667   0.09923  -0.0182  0.0248  1.0000  -3.6436   0.0000   0.0000   0.0000   0.2435
  16.200   1.0326   0.10796   0.10058  -0.0185  0.0248  1.0000  -3.6604   0.0000   0.0000   0.0000   0.2436
  16.300   1.0336   0.10936   0.10206  -0.0189  0.0248  1.0000  -3.6724   0.0000   0.0000   0.0000   0.2437
  16.400   1.0339   0.11092   0.10369  -0.0193  0.0249  1.0000  -3.6788   0.0000   0.0000   0.0000   0.2439
  16.500   1.0334   0.11265   0.10551  -0.0199  0.0249  1.0000  -3.6782   0.0000   0.0000   0.0000   0.2443
  16.600   1.0317   0.11461   0.10756  -0.0206  0.0250  1.0000  -3.6689   0.0000   0.0000   0.0000   0.2449
  16.900   1.0250   0.12077   0.11402  -0.0234  0.0252  1.0000  -3.6485   0.0000   0.0000   0.0000   0.2473
  17.000   1.0217   0.12300   0.11631  -0.0245  0.0253  1.0000  -3.6388   0.0000   0.0000   0.0000   0.2483
  17.100   1.0172   0.12547   0.11885  -0.0259  0.0254  1.0000  -3.6215   0.0000   0.0000   0.0000   0.2497
  17.200   1.0066   0.12916   0.12261  -0.0283  0.0254  1.0000  -3.5679   0.0000   0.0000   0.0000   0.2522
  17.300   1.0012   0.13188   0.12539  -0.0298  0.0255  1.0000  -3.5423   0.0000   0.0000   0.0000   0.2538
  17.400   0.9984   0.13415   0.12771  -0.0311  0.0256  1.0000  -3.5310   0.0000   0.0000   0.0000   0.2549
  17.500   0.9964   0.13626   0.12987  -0.0322  0.0258  1.0000  -3.5236   0.0000   0.0000   0.0000   0.2560
  17.600   0.9948   0.13830   0.13196  -0.0332  0.0259  1.0000  -3.5180   0.0000   0.0000   0.0000   0.2570
  17.700   0.9934   0.14029   0.13400  -0.0343  0.0260  1.0000  -3.5129   0.0000   0.0000   0.0000   0.2579
  17.800   0.9921   0.14222   0.13597  -0.0353  0.0262  1.0000  -3.5077   0.0000   0.0000   0.0000   0.2589
  17.900   0.9908   0.14413   0.13793  -0.0363  0.0263  1.0000  -3.5014   0.0000   0.0000   0.0000   0.2598
  18.000   0.9892   0.14610   0.13994  -0.0374  0.0265  1.0000  -3.4924   0.0000   0.0000   0.0000   0.2609
  18.100   0.9873   0.14817   0.14206  -0.0386  0.0267  1.0000  -3.4800   0.0000   0.0000   0.0000   0.2620
  18.200   0.9850   0.15036   0.14429  -0.0398  0.0269  1.0000  -3.4633   0.0000   0.0000   0.0000   0.2632
  18.300   0.9821   0.15273   0.14671  -0.0412  0.0271  1.0000  -3.4406   0.0000   0.0000   0.0000   0.2646
  18.400   0.9784   0.15537   0.14939  -0.0427  0.0273  1.0000  -3.4087   0.0000   0.0000   0.0000   0.2663
  18.500   0.9734   0.15841   0.15248  -0.0444  0.0275  1.0000  -3.3635   0.0000   0.0000   0.0000   0.2683
  18.600   0.9651   0.16246   0.15658  -0.0467  0.0278  1.0000  -3.2851   0.0000   0.0000   0.0000   0.2712
  18.700   0.9585   0.16620   0.16038  -0.0488  0.0281  1.0000  -3.2149   0.0000   0.0000   0.0000   0.2737
  18.800   0.9522   0.17002   0.16423  -0.0508  0.0285  1.0000  -3.1396   0.0000   0.0000   0.0000   0.2762
  18.900   0.9438   0.17470   0.16896  -0.0531  0.0290  1.0000  -3.0298   0.0000   0.0000   0.0000   0.2794
  19.000   0.9134   0.18891   0.18327  -0.0591  0.0317  1.0000  -2.5453   0.0000   0.0000   0.0000   0.2891
  19.100   0.8953   0.19951   0.19388  -0.0631  0.0350  1.0000  -2.1957   0.0000   0.0000   0.0000   0.2958
  19.200   0.8892   0.20483   0.19920  -0.0651  0.0370  1.0000  -2.0575   0.0000   0.0000   0.0000   0.2988
  19.300   0.8866   0.20879   0.20317  -0.0665  0.0389  1.0000  -1.9737   0.0000   0.0000   0.0000   0.3007
  19.400   0.8856   0.21214   0.20651  -0.0677  0.0408  1.0000  -1.9158   0.0000   0.0000   0.0000   0.3021
  19.500   0.8858   0.21509   0.20946  -0.0686  0.0428  1.0000  -1.8758   0.0000   0.0000   0.0000   0.3031
  19.600   0.8870   0.21779   0.21216  -0.0693  0.0450  1.0000  -1.8508   0.0000   0.0000   0.0000   0.3038
  20.400   0.9107   0.25479   0.24929  -0.0759  0.0749  1.0000  -1.5849   0.0000   0.0000   0.0000   0.3087
  20.500   0.9121   0.25714   0.25163  -0.0767  0.0749  1.0000  -1.5773   0.0000   0.0000   0.0000   0.3094
  20.600   0.9135   0.25943   0.25392  -0.0776  0.0749  1.0000  -1.5695   0.0000   0.0000   0.0000   0.3101
  20.700   0.9148   0.26167   0.25616  -0.0784  0.0748  1.0000  -1.5616   0.0000   0.0000   0.0000   0.3108
  20.800   0.9161   0.26385   0.25834  -0.0793  0.0748  1.0000  -1.5536   0.0000   0.0000   0.0000   0.3115
  20.900   0.9173   0.26597   0.26046  -0.0802  0.0747  1.0000  -1.5455   0.0000   0.0000   0.0000   0.3122
  21.000   0.9184   0.26803   0.26252  -0.0811  0.0747  1.0000  -1.5374   0.0000   0.0000   0.0000   0.3129
  21.100   0.9195   0.27003   0.26452  -0.0820  0.0746  1.0000  -1.5292   0.0000   0.0000   0.0000   0.3137
  21.200   0.9205   0.27194   0.26643  -0.0828  0.0745  1.0000  -1.5208   0.0000   0.0000   0.0000   0.3144
  21.300   0.9214   0.27371   0.26820  -0.0837  0.0744  1.0000  -1.5119   0.0000   0.0000   0.0000   0.3152
  21.400   0.9221   0.27537   0.26986  -0.0846  0.0743  1.0000  -1.5025   0.0000   0.0000   0.0000   0.3159
  21.500   0.9214   0.27666   0.27115  -0.0857  0.0741  1.0000  -1.4859   0.0000   0.0000   0.0000   0.3170
  21.600   0.9200   0.27764   0.27212  -0.0868  0.0738  1.0000  -1.4654   0.0000   0.0000   0.0000   0.3183
  21.700   0.9169   0.27799   0.27247  -0.0881  0.0733  1.0000  -1.4360   0.0000   0.0000   0.0000   0.3199
  21.800   0.9123   0.27788   0.27235  -0.0896  0.0723  1.0000  -1.3957   0.0000   0.0000   0.0000   0.3220
  21.900   0.9097   0.27868   0.27315  -0.0910  0.0707  1.0000  -1.3625   0.0000   0.0000   0.0000   0.3238
  22.000   0.9097   0.28043   0.27490  -0.0921  0.0693  1.0000  -1.3464   0.0000   0.0000   0.0000   0.3249
  22.100   0.9107   0.28246   0.27693  -0.0931  0.0681  1.0000  -1.3376   0.0000   0.0000   0.0000   0.3257
  22.200   0.9121   0.28458   0.27905  -0.0940  0.0669  1.0000  -1.3323   0.0000   0.0000   0.0000   0.3264
  22.300   0.9137   0.28674   0.28121  -0.0949  0.0659  1.0000  -1.3290   0.0000   0.0000   0.0000   0.3270
  22.400   0.9154   0.28892   0.28340  -0.0957  0.0649  1.0000  -1.3272   0.0000   0.0000   0.0000   0.3276
  22.500   0.9173   0.29111   0.28560  -0.0966  0.0640  1.0000  -1.3265   0.0000   0.0000   0.0000   0.3281
  22.600   0.9192   0.29332   0.28781  -0.0974  0.0630  1.0000  -1.3268   0.0000   0.0000   0.0000   0.3287
  22.700   0.9212   0.29553   0.29003  -0.0983  0.0622  1.0000  -1.3280   0.0000   0.0000   0.0000   0.3291
  22.800   0.9233   0.29776   0.29225  -0.0991  0.0613  1.0000  -1.3301   0.0000   0.0000   0.0000   0.3296
  22.900   0.9255   0.29999   0.29449  -0.0999  0.0605  1.0000  -1.3332   0.0000   0.0000   0.0000   0.3301
  23.000   0.9277   0.30223   0.29674  -0.1007  0.0597  1.0000  -1.3373   0.0000   0.0000   0.0000   0.3305
  23.100   0.9300   0.30449   0.29900  -0.1015  0.0589  1.0000  -1.3425   0.0000   0.0000   0.0000   0.3309
  23.200   0.9324   0.30676   0.30128  -0.1023  0.0582  1.0000  -1.3487   0.0000   0.0000   0.0000   0.3313
  23.300   0.9349   0.30905   0.30358  -0.1031  0.0575  1.0000  -1.3561   0.0000   0.0000   0.0000   0.3317
  23.400   0.9375   0.31137   0.30591  -0.1039  0.0568  1.0000  -1.3649   0.0000   0.0000   0.0000   0.3320
  23.500   0.9402   0.31373   0.30828  -0.1047  0.0561  1.0000  -1.3750   0.0000   0.0000   0.0000   0.3323
  23.600   0.9431   0.31615   0.31071  -0.1055  0.0555  1.0000  -1.3868   0.0000   0.0000   0.0000   0.3326
  23.700   0.9462   0.31864   0.31321  -0.1063  0.0549  1.0000  -1.4004   0.0000   0.0000   0.0000   0.3328
  23.800   0.9497   0.32122   0.31581  -0.1071  0.0543  1.0000  -1.4179   0.0000   0.0000   0.0000   0.3330
  23.900   0.9574   0.32400   0.31860  -0.1072  0.0529  1.0000  -1.4820   0.0000   0.0000   0.0000   0.3318
  24.000   0.9680   0.34269   0.33730  -0.1091  0.0499  1.0000  -1.4988   0.0000   0.0000   0.0000   0.3324
  24.100   0.9684   0.34527   0.33990  -0.1106  0.0498  1.0000  -1.4851   0.0000   0.0000   0.0000   0.3338
  24.200   0.9685   0.34795   0.34261  -0.1124  0.0497  1.0000  -1.4694   0.0000   0.0000   0.0000   0.3354
  24.300   0.9682   0.35101   0.34570  -0.1146  0.0496  1.0000  -1.4486   0.0000   0.0000   0.0000   0.3377
  24.800   0.9111   0.34417   0.34077  -0.1709  0.0297  1.0000  -0.9103   0.0000   0.0000   0.0000   0.4089
  24.900   0.9120   0.34472   0.34134  -0.1714  0.0291  1.0000  -0.9239   0.0000   0.0000   0.0000   0.4090
  25.000   0.9132   0.34522   0.34185  -0.1719  0.0285  1.0000  -0.9407   0.0000   0.0000   0.0000   0.4091
  25.100   0.9145   0.34569   0.34234  -0.1723  0.0279  1.0000  -0.9610   0.0000   0.0000   0.0000   0.4090
  25.200   0.9160   0.34621   0.34288  -0.1726  0.0274  1.0000  -0.9853   0.0000   0.0000   0.0000   0.4087
  25.300   0.9181   0.34698   0.34367  -0.1727  0.0268  1.0000  -1.0142   0.0000   0.0000   0.0000   0.4082
  25.400   0.9143   0.35425   0.35092  -0.1736  0.0250  1.0000  -0.9254   0.0000   0.0000   0.0000   0.4102
  25.500   0.9142   0.35501   0.35169  -0.1744  0.0249  1.0000  -0.9179   0.0000   0.0000   0.0000   0.4109
  25.600   0.9141   0.35577   0.35246  -0.1752  0.0249  1.0000  -0.9106   0.0000   0.0000   0.0000   0.4116
  25.700   0.9140   0.35651   0.35321  -0.1759  0.0249  1.0000  -0.9038   0.0000   0.0000   0.0000   0.4122
  25.800   0.9139   0.35721   0.35392  -0.1767  0.0248  1.0000  -0.8969   0.0000   0.0000   0.0000   0.4129
  25.900   0.9138   0.35789   0.35462  -0.1774  0.0248  1.0000  -0.8904   0.0000   0.0000   0.0000   0.4135
  26.000   0.9138   0.35855   0.35529  -0.1782  0.0247  1.0000  -0.8842   0.0000   0.0000   0.0000   0.4142
  26.100   0.9138   0.35920   0.35595  -0.1789  0.0246  1.0000  -0.8785   0.0000   0.0000   0.0000   0.4148
  26.200   0.9137   0.35980   0.35656  -0.1797  0.0245  1.0000  -0.8726   0.0000   0.0000   0.0000   0.4154
  26.300   0.9137   0.36037   0.35714  -0.1804  0.0243  1.0000  -0.8670   0.0000   0.0000   0.0000   0.4161
  26.400   0.9136   0.36091   0.35770  -0.1812  0.0241  1.0000  -0.8599   0.0000   0.0000   0.0000   0.4168
  26.500   0.9133   0.36149   0.35829  -0.1821  0.0238  1.0000  -0.8496   0.0000   0.0000   0.0000   0.4176
  26.600   0.9134   0.36229   0.35910  -0.1831  0.0234  1.0000  -0.8383   0.0000   0.0000   0.0000   0.4184
  26.700   0.9139   0.36344   0.36025  -0.1840  0.0228  1.0000  -0.8257   0.0000   0.0000   0.0000   0.4192
  26.800   0.9145   0.36479   0.36162  -0.1848  0.0221  1.0000  -0.8135   0.0000   0.0000   0.0000   0.4198
  26.900   0.9152   0.36613   0.36297  -0.1856  0.0213  1.0000  -0.8041   0.0000   0.0000   0.0000   0.4203
  27.000   0.9157   0.36737   0.36422  -0.1863  0.0206  1.0000  -0.7976   0.0000   0.0000   0.0000   0.4207
  27.100   0.9162   0.36853   0.36539  -0.1870  0.0200  1.0000  -0.7932   0.0000   0.0000   0.0000   0.4211
  27.200   0.9166   0.36964   0.36651  -0.1876  0.0194  1.0000  -0.7905   0.0000   0.0000   0.0000   0.4215
  27.300   0.9169   0.37070   0.36758  -0.1882  0.0189  1.0000  -0.7891   0.0000   0.0000   0.0000   0.4219
  27.400   0.9173   0.37172   0.36862  -0.1888  0.0183  1.0000  -0.7887   0.0000   0.0000   0.0000   0.4222
  27.500   0.9177   0.37272   0.36962  -0.1894  0.0179  1.0000  -0.7894   0.0000   0.0000   0.0000   0.4226
  27.600   0.9180   0.37369   0.37060  -0.1900  0.0174  1.0000  -0.7910   0.0000   0.0000   0.0000   0.4229
  27.700   0.9183   0.37463   0.37156  -0.1906  0.0170  1.0000  -0.7935   0.0000   0.0000   0.0000   0.4232
  27.800   0.9187   0.37556   0.37249  -0.1911  0.0166  1.0000  -0.7968   0.0000   0.0000   0.0000   0.4235
  27.900   0.9190   0.37645   0.37340  -0.1917  0.0162  1.0000  -0.8012   0.0000   0.0000   0.0000   0.4237
  28.000   0.9193   0.37732   0.37427  -0.1922  0.0159  1.0000  -0.8064   0.0000   0.0000   0.0000   0.4240
  28.100   0.9197   0.37816   0.37512  -0.1927  0.0155  1.0000  -0.8127   0.0000   0.0000   0.0000   0.4242
  28.200   0.9200   0.37897   0.37594  -0.1933  0.0152  1.0000  -0.8200   0.0000   0.0000   0.0000   0.4244
  28.300   0.9203   0.37974   0.37673  -0.1938  0.0150  1.0000  -0.8285   0.0000   0.0000   0.0000   0.4246
  28.400   0.9206   0.38049   0.37748  -0.1942  0.0147  1.0000  -0.8381   0.0000   0.0000   0.0000   0.4248
  28.500   0.9210   0.38119   0.37820  -0.1947  0.0144  1.0000  -0.8490   0.0000   0.0000   0.0000   0.4249
  28.600   0.9213   0.38186   0.37887  -0.1951  0.0142  1.0000  -0.8612   0.0000   0.0000   0.0000   0.4251
  28.700   0.9216   0.38248   0.37950  -0.1956  0.0140  1.0000  -0.8749   0.0000   0.0000   0.0000   0.4251
  28.800   0.9220   0.38307   0.38010  -0.1959  0.0138  1.0000  -0.8902   0.0000   0.0000   0.0000   0.4252
  28.900   0.9224   0.38363   0.38067  -0.1963  0.0135  1.0000  -0.9071   0.0000   0.0000   0.0000   0.4251
  29.000   0.9228   0.38420   0.38125  -0.1966  0.0133  1.0000  -0.9261   0.0000   0.0000   0.0000   0.4250
  29.100   0.9235   0.38489   0.38194  -0.1967  0.0131  1.0000  -0.9474   0.0000   0.0000   0.0000   0.4247


