xflr5 v6.61

 Calculated polar for: LISSAMAN 7769 AIRFOIL

 1 1 Reynolds number fixed          Mach number fixed         

 xtrf =   1.000 (top)        1.000 (bottom)
 Mach =   0.000     Re =     0.100 e 6     Ncrit =   9.000

  alpha     CL        CD       CDp       Cm    Top Xtr Bot Xtr   Cpmin    Chinge    XCp    
 ------- -------- --------- --------- -------- ------- ------- -------- --------- ---------
 -10.000  -0.2462   0.11664   0.11111  -0.0159  0.6394  0.0940  -0.9676   0.0000   0.0000   0.0000   0.1752
  -9.900  -0.2454   0.11642   0.11090  -0.0165  0.6384  0.0946  -0.9745   0.0000   0.0000   0.0000   0.1729
  -9.800  -0.2451   0.11634   0.11083  -0.0170  0.6375  0.0953  -0.9823   0.0000   0.0000   0.0000   0.1707
  -9.700  -0.2452   0.11638   0.11088  -0.0176  0.6366  0.0959  -0.9909   0.0000   0.0000   0.0000   0.1688
  -9.600  -0.2453   0.11647   0.11099  -0.0180  0.6356  0.0965  -0.9987   0.0000   0.0000   0.0000   0.1670
  -9.500  -0.2454   0.11661   0.11113  -0.0185  0.6346  0.0970  -1.0063   0.0000   0.0000   0.0000   0.1652
  -9.400  -0.2457   0.11675   0.11129  -0.0190  0.6336  0.0975  -1.0138   0.0000   0.0000   0.0000   0.1636
  -9.300  -0.2449   0.11675   0.11130  -0.0194  0.6325  0.0979  -1.0179   0.0000   0.0000   0.0000   0.1619
  -9.200  -0.2438   0.11665   0.11122  -0.0198  0.6313  0.0982  -1.0208   0.0000   0.0000   0.0000   0.1601
  -9.100  -0.2427   0.11648   0.11105  -0.0201  0.6301  0.0985  -1.0237   0.0000   0.0000   0.0000   0.1584
  -9.000  -0.2417   0.11623   0.11081  -0.0205  0.6288  0.0987  -1.0268   0.0000   0.0000   0.0000   0.1567
  -8.900  -0.2408   0.11591   0.11051  -0.0208  0.6274  0.0989  -1.0301   0.0000   0.0000   0.0000   0.1550
  -8.800  -0.2400   0.11553   0.11014  -0.0212  0.6260  0.0991  -1.0336   0.0000   0.0000   0.0000   0.1534
  -8.700  -0.2393   0.11510   0.10971  -0.0215  0.6246  0.0992  -1.0374   0.0000   0.0000   0.0000   0.1519
  -8.600  -0.2387   0.11462   0.10924  -0.0218  0.6230  0.0993  -1.0415   0.0000   0.0000   0.0000   0.1504
  -8.500  -0.2383   0.11412   0.10876  -0.0221  0.6214  0.0994  -1.0459   0.0000   0.0000   0.0000   0.1491
  -8.400  -0.2382   0.11361   0.10825  -0.0224  0.6197  0.0995  -1.0507   0.0000   0.0000   0.0000   0.1479
  -8.300  -0.2382   0.11309   0.10775  -0.0227  0.6178  0.0996  -1.0559   0.0000   0.0000   0.0000   0.1469
  -8.200  -0.2386   0.11258   0.10725  -0.0230  0.6158  0.0996  -1.0615   0.0000   0.0000   0.0000   0.1459
  -8.100  -0.2392   0.11209   0.10679  -0.0233  0.6135  0.0997  -1.0676   0.0000   0.0000   0.0000   0.1451
  -8.000  -0.2401   0.11165   0.10637  -0.0236  0.6110  0.0997  -1.0742   0.0000   0.0000   0.0000   0.1443
  -7.900  -0.2411   0.11131   0.10606  -0.0240  0.6079  0.0998  -1.0812   0.0000   0.0000   0.0000   0.1432
  -7.800  -0.2413   0.11111   0.10590  -0.0247  0.6038  0.0998  -1.0877   0.0000   0.0000   0.0000   0.1407
  -7.700  -0.2404   0.11089   0.10571  -0.0255  0.5997  0.0999  -1.0933   0.0000   0.0000   0.0000   0.1367
  -7.600  -0.2398   0.11007   0.10488  -0.0259  0.5991  0.0999  -1.0989   0.0000   0.0000   0.0000   0.1351
  -7.500  -0.2389   0.10923   0.10403  -0.0263  0.5983  0.1000  -1.1043   0.0000   0.0000   0.0000   0.1332
  -7.400  -0.2378   0.10836   0.10315  -0.0266  0.5975  0.1000  -1.1093   0.0000   0.0000   0.0000   0.1313
  -7.300  -0.2364   0.10747   0.10225  -0.0270  0.5966  0.1001  -1.1140   0.0000   0.0000   0.0000   0.1292
  -7.200  -0.2524   0.09660   0.09148  -0.0292  0.5969  0.1032  -1.2198   0.0000   0.0000   0.0000   0.1278
  -7.100  -0.2496   0.09402   0.08891  -0.0293  0.5959  0.1041  -1.2176   0.0000   0.0000   0.0000   0.1263
  -7.000  -0.2421   0.09188   0.08678  -0.0290  0.5945  0.1050  -1.1981   0.0000   0.0000   0.0000   0.1237
  -6.900  -0.2344   0.09010   0.08500  -0.0286  0.5929  0.1058  -1.1767   0.0000   0.0000   0.0000   0.1211
  -6.800  -0.2274   0.08856   0.08346  -0.0284  0.5911  0.1065  -1.1572   0.0000   0.0000   0.0000   0.1184
  -6.700  -0.2211   0.08720   0.08211  -0.0281  0.5892  0.1072  -1.1397   0.0000   0.0000   0.0000   0.1158
  -6.600  -0.2154   0.08597   0.08088  -0.0279  0.5870  0.1080  -1.1242   0.0000   0.0000   0.0000   0.1132
  -6.500  -0.2095   0.08481   0.07972  -0.0277  0.5847  0.1087  -1.1082   0.0000   0.0000   0.0000   0.1103
  -6.400  -0.2040   0.08373   0.07865  -0.0276  0.5823  0.1095  -1.0937   0.0000   0.0000   0.0000   0.1073
  -6.300  -0.1991   0.08272   0.07765  -0.0275  0.5798  0.1102  -1.0810   0.0000   0.0000   0.0000   0.1043
  -6.200  -0.1947   0.08178   0.07672  -0.0275  0.5774  0.1110  -1.0700   0.0000   0.0000   0.0000   0.1013
  -6.100  -0.1908   0.08089   0.07583  -0.0275  0.5750  0.1118  -1.0603   0.0000   0.0000   0.0000   0.0982
  -6.000  -0.1871   0.08004   0.07499  -0.0275  0.5727  0.1126  -1.0518   0.0000   0.0000   0.0000   0.0950
  -5.900  -0.1837   0.07923   0.07418  -0.0276  0.5706  0.1135  -1.0444   0.0000   0.0000   0.0000   0.0917
  -5.800  -0.1804   0.07843   0.07340  -0.0278  0.5687  0.1143  -1.0379   0.0000   0.0000   0.0000   0.0881
  -5.700  -0.1773   0.07766   0.07263  -0.0280  0.5668  0.1152  -1.0321   0.0000   0.0000   0.0000   0.0842
  -5.600  -0.1742   0.07690   0.07188  -0.0283  0.5652  0.1162  -1.0268   0.0000   0.0000   0.0000   0.0798
  -5.500  -0.1711   0.07615   0.07114  -0.0286  0.5636  0.1171  -1.0221   0.0000   0.0000   0.0000   0.0750
  -5.400  -0.1679   0.07541   0.07041  -0.0289  0.5622  0.1182  -1.0178   0.0000   0.0000   0.0000   0.0696
  -5.300  -0.1647   0.07469   0.06969  -0.0293  0.5610  0.1192  -1.0138   0.0000   0.0000   0.0000   0.0638
  -5.200  -0.1614   0.07397   0.06898  -0.0298  0.5598  0.1203  -1.0102   0.0000   0.0000   0.0000   0.0572
  -5.100  -0.1579   0.07325   0.06826  -0.0303  0.5588  0.1215  -1.0068   0.0000   0.0000   0.0000   0.0497
  -5.000  -0.1541   0.07253   0.06755  -0.0309  0.5579  0.1228  -1.0036   0.0000   0.0000   0.0000   0.0412
  -4.900  -0.1502   0.07182   0.06685  -0.0316  0.5571  0.1241  -1.0006   0.0000   0.0000   0.0000   0.0314
  -4.800  -0.1459   0.07111   0.06614  -0.0323  0.5564  0.1255  -0.9977   0.0000   0.0000   0.0000   0.0203
  -4.700  -0.1415   0.07042   0.06545  -0.0330  0.5558  0.1270  -0.9950   0.0000   0.0000   0.0000   0.0078
  -4.600  -0.1368   0.06975   0.06477  -0.0338  0.5553  0.1286  -0.9924   0.0000   0.0000   0.0000  -0.0063
  -4.500  -0.1318   0.06908   0.06410  -0.0347  0.5549  0.1303  -0.9900   0.0000   0.0000   0.0000  -0.0228
  -4.400  -0.1263   0.06845   0.06345  -0.0357  0.5546  0.1321  -0.9876   0.0000   0.0000   0.0000  -0.0423
  -4.300  -0.1202   0.06785   0.06284  -0.0368  0.5544  0.1341  -0.9855   0.0000   0.0000   0.0000  -0.0659
  -4.200  -0.1136   0.06733   0.06230  -0.0380  0.5543  0.1364  -0.9837   0.0000   0.0000   0.0000  -0.0951
  -4.100  -0.1062   0.06699   0.06193  -0.0393  0.5542  0.1390  -0.9824   0.0000   0.0000   0.0000  -0.1313
  -4.000  -0.0973   0.06718   0.06205  -0.0410  0.5543  0.1424  -0.9819   0.0000   0.0000   0.0000  -0.1832
  -3.900  -0.0832   0.06936   0.06409  -0.0428  0.5545  0.1469  -0.9734   0.0000   0.0000   0.0000  -0.2787
  -3.800  -0.0721   0.07035   0.06502  -0.0438  0.5548  0.1483  -0.9600   0.0000   0.0000   0.0000  -0.3734
  -3.700  -0.0628   0.07050   0.06513  -0.0447  0.5552  0.1488  -0.9500   0.0000   0.0000   0.0000  -0.4804
  -3.600  -0.0539   0.07036   0.06495  -0.0456  0.5557  0.1492  -0.9411   0.0000   0.0000   0.0000  -0.6175
  -3.500  -0.0451   0.07008   0.06464  -0.0464  0.5563  0.1494  -0.9327   0.0000   0.0000   0.0000  -0.8051
  -3.400  -0.0364   0.06972   0.06425  -0.0473  0.5571  0.1496  -0.9245   0.0000   0.0000   0.0000  -1.0806
  -3.300  -0.0278   0.06932   0.06383  -0.0482  0.5579  0.1497  -0.9163   0.0000   0.0000   0.0000  -1.5258
  -3.200  -0.0192   0.06889   0.06337  -0.0491  0.5588  0.1498  -0.9082   0.0000   0.0000   0.0000  -2.3671
  -3.100  -0.0107   0.06845   0.06291  -0.0500  0.5599  0.1499  -0.9001   0.0000   0.0000   0.0000  -4.5502
  -3.000  -0.0022   0.06801   0.06245  -0.0509  0.5611  0.1500  -0.8921   0.0000   0.0000   0.0000  -23.6885
  -2.900  -0.0111   0.06004   0.05450  -0.0534  0.5616  0.1553  -0.9537   0.0000   0.0000   0.0000  -4.6758
  -2.800  -0.0046   0.05894   0.05344  -0.0541  0.5629  0.1569  -0.9418   0.0000   0.0000   0.0000  -11.7189
  -2.700   0.0026   0.05823   0.05277  -0.0547  0.5644  0.1581  -0.9266   0.0000   0.0000   0.0000  21.6238
  -2.600   0.0099   0.05771   0.05229  -0.0553  0.5660  0.1594  -0.9113   0.0000   0.0000   0.0000   5.9378
  -2.500   0.0172   0.05733   0.05194  -0.0559  0.5677  0.1606  -0.8963   0.0000   0.0000   0.0000   3.5634
  -2.400  -0.0028   0.06805   0.06285  -0.0601  0.6003  0.1593  -0.9215   0.0000   0.0000   0.0000  -21.2655
  -2.300   0.0068   0.06663   0.06144  -0.0601  0.6010  0.1607  -0.9025   0.0000   0.0000   0.0000   9.2122
  -2.200   0.0168   0.06532   0.06012  -0.0602  0.6019  0.1623  -0.8840   0.0000   0.0000   0.0000   3.8986
  -2.100   0.0271   0.06407   0.05885  -0.0603  0.6027  0.1638  -0.8661   0.0000   0.0000   0.0000   2.5189
  -2.000   0.0376   0.06286   0.05762  -0.0605  0.6037  0.1653  -0.8491   0.0000   0.0000   0.0000   1.8864
  -1.900   0.0485   0.06165   0.05639  -0.0608  0.6048  0.1667  -0.8331   0.0000   0.0000   0.0000   1.5246
  -1.800   0.0598   0.06043   0.05513  -0.0612  0.6061  0.1679  -0.8184   0.0000   0.0000   0.0000   1.2911
  -1.700   0.0713   0.05918   0.05384  -0.0618  0.6078  0.1687  -0.8052   0.0000   0.0000   0.0000   1.1306
  -0.100   0.0632   0.05550   0.04796  -0.0556  0.6814  0.0743  -1.1854   0.0000   0.0000   0.0000   1.1460
   0.000   0.0661   0.05454   0.04692  -0.0546  0.6782  0.0737  -1.1865   0.0000   0.0000   0.0000   1.0908
   0.100   0.0690   0.05383   0.04612  -0.0536  0.6751  0.0731  -1.1849   0.0000   0.0000   0.0000   1.0405
   0.200   0.0727   0.05326   0.04547  -0.0527  0.6721  0.0726  -1.1814   0.0000   0.0000   0.0000   0.9872
   0.300   0.0772   0.05279   0.04491  -0.0519  0.6693  0.0721  -1.1766   0.0000   0.0000   0.0000   0.9339
   0.400   0.0822   0.05238   0.04443  -0.0512  0.6665  0.0716  -1.1708   0.0000   0.0000   0.0000   0.8826
   0.500   0.0878   0.05204   0.04399  -0.0505  0.6638  0.0711  -1.1640   0.0000   0.0000   0.0000   0.8343
   0.600   0.0939   0.05174   0.04361  -0.0499  0.6611  0.0706  -1.1564   0.0000   0.0000   0.0000   0.7894
   0.700   0.1004   0.05148   0.04327  -0.0493  0.6585  0.0702  -1.1480   0.0000   0.0000   0.0000   0.7482
   0.800   0.1074   0.05126   0.04297  -0.0487  0.6559  0.0698  -1.1387   0.0000   0.0000   0.0000   0.7105
   0.900   0.1149   0.05107   0.04271  -0.0483  0.6534  0.0694  -1.1283   0.0000   0.0000   0.0000   0.6762
   1.000   0.1227   0.05092   0.04249  -0.0478  0.6509  0.0691  -1.1170   0.0000   0.0000   0.0000   0.6450
   1.100   0.1310   0.05081   0.04231  -0.0474  0.6485  0.0688  -1.1045   0.0000   0.0000   0.0000   0.6169
   1.200   0.1396   0.05073   0.04217  -0.0471  0.6461  0.0686  -1.0907   0.0000   0.0000   0.0000   0.5913
   1.300   0.1485   0.05070   0.04208  -0.0467  0.6437  0.0685  -1.0754   0.0000   0.0000   0.0000   0.5683
   1.400   0.1579   0.05070   0.04203  -0.0464  0.6414  0.0684  -1.0584   0.0000   0.0000   0.0000   0.5474
   1.500   0.1676   0.05073   0.04202  -0.0462  0.6390  0.0685  -1.0399   0.0000   0.0000   0.0000   0.5284
   1.600   0.1777   0.05081   0.04206  -0.0460  0.6368  0.0687  -1.0199   0.0000   0.0000   0.0000   0.5111
   1.700   0.1881   0.05092   0.04213  -0.0458  0.6345  0.0690  -0.9988   0.0000   0.0000   0.0000   0.4955
   1.800   0.1989   0.05107   0.04225  -0.0457  0.6323  0.0694  -0.9764   0.0000   0.0000   0.0000   0.4811
   1.900   0.2106   0.05127   0.04241  -0.0456  0.6301  0.0701  -0.9523   0.0000   0.0000   0.0000   0.4679
   2.000   0.2229   0.05153   0.04263  -0.0456  0.6279  0.0711  -0.9269   0.0000   0.0000   0.0000   0.4557
   2.100   0.2361   0.05185   0.04290  -0.0458  0.6257  0.0725  -0.9002   0.0000   0.0000   0.0000   0.4445
   2.200   0.2505   0.05225   0.04324  -0.0460  0.6236  0.0744  -0.8719   0.0000   0.0000   0.0000   0.4342
   2.300   0.2661   0.05264   0.04367  -0.0465  0.6215  0.0804  -0.8465   0.0000   0.0000   0.0000   0.4248
   2.400   0.2838   0.05317   0.04432  -0.0472  0.6193  0.0961  -0.8158   0.0000   0.0000   0.0000   0.4164
   2.500   0.3029   0.05381   0.04507  -0.0483  0.6172  0.1355  -0.7807   0.0000   0.0000   0.0000   0.4090
   2.600   0.3242   0.05474   0.04599  -0.0496  0.6149  0.1613  -0.7360   0.0000   0.0000   0.0000   0.4024
   2.700   0.3468   0.05588   0.04730  -0.0513  0.6121  0.2026  -0.7100   0.0000   0.0000   0.0000   0.3971
   2.800   0.3263   0.06848   0.05994  -0.0514  0.5994  0.1867  -0.7071   0.0000   0.0000   0.0000   0.4066
   2.900   0.3249   0.06863   0.06010  -0.0504  0.5990  0.1958  -0.6966   0.0000   0.0000   0.0000   0.4040
   3.200   0.3105   0.05830   0.04964  -0.0426  0.5828  0.2172  -0.6800   0.0000   0.0000   0.0000   0.3859
   3.300   0.3569   0.05422   0.04792  -0.0494  0.5569  1.0000  -0.7138   0.0000   0.0000   0.0000   0.3866
   3.400   0.3697   0.05405   0.04767  -0.0488  0.5476  1.0000  -0.7288   0.0000   0.0000   0.0000   0.3800
   3.500   0.3863   0.05402   0.04756  -0.0485  0.5403  1.0000  -0.7480   0.0000   0.0000   0.0000   0.3735
   3.600   0.4052   0.05403   0.04749  -0.0484  0.5344  1.0000  -0.7699   0.0000   0.0000   0.0000   0.3672
   3.700   0.4259   0.05407   0.04744  -0.0484  0.5295  1.0000  -0.7938   0.0000   0.0000   0.0000   0.3613
   3.800   0.4489   0.05413   0.04743  -0.0487  0.5254  1.0000  -0.8202   0.0000   0.0000   0.0000   0.3558
   3.900   0.4742   0.05424   0.04747  -0.0492  0.5219  1.0000  -0.8489   0.0000   0.0000   0.0000   0.3509
   4.000   0.5023   0.05440   0.04756  -0.0500  0.5189  1.0000  -0.8803   0.0000   0.0000   0.0000   0.3467
   4.100   0.5316   0.05467   0.04777  -0.0511  0.5160  1.0000  -0.9166   0.0000   0.0000   0.0000   0.3431
   4.200   0.5556   0.05524   0.04829  -0.0517  0.5128  1.0000  -0.9482   0.0000   0.0000   0.0000   0.3398
   4.300   0.5730   0.05680   0.04980  -0.0514  0.5086  1.0000  -0.9724   0.0000   0.0000   0.0000   0.3365
   4.400   0.5362   0.05835   0.05133  -0.0475  0.4911  1.0000  -0.9366   0.0000   0.0000   0.0000   0.3350
   4.500   0.5281   0.05748   0.05045  -0.0458  0.4865  1.0000  -0.9315   0.0000   0.0000   0.0000   0.3330
   4.600   0.5193   0.05728   0.05023  -0.0444  0.4812  1.0000  -0.9234   0.0000   0.0000   0.0000   0.3318
   4.700   0.5124   0.05760   0.05054  -0.0435  0.4766  1.0000  -0.9163   0.0000   0.0000   0.0000   0.3310
   4.800   0.5078   0.05818   0.05111  -0.0428  0.4729  1.0000  -0.9114   0.0000   0.0000   0.0000   0.3303
   4.900   0.5047   0.05888   0.05181  -0.0423  0.4700  1.0000  -0.9092   0.0000   0.0000   0.0000   0.3297
   5.000   0.5019   0.05964   0.05256  -0.0418  0.4676  1.0000  -0.9076   0.0000   0.0000   0.0000   0.3290
   5.100   0.5002   0.06042   0.05334  -0.0414  0.4658  1.0000  -0.9073   0.0000   0.0000   0.0000   0.3284
   5.200   0.4992   0.06121   0.05413  -0.0410  0.4643  1.0000  -0.9079   0.0000   0.0000   0.0000   0.3277
   5.300   0.4988   0.06202   0.05493  -0.0407  0.4631  1.0000  -0.9092   0.0000   0.0000   0.0000   0.3271
   5.400   0.4988   0.06284   0.05574  -0.0404  0.4621  1.0000  -0.9109   0.0000   0.0000   0.0000   0.3264
   5.500   0.4991   0.06365   0.05655  -0.0402  0.4613  1.0000  -0.9131   0.0000   0.0000   0.0000   0.3257
   5.600   0.4998   0.06446   0.05735  -0.0400  0.4605  1.0000  -0.9157   0.0000   0.0000   0.0000   0.3250
   5.700   0.5008   0.06527   0.05815  -0.0397  0.4597  1.0000  -0.9186   0.0000   0.0000   0.0000   0.3243
   5.800   0.5020   0.06606   0.05893  -0.0395  0.4590  1.0000  -0.9219   0.0000   0.0000   0.0000   0.3236
   5.900   0.5034   0.06683   0.05970  -0.0393  0.4582  1.0000  -0.9255   0.0000   0.0000   0.0000   0.3229
   6.000   0.5052   0.06758   0.06044  -0.0391  0.4572  1.0000  -0.9295   0.0000   0.0000   0.0000   0.3221
   6.100   0.5080   0.06818   0.06104  -0.0389  0.4554  1.0000  -0.9355   0.0000   0.0000   0.0000   0.3210
   6.200   0.5124   0.06862   0.06146  -0.0386  0.4526  1.0000  -0.9443   0.0000   0.0000   0.0000   0.3196
   6.300   0.5188   0.06890   0.06173  -0.0382  0.4489  1.0000  -0.9564   0.0000   0.0000   0.0000   0.3179
   6.400   0.5274   0.06905   0.06186  -0.0378  0.4446  1.0000  -0.9724   0.0000   0.0000   0.0000   0.3158
   6.500   0.5387   0.06906   0.06185  -0.0374  0.4401  1.0000  -0.9927   0.0000   0.0000   0.0000   0.3133
   6.600   0.5528   0.06896   0.06171  -0.0369  0.4355  1.0000  -1.0178   0.0000   0.0000   0.0000   0.3106
   6.700   0.5698   0.06875   0.06148  -0.0365  0.4313  1.0000  -1.0474   0.0000   0.0000   0.0000   0.3077
   6.800   0.5891   0.06847   0.06117  -0.0361  0.4274  1.0000  -1.0809   0.0000   0.0000   0.0000   0.3048
   6.900   0.6090   0.06818   0.06085  -0.0357  0.4240  1.0000  -1.1155   0.0000   0.0000   0.0000   0.3020
   7.000   0.6295   0.06792   0.06057  -0.0354  0.4212  1.0000  -1.1509   0.0000   0.0000   0.0000   0.2994
   7.100   0.6497   0.06777   0.06040  -0.0351  0.4188  1.0000  -1.1856   0.0000   0.0000   0.0000   0.2971
   7.200   0.6683   0.06768   0.06030  -0.0348  0.4165  1.0000  -1.2181   0.0000   0.0000   0.0000   0.2950
   7.300   0.6856   0.06768   0.06028  -0.0345  0.4142  1.0000  -1.2489   0.0000   0.0000   0.0000   0.2930
   7.400   0.7036   0.06777   0.06036  -0.0341  0.4120  1.0000  -1.2808   0.0000   0.0000   0.0000   0.2911
   7.500   0.7218   0.06810   0.06070  -0.0339  0.4096  1.0000  -1.3127   0.0000   0.0000   0.0000   0.2894
   7.600   0.7379   0.06932   0.06192  -0.0337  0.4066  1.0000  -1.3402   0.0000   0.0000   0.0000   0.2880
   7.700   0.7039   0.07677   0.06938  -0.0334  0.3980  1.0000  -1.2835   0.0000   0.0000   0.0000   0.2897
   7.800   0.7086   0.07562   0.06822  -0.0327  0.3965  1.0000  -1.2963   0.0000   0.0000   0.0000   0.2883
   7.900   0.7114   0.07486   0.06745  -0.0322  0.3947  1.0000  -1.3050   0.0000   0.0000   0.0000   0.2872
   8.000   0.7120   0.07440   0.06699  -0.0318  0.3924  1.0000  -1.3093   0.0000   0.0000   0.0000   0.2864
   8.100   0.7097   0.07424   0.06682  -0.0314  0.3896  1.0000  -1.3079   0.0000   0.0000   0.0000   0.2859
   8.200   0.7042   0.07443   0.06701  -0.0312  0.3859  1.0000  -1.3001   0.0000   0.0000   0.0000   0.2858
   8.300   0.6965   0.07498   0.06756  -0.0311  0.3815  1.0000  -1.2875   0.0000   0.0000   0.0000   0.2860
   8.400   0.6892   0.07577   0.06835  -0.0311  0.3768  1.0000  -1.2747   0.0000   0.0000   0.0000   0.2863
   8.500   0.6838   0.07662   0.06920  -0.0310  0.3723  1.0000  -1.2650   0.0000   0.0000   0.0000   0.2865
   8.600   0.6797   0.07745   0.07004  -0.0309  0.3678  1.0000  -1.2576   0.0000   0.0000   0.0000   0.2865
   8.700   0.6777   0.07820   0.07079  -0.0308  0.3634  1.0000  -1.2537   0.0000   0.0000   0.0000   0.2864
   8.800   0.6777   0.07885   0.07144  -0.0307  0.3592  1.0000  -1.2536   0.0000   0.0000   0.0000   0.2860
   8.900   0.6795   0.07941   0.07200  -0.0305  0.3551  1.0000  -1.2567   0.0000   0.0000   0.0000   0.2855
   9.000   0.6829   0.07987   0.07246  -0.0303  0.3511  1.0000  -1.2628   0.0000   0.0000   0.0000   0.2848
   9.100   0.6877   0.08024   0.07283  -0.0301  0.3472  1.0000  -1.2716   0.0000   0.0000   0.0000   0.2840
   9.200   0.6939   0.08052   0.07312  -0.0298  0.3435  1.0000  -1.2848   0.0000   0.0000   0.0000   0.2830
   9.300   0.7012   0.08075   0.07335  -0.0295  0.3400  1.0000  -1.3024   0.0000   0.0000   0.0000   0.2820
   9.400   0.7092   0.08096   0.07356  -0.0292  0.3368  1.0000  -1.3258   0.0000   0.0000   0.0000   0.2809
   9.500   0.7182   0.08110   0.07371  -0.0288  0.3337  1.0000  -1.3597   0.0000   0.0000   0.0000   0.2798
   9.600   0.7286   0.08112   0.07373  -0.0284  0.3308  1.0000  -1.3978   0.0000   0.0000   0.0000   0.2785
   9.700   0.7402   0.08102   0.07363  -0.0280  0.3280  1.0000  -1.4398   0.0000   0.0000   0.0000   0.2771
   9.800   0.7530   0.08079   0.07341  -0.0275  0.3254  1.0000  -1.4856   0.0000   0.0000   0.0000   0.2756
   9.900   0.7650   0.08054   0.07317  -0.0269  0.3228  1.0000  -1.5300   0.0000   0.0000   0.0000   0.2741
  10.000   0.7780   0.08019   0.07283  -0.0263  0.3204  1.0000  -1.5776   0.0000   0.0000   0.0000   0.2726
  10.100   0.7920   0.07975   0.07240  -0.0257  0.3181  1.0000  -1.6287   0.0000   0.0000   0.0000   0.2710
  10.200   0.8068   0.07925   0.07190  -0.0250  0.3160  1.0000  -1.6827   0.0000   0.0000   0.0000   0.2693
  10.300   0.8222   0.07870   0.07136  -0.0243  0.3139  1.0000  -1.7391   0.0000   0.0000   0.0000   0.2677
  10.400   0.8379   0.07816   0.07084  -0.0235  0.3119  1.0000  -1.7969   0.0000   0.0000   0.0000   0.2661
  10.500   0.8534   0.07774   0.07043  -0.0228  0.3097  1.0000  -1.8545   0.0000   0.0000   0.0000   0.2645
  10.600   0.8671   0.07774   0.07044  -0.0221  0.3071  1.0000  -1.9071   0.0000   0.0000   0.0000   0.2631
  10.700   0.8409   0.08520   0.07790  -0.0232  0.2989  1.0000  -1.8337   0.0000   0.0000   0.0000   0.2652
  10.800   0.8442   0.08544   0.07815  -0.0231  0.2978  1.0000  -1.8540   0.0000   0.0000   0.0000   0.2649
  10.900   0.8461   0.08591   0.07863  -0.0232  0.2964  1.0000  -1.8699   0.0000   0.0000   0.0000   0.2647
  11.000   0.8466   0.08661   0.07934  -0.0233  0.2947  1.0000  -1.8809   0.0000   0.0000   0.0000   0.2647
  11.100   0.8452   0.08759   0.08032  -0.0236  0.2925  1.0000  -1.8851   0.0000   0.0000   0.0000   0.2650
  11.200   0.8406   0.08898   0.08172  -0.0241  0.2898  1.0000  -1.8790   0.0000   0.0000   0.0000   0.2656
  11.300   0.8321   0.09092   0.08368  -0.0249  0.2863  1.0000  -1.8591   0.0000   0.0000   0.0000   0.2667
  11.400   0.8207   0.09333   0.08609  -0.0258  0.2823  1.0000  -1.8284   0.0000   0.0000   0.0000   0.2683
  11.500   0.8091   0.09583   0.08861  -0.0269  0.2781  1.0000  -1.7967   0.0000   0.0000   0.0000   0.2700
  11.600   0.7995   0.09815   0.09094  -0.0278  0.2740  1.0000  -1.7710   0.0000   0.0000   0.0000   0.2715
  11.700   0.7921   0.10025   0.09305  -0.0287  0.2702  1.0000  -1.7521   0.0000   0.0000   0.0000   0.2728
  11.800   0.7863   0.10219   0.09501  -0.0294  0.2667  1.0000  -1.7384   0.0000   0.0000   0.0000   0.2739
  11.900   0.7819   0.10407   0.09691  -0.0301  0.2637  1.0000  -1.7280   0.0000   0.0000   0.0000   0.2749
  12.000   0.7784   0.10588   0.09873  -0.0307  0.2610  1.0000  -1.7205   0.0000   0.0000   0.0000   0.2758
  12.100   0.7756   0.10760   0.10047  -0.0313  0.2584  1.0000  -1.7148   0.0000   0.0000   0.0000   0.2766
  12.200   0.7735   0.10926   0.10213  -0.0319  0.2560  1.0000  -1.7112   0.0000   0.0000   0.0000   0.2774
  12.300   0.7720   0.11085   0.10374  -0.0325  0.2537  1.0000  -1.7098   0.0000   0.0000   0.0000   0.2781
  12.400   0.7712   0.11239   0.10530  -0.0330  0.2515  1.0000  -1.7102   0.0000   0.0000   0.0000   0.2787
  12.500   0.7709   0.11390   0.10682  -0.0335  0.2495  1.0000  -1.7121   0.0000   0.0000   0.0000   0.2793
  12.600   0.7710   0.11538   0.10832  -0.0340  0.2475  1.0000  -1.7152   0.0000   0.0000   0.0000   0.2798
  12.700   0.7715   0.11684   0.10979  -0.0344  0.2457  1.0000  -1.7193   0.0000   0.0000   0.0000   0.2802
  12.800   0.7722   0.11827   0.11123  -0.0349  0.2441  1.0000  -1.7243   0.0000   0.0000   0.0000   0.2807
  12.900   0.7733   0.11968   0.11266  -0.0353  0.2424  1.0000  -1.7303   0.0000   0.0000   0.0000   0.2811
  13.000   0.7747   0.12106   0.11406  -0.0358  0.2409  1.0000  -1.7371   0.0000   0.0000   0.0000   0.2814
  13.100   0.7763   0.12242   0.11543  -0.0362  0.2393  1.0000  -1.7448   0.0000   0.0000   0.0000   0.2817
  13.200   0.7783   0.12375   0.11677  -0.0366  0.2378  1.0000  -1.7534   0.0000   0.0000   0.0000   0.2820
  13.300   0.7805   0.12504   0.11808  -0.0369  0.2363  1.0000  -1.7630   0.0000   0.0000   0.0000   0.2822
  13.400   0.7832   0.12629   0.11936  -0.0373  0.2348  1.0000  -1.7737   0.0000   0.0000   0.0000   0.2823
  13.500   0.7862   0.12750   0.12059  -0.0376  0.2332  1.0000  -1.7858   0.0000   0.0000   0.0000   0.2824
  13.600   0.7897   0.12867   0.12178  -0.0379  0.2315  1.0000  -1.7994   0.0000   0.0000   0.0000   0.2824
  13.700   0.7936   0.12980   0.12293  -0.0381  0.2299  1.0000  -1.8142   0.0000   0.0000   0.0000   0.2823
  13.800   0.7983   0.13085   0.12400  -0.0383  0.2282  1.0000  -1.8319   0.0000   0.0000   0.0000   0.2821
  13.900   0.8167   0.12969   0.12286  -0.0370  0.2238  1.0000  -1.9102   0.0000   0.0000   0.0000   0.2791
  14.000   0.9800   0.08784   0.07940  -0.0171  0.0614  1.0000  -3.0173   0.0000   0.0000   0.0000   0.2476
  14.100   0.9769   0.08954   0.08095  -0.0177  0.0544  1.0000  -3.0212   0.0000   0.0000   0.0000   0.2480
  14.200   0.9755   0.09105   0.08239  -0.0180  0.0491  1.0000  -3.0311   0.0000   0.0000   0.0000   0.2483
  14.300   0.9760   0.09231   0.08365  -0.0183  0.0465  1.0000  -3.0550   0.0000   0.0000   0.0000   0.2484
  14.400   0.9766   0.09357   0.08492  -0.0186  0.0444  1.0000  -3.0796   0.0000   0.0000   0.0000   0.2485
  14.500   0.9772   0.09485   0.08621  -0.0189  0.0426  1.0000  -3.1040   0.0000   0.0000   0.0000   0.2486
  14.600   0.9778   0.09615   0.08752  -0.0192  0.0411  1.0000  -3.1280   0.0000   0.0000   0.0000   0.2487
  14.700   0.9784   0.09746   0.08884  -0.0196  0.0398  1.0000  -3.1514   0.0000   0.0000   0.0000   0.2489
  14.800   0.9789   0.09878   0.09018  -0.0200  0.0387  1.0000  -3.1743   0.0000   0.0000   0.0000   0.2491
  14.900   0.9795   0.10012   0.09154  -0.0203  0.0377  1.0000  -3.1964   0.0000   0.0000   0.0000   0.2492
  15.000   0.9801   0.10147   0.09291  -0.0207  0.0369  1.0000  -3.2179   0.0000   0.0000   0.0000   0.2494
  15.100   0.9807   0.10283   0.09430  -0.0211  0.0361  1.0000  -3.2388   0.0000   0.0000   0.0000   0.2497
  15.200   0.9813   0.10418   0.09568  -0.0215  0.0354  1.0000  -3.2593   0.0000   0.0000   0.0000   0.2499
  15.300   0.9820   0.10553   0.09707  -0.0220  0.0348  1.0000  -3.2795   0.0000   0.0000   0.0000   0.2501
  15.400   0.9830   0.10686   0.09843  -0.0224  0.0342  1.0000  -3.3005   0.0000   0.0000   0.0000   0.2503
  15.500   0.9841   0.10815   0.09976  -0.0227  0.0336  1.0000  -3.3220   0.0000   0.0000   0.0000   0.2505
  15.600   0.9854   0.10942   0.10106  -0.0231  0.0331  1.0000  -3.3439   0.0000   0.0000   0.0000   0.2506
  15.700   0.9869   0.11066   0.10234  -0.0235  0.0327  1.0000  -3.3660   0.0000   0.0000   0.0000   0.2507
  15.800   0.9886   0.11185   0.10357  -0.0238  0.0323  1.0000  -3.3891   0.0000   0.0000   0.0000   0.2508
  15.900   0.9906   0.11297   0.10473  -0.0241  0.0319  1.0000  -3.4135   0.0000   0.0000   0.0000   0.2509
  16.000   0.9929   0.11404   0.10585  -0.0244  0.0315  1.0000  -3.4390   0.0000   0.0000   0.0000   0.2509
  16.100   0.9958   0.11499   0.10683  -0.0245  0.0312  1.0000  -3.4675   0.0000   0.0000   0.0000   0.2508
  16.200   0.9994   0.11577   0.10765  -0.0246  0.0309  1.0000  -3.4999   0.0000   0.0000   0.0000   0.2505
  16.300   1.0030   0.11656   0.10849  -0.0246  0.0306  1.0000  -3.5318   0.0000   0.0000   0.0000   0.2503
  16.400   1.0064   0.11742   0.10940  -0.0248  0.0304  1.0000  -3.5617   0.0000   0.0000   0.0000   0.2501
  16.500   1.0099   0.11830   0.11034  -0.0249  0.0302  1.0000  -3.5911   0.0000   0.0000   0.0000   0.2499
  16.600   1.0128   0.11930   0.11139  -0.0251  0.0301  1.0000  -3.6170   0.0000   0.0000   0.0000   0.2498
  16.700   1.0140   0.12065   0.11280  -0.0255  0.0301  1.0000  -3.6324   0.0000   0.0000   0.0000   0.2500
  16.800   1.0119   0.12269   0.11491  -0.0265  0.0301  1.0000  -3.6281   0.0000   0.0000   0.0000   0.2509
  16.900   1.0100   0.12476   0.11706  -0.0275  0.0301  1.0000  -3.6230   0.0000   0.0000   0.0000   0.2518
  17.000   1.0091   0.12659   0.11896  -0.0283  0.0301  1.0000  -3.6239   0.0000   0.0000   0.0000   0.2524
  17.100   1.0085   0.12836   0.12079  -0.0291  0.0302  1.0000  -3.6257   0.0000   0.0000   0.0000   0.2530
  17.200   1.0080   0.13012   0.12263  -0.0298  0.0302  1.0000  -3.6269   0.0000   0.0000   0.0000   0.2537
  17.300   1.0074   0.13189   0.12447  -0.0306  0.0303  1.0000  -3.6270   0.0000   0.0000   0.0000   0.2543
  17.400   1.0067   0.13372   0.12637  -0.0315  0.0304  1.0000  -3.6245   0.0000   0.0000   0.0000   0.2550
  17.500   1.0057   0.13562   0.12834  -0.0323  0.0305  1.0000  -3.6189   0.0000   0.0000   0.0000   0.2557
  17.600   1.0043   0.13762   0.13040  -0.0333  0.0306  1.0000  -3.6093   0.0000   0.0000   0.0000   0.2566
  17.700   1.0025   0.13972   0.13258  -0.0343  0.0308  1.0000  -3.5952   0.0000   0.0000   0.0000   0.2575
  17.800   1.0001   0.14193   0.13487  -0.0354  0.0310  1.0000  -3.5747   0.0000   0.0000   0.0000   0.2586
  17.900   0.9969   0.14431   0.13733  -0.0366  0.0312  1.0000  -3.5453   0.0000   0.0000   0.0000   0.2599
  18.000   0.9924   0.14700   0.14010  -0.0381  0.0315  1.0000  -3.5031   0.0000   0.0000   0.0000   0.2614
  18.100   0.9859   0.15022   0.14341  -0.0399  0.0318  1.0000  -3.4409   0.0000   0.0000   0.0000   0.2635
  18.200   0.9761   0.15438   0.14767  -0.0422  0.0322  1.0000  -3.3443   0.0000   0.0000   0.0000   0.2664
  18.300   0.9564   0.16156   0.15500  -0.0462  0.0329  1.0000  -3.1407   0.0000   0.0000   0.0000   0.2719
  18.400   0.9243   0.17363   0.16722  -0.0522  0.0346  1.0000  -2.7472   0.0000   0.0000   0.0000   0.2811
  18.500   0.9088   0.18165   0.17526  -0.0556  0.0361  1.0000  -2.5039   0.0000   0.0000   0.0000   0.2864
  18.600   0.8996   0.18764   0.18126  -0.0581  0.0373  1.0000  -2.3414   0.0000   0.0000   0.0000   0.2901
  18.700   0.8944   0.19212   0.18574  -0.0599  0.0383  1.0000  -2.2375   0.0000   0.0000   0.0000   0.2927
  18.800   0.8911   0.19592   0.18953  -0.0614  0.0392  1.0000  -2.1602   0.0000   0.0000   0.0000   0.2947
  18.900   0.8890   0.19933   0.19294  -0.0628  0.0401  1.0000  -2.0981   0.0000   0.0000   0.0000   0.2964
  19.000   0.8877   0.20248   0.19610  -0.0640  0.0410  1.0000  -2.0467   0.0000   0.0000   0.0000   0.2979
  19.100   0.8870   0.20545   0.19906  -0.0651  0.0419  1.0000  -2.0035   0.0000   0.0000   0.0000   0.2992
  19.200   0.8868   0.20826   0.20187  -0.0661  0.0429  1.0000  -1.9671   0.0000   0.0000   0.0000   0.3003
  19.300   0.8871   0.21096   0.20456  -0.0670  0.0439  1.0000  -1.9368   0.0000   0.0000   0.0000   0.3013
  19.400   0.8878   0.21356   0.20717  -0.0679  0.0450  1.0000  -1.9121   0.0000   0.0000   0.0000   0.3021
  19.500   0.8888   0.21614   0.20974  -0.0687  0.0462  1.0000  -1.8922   0.0000   0.0000   0.0000   0.3028
  19.600   0.8902   0.21890   0.21250  -0.0694  0.0476  1.0000  -1.8751   0.0000   0.0000   0.0000   0.3034
  19.700   0.8804   0.23025   0.22395  -0.0728  0.0706  1.0000  -1.5502   0.0000   0.0000   0.0000   0.3091
  20.100   0.8777   0.24179   0.23555  -0.0778  0.0839  1.0000  -1.3884   0.0000   0.0000   0.0000   0.3150
  20.200   0.8788   0.24409   0.23785  -0.0787  0.0842  1.0000  -1.3769   0.0000   0.0000   0.0000   0.3158
  20.300   0.8801   0.24634   0.24009  -0.0795  0.0845  1.0000  -1.3678   0.0000   0.0000   0.0000   0.3165
  20.400   0.8815   0.24854   0.24230  -0.0803  0.0846  1.0000  -1.3604   0.0000   0.0000   0.0000   0.3172
  20.500   0.8831   0.25071   0.24446  -0.0811  0.0846  1.0000  -1.3544   0.0000   0.0000   0.0000   0.3178
  20.600   0.8848   0.25284   0.24659  -0.0819  0.0846  1.0000  -1.3496   0.0000   0.0000   0.0000   0.3184
  20.700   0.8865   0.25495   0.24870  -0.0827  0.0844  1.0000  -1.3458   0.0000   0.0000   0.0000   0.3190
  20.800   0.8884   0.25703   0.25078  -0.0835  0.0841  1.0000  -1.3432   0.0000   0.0000   0.0000   0.3195
  20.900   0.8904   0.25909   0.25284  -0.0842  0.0838  1.0000  -1.3417   0.0000   0.0000   0.0000   0.3200
  21.000   0.8925   0.26114   0.25489  -0.0849  0.0834  1.0000  -1.3414   0.0000   0.0000   0.0000   0.3204
  21.100   0.8947   0.26318   0.25692  -0.0856  0.0830  1.0000  -1.3424   0.0000   0.0000   0.0000   0.3208
  21.200   0.8970   0.26520   0.25895  -0.0863  0.0825  1.0000  -1.3447   0.0000   0.0000   0.0000   0.3211
  21.300   0.8996   0.26723   0.26098  -0.0870  0.0820  1.0000  -1.3486   0.0000   0.0000   0.0000   0.3214
  21.400   0.9023   0.26927   0.26302  -0.0876  0.0815  1.0000  -1.3540   0.0000   0.0000   0.0000   0.3217
  21.500   0.9052   0.27132   0.26507  -0.0882  0.0809  1.0000  -1.3611   0.0000   0.0000   0.0000   0.3219
  21.600   0.9083   0.27341   0.26717  -0.0888  0.0803  1.0000  -1.3701   0.0000   0.0000   0.0000   0.3220
  21.700   0.9117   0.27556   0.26931  -0.0894  0.0798  1.0000  -1.3811   0.0000   0.0000   0.0000   0.3220
  21.800   0.9154   0.27779   0.27155  -0.0899  0.0792  1.0000  -1.3942   0.0000   0.0000   0.0000   0.3220
  21.900   0.9195   0.28015   0.27392  -0.0903  0.0787  1.0000  -1.4098   0.0000   0.0000   0.0000   0.3218
  22.000   0.9242   0.28271   0.27648  -0.0908  0.0781  1.0000  -1.4283   0.0000   0.0000   0.0000   0.3216
  22.100   0.9295   0.28557   0.27936  -0.0911  0.0776  1.0000  -1.4503   0.0000   0.0000   0.0000   0.3212
  22.200   0.9357   0.28895   0.28275  -0.0914  0.0771  1.0000  -1.4769   0.0000   0.0000   0.0000   0.3206
  22.300   0.9438   0.29339   0.28720  -0.0916  0.0765  1.0000  -1.5107   0.0000   0.0000   0.0000   0.3198
  22.400   0.9540   0.30842   0.30221  -0.0926  0.0750  1.0000  -1.5217   0.0000   0.0000   0.0000   0.3197
  22.500   0.9551   0.31061   0.30441  -0.0935  0.0749  1.0000  -1.5140   0.0000   0.0000   0.0000   0.3204
  22.600   0.9561   0.31277   0.30657  -0.0945  0.0749  1.0000  -1.5062   0.0000   0.0000   0.0000   0.3211
  22.700   0.9571   0.31488   0.30869  -0.0954  0.0748  1.0000  -1.4983   0.0000   0.0000   0.0000   0.3219
  22.800   0.9579   0.31690   0.31072  -0.0964  0.0747  1.0000  -1.4898   0.0000   0.0000   0.0000   0.3227
  22.900   0.9587   0.31888   0.31270  -0.0974  0.0747  1.0000  -1.4811   0.0000   0.0000   0.0000   0.3235
  23.000   0.9588   0.32067   0.31450  -0.0985  0.0746  1.0000  -1.4691   0.0000   0.0000   0.0000   0.3245
  23.100   0.9583   0.32229   0.31613  -0.0997  0.0745  1.0000  -1.4540   0.0000   0.0000   0.0000   0.3256
  23.200   0.9576   0.32381   0.31765  -0.1009  0.0744  1.0000  -1.4379   0.0000   0.0000   0.0000   0.3268
  23.300   0.9564   0.32510   0.31894  -0.1021  0.0742  1.0000  -1.4193   0.0000   0.0000   0.0000   0.3281
  23.400   0.9542   0.32612   0.31997  -0.1036  0.0740  1.0000  -1.3961   0.0000   0.0000   0.0000   0.3297
  23.500   0.9518   0.32698   0.32084  -0.1051  0.0737  1.0000  -1.3707   0.0000   0.0000   0.0000   0.3314
  23.600   0.9492   0.32768   0.32155  -0.1066  0.0733  1.0000  -1.3425   0.0000   0.0000   0.0000   0.3333
  23.700   0.9465   0.32838   0.32225  -0.1082  0.0726  1.0000  -1.3124   0.0000   0.0000   0.0000   0.3352
  23.800   0.9449   0.32961   0.32349  -0.1097  0.0715  1.0000  -1.2856   0.0000   0.0000   0.0000   0.3369
  23.900   0.9447   0.33171   0.32560  -0.1112  0.0702  1.0000  -1.2672   0.0000   0.0000   0.0000   0.3383
  24.000   0.9454   0.33443   0.32834  -0.1126  0.0689  1.0000  -1.2547   0.0000   0.0000   0.0000   0.3396
  24.100   0.9464   0.33759   0.33153  -0.1142  0.0675  1.0000  -1.2449   0.0000   0.0000   0.0000   0.3409
  24.200   0.9476   0.34136   0.33534  -0.1161  0.0662  1.0000  -1.2347   0.0000   0.0000   0.0000   0.3427
  24.500   0.9126   0.34653   0.34263  -0.1660  0.0493  1.0000  -0.8893   0.0000   0.0000   0.0000   0.4040
  24.600   0.9103   0.34608   0.34220  -0.1672  0.0490  1.0000  -0.8674   0.0000   0.0000   0.0000   0.4057
  24.700   0.9084   0.34583   0.34198  -0.1684  0.0487  1.0000  -0.8453   0.0000   0.0000   0.0000   0.4073
  24.800   0.9069   0.34598   0.34214  -0.1697  0.0481  1.0000  -0.8231   0.0000   0.0000   0.0000   0.4089
  24.900   0.9062   0.34671   0.34289  -0.1709  0.0473  1.0000  -0.8022   0.0000   0.0000   0.0000   0.4102
  25.000   0.9062   0.34788   0.34407  -0.1720  0.0460  1.0000  -0.7865   0.0000   0.0000   0.0000   0.4112
  25.100   0.9066   0.34908   0.34529  -0.1729  0.0447  1.0000  -0.7763   0.0000   0.0000   0.0000   0.4120
  25.200   0.9070   0.35023   0.34646  -0.1737  0.0434  1.0000  -0.7696   0.0000   0.0000   0.0000   0.4126
  25.300   0.9074   0.35131   0.34756  -0.1745  0.0422  1.0000  -0.7649   0.0000   0.0000   0.0000   0.4132
  25.400   0.9078   0.35236   0.34862  -0.1752  0.0410  1.0000  -0.7615   0.0000   0.0000   0.0000   0.4138
  25.500   0.9082   0.35337   0.34965  -0.1759  0.0399  1.0000  -0.7592   0.0000   0.0000   0.0000   0.4143
  25.600   0.9086   0.35435   0.35065  -0.1766  0.0388  1.0000  -0.7577   0.0000   0.0000   0.0000   0.4148
  25.700   0.9091   0.35532   0.35163  -0.1773  0.0378  1.0000  -0.7570   0.0000   0.0000   0.0000   0.4152
  25.800   0.9096   0.35626   0.35259  -0.1779  0.0368  1.0000  -0.7571   0.0000   0.0000   0.0000   0.4156
  25.900   0.9100   0.35718   0.35353  -0.1786  0.0359  1.0000  -0.7578   0.0000   0.0000   0.0000   0.4160
  26.000   0.9105   0.35809   0.35445  -0.1792  0.0350  1.0000  -0.7593   0.0000   0.0000   0.0000   0.4164
  26.100   0.9110   0.35897   0.35535  -0.1798  0.0342  1.0000  -0.7615   0.0000   0.0000   0.0000   0.4168
  26.200   0.9115   0.35982   0.35622  -0.1804  0.0334  1.0000  -0.7646   0.0000   0.0000   0.0000   0.4171
  26.300   0.9120   0.36066   0.35707  -0.1810  0.0326  1.0000  -0.7685   0.0000   0.0000   0.0000   0.4174
  26.400   0.9126   0.36147   0.35789  -0.1816  0.0319  1.0000  -0.7733   0.0000   0.0000   0.0000   0.4177
  26.500   0.9132   0.36224   0.35868  -0.1821  0.0313  1.0000  -0.7792   0.0000   0.0000   0.0000   0.4179
  26.600   0.9137   0.36299   0.35944  -0.1827  0.0306  1.0000  -0.7861   0.0000   0.0000   0.0000   0.4181
  26.700   0.9144   0.36371   0.36017  -0.1832  0.0300  1.0000  -0.7943   0.0000   0.0000   0.0000   0.4183
  26.800   0.9150   0.36439   0.36086  -0.1836  0.0294  1.0000  -0.8039   0.0000   0.0000   0.0000   0.4184
  26.900   0.9157   0.36504   0.36153  -0.1841  0.0289  1.0000  -0.8150   0.0000   0.0000   0.0000   0.4185
  27.000   0.9165   0.36568   0.36218  -0.1845  0.0284  1.0000  -0.8279   0.0000   0.0000   0.0000   0.4185
  27.100   0.9173   0.36631   0.36282  -0.1849  0.0279  1.0000  -0.8426   0.0000   0.0000   0.0000   0.4184
  27.200   0.9184   0.36698   0.36351  -0.1851  0.0274  1.0000  -0.8598   0.0000   0.0000   0.0000   0.4182
  27.300   0.9196   0.36781   0.36435  -0.1854  0.0270  1.0000  -0.8796   0.0000   0.0000   0.0000   0.4179
  27.400   0.9213   0.36910   0.36566  -0.1855  0.0265  1.0000  -0.9023   0.0000   0.0000   0.0000   0.4173
  27.500   0.9219   0.37855   0.37507  -0.1856  0.0250  1.0000  -0.8547   0.0000   0.0000   0.0000   0.4174
  27.600   0.9217   0.37922   0.37575  -0.1862  0.0250  1.0000  -0.8484   0.0000   0.0000   0.0000   0.4180
  27.700   0.9214   0.37987   0.37642  -0.1869  0.0249  1.0000  -0.8422   0.0000   0.0000   0.0000   0.4185
  27.800   0.9211   0.38052   0.37708  -0.1875  0.0249  1.0000  -0.8361   0.0000   0.0000   0.0000   0.4191
  27.900   0.9209   0.38117   0.37774  -0.1882  0.0249  1.0000  -0.8302   0.0000   0.0000   0.0000   0.4196
  28.000   0.9206   0.38181   0.37839  -0.1888  0.0248  1.0000  -0.8245   0.0000   0.0000   0.0000   0.4201
  28.100   0.9204   0.38244   0.37904  -0.1895  0.0248  1.0000  -0.8190   0.0000   0.0000   0.0000   0.4206
  28.200   0.9201   0.38305   0.37966  -0.1901  0.0247  1.0000  -0.8133   0.0000   0.0000   0.0000   0.4212
  28.300   0.9198   0.38363   0.38025  -0.1908  0.0247  1.0000  -0.8076   0.0000   0.0000   0.0000   0.4217
  28.400   0.9196   0.38421   0.38084  -0.1914  0.0246  1.0000  -0.8020   0.0000   0.0000   0.0000   0.4222
  28.500   0.9193   0.38479   0.38143  -0.1920  0.0245  1.0000  -0.7966   0.0000   0.0000   0.0000   0.4228
  28.600   0.9190   0.38532   0.38197  -0.1927  0.0245  1.0000  -0.7903   0.0000   0.0000   0.0000   0.4233
  28.700   0.9184   0.38579   0.38246  -0.1934  0.0243  1.0000  -0.7823   0.0000   0.0000   0.0000   0.4240
  28.800   0.9180   0.38629   0.38297  -0.1941  0.0242  1.0000  -0.7744   0.0000   0.0000   0.0000   0.4246
  28.900   0.9176   0.38685   0.38354  -0.1949  0.0241  1.0000  -0.7663   0.0000   0.0000   0.0000   0.4253
  29.000   0.9174   0.38750   0.38420  -0.1956  0.0238  1.0000  -0.7580   0.0000   0.0000   0.0000   0.4259
  29.100   0.9173   0.38828   0.38499  -0.1964  0.0236  1.0000  -0.7492   0.0000   0.0000   0.0000   0.4265
  29.200   0.9174   0.38925   0.38597  -0.1972  0.0232  1.0000  -0.7400   0.0000   0.0000   0.0000   0.4271
  29.300   0.9177   0.39039   0.38713  -0.1979  0.0228  1.0000  -0.7308   0.0000   0.0000   0.0000   0.4276
  29.400   0.9182   0.39165   0.38839  -0.1986  0.0223  1.0000  -0.7224   0.0000   0.0000   0.0000   0.4280
  29.500   0.9186   0.39291   0.38967  -0.1993  0.0219  1.0000  -0.7153   0.0000   0.0000   0.0000   0.4284
  29.600   0.9189   0.39414   0.39091  -0.1999  0.0214  1.0000  -0.7098   0.0000   0.0000   0.0000   0.4287
  29.700   0.9192   0.39533   0.39212  -0.2005  0.0209  1.0000  -0.7054   0.0000   0.0000   0.0000   0.4290
  29.800   0.9194   0.39648   0.39328  -0.2010  0.0205  1.0000  -0.7019   0.0000   0.0000   0.0000   0.4293
  29.900   0.9196   0.39760   0.39441  -0.2016  0.0201  1.0000  -0.6991   0.0000   0.0000   0.0000   0.4296
  30.000   0.9198   0.39870   0.39552  -0.2021  0.0197  1.0000  -0.6970   0.0000   0.0000   0.0000   0.4299


