xflr5 v6.61

 Calculated polar for: LISSAMAN 7769 AIRFOIL

 1 1 Reynolds number fixed          Mach number fixed         

 xtrf =   1.000 (top)        1.000 (bottom)
 Mach =   0.000     Re =     0.450 e 6     Ncrit =   9.000

  alpha     CL        CD       CDp       Cm    Top Xtr Bot Xtr   Cpmin    Chinge    XCp    
 ------- -------- --------- --------- -------- ------- ------- -------- --------- ---------
 -10.000  -0.2639   0.10920   0.10550  -0.0111  0.4998  0.0478  -1.1640   0.0000   0.0000   0.0000   0.1987
  -9.900  -0.2619   0.10855   0.10485  -0.0115  0.4998  0.0480  -1.1685   0.0000   0.0000   0.0000   0.1967
  -9.800  -0.2600   0.10783   0.10414  -0.0120  0.4997  0.0482  -1.1730   0.0000   0.0000   0.0000   0.1947
  -9.700  -0.2581   0.10706   0.10337  -0.0124  0.4997  0.0483  -1.1775   0.0000   0.0000   0.0000   0.1927
  -9.600  -0.2561   0.10623   0.10254  -0.0129  0.4996  0.0484  -1.1817   0.0000   0.0000   0.0000   0.1908
  -9.500  -0.2541   0.10534   0.10165  -0.0133  0.4995  0.0485  -1.1859   0.0000   0.0000   0.0000   0.1888
  -9.400  -0.2519   0.10438   0.10069  -0.0137  0.4995  0.0486  -1.1896   0.0000   0.0000   0.0000   0.1869
  -9.300  -0.2496   0.10339   0.09970  -0.0140  0.4994  0.0486  -1.1931   0.0000   0.0000   0.0000   0.1849
  -9.200  -0.2474   0.10239   0.09871  -0.0144  0.4993  0.0486  -1.1968   0.0000   0.0000   0.0000   0.1830
  -9.100  -0.2451   0.10140   0.09771  -0.0147  0.4992  0.0487  -1.1997   0.0000   0.0000   0.0000   0.1811
  -9.000  -0.2428   0.10040   0.09672  -0.0151  0.4992  0.0487  -1.2025   0.0000   0.0000   0.0000   0.1792
  -8.900  -0.2406   0.09942   0.09573  -0.0154  0.4991  0.0487  -1.2054   0.0000   0.0000   0.0000   0.1774
  -8.800  -0.2385   0.09843   0.09475  -0.0157  0.4990  0.0488  -1.2085   0.0000   0.0000   0.0000   0.1755
  -8.700  -0.2364   0.09745   0.09377  -0.0160  0.4989  0.0488  -1.2116   0.0000   0.0000   0.0000   0.1738
  -8.600  -0.2344   0.09648   0.09280  -0.0163  0.4988  0.0488  -1.2148   0.0000   0.0000   0.0000   0.1720
  -8.500  -0.2325   0.09551   0.09183  -0.0166  0.4987  0.0489  -1.2182   0.0000   0.0000   0.0000   0.1703
  -8.400  -0.2307   0.09455   0.09087  -0.0168  0.4986  0.0489  -1.2217   0.0000   0.0000   0.0000   0.1686
  -8.300  -0.2290   0.09360   0.08992  -0.0171  0.4985  0.0489  -1.2254   0.0000   0.0000   0.0000   0.1670
  -8.200  -0.2274   0.09265   0.08897  -0.0173  0.4984  0.0490  -1.2292   0.0000   0.0000   0.0000   0.1655
  -8.100  -0.2259   0.09171   0.08803  -0.0176  0.4983  0.0490  -1.2332   0.0000   0.0000   0.0000   0.1641
  -8.000  -0.2245   0.09077   0.08710  -0.0178  0.4981  0.0490  -1.2375   0.0000   0.0000   0.0000   0.1628
  -7.900  -0.2233   0.08984   0.08617  -0.0180  0.4980  0.0490  -1.2419   0.0000   0.0000   0.0000   0.1615
  -7.800  -0.2223   0.08890   0.08524  -0.0182  0.4979  0.0491  -1.2467   0.0000   0.0000   0.0000   0.1604
  -7.700  -0.2214   0.08797   0.08430  -0.0184  0.4978  0.0491  -1.2517   0.0000   0.0000   0.0000   0.1594
  -7.600  -0.2208   0.08703   0.08337  -0.0185  0.4976  0.0491  -1.2571   0.0000   0.0000   0.0000   0.1586
  -7.500  -0.2204   0.08610   0.08244  -0.0186  0.4975  0.0492  -1.2628   0.0000   0.0000   0.0000   0.1580
  -7.400  -0.2202   0.08518   0.08153  -0.0187  0.4973  0.0492  -1.2690   0.0000   0.0000   0.0000   0.1577
  -7.300  -0.2205   0.08427   0.08062  -0.0188  0.4972  0.0492  -1.2757   0.0000   0.0000   0.0000   0.1577
  -7.200  -0.2211   0.08337   0.07973  -0.0188  0.4970  0.0492  -1.2831   0.0000   0.0000   0.0000   0.1580
  -7.100  -0.2224   0.08250   0.07886  -0.0188  0.4968  0.0493  -1.2912   0.0000   0.0000   0.0000   0.1588
  -7.000  -0.2243   0.08165   0.07802  -0.0187  0.4967  0.0493  -1.3003   0.0000   0.0000   0.0000   0.1603
  -6.900  -0.2273   0.08085   0.07723  -0.0184  0.4965  0.0493  -1.3106   0.0000   0.0000   0.0000   0.1626
  -6.800  -0.2312   0.08011   0.07650  -0.0181  0.4963  0.0493  -1.3223   0.0000   0.0000   0.0000   0.1657
  -6.700  -0.2349   0.07942   0.07580  -0.0178  0.4961  0.0494  -1.3343   0.0000   0.0000   0.0000   0.1684
  -6.600  -0.2361   0.07851   0.07490  -0.0180  0.4959  0.0494  -1.3442   0.0000   0.0000   0.0000   0.1682
  -6.500  -0.2361   0.07751   0.07390  -0.0183  0.4957  0.0494  -1.3530   0.0000   0.0000   0.0000   0.1669
  -6.400  -0.2356   0.07648   0.07286  -0.0187  0.4954  0.0494  -1.3616   0.0000   0.0000   0.0000   0.1651
  -6.300  -0.2347   0.07543   0.07180  -0.0191  0.4952  0.0495  -1.3695   0.0000   0.0000   0.0000   0.1633
  -6.200  -0.2333   0.07436   0.07071  -0.0195  0.4949  0.0495  -1.3772   0.0000   0.0000   0.0000   0.1611
  -6.100  -0.2316   0.07326   0.06960  -0.0200  0.4946  0.0495  -1.3845   0.0000   0.0000   0.0000   0.1586
  -6.000  -0.2295   0.07216   0.06849  -0.0204  0.4943  0.0495  -1.3911   0.0000   0.0000   0.0000   0.1561
  -5.900  -0.2271   0.07104   0.06735  -0.0208  0.4939  0.0496  -1.3974   0.0000   0.0000   0.0000   0.1532
  -5.800  -0.2241   0.06989   0.06618  -0.0213  0.4936  0.0496  -1.4033   0.0000   0.0000   0.0000   0.1500
  -5.700  -0.2209   0.06874   0.06501  -0.0218  0.4932  0.0496  -1.4087   0.0000   0.0000   0.0000   0.1465
  -5.600  -0.2175   0.06759   0.06384  -0.0222  0.4928  0.0496  -1.4134   0.0000   0.0000   0.0000   0.1431
  -5.500  -0.2137   0.06643   0.06265  -0.0226  0.4923  0.0497  -1.4176   0.0000   0.0000   0.0000   0.1393
  -5.400  -0.2095   0.06525   0.06145  -0.0231  0.4919  0.0497  -1.4215   0.0000   0.0000   0.0000   0.1351
  -5.300  -0.2049   0.06407   0.06024  -0.0235  0.4913  0.0497  -1.4248   0.0000   0.0000   0.0000   0.1304
  -5.200  -0.1999   0.06288   0.05902  -0.0239  0.4908  0.0497  -1.4277   0.0000   0.0000   0.0000   0.1254
  -5.100  -0.1949   0.06170   0.05780  -0.0243  0.4901  0.0498  -1.4299   0.0000   0.0000   0.0000   0.1203
  -5.000  -0.1897   0.06052   0.05659  -0.0247  0.4895  0.0498  -1.4317   0.0000   0.0000   0.0000   0.1148
  -4.900  -0.1842   0.05934   0.05537  -0.0251  0.4888  0.0498  -1.4330   0.0000   0.0000   0.0000   0.1088
  -4.800  -0.1783   0.05815   0.05415  -0.0255  0.4880  0.0499  -1.4339   0.0000   0.0000   0.0000   0.1022
  -4.700  -0.1722   0.05696   0.05292  -0.0258  0.4871  0.0499  -1.4344   0.0000   0.0000   0.0000   0.0949
  -4.600  -0.1657   0.05577   0.05168  -0.0262  0.4861  0.0499  -1.4345   0.0000   0.0000   0.0000   0.0868
  -4.500  -0.1590   0.05457   0.05044  -0.0265  0.4850  0.0499  -1.4343   0.0000   0.0000   0.0000   0.0778
  -4.400  -0.1519   0.05338   0.04920  -0.0269  0.4839  0.0500  -1.4336   0.0000   0.0000   0.0000   0.0678
  -4.300  -0.1449   0.05220   0.04798  -0.0272  0.4826  0.0500  -1.4322   0.0000   0.0000   0.0000   0.0568
  -4.200  -0.1376   0.05104   0.04676  -0.0275  0.4811  0.0500  -1.4303   0.0000   0.0000   0.0000   0.0447
  -4.100  -0.1504   0.04130   0.03675  -0.0303  0.4818  0.0526  -1.6918   0.0000   0.0000   0.0000   0.0418
  -4.000  -0.1432   0.04011   0.03553  -0.0305  0.4802  0.0533  -1.6691   0.0000   0.0000   0.0000   0.0306
  -3.900  -0.1351   0.03923   0.03463  -0.0306  0.4783  0.0538  -1.6395   0.0000   0.0000   0.0000   0.0171
  -3.800  -0.1265   0.03848   0.03384  -0.0306  0.4761  0.0544  -1.6078   0.0000   0.0000   0.0000   0.0014
  -3.700  -0.1177   0.03786   0.03321  -0.0306  0.4736  0.0549  -1.5714   0.0000   0.0000   0.0000  -0.0168
  -3.600  -0.1087   0.03728   0.03261  -0.0306  0.4708  0.0554  -1.5347   0.0000   0.0000   0.0000  -0.0383
  -3.500  -0.0996   0.03672   0.03201  -0.0305  0.4676  0.0559  -1.4986   0.0000   0.0000   0.0000  -0.0639
  -3.400  -0.0905   0.03616   0.03142  -0.0305  0.4642  0.0565  -1.4633   0.0000   0.0000   0.0000  -0.0953
  -3.300  -0.0812   0.03561   0.03084  -0.0305  0.4606  0.0572  -1.4290   0.0000   0.0000   0.0000  -0.1344
  -3.200  -0.0718   0.03506   0.03025  -0.0306  0.4568  0.0580  -1.3958   0.0000   0.0000   0.0000  -0.1844
  -3.100  -0.0623   0.03453   0.02966  -0.0306  0.4527  0.0588  -1.3638   0.0000   0.0000   0.0000  -0.2504
  -3.000  -0.0527   0.03400   0.02907  -0.0306  0.4486  0.0598  -1.3329   0.0000   0.0000   0.0000  -0.3418
  -2.900  -0.0430   0.03347   0.02848  -0.0307  0.4447  0.0610  -1.3037   0.0000   0.0000   0.0000  -0.4770
  -2.800  -0.0330   0.03295   0.02790  -0.0308  0.4407  0.0623  -1.2764   0.0000   0.0000   0.0000  -0.6979
  -2.700  -0.0229   0.03243   0.02733  -0.0309  0.4368  0.0640  -1.2514   0.0000   0.0000   0.0000  -1.1244
  -2.600  -0.0123   0.03195   0.02678  -0.0311  0.4332  0.0660  -1.2295   0.0000   0.0000   0.0000  -2.3082
  -2.500  -0.0011   0.03158   0.02635  -0.0312  0.4304  0.0688  -1.2115   0.0000   0.0000   0.0000  -28.7917
  -2.400   0.0122   0.03206   0.02676  -0.0312  0.4281  0.0723  -1.1865   0.0000   0.0000   0.0000   2.8418
  -2.300   0.0267   0.03358   0.02824  -0.0309  0.4264  0.0743  -1.1398   0.0000   0.0000   0.0000   1.4279
  -2.200   0.0384   0.03381   0.02843  -0.0309  0.4252  0.0747  -1.1126   0.0000   0.0000   0.0000   1.0664
  -2.100   0.0440   0.02890   0.02321  -0.0319  0.4248  0.0772  -1.2021   0.0000   0.0000   0.0000   0.9891
  -2.000   0.0526   0.02762   0.02196  -0.0323  0.4240  0.0790  -1.1763   0.0000   0.0000   0.0000   0.8735
  -1.900   0.0625   0.02721   0.02160  -0.0324  0.4234  0.0800  -1.1380   0.0000   0.0000   0.0000   0.7753
  -1.800   0.0726   0.02694   0.02138  -0.0324  0.4229  0.0810  -1.0982   0.0000   0.0000   0.0000   0.7028
  -1.700   0.0828   0.02672   0.02120  -0.0325  0.4226  0.0820  -1.0591   0.0000   0.0000   0.0000   0.6473
  -1.600   0.0931   0.02655   0.02106  -0.0326  0.4223  0.0833  -1.0211   0.0000   0.0000   0.0000   0.6034
  -1.500   0.1036   0.02639   0.02094  -0.0326  0.4221  0.0847  -0.9851   0.0000   0.0000   0.0000   0.5676
  -1.400   0.1144   0.02623   0.02078  -0.0326  0.4220  0.0863  -0.9527   0.0000   0.0000   0.0000   0.5379
  -1.300   0.1253   0.02611   0.02067  -0.0327  0.4219  0.0882  -0.9216   0.0000   0.0000   0.0000   0.5128
  -1.200   0.1365   0.02607   0.02063  -0.0327  0.4218  0.0903  -0.8914   0.0000   0.0000   0.0000   0.4911
  -1.100   0.1479   0.02615   0.02072  -0.0326  0.4218  0.0925  -0.8610   0.0000   0.0000   0.0000   0.4720
  -1.000   0.1596   0.02641   0.02098  -0.0326  0.4218  0.0948  -0.8291   0.0000   0.0000   0.0000   0.4551
  -0.900   0.1715   0.02688   0.02146  -0.0324  0.4219  0.0967  -0.8108   0.0000   0.0000   0.0000   0.4398
  -0.800   0.1836   0.02758   0.02219  -0.0322  0.4220  0.0983  -0.8178   0.0000   0.0000   0.0000   0.4261
  -0.700   0.1956   0.02822   0.02284  -0.0321  0.4222  0.0992  -0.8247   0.0000   0.0000   0.0000   0.4143
  -0.600   0.2071   0.02834   0.02295  -0.0320  0.4223  0.0996  -0.8311   0.0000   0.0000   0.0000   0.4047
  -0.500   0.2184   0.02813   0.02271  -0.0320  0.4225  0.0998  -0.8371   0.0000   0.0000   0.0000   0.3967
  -0.400   0.2295   0.02775   0.02230  -0.0321  0.4226  0.0999  -0.8430   0.0000   0.0000   0.0000   0.3898
  -0.300   0.2406   0.02729   0.02181  -0.0322  0.4228  0.1000  -0.8488   0.0000   0.0000   0.0000   0.3835
   0.300   0.3110   0.01478   0.00761  -0.0312  0.4238  0.0428  -0.9740   0.0000   0.0000   0.0000   0.3507
   0.400   0.3220   0.01471   0.00752  -0.0312  0.4241  0.0419  -0.9494   0.0000   0.0000   0.0000   0.3470
   0.500   0.3331   0.01467   0.00748  -0.0312  0.4244  0.0411  -0.9232   0.0000   0.0000   0.0000   0.3436
   0.600   0.3442   0.01467   0.00747  -0.0312  0.4248  0.0403  -0.8957   0.0000   0.0000   0.0000   0.3404
   0.700   0.3553   0.01470   0.00750  -0.0312  0.4252  0.0396  -0.8991   0.0000   0.0000   0.0000   0.3375
   0.800   0.3663   0.01476   0.00755  -0.0313  0.4256  0.0390  -0.9048   0.0000   0.0000   0.0000   0.3349
   0.900   0.3774   0.01484   0.00763  -0.0313  0.4260  0.0385  -0.9105   0.0000   0.0000   0.0000   0.3324
   1.000   0.3885   0.01494   0.00772  -0.0314  0.4262  0.0380  -0.9162   0.0000   0.0000   0.0000   0.3300
   1.100   0.3995   0.01504   0.00782  -0.0314  0.4263  0.0375  -0.9221   0.0000   0.0000   0.0000   0.3278
   1.200   0.4106   0.01515   0.00792  -0.0315  0.4263  0.0371  -0.9281   0.0000   0.0000   0.0000   0.3257
   1.300   0.4216   0.01525   0.00802  -0.0315  0.4262  0.0367  -0.9342   0.0000   0.0000   0.0000   0.3237
   1.400   0.4323   0.01576   0.00872  -0.0319  0.4291  0.0370  -0.9365   0.0000   0.0000   0.0000   0.3227
   1.500   0.4432   0.01597   0.00893  -0.0321  0.4294  0.0368  -0.9460   0.0000   0.0000   0.0000   0.3211
   1.600   0.4542   0.01605   0.00900  -0.0321  0.4290  0.0366  -0.9566   0.0000   0.0000   0.0000   0.3193
   1.700   0.4652   0.01610   0.00902  -0.0321  0.4283  0.0365  -0.9674   0.0000   0.0000   0.0000   0.3174
   1.800   0.4762   0.01614   0.00904  -0.0321  0.4275  0.0364  -0.9784   0.0000   0.0000   0.0000   0.3157
   1.900   0.4872   0.01619   0.00907  -0.0320  0.4267  0.0363  -0.9893   0.0000   0.0000   0.0000   0.3140
   2.000   0.4981   0.01628   0.00914  -0.0321  0.4261  0.0363  -0.9999   0.0000   0.0000   0.0000   0.3125
   2.100   0.5090   0.01646   0.00932  -0.0321  0.4262  0.0364  -1.0103   0.0000   0.0000   0.0000   0.3112
   2.200   0.5197   0.01667   0.00954  -0.0323  0.4264  0.0366  -1.0225   0.0000   0.0000   0.0000   0.3100
   2.300   0.5306   0.01683   0.00969  -0.0323  0.4262  0.0370  -1.0350   0.0000   0.0000   0.0000   0.3087
   2.400   0.5414   0.01693   0.00978  -0.0323  0.4257  0.0377  -1.0479   0.0000   0.0000   0.0000   0.3074
   2.500   0.5524   0.01699   0.00981  -0.0323  0.4248  0.0391  -1.0612   0.0000   0.0000   0.0000   0.3061
   2.600   0.5633   0.01704   0.00986  -0.0323  0.4237  0.0437  -1.0746   0.0000   0.0000   0.0000   0.3047
   2.700   0.5742   0.01707   0.01001  -0.0322  0.4225  0.0489  -1.0878   0.0000   0.0000   0.0000   0.3035
   2.800   0.5847   0.01700   0.01018  -0.0323  0.4214  0.1044  -1.1007   0.0000   0.0000   0.0000   0.3024
   2.900   0.5952   0.01707   0.01037  -0.0323  0.4205  0.1307  -1.1135   0.0000   0.0000   0.0000   0.3014
   3.000   0.6058   0.01723   0.01057  -0.0324  0.4202  0.1398  -1.1261   0.0000   0.0000   0.0000   0.3005
   3.100   0.6164   0.01743   0.01080  -0.0325  0.4203  0.1444  -1.1387   0.0000   0.0000   0.0000   0.2996
   3.200   0.6270   0.01764   0.01103  -0.0326  0.4204  0.1474  -1.1512   0.0000   0.0000   0.0000   0.2988
   3.300   0.6376   0.01785   0.01127  -0.0327  0.4204  0.1494  -1.1637   0.0000   0.0000   0.0000   0.2980
   3.400   0.6481   0.01807   0.01151  -0.0328  0.4205  0.1543  -1.1762   0.0000   0.0000   0.0000   0.2972
   3.500   0.6585   0.01828   0.01177  -0.0329  0.4205  0.1640  -1.1887   0.0000   0.0000   0.0000   0.2964
   3.600   0.6689   0.01848   0.01203  -0.0330  0.4205  0.1750  -1.2011   0.0000   0.0000   0.0000   0.2957
   3.700   0.6793   0.01867   0.01229  -0.0331  0.4205  0.1854  -1.2135   0.0000   0.0000   0.0000   0.2950
   3.800   0.6896   0.01888   0.01255  -0.0332  0.4204  0.1962  -1.2259   0.0000   0.0000   0.0000   0.2943
   3.900   0.6989   0.01866   0.01284  -0.0334  0.4203  0.4142  -1.2374   0.0000   0.0000   0.0000   0.2939
   4.000   0.7130   0.01756   0.01316  -0.0342  0.4201  1.0000  -1.2534   0.0000   0.0000   0.0000   0.2939
   4.100   0.7232   0.01781   0.01341  -0.0342  0.4199  1.0000  -1.2658   0.0000   0.0000   0.0000   0.2932
   4.200   0.7333   0.01807   0.01367  -0.0343  0.4197  1.0000  -1.2801   0.0000   0.0000   0.0000   0.2925
   4.300   0.7434   0.01832   0.01393  -0.0343  0.4194  1.0000  -1.2988   0.0000   0.0000   0.0000   0.2918
   4.400   0.7534   0.01857   0.01419  -0.0343  0.4191  1.0000  -1.3175   0.0000   0.0000   0.0000   0.2911
   4.500   0.7634   0.01883   0.01446  -0.0343  0.4187  1.0000  -1.3363   0.0000   0.0000   0.0000   0.2904
   4.600   0.7734   0.01909   0.01472  -0.0343  0.4183  1.0000  -1.3551   0.0000   0.0000   0.0000   0.2897
   4.700   0.7833   0.01936   0.01500  -0.0343  0.4178  1.0000  -1.3738   0.0000   0.0000   0.0000   0.2890
   4.800   0.7932   0.01963   0.01527  -0.0343  0.4172  1.0000  -1.3926   0.0000   0.0000   0.0000   0.2884
   4.900   0.8028   0.01992   0.01557  -0.0343  0.4158  1.0000  -1.4114   0.0000   0.0000   0.0000   0.2877
   5.000   0.8119   0.02035   0.01600  -0.0343  0.4139  1.0000  -1.4292   0.0000   0.0000   0.0000   0.2870
   5.100   0.8197   0.02104   0.01671  -0.0343  0.4116  1.0000  -1.4450   0.0000   0.0000   0.0000   0.2865
   5.200   0.8257   0.02215   0.01787  -0.0343  0.4090  1.0000  -1.4575   0.0000   0.0000   0.0000   0.2862
   5.300   0.8282   0.02399   0.01977  -0.0345  0.4063  1.0000  -1.4639   0.0000   0.0000   0.0000   0.2862
   5.500   0.8099   0.03137   0.02739  -0.0351  0.3994  1.0000  -1.4398   0.0000   0.0000   0.0000   0.2877
   5.600   0.8280   0.02988   0.02585  -0.0348  0.3991  1.0000  -1.4740   0.0000   0.0000   0.0000   0.2862
   5.700   0.8441   0.02877   0.02471  -0.0345  0.3988  1.0000  -1.5048   0.0000   0.0000   0.0000   0.2849
   5.800   0.8585   0.02800   0.02391  -0.0343  0.3986  1.0000  -1.5326   0.0000   0.0000   0.0000   0.2839
   5.900   0.8723   0.02735   0.02324  -0.0341  0.3984  1.0000  -1.5595   0.0000   0.0000   0.0000   0.2829
   6.000   0.8853   0.02686   0.02273  -0.0340  0.3981  1.0000  -1.5851   0.0000   0.0000   0.0000   0.2820
   6.100   0.8981   0.02642   0.02229  -0.0338  0.3979  1.0000  -1.6102   0.0000   0.0000   0.0000   0.2811
   6.200   0.9108   0.02600   0.02185  -0.0337  0.3977  1.0000  -1.6355   0.0000   0.0000   0.0000   0.2803
   6.300   0.9235   0.02557   0.02141  -0.0335  0.3975  1.0000  -1.6608   0.0000   0.0000   0.0000   0.2795
   6.400   0.9362   0.02514   0.02097  -0.0334  0.3973  1.0000  -1.6862   0.0000   0.0000   0.0000   0.2787
   6.500   0.9490   0.02472   0.02053  -0.0333  0.3970  1.0000  -1.7118   0.0000   0.0000   0.0000   0.2779
   6.600   0.9617   0.02429   0.02010  -0.0331  0.3967  1.0000  -1.7374   0.0000   0.0000   0.0000   0.2772
   6.700   0.9745   0.02386   0.01965  -0.0330  0.3965  1.0000  -1.7632   0.0000   0.0000   0.0000   0.2765
   6.800   0.9873   0.02343   0.01921  -0.0329  0.3962  1.0000  -1.7892   0.0000   0.0000   0.0000   0.2758
   6.900   1.0002   0.02299   0.01876  -0.0328  0.3959  1.0000  -1.8153   0.0000   0.0000   0.0000   0.2751
   7.000   1.0131   0.02255   0.01831  -0.0327  0.3955  1.0000  -1.8416   0.0000   0.0000   0.0000   0.2744
   7.100   1.0260   0.02210   0.01785  -0.0325  0.3952  1.0000  -1.8680   0.0000   0.0000   0.0000   0.2737
   7.200   1.0413   0.02117   0.01688  -0.0324  0.3947  1.0000  -1.9209   0.0000   0.0000   0.0000   0.2729
   7.300   1.0631   0.01887   0.01445  -0.0321  0.3934  1.0000  -1.9925   0.0000   0.0000   0.0000   0.2718
   7.400   1.0857   0.01618   0.01157  -0.0317  0.3909  1.0000  -2.0682   0.0000   0.0000   0.0000   0.2706
   7.500   1.1037   0.01444   0.00969  -0.0314  0.3878  1.0000  -2.1319   0.0000   0.0000   0.0000   0.2697
   7.600   1.1182   0.01355   0.00871  -0.0313  0.3846  1.0000  -2.1858   0.0000   0.0000   0.0000   0.2690
   7.700   1.1310   0.01306   0.00818  -0.0312  0.3815  1.0000  -2.2351   0.0000   0.0000   0.0000   0.2685
   7.800   1.1433   0.01273   0.00781  -0.0311  0.3781  1.0000  -2.2830   0.0000   0.0000   0.0000   0.2679
   7.900   1.1555   0.01242   0.00745  -0.0311  0.3738  1.0000  -2.3311   0.0000   0.0000   0.0000   0.2674
   8.000   1.1676   0.01213   0.00711  -0.0310  0.3686  1.0000  -2.3792   0.0000   0.0000   0.0000   0.2669
   8.100   1.1795   0.01186   0.00678  -0.0309  0.3611  1.0000  -2.4274   0.0000   0.0000   0.0000   0.2665
   8.200   1.1912   0.01158   0.00639  -0.0308  0.3489  1.0000  -2.4758   0.0000   0.0000   0.0000   0.2659
   8.300   1.2023   0.01126   0.00579  -0.0305  0.3233  1.0000  -2.5238   0.0000   0.0000   0.0000   0.2653
   8.400   1.2118   0.01133   0.00567  -0.0304  0.2967  1.0000  -2.5670   0.0000   0.0000   0.0000   0.2648
   8.500   1.2217   0.01147   0.00573  -0.0303  0.2857  1.0000  -2.6108   0.0000   0.0000   0.0000   0.2644
   8.600   1.2312   0.01168   0.00585  -0.0302  0.2734  1.0000  -2.6539   0.0000   0.0000   0.0000   0.2640
   8.700   1.2401   0.01196   0.00602  -0.0302  0.2604  1.0000  -2.6958   0.0000   0.0000   0.0000   0.2636
   8.800   1.2486   0.01228   0.00622  -0.0300  0.2466  1.0000  -2.7371   0.0000   0.0000   0.0000   0.2631
   8.900   1.2574   0.01257   0.00644  -0.0299  0.2317  1.0000  -2.7789   0.0000   0.0000   0.0000   0.2627
   9.000   1.2666   0.01283   0.00664  -0.0298  0.2156  1.0000  -2.8220   0.0000   0.0000   0.0000   0.2623
   9.100   1.2763   0.01302   0.00681  -0.0298  0.2018  1.0000  -2.8664   0.0000   0.0000   0.0000   0.2619
   9.200   1.2859   0.01321   0.00699  -0.0297  0.1971  1.0000  -2.9114   0.0000   0.0000   0.0000   0.2616
   9.300   1.2950   0.01345   0.00721  -0.0296  0.1918  1.0000  -2.9554   0.0000   0.0000   0.0000   0.2612
   9.400   1.3031   0.01381   0.00751  -0.0295  0.1836  1.0000  -2.9973   0.0000   0.0000   0.0000   0.2607
  12.200   1.0803   0.04942   0.04261  -0.0074  0.0169  1.0000  -3.1083   0.0000   0.0000   0.0000   0.2401
  12.300   1.0822   0.05011   0.04333  -0.0072  0.0151  1.0000  -3.1695   0.0000   0.0000   0.0000   0.2397
  12.400   1.0841   0.05083   0.04409  -0.0070  0.0142  1.0000  -3.2255   0.0000   0.0000   0.0000   0.2393
  12.500   1.0854   0.05162   0.04495  -0.0068  0.0136  1.0000  -3.2736   0.0000   0.0000   0.0000   0.2389
  12.600   1.0861   0.05251   0.04590  -0.0067  0.0132  1.0000  -3.3143   0.0000   0.0000   0.0000   0.2386
  12.700   1.0857   0.05356   0.04700  -0.0066  0.0129  1.0000  -3.3462   0.0000   0.0000   0.0000   0.2384
  12.800   1.0827   0.05496   0.04847  -0.0067  0.0128  1.0000  -3.3625   0.0000   0.0000   0.0000   0.2384
  13.500   0.9871   0.07603   0.06989  -0.0142  0.0158  1.0000  -3.0126   0.0000   0.0000   0.0000   0.2454
  13.600   0.9900   0.07680   0.07070  -0.0141  0.0144  1.0000  -3.0780   0.0000   0.0000   0.0000   0.2451
  13.700   0.9929   0.07757   0.07153  -0.0141  0.0137  1.0000  -3.1356   0.0000   0.0000   0.0000   0.2449
  13.800   0.9956   0.07837   0.07238  -0.0141  0.0132  1.0000  -3.1864   0.0000   0.0000   0.0000   0.2446
  13.900   0.9983   0.07917   0.07323  -0.0140  0.0129  1.0000  -3.2321   0.0000   0.0000   0.0000   0.2443
  14.000   1.0009   0.07997   0.07408  -0.0140  0.0126  1.0000  -3.2745   0.0000   0.0000   0.0000   0.2441
  14.100   1.0036   0.08076   0.07489  -0.0140  0.0125  1.0000  -3.3145   0.0000   0.0000   0.0000   0.2439
  14.200   1.0066   0.08152   0.07568  -0.0141  0.0125  1.0000  -3.3541   0.0000   0.0000   0.0000   0.2436
  14.300   1.0096   0.08229   0.07647  -0.0141  0.0125  1.0000  -3.3929   0.0000   0.0000   0.0000   0.2434
  14.400   1.0124   0.08307   0.07728  -0.0141  0.0125  1.0000  -3.4308   0.0000   0.0000   0.0000   0.2432
  14.500   1.0152   0.08385   0.07809  -0.0141  0.0125  1.0000  -3.4682   0.0000   0.0000   0.0000   0.2430
  14.600   1.0180   0.08464   0.07891  -0.0142  0.0125  1.0000  -3.5051   0.0000   0.0000   0.0000   0.2427
  14.700   1.0207   0.08544   0.07974  -0.0142  0.0125  1.0000  -3.5417   0.0000   0.0000   0.0000   0.2425
  14.800   1.0233   0.08624   0.08056  -0.0142  0.0125  1.0000  -3.5778   0.0000   0.0000   0.0000   0.2423
  14.900   1.0260   0.08702   0.08137  -0.0143  0.0125  1.0000  -3.6138   0.0000   0.0000   0.0000   0.2421
  15.000   1.0286   0.08781   0.08218  -0.0143  0.0125  1.0000  -3.6496   0.0000   0.0000   0.0000   0.2419
  15.100   1.0313   0.08860   0.08301  -0.0144  0.0125  1.0000  -3.6851   0.0000   0.0000   0.0000   0.2417
  15.200   1.0338   0.08942   0.08386  -0.0145  0.0125  1.0000  -3.7201   0.0000   0.0000   0.0000   0.2416
  15.300   1.0363   0.09027   0.08474  -0.0145  0.0125  1.0000  -3.7545   0.0000   0.0000   0.0000   0.2414
  15.600   1.0465   0.09256   0.08713  -0.0147  0.0128  1.0000  -3.8796   0.0000   0.0000   0.0000   0.2408
  15.700   1.0507   0.09326   0.08785  -0.0148  0.0129  1.0000  -3.9277   0.0000   0.0000   0.0000   0.2406
  15.800   1.0549   0.09396   0.08855  -0.0149  0.0130  1.0000  -3.9771   0.0000   0.0000   0.0000   0.2404
  15.900   1.0593   0.09465   0.08925  -0.0150  0.0132  1.0000  -4.0277   0.0000   0.0000   0.0000   0.2402
  16.000   1.0637   0.09533   0.08995  -0.0151  0.0134  1.0000  -4.0793   0.0000   0.0000   0.0000   0.2400
  16.100   1.0682   0.09602   0.09065  -0.0152  0.0136  1.0000  -4.1317   0.0000   0.0000   0.0000   0.2399
  16.200   1.0727   0.09670   0.09135  -0.0153  0.0138  1.0000  -4.1844   0.0000   0.0000   0.0000   0.2397
  16.300   1.0771   0.09740   0.09206  -0.0154  0.0140  1.0000  -4.2371   0.0000   0.0000   0.0000   0.2395
  16.400   1.0816   0.09811   0.09278  -0.0156  0.0143  1.0000  -4.2892   0.0000   0.0000   0.0000   0.2393
  16.500   1.0860   0.09883   0.09353  -0.0157  0.0146  1.0000  -4.3399   0.0000   0.0000   0.0000   0.2392
  16.600   1.0902   0.09958   0.09430  -0.0158  0.0150  1.0000  -4.3880   0.0000   0.0000   0.0000   0.2390
  16.700   1.0943   0.10036   0.09513  -0.0159  0.0155  1.0000  -4.4306   0.0000   0.0000   0.0000   0.2388
  16.800   1.0982   0.10120   0.09605  -0.0159  0.0163  1.0000  -4.4550   0.0000   0.0000   0.0000   0.2385
  16.900   1.0920   0.10422   0.09964  -0.0151  0.0207  1.0000  -4.2247   0.0000   0.0000   0.0000   0.2377
  17.000   1.0806   0.10809   0.10378  -0.0161  0.0225  1.0000  -4.0842   0.0000   0.0000   0.0000   0.2387
  17.100   1.0680   0.11216   0.10803  -0.0177  0.0234  1.0000  -3.9728   0.0000   0.0000   0.0000   0.2403
  17.200   1.0564   0.11602   0.11202  -0.0196  0.0238  1.0000  -3.8919   0.0000   0.0000   0.0000   0.2421
  17.300   1.0478   0.11929   0.11536  -0.0214  0.0237  1.0000  -3.8524   0.0000   0.0000   0.0000   0.2439
  17.400   1.0454   0.12144   0.11746  -0.0235  0.0226  1.0000  -3.9185   0.0000   0.0000   0.0000   0.2457
  17.500   1.0378   0.12473   0.12078  -0.0255  0.0223  1.0000  -3.8975   0.0000   0.0000   0.0000   0.2478
  17.600   1.0282   0.12832   0.12446  -0.0273  0.0227  1.0000  -3.8247   0.0000   0.0000   0.0000   0.2497
  17.700   1.0175   0.13216   0.12842  -0.0292  0.0233  1.0000  -3.7310   0.0000   0.0000   0.0000   0.2517
  17.800   1.0054   0.13635   0.13272  -0.0313  0.0238  1.0000  -3.6233   0.0000   0.0000   0.0000   0.2542
  17.900   0.9922   0.14087   0.13735  -0.0337  0.0241  1.0000  -3.5056   0.0000   0.0000   0.0000   0.2570
  18.000   0.9789   0.14555   0.14212  -0.0363  0.0244  1.0000  -3.3885   0.0000   0.0000   0.0000   0.2602
  18.100   0.9678   0.14962   0.14627  -0.0387  0.0245  1.0000  -3.2939   0.0000   0.0000   0.0000   0.2632
  18.200   0.9602   0.15299   0.14969  -0.0408  0.0244  1.0000  -3.2337   0.0000   0.0000   0.0000   0.2657
  18.300   0.9562   0.15577   0.15249  -0.0426  0.0243  1.0000  -3.2121   0.0000   0.0000   0.0000   0.2678
  18.400   0.9487   0.15938   0.15614  -0.0447  0.0242  1.0000  -3.1460   0.0000   0.0000   0.0000   0.2705
  18.500   0.9391   0.16360   0.16040  -0.0471  0.0242  1.0000  -3.0497   0.0000   0.0000   0.0000   0.2736
  18.600   0.9295   0.16812   0.16496  -0.0496  0.0242  1.0000  -2.9460   0.0000   0.0000   0.0000   0.2770
  18.700   0.9171   0.17386   0.17073  -0.0525  0.0242  1.0000  -2.7961   0.0000   0.0000   0.0000   0.2812
  20.100   0.8826   0.22540   0.22235  -0.0723  0.0374  1.0000  -1.7312   0.0000   0.0000   0.0000   0.3073
  20.200   0.8836   0.22755   0.22450  -0.0732  0.0370  1.0000  -1.7213   0.0000   0.0000   0.0000   0.3081
  20.300   0.8849   0.22963   0.22657  -0.0741  0.0365  1.0000  -1.7147   0.0000   0.0000   0.0000   0.3088
  20.400   0.8875   0.23092   0.22786  -0.0747  0.0351  1.0000  -1.7390   0.0000   0.0000   0.0000   0.3090
  20.500   0.8907   0.23200   0.22893  -0.0752  0.0338  1.0000  -1.7727   0.0000   0.0000   0.0000   0.3090
  20.600   0.8945   0.23282   0.22975  -0.0756  0.0326  1.0000  -1.8170   0.0000   0.0000   0.0000   0.3088
  20.700   0.8990   0.23335   0.23028  -0.0758  0.0315  1.0000  -1.8735   0.0000   0.0000   0.0000   0.3084
  20.800   0.9040   0.23368   0.23061  -0.0760  0.0306  1.0000  -1.9387   0.0000   0.0000   0.0000   0.3078
  20.900   0.9091   0.23390   0.23083  -0.0762  0.0297  1.0000  -2.0091   0.0000   0.0000   0.0000   0.3071
  21.000   0.9131   0.23449   0.23141  -0.0765  0.0289  1.0000  -2.0660   0.0000   0.0000   0.0000   0.3068
  21.100   0.9168   0.23521   0.23213  -0.0769  0.0280  1.0000  -2.1213   0.0000   0.0000   0.0000   0.3065
  21.200   0.8924   0.25176   0.24867  -0.0820  0.0250  1.0000  -1.6971   0.0000   0.0000   0.0000   0.3155
  21.300   0.8940   0.25388   0.25078  -0.0829  0.0249  1.0000  -1.6920   0.0000   0.0000   0.0000   0.3162
  21.400   0.8957   0.25592   0.25282  -0.0837  0.0249  1.0000  -1.6890   0.0000   0.0000   0.0000   0.3168
  21.500   0.8976   0.25783   0.25473  -0.0845  0.0248  1.0000  -1.6892   0.0000   0.0000   0.0000   0.3174
  21.600   0.8997   0.25952   0.25642  -0.0853  0.0247  1.0000  -1.6948   0.0000   0.0000   0.0000   0.3179
  21.700   0.9023   0.26073   0.25763  -0.0860  0.0245  1.0000  -1.7126   0.0000   0.0000   0.0000   0.3181
  21.800   0.9068   0.26054   0.25744  -0.0863  0.0240  1.0000  -1.7677   0.0000   0.0000   0.0000   0.3178
  21.900   0.9129   0.25969   0.25658  -0.0864  0.0227  1.0000  -1.8465   0.0000   0.0000   0.0000   0.3169
  22.000   0.9172   0.26031   0.25720  -0.0869  0.0213  1.0000  -1.8878   0.0000   0.0000   0.0000   0.3168
  22.100   0.9200   0.26172   0.25861  -0.0876  0.0200  1.0000  -1.9091   0.0000   0.0000   0.0000   0.3171
  22.200   0.9224   0.26331   0.26020  -0.0884  0.0189  1.0000  -1.9288   0.0000   0.0000   0.0000   0.3175
  22.300   0.9248   0.26482   0.26171  -0.0891  0.0180  1.0000  -1.9547   0.0000   0.0000   0.0000   0.3178
  22.400   0.9275   0.26616   0.26304  -0.0898  0.0173  1.0000  -1.9897   0.0000   0.0000   0.0000   0.3180
  22.500   0.9304   0.26735   0.26423  -0.0904  0.0166  1.0000  -2.0313   0.0000   0.0000   0.0000   0.3181
  22.600   0.9334   0.26842   0.26530  -0.0910  0.0161  1.0000  -2.0792   0.0000   0.0000   0.0000   0.3182
  22.700   0.9366   0.26936   0.26624  -0.0916  0.0157  1.0000  -2.1330   0.0000   0.0000   0.0000   0.3181
  22.800   0.9401   0.27019   0.26707  -0.0921  0.0153  1.0000  -2.1926   0.0000   0.0000   0.0000   0.3180
  22.900   0.9437   0.27091   0.26779  -0.0926  0.0149  1.0000  -2.2574   0.0000   0.0000   0.0000   0.3178
  23.000   0.9469   0.27180   0.26867  -0.0932  0.0146  1.0000  -2.3170   0.0000   0.0000   0.0000   0.3177
  23.100   0.9495   0.27301   0.26988  -0.0938  0.0142  1.0000  -2.3649   0.0000   0.0000   0.0000   0.3178
  23.200   0.9516   0.27450   0.27137  -0.0946  0.0138  1.0000  -2.4056   0.0000   0.0000   0.0000   0.3181
  25.000   0.9633   0.34657   0.34358  -0.1208  0.0121  1.0000  -1.6423   0.0000   0.0000   0.0000   0.3428


