xflr5 v6.61

 Calculated polar for: LISSAMAN 7769 AIRFOIL

 1 1 Reynolds number fixed          Mach number fixed         

 xtrf =   1.000 (top)        1.000 (bottom)
 Mach =   0.000     Re =     0.500 e 6     Ncrit =   9.000

  alpha     CL        CD       CDp       Cm    Top Xtr Bot Xtr   Cpmin    Chinge    XCp    
 ------- -------- --------- --------- -------- ------- ------- -------- --------- ---------
 -10.000  -0.2622   0.10549   0.10185  -0.0105  0.4992  0.0393  -1.1770   0.0000   0.0000   0.0000   0.2006
  -9.900  -0.2595   0.10451   0.10087  -0.0109  0.4992  0.0398  -1.1763   0.0000   0.0000   0.0000   0.1987
  -9.800  -0.2569   0.10354   0.09990  -0.0113  0.4991  0.0402  -1.1763   0.0000   0.0000   0.0000   0.1967
  -9.700  -0.2543   0.10256   0.09892  -0.0117  0.4990  0.0406  -1.1770   0.0000   0.0000   0.0000   0.1948
  -9.600  -0.2519   0.10158   0.09794  -0.0121  0.4990  0.0409  -1.1785   0.0000   0.0000   0.0000   0.1928
  -9.500  -0.2495   0.10059   0.09695  -0.0125  0.4989  0.0412  -1.1807   0.0000   0.0000   0.0000   0.1908
  -9.400  -0.2472   0.09959   0.09595  -0.0129  0.4988  0.0413  -1.1838   0.0000   0.0000   0.0000   0.1889
  -9.300  -0.2450   0.09859   0.09496  -0.0132  0.4988  0.0414  -1.1874   0.0000   0.0000   0.0000   0.1869
  -9.200  -0.2428   0.09759   0.09396  -0.0136  0.4987  0.0415  -1.1911   0.0000   0.0000   0.0000   0.1850
  -9.100  -0.2407   0.09659   0.09296  -0.0139  0.4986  0.0416  -1.1950   0.0000   0.0000   0.0000   0.1831
  -9.000  -0.2387   0.09559   0.09196  -0.0143  0.4985  0.0417  -1.1989   0.0000   0.0000   0.0000   0.1813
  -8.900  -0.2367   0.09459   0.09096  -0.0146  0.4984  0.0418  -1.2030   0.0000   0.0000   0.0000   0.1795
  -8.800  -0.2349   0.09360   0.08997  -0.0149  0.4983  0.0419  -1.2072   0.0000   0.0000   0.0000   0.1777
  -8.700  -0.2331   0.09261   0.08898  -0.0152  0.4982  0.0420  -1.2116   0.0000   0.0000   0.0000   0.1759
  -8.600  -0.2314   0.09162   0.08800  -0.0155  0.4981  0.0421  -1.2161   0.0000   0.0000   0.0000   0.1742
  -8.500  -0.2298   0.09064   0.08702  -0.0158  0.4980  0.0422  -1.2209   0.0000   0.0000   0.0000   0.1726
  -8.400  -0.2283   0.08967   0.08605  -0.0161  0.4979  0.0423  -1.2258   0.0000   0.0000   0.0000   0.1710
  -8.300  -0.2269   0.08870   0.08507  -0.0164  0.4978  0.0425  -1.2309   0.0000   0.0000   0.0000   0.1695
  -8.200  -0.2255   0.08773   0.08411  -0.0166  0.4977  0.0426  -1.2361   0.0000   0.0000   0.0000   0.1681
  -8.100  -0.2244   0.08677   0.08315  -0.0169  0.4976  0.0428  -1.2416   0.0000   0.0000   0.0000   0.1667
  -8.000  -0.2233   0.08582   0.08220  -0.0171  0.4975  0.0429  -1.2474   0.0000   0.0000   0.0000   0.1654
  -7.900  -0.2224   0.08487   0.08126  -0.0173  0.4973  0.0431  -1.2535   0.0000   0.0000   0.0000   0.1643
  -7.800  -0.2216   0.08394   0.08033  -0.0175  0.4972  0.0433  -1.2599   0.0000   0.0000   0.0000   0.1632
  -7.700  -0.2211   0.08301   0.07940  -0.0177  0.4971  0.0434  -1.2666   0.0000   0.0000   0.0000   0.1623
  -7.600  -0.2207   0.08209   0.07848  -0.0178  0.4969  0.0436  -1.2738   0.0000   0.0000   0.0000   0.1616
  -7.500  -0.2205   0.08116   0.07756  -0.0180  0.4968  0.0438  -1.2814   0.0000   0.0000   0.0000   0.1610
  -7.400  -0.2207   0.08023   0.07664  -0.0181  0.4966  0.0440  -1.2895   0.0000   0.0000   0.0000   0.1606
  -7.300  -0.2211   0.07931   0.07572  -0.0182  0.4965  0.0442  -1.2982   0.0000   0.0000   0.0000   0.1605
  -7.200  -0.2218   0.07840   0.07482  -0.0183  0.4963  0.0444  -1.3076   0.0000   0.0000   0.0000   0.1607
  -7.100  -0.2231   0.07751   0.07393  -0.0183  0.4961  0.0446  -1.3176   0.0000   0.0000   0.0000   0.1612
  -7.000  -0.2248   0.07664   0.07307  -0.0183  0.4960  0.0448  -1.3286   0.0000   0.0000   0.0000   0.1622
  -6.900  -0.2272   0.07578   0.07222  -0.0181  0.4958  0.0450  -1.3403   0.0000   0.0000   0.0000   0.1637
  -6.800  -0.2306   0.07497   0.07142  -0.0179  0.4956  0.0452  -1.3533   0.0000   0.0000   0.0000   0.1661
  -6.700  -0.2352   0.07422   0.07068  -0.0175  0.4954  0.0454  -1.3678   0.0000   0.0000   0.0000   0.1695
  -6.600  -0.2412   0.07356   0.07003  -0.0170  0.4952  0.0455  -1.3840   0.0000   0.0000   0.0000   0.1739
  -6.500  -0.2461   0.07288   0.06936  -0.0167  0.4950  0.0457  -1.4000   0.0000   0.0000   0.0000   0.1767
  -6.400  -0.2477   0.07195   0.06843  -0.0171  0.4948  0.0460  -1.4144   0.0000   0.0000   0.0000   0.1757
  -6.300  -0.2483   0.07099   0.06746  -0.0176  0.4945  0.0462  -1.4275   0.0000   0.0000   0.0000   0.1742
  -6.200  -0.2481   0.07001   0.06648  -0.0182  0.4943  0.0465  -1.4402   0.0000   0.0000   0.0000   0.1718
  -6.100  -0.2470   0.06905   0.06551  -0.0187  0.4940  0.0469  -1.4508   0.0000   0.0000   0.0000   0.1693
  -6.000  -0.2449   0.06810   0.06453  -0.0194  0.4937  0.0472  -1.4596   0.0000   0.0000   0.0000   0.1661
  -5.900  -0.2419   0.06716   0.06358  -0.0200  0.4933  0.0475  -1.4659   0.0000   0.0000   0.0000   0.1625
  -5.800  -0.2380   0.06628   0.06269  -0.0205  0.4930  0.0478  -1.4667   0.0000   0.0000   0.0000   0.1592
  -5.700  -0.2336   0.06541   0.06179  -0.0210  0.4926  0.0481  -1.4660   0.0000   0.0000   0.0000   0.1554
  -5.600  -0.2286   0.06451   0.06087  -0.0215  0.4921  0.0484  -1.4645   0.0000   0.0000   0.0000   0.1512
  -5.500  -0.2235   0.06360   0.05994  -0.0220  0.4917  0.0486  -1.4625   0.0000   0.0000   0.0000   0.1468
  -5.400  -0.2183   0.06267   0.05898  -0.0225  0.4911  0.0488  -1.4604   0.0000   0.0000   0.0000   0.1424
  -5.300  -0.2130   0.06171   0.05800  -0.0229  0.4906  0.0489  -1.4583   0.0000   0.0000   0.0000   0.1378
  -5.200  -0.2073   0.06072   0.05698  -0.0234  0.4900  0.0490  -1.4563   0.0000   0.0000   0.0000   0.1327
  -5.100  -0.2014   0.05970   0.05593  -0.0238  0.4894  0.0491  -1.4544   0.0000   0.0000   0.0000   0.1271
  -5.000  -0.1952   0.05865   0.05485  -0.0243  0.4887  0.0492  -1.4524   0.0000   0.0000   0.0000   0.1210
  -4.900  -0.1891   0.05760   0.05376  -0.0247  0.4880  0.0493  -1.4503   0.0000   0.0000   0.0000   0.1148
  -4.800  -0.1828   0.05655   0.05267  -0.0250  0.4872  0.0494  -1.4481   0.0000   0.0000   0.0000   0.1082
  -4.700  -0.1763   0.05547   0.05156  -0.0254  0.4863  0.0495  -1.4457   0.0000   0.0000   0.0000   0.1010
  -4.600  -0.1696   0.05439   0.05044  -0.0258  0.4853  0.0495  -1.4432   0.0000   0.0000   0.0000   0.0931
  -4.500  -0.1626   0.05330   0.04931  -0.0261  0.4843  0.0496  -1.4405   0.0000   0.0000   0.0000   0.0843
  -4.400  -0.1554   0.05220   0.04816  -0.0265  0.4831  0.0496  -1.4377   0.0000   0.0000   0.0000   0.0745
  -4.300  -0.1479   0.05109   0.04701  -0.0268  0.4818  0.0497  -1.4347   0.0000   0.0000   0.0000   0.0634
  -4.200  -0.1402   0.04998   0.04585  -0.0271  0.4804  0.0497  -1.4314   0.0000   0.0000   0.0000   0.0510
  -4.100  -0.1324   0.04888   0.04469  -0.0274  0.4789  0.0498  -1.4276   0.0000   0.0000   0.0000   0.0372
  -4.000  -0.1246   0.04779   0.04355  -0.0277  0.4771  0.0498  -1.4235   0.0000   0.0000   0.0000   0.0218
  -3.900  -0.1166   0.04670   0.04240  -0.0279  0.4752  0.0499  -1.4191   0.0000   0.0000   0.0000   0.0040
  -3.800  -0.1084   0.04561   0.04125  -0.0282  0.4731  0.0499  -1.4145   0.0000   0.0000   0.0000  -0.0167
  -3.700  -0.1001   0.04453   0.04010  -0.0284  0.4707  0.0499  -1.4097   0.0000   0.0000   0.0000  -0.0411
  -3.600  -0.1054   0.03558   0.03079  -0.0308  0.4714  0.0522  -1.6640   0.0000   0.0000   0.0000  -0.0504
  -3.500  -0.0985   0.03404   0.02921  -0.0310  0.4688  0.0533  -1.6473   0.0000   0.0000   0.0000  -0.0737
  -3.400  -0.0897   0.03328   0.02841  -0.0311  0.4656  0.0539  -1.6136   0.0000   0.0000   0.0000  -0.1055
  -3.300  -0.0805   0.03266   0.02774  -0.0311  0.4620  0.0546  -1.5775   0.0000   0.0000   0.0000  -0.1458
  -3.200  -0.0711   0.03212   0.02716  -0.0311  0.4577  0.0552  -1.5398   0.0000   0.0000   0.0000  -0.1975
  -3.100  -0.0616   0.03168   0.02668  -0.0310  0.4529  0.0557  -1.4993   0.0000   0.0000   0.0000  -0.2652
  -3.000  -0.0521   0.03126   0.02620  -0.0310  0.4473  0.0563  -1.4597   0.0000   0.0000   0.0000  -0.3584
  -2.900  -0.0424   0.03088   0.02575  -0.0310  0.4403  0.0570  -1.4212   0.0000   0.0000   0.0000  -0.4957
  -2.800  -0.0326   0.03062   0.02544  -0.0311  0.4287  0.0578  -1.3842   0.0000   0.0000   0.0000  -0.7215
  -2.700  -0.0225   0.03043   0.02525  -0.0312  0.4220  0.0586  -1.3485   0.0000   0.0000   0.0000  -1.1625
  -2.600  -0.0123   0.03016   0.02499  -0.0314  0.4195  0.0597  -1.3139   0.0000   0.0000   0.0000  -2.3358
  -2.500  -0.0021   0.02985   0.02469  -0.0315  0.4180  0.0609  -1.2809   0.0000   0.0000   0.0000  -15.1809
  -2.400   0.0083   0.02952   0.02436  -0.0316  0.4170  0.0624  -1.2496   0.0000   0.0000   0.0000   4.1203
  -2.300   0.0189   0.02918   0.02400  -0.0318  0.4163  0.0641  -1.2207   0.0000   0.0000   0.0000   1.9604
  -2.200   0.0298   0.02884   0.02364  -0.0319  0.4158  0.0665  -1.1951   0.0000   0.0000   0.0000   1.3389
  -2.100   0.0414   0.02869   0.02344  -0.0320  0.4154  0.0696  -1.1722   0.0000   0.0000   0.0000   1.0339
  -2.000   0.0549   0.02959   0.02431  -0.0318  0.4151  0.0730  -1.1335   0.0000   0.0000   0.0000   0.8378
  -1.900   0.0682   0.03089   0.02560  -0.0315  0.4149  0.0744  -1.0840   0.0000   0.0000   0.0000   0.7190
  -1.800   0.0797   0.03104   0.02571  -0.0315  0.4148  0.0748  -1.0562   0.0000   0.0000   0.0000   0.6503
  -1.700   0.0849   0.02575   0.02015  -0.0325  0.4147  0.0788  -1.1356   0.0000   0.0000   0.0000   0.6391
  -1.600   0.0950   0.02535   0.01979  -0.0327  0.4147  0.0800  -1.0979   0.0000   0.0000   0.0000   0.5988
  -1.500   0.1052   0.02511   0.01962  -0.0327  0.4147  0.0811  -1.0573   0.0000   0.0000   0.0000   0.5651
  -1.400   0.1156   0.02495   0.01950  -0.0328  0.4147  0.0822  -1.0172   0.0000   0.0000   0.0000   0.5371
  -1.300   0.1260   0.02483   0.01942  -0.0329  0.4148  0.0835  -0.9780   0.0000   0.0000   0.0000   0.5135
  -1.200   0.1366   0.02475   0.01937  -0.0329  0.4149  0.0852  -0.9402   0.0000   0.0000   0.0000   0.4931
  -1.100   0.1474   0.02472   0.01936  -0.0329  0.4150  0.0872  -0.9038   0.0000   0.0000   0.0000   0.4752
  -1.000   0.1584   0.02478   0.01944  -0.0329  0.4151  0.0896  -0.8685   0.0000   0.0000   0.0000   0.4592
  -0.900   0.1698   0.02500   0.01968  -0.0329  0.4153  0.0924  -0.8332   0.0000   0.0000   0.0000   0.4447
  -0.800   0.1815   0.02533   0.02002  -0.0328  0.4155  0.0948  -0.8120   0.0000   0.0000   0.0000   0.4314
  -0.700   0.1934   0.02589   0.02060  -0.0326  0.4157  0.0969  -0.8191   0.0000   0.0000   0.0000   0.4193
  -0.600   0.2054   0.02670   0.02144  -0.0324  0.4159  0.0985  -0.8264   0.0000   0.0000   0.0000   0.4081
   0.000   0.2773   0.01589   0.00913  -0.0317  0.4170  0.0490  -0.9899   0.0000   0.0000   0.0000   0.3648
   0.100   0.2884   0.01518   0.00831  -0.0314  0.4172  0.0467  -0.9996   0.0000   0.0000   0.0000   0.3595
   0.200   0.2994   0.01490   0.00799  -0.0313  0.4175  0.0451  -0.9862   0.0000   0.0000   0.0000   0.3550
   0.300   0.3105   0.01472   0.00777  -0.0312  0.4178  0.0436  -0.9675   0.0000   0.0000   0.0000   0.3508
   0.400   0.3215   0.01460   0.00763  -0.0312  0.4180  0.0424  -0.9455   0.0000   0.0000   0.0000   0.3470
   0.500   0.3326   0.01453   0.00753  -0.0311  0.4181  0.0413  -0.9214   0.0000   0.0000   0.0000   0.3434
   0.600   0.3437   0.01450   0.00748  -0.0311  0.4180  0.0403  -0.8956   0.0000   0.0000   0.0000   0.3402
   0.700   0.3548   0.01450   0.00747  -0.0311  0.4179  0.0395  -0.8998   0.0000   0.0000   0.0000   0.3372
   0.800   0.3658   0.01452   0.00748  -0.0311  0.4177  0.0387  -0.9062   0.0000   0.0000   0.0000   0.3344
   0.900   0.3769   0.01457   0.00752  -0.0311  0.4174  0.0380  -0.9125   0.0000   0.0000   0.0000   0.3318
   1.000   0.3879   0.01465   0.00759  -0.0311  0.4170  0.0374  -0.9188   0.0000   0.0000   0.0000   0.3294
   1.100   0.3989   0.01474   0.00767  -0.0311  0.4165  0.0369  -0.9251   0.0000   0.0000   0.0000   0.3272
   1.200   0.4099   0.01484   0.00777  -0.0312  0.4160  0.0364  -0.9313   0.0000   0.0000   0.0000   0.3251
   1.300   0.4208   0.01497   0.00789  -0.0312  0.4154  0.0359  -0.9375   0.0000   0.0000   0.0000   0.3231
   1.400   0.4326   0.01492   0.00799  -0.0314  0.4225  0.0360  -0.9432   0.0000   0.0000   0.0000   0.3213
   1.500   0.4437   0.01506   0.00813  -0.0314  0.4230  0.0357  -0.9507   0.0000   0.0000   0.0000   0.3195
   1.600   0.4546   0.01519   0.00825  -0.0315  0.4231  0.0355  -0.9610   0.0000   0.0000   0.0000   0.3178
   1.700   0.4656   0.01529   0.00834  -0.0315  0.4226  0.0353  -0.9714   0.0000   0.0000   0.0000   0.3162
   1.800   0.4766   0.01540   0.00843  -0.0316  0.4218  0.0351  -0.9820   0.0000   0.0000   0.0000   0.3146
   1.900   0.4875   0.01551   0.00853  -0.0316  0.4209  0.0350  -0.9925   0.0000   0.0000   0.0000   0.3130
   2.000   0.4983   0.01564   0.00865  -0.0316  0.4202  0.0350  -1.0029   0.0000   0.0000   0.0000   0.3116
   2.100   0.5092   0.01578   0.00879  -0.0317  0.4198  0.0349  -1.0133   0.0000   0.0000   0.0000   0.3102
   2.200   0.5201   0.01592   0.00893  -0.0317  0.4196  0.0350  -1.0260   0.0000   0.0000   0.0000   0.3089
   2.300   0.5309   0.01607   0.00907  -0.0318  0.4191  0.0352  -1.0386   0.0000   0.0000   0.0000   0.3076
   2.400   0.5417   0.01623   0.00923  -0.0318  0.4183  0.0355  -1.0512   0.0000   0.0000   0.0000   0.3064
   2.500   0.5524   0.01641   0.00940  -0.0319  0.4173  0.0361  -1.0638   0.0000   0.0000   0.0000   0.3052
   2.600   0.5630   0.01662   0.00961  -0.0319  0.4162  0.0376  -1.0762   0.0000   0.0000   0.0000   0.3041
   2.700   0.5736   0.01685   0.00985  -0.0319  0.4153  0.0438  -1.0886   0.0000   0.0000   0.0000   0.3030
   2.800   0.5841   0.01704   0.01018  -0.0320  0.4147  0.0492  -1.1009   0.0000   0.0000   0.0000   0.3020
   2.900   0.5946   0.01708   0.01041  -0.0321  0.4146  0.0909  -1.1133   0.0000   0.0000   0.0000   0.3011
   3.000   0.6052   0.01719   0.01064  -0.0322  0.4147  0.1185  -1.1260   0.0000   0.0000   0.0000   0.3002
   3.100   0.6158   0.01733   0.01085  -0.0323  0.4148  0.1348  -1.1386   0.0000   0.0000   0.0000   0.2994
   3.200   0.6264   0.01750   0.01106  -0.0324  0.4149  0.1413  -1.1513   0.0000   0.0000   0.0000   0.2985
   3.300   0.6370   0.01768   0.01127  -0.0325  0.4150  0.1451  -1.1640   0.0000   0.0000   0.0000   0.2977
   3.400   0.6476   0.01787   0.01148  -0.0325  0.4150  0.1477  -1.1767   0.0000   0.0000   0.0000   0.2969
   3.500   0.6581   0.01807   0.01171  -0.0326  0.4150  0.1496  -1.1894   0.0000   0.0000   0.0000   0.2961
   3.600   0.6686   0.01828   0.01193  -0.0327  0.4150  0.1551  -1.2020   0.0000   0.0000   0.0000   0.2953
   3.700   0.6791   0.01847   0.01217  -0.0328  0.4150  0.1649  -1.2146   0.0000   0.0000   0.0000   0.2946
   3.800   0.6894   0.01866   0.01242  -0.0329  0.4149  0.1755  -1.2271   0.0000   0.0000   0.0000   0.2939
   3.900   0.6997   0.01886   0.01268  -0.0329  0.4148  0.1854  -1.2396   0.0000   0.0000   0.0000   0.2932
   4.000   0.7100   0.01907   0.01294  -0.0330  0.4147  0.1957  -1.2521   0.0000   0.0000   0.0000   0.2925
   4.100   0.7210   0.01754   0.01331  -0.0336  0.4145  0.9905  -1.2655   0.0000   0.0000   0.0000   0.2924
   4.200   0.7326   0.01782   0.01359  -0.0339  0.4143  1.0000  -1.2804   0.0000   0.0000   0.0000   0.2920
   4.300   0.7426   0.01810   0.01388  -0.0339  0.4140  1.0000  -1.2989   0.0000   0.0000   0.0000   0.2914
   4.400   0.7525   0.01840   0.01419  -0.0340  0.4137  1.0000  -1.3174   0.0000   0.0000   0.0000   0.2907
   4.500   0.7623   0.01871   0.01451  -0.0340  0.4134  1.0000  -1.3358   0.0000   0.0000   0.0000   0.2900
   4.600   0.7721   0.01904   0.01486  -0.0341  0.4130  1.0000  -1.3541   0.0000   0.0000   0.0000   0.2894
   4.700   0.7816   0.01942   0.01525  -0.0341  0.4124  1.0000  -1.3721   0.0000   0.0000   0.0000   0.2888
   4.800   0.7902   0.01999   0.01584  -0.0341  0.4112  1.0000  -1.3888   0.0000   0.0000   0.0000   0.2883
   4.900   0.7976   0.02085   0.01673  -0.0342  0.4094  1.0000  -1.4033   0.0000   0.0000   0.0000   0.2879
   5.000   0.8029   0.02216   0.01809  -0.0344  0.4073  1.0000  -1.4143   0.0000   0.0000   0.0000   0.2877
   5.100   0.8043   0.02427   0.02027  -0.0347  0.4049  1.0000  -1.4187   0.0000   0.0000   0.0000   0.2879
   5.400   0.8122   0.02867   0.02481  -0.0348  0.3990  1.0000  -1.4423   0.0000   0.0000   0.0000   0.2873
   5.500   0.8293   0.02734   0.02344  -0.0345  0.3987  1.0000  -1.4747   0.0000   0.0000   0.0000   0.2859
   5.600   0.8441   0.02647   0.02253  -0.0343  0.3985  1.0000  -1.5033   0.0000   0.0000   0.0000   0.2847
   5.700   0.8583   0.02572   0.02176  -0.0341  0.3983  1.0000  -1.5308   0.0000   0.0000   0.0000   0.2837
   5.800   0.8721   0.02505   0.02106  -0.0339  0.3980  1.0000  -1.5578   0.0000   0.0000   0.0000   0.2827
   5.900   0.8851   0.02455   0.02055  -0.0337  0.3978  1.0000  -1.5834   0.0000   0.0000   0.0000   0.2818
   6.000   0.8977   0.02414   0.02012  -0.0336  0.3976  1.0000  -1.6083   0.0000   0.0000   0.0000   0.2810
   6.100   0.9103   0.02373   0.01970  -0.0335  0.3974  1.0000  -1.6333   0.0000   0.0000   0.0000   0.2802
   6.200   0.9230   0.02333   0.01928  -0.0333  0.3972  1.0000  -1.6584   0.0000   0.0000   0.0000   0.2794
   6.300   0.9356   0.02292   0.01886  -0.0332  0.3969  1.0000  -1.6837   0.0000   0.0000   0.0000   0.2786
   6.400   0.9482   0.02251   0.01844  -0.0331  0.3967  1.0000  -1.7090   0.0000   0.0000   0.0000   0.2779
   6.500   0.9609   0.02210   0.01801  -0.0330  0.3965  1.0000  -1.7345   0.0000   0.0000   0.0000   0.2771
   6.600   0.9735   0.02169   0.01759  -0.0328  0.3962  1.0000  -1.7601   0.0000   0.0000   0.0000   0.2764
   6.700   0.9863   0.02127   0.01716  -0.0327  0.3959  1.0000  -1.7859   0.0000   0.0000   0.0000   0.2757
   6.800   0.9990   0.02085   0.01672  -0.0326  0.3956  1.0000  -1.8118   0.0000   0.0000   0.0000   0.2750
   6.900   1.0118   0.02042   0.01628  -0.0325  0.3953  1.0000  -1.8379   0.0000   0.0000   0.0000   0.2744
   7.000   1.0250   0.01991   0.01575  -0.0324  0.3949  1.0000  -1.8649   0.0000   0.0000   0.0000   0.2737
   7.100   1.0435   0.01824   0.01398  -0.0321  0.3940  1.0000  -1.9152   0.0000   0.0000   0.0000   0.2727
   7.200   1.0656   0.01561   0.01117  -0.0318  0.3920  1.0000  -1.9884   0.0000   0.0000   0.0000   0.2715
   7.300   1.0841   0.01371   0.00910  -0.0315  0.3891  1.0000  -2.0527   0.0000   0.0000   0.0000   0.2705
   7.400   1.0988   0.01272   0.00801  -0.0313  0.3860  1.0000  -2.1066   0.0000   0.0000   0.0000   0.2698
   7.500   1.1116   0.01222   0.00745  -0.0312  0.3831  1.0000  -2.1554   0.0000   0.0000   0.0000   0.2692
   7.600   1.1237   0.01194   0.00714  -0.0312  0.3802  1.0000  -2.2019   0.0000   0.0000   0.0000   0.2687
   7.700   1.1357   0.01170   0.00686  -0.0311  0.3767  1.0000  -2.2486   0.0000   0.0000   0.0000   0.2682
   7.800   1.1475   0.01146   0.00659  -0.0311  0.3724  1.0000  -2.2954   0.0000   0.0000   0.0000   0.2678
   7.900   1.1593   0.01125   0.00632  -0.0310  0.3667  1.0000  -2.3423   0.0000   0.0000   0.0000   0.2673
   8.000   1.1710   0.01103   0.00603  -0.0310  0.3581  1.0000  -2.3894   0.0000   0.0000   0.0000   0.2668
   8.100   1.1824   0.01076   0.00560  -0.0308  0.3407  1.0000  -2.4370   0.0000   0.0000   0.0000   0.2662
   8.200   1.1922   0.01067   0.00517  -0.0305  0.3056  1.0000  -2.4811   0.0000   0.0000   0.0000   0.2656
   8.300   1.2022   0.01081   0.00523  -0.0305  0.2909  1.0000  -2.5245   0.0000   0.0000   0.0000   0.2652
   8.400   1.2120   0.01099   0.00533  -0.0304  0.2792  1.0000  -2.5675   0.0000   0.0000   0.0000   0.2648
   8.500   1.2213   0.01124   0.00548  -0.0304  0.2665  1.0000  -2.6097   0.0000   0.0000   0.0000   0.2644
   8.600   1.2301   0.01155   0.00567  -0.0303  0.2527  1.0000  -2.6510   0.0000   0.0000   0.0000   0.2640
   8.700   1.2389   0.01185   0.00587  -0.0302  0.2386  1.0000  -2.6925   0.0000   0.0000   0.0000   0.2636
   8.800   1.2482   0.01212   0.00606  -0.0301  0.2227  1.0000  -2.7350   0.0000   0.0000   0.0000   0.2632
   8.900   1.2579   0.01232   0.00624  -0.0300  0.2071  1.0000  -2.7788   0.0000   0.0000   0.0000   0.2628
   9.000   1.2678   0.01248   0.00639  -0.0300  0.1987  1.0000  -2.8237   0.0000   0.0000   0.0000   0.2624
   9.100   1.2774   0.01269   0.00658  -0.0299  0.1945  1.0000  -2.8682   0.0000   0.0000   0.0000   0.2620
   9.200   1.2863   0.01297   0.00682  -0.0298  0.1877  1.0000  -2.9113   0.0000   0.0000   0.0000   0.2616
   9.300   1.2938   0.01342   0.00718  -0.0297  0.1773  1.0000  -2.9513   0.0000   0.0000   0.0000   0.2612
   9.400   1.2992   0.01412   0.00774  -0.0294  0.1651  1.0000  -2.9858   0.0000   0.0000   0.0000   0.2608
  11.900   1.0873   0.04624   0.03982  -0.0083  0.0243  1.0000  -2.9633   0.0000   0.0000   0.0000   0.2415
  12.000   1.0835   0.04733   0.04078  -0.0079  0.0199  1.0000  -3.0167   0.0000   0.0000   0.0000   0.2410
  12.100   1.0826   0.04821   0.04157  -0.0076  0.0167  1.0000  -3.0716   0.0000   0.0000   0.0000   0.2405
  12.200   1.0847   0.04889   0.04227  -0.0073  0.0145  1.0000  -3.1363   0.0000   0.0000   0.0000   0.2400
  12.300   1.0866   0.04959   0.04303  -0.0071  0.0134  1.0000  -3.1955   0.0000   0.0000   0.0000   0.2396
  12.400   1.0880   0.05034   0.04384  -0.0068  0.0128  1.0000  -3.2464   0.0000   0.0000   0.0000   0.2392
  12.500   1.0895   0.05110   0.04463  -0.0066  0.0125  1.0000  -3.2903   0.0000   0.0000   0.0000   0.2388
  12.600   1.0910   0.05188   0.04545  -0.0065  0.0125  1.0000  -3.3279   0.0000   0.0000   0.0000   0.2385
  12.700   1.0919   0.05274   0.04636  -0.0064  0.0125  1.0000  -3.3617   0.0000   0.0000   0.0000   0.2382
  12.800   1.0917   0.05376   0.04743  -0.0064  0.0124  1.0000  -3.3894   0.0000   0.0000   0.0000   0.2380
  12.900   1.0871   0.05540   0.04913  -0.0066  0.0124  1.0000  -3.3954   0.0000   0.0000   0.0000   0.2381
  13.500   0.9887   0.07574   0.06980  -0.0140  0.0141  1.0000  -3.0239   0.0000   0.0000   0.0000   0.2453
  13.600   0.9914   0.07653   0.07066  -0.0140  0.0131  1.0000  -3.0859   0.0000   0.0000   0.0000   0.2450
  13.700   0.9941   0.07732   0.07151  -0.0139  0.0126  1.0000  -3.1398   0.0000   0.0000   0.0000   0.2447
  13.800   0.9972   0.07806   0.07226  -0.0139  0.0125  1.0000  -3.1852   0.0000   0.0000   0.0000   0.2444
  13.900   1.0004   0.07879   0.07303  -0.0139  0.0125  1.0000  -3.2283   0.0000   0.0000   0.0000   0.2442
  14.000   1.0035   0.07952   0.07380  -0.0139  0.0124  1.0000  -3.2701   0.0000   0.0000   0.0000   0.2439
  14.100   1.0065   0.08027   0.07457  -0.0139  0.0124  1.0000  -3.3105   0.0000   0.0000   0.0000   0.2436
  14.200   1.0095   0.08103   0.07536  -0.0139  0.0124  1.0000  -3.3501   0.0000   0.0000   0.0000   0.2434
  14.300   1.0125   0.08179   0.07615  -0.0139  0.0124  1.0000  -3.3891   0.0000   0.0000   0.0000   0.2432
  14.400   1.0154   0.08255   0.07694  -0.0139  0.0124  1.0000  -3.4275   0.0000   0.0000   0.0000   0.2429
  14.500   1.0182   0.08332   0.07774  -0.0139  0.0124  1.0000  -3.4655   0.0000   0.0000   0.0000   0.2427
  14.600   1.0211   0.08410   0.07855  -0.0139  0.0124  1.0000  -3.5031   0.0000   0.0000   0.0000   0.2425
  14.700   1.0239   0.08488   0.07935  -0.0140  0.0124  1.0000  -3.5403   0.0000   0.0000   0.0000   0.2423
  14.800   1.0266   0.08567   0.08017  -0.0140  0.0124  1.0000  -3.5772   0.0000   0.0000   0.0000   0.2421
  14.900   1.0293   0.08646   0.08098  -0.0141  0.0124  1.0000  -3.6137   0.0000   0.0000   0.0000   0.2419
  15.000   1.0319   0.08724   0.08179  -0.0141  0.0124  1.0000  -3.6498   0.0000   0.0000   0.0000   0.2417
  15.100   1.0344   0.08803   0.08261  -0.0142  0.0124  1.0000  -3.6855   0.0000   0.0000   0.0000   0.2415
  15.200   1.0370   0.08883   0.08344  -0.0142  0.0124  1.0000  -3.7211   0.0000   0.0000   0.0000   0.2413
  15.300   1.0395   0.08966   0.08430  -0.0143  0.0124  1.0000  -3.7565   0.0000   0.0000   0.0000   0.2411
  15.400   1.0419   0.09051   0.08519  -0.0143  0.0124  1.0000  -3.7911   0.0000   0.0000   0.0000   0.2409
  15.500   1.0441   0.09140   0.08611  -0.0144  0.0125  1.0000  -3.8248   0.0000   0.0000   0.0000   0.2407
  20.800   0.9145   0.22705   0.22412  -0.0738  0.0277  1.0000  -2.1968   0.0000   0.0000   0.0000   0.3035
  20.900   0.8865   0.24437   0.24143  -0.0794  0.0250  1.0000  -1.7168   0.0000   0.0000   0.0000   0.3136
  21.000   0.8881   0.24647   0.24353  -0.0802  0.0249  1.0000  -1.7117   0.0000   0.0000   0.0000   0.3143
  21.100   0.8899   0.24847   0.24553  -0.0811  0.0249  1.0000  -1.7092   0.0000   0.0000   0.0000   0.3149
  21.200   0.8918   0.25033   0.24739  -0.0818  0.0248  1.0000  -1.7105   0.0000   0.0000   0.0000   0.3154
  21.300   0.8940   0.25191   0.24897  -0.0826  0.0247  1.0000  -1.7192   0.0000   0.0000   0.0000   0.3159
  21.400   0.8972   0.25278   0.24984  -0.0832  0.0244  1.0000  -1.7474   0.0000   0.0000   0.0000   0.3160
  21.500   0.9036   0.25169   0.24874  -0.0833  0.0236  1.0000  -1.8349   0.0000   0.0000   0.0000   0.3150
  21.600   0.9099   0.25113   0.24818  -0.0834  0.0221  1.0000  -1.9144   0.0000   0.0000   0.0000   0.3142
  21.700   0.9139   0.25199   0.24903  -0.0839  0.0207  1.0000  -1.9535   0.0000   0.0000   0.0000   0.3142
  21.800   0.9167   0.25335   0.25039  -0.0846  0.0195  1.0000  -1.9799   0.0000   0.0000   0.0000   0.3144
  21.900   0.9193   0.25476   0.25180  -0.0853  0.0185  1.0000  -2.0077   0.0000   0.0000   0.0000   0.3147
  22.000   0.9220   0.25606   0.25309  -0.0860  0.0177  1.0000  -2.0424   0.0000   0.0000   0.0000   0.3149
  22.100   0.9249   0.25721   0.25424  -0.0866  0.0170  1.0000  -2.0844   0.0000   0.0000   0.0000   0.3151
  22.200   0.9280   0.25820   0.25524  -0.0872  0.0164  1.0000  -2.1334   0.0000   0.0000   0.0000   0.3151
  22.300   0.9313   0.25906   0.25609  -0.0877  0.0159  1.0000  -2.1891   0.0000   0.0000   0.0000   0.3151
  22.400   0.9348   0.25979   0.25682  -0.0883  0.0155  1.0000  -2.2508   0.0000   0.0000   0.0000   0.3149
  22.500   0.9385   0.26040   0.25743  -0.0887  0.0152  1.0000  -2.3183   0.0000   0.0000   0.0000   0.3147
  22.600   0.9420   0.26113   0.25815  -0.0892  0.0148  1.0000  -2.3821   0.0000   0.0000   0.0000   0.3146
  22.700   0.9447   0.26219   0.25921  -0.0899  0.0145  1.0000  -2.4335   0.0000   0.0000   0.0000   0.3147
  22.800   0.9472   0.26335   0.26037  -0.0905  0.0141  1.0000  -2.4823   0.0000   0.0000   0.0000   0.3148
  22.900   0.9294   0.27934   0.27635  -0.0948  0.0125  1.0000  -1.9821   0.0000   0.0000   0.0000   0.3223
  23.000   0.9307   0.28220   0.27921  -0.0958  0.0125  1.0000  -1.9592   0.0000   0.0000   0.0000   0.3231
  23.100   0.9320   0.28505   0.28207  -0.0968  0.0124  1.0000  -1.9375   0.0000   0.0000   0.0000   0.3240
  23.200   0.9333   0.28790   0.28491  -0.0978  0.0124  1.0000  -1.9171   0.0000   0.0000   0.0000   0.3248
  23.300   0.9348   0.29074   0.28776  -0.0989  0.0124  1.0000  -1.8977   0.0000   0.0000   0.0000   0.3256
  23.400   0.9362   0.29358   0.29060  -0.0999  0.0124  1.0000  -1.8792   0.0000   0.0000   0.0000   0.3264
  23.500   0.9377   0.29642   0.29345  -0.1009  0.0124  1.0000  -1.8616   0.0000   0.0000   0.0000   0.3272
  23.600   0.9393   0.29928   0.29631  -0.1019  0.0123  1.0000  -1.8447   0.0000   0.0000   0.0000   0.3279
  23.700   0.9408   0.30215   0.29919  -0.1030  0.0123  1.0000  -1.8285   0.0000   0.0000   0.0000   0.3287
  23.800   0.9424   0.30504   0.30208  -0.1040  0.0123  1.0000  -1.8129   0.0000   0.0000   0.0000   0.3295
  23.900   0.9440   0.30795   0.30500  -0.1051  0.0123  1.0000  -1.7978   0.0000   0.0000   0.0000   0.3303
  24.000   0.9457   0.31089   0.30795  -0.1061  0.0122  1.0000  -1.7831   0.0000   0.0000   0.0000   0.3311
  24.100   0.9473   0.31387   0.31093  -0.1072  0.0122  1.0000  -1.7687   0.0000   0.0000   0.0000   0.3319
  24.200   0.9490   0.31688   0.31395  -0.1084  0.0122  1.0000  -1.7546   0.0000   0.0000   0.0000   0.3328
  24.300   0.9507   0.31995   0.31702  -0.1095  0.0122  1.0000  -1.7408   0.0000   0.0000   0.0000   0.3336
  24.400   0.9524   0.32308   0.32016  -0.1107  0.0121  1.0000  -1.7270   0.0000   0.0000   0.0000   0.3345
  24.500   0.9541   0.32628   0.32337  -0.1120  0.0121  1.0000  -1.7133   0.0000   0.0000   0.0000   0.3355
  24.600   0.9558   0.32959   0.32668  -0.1133  0.0121  1.0000  -1.6995   0.0000   0.0000   0.0000   0.3365
  24.700   0.9576   0.33302   0.33013  -0.1147  0.0121  1.0000  -1.6854   0.0000   0.0000   0.0000   0.3376
  24.800   0.9593   0.33665   0.33377  -0.1162  0.0120  1.0000  -1.6704   0.0000   0.0000   0.0000   0.3388
  24.900   0.9611   0.34057   0.33771  -0.1179  0.0120  1.0000  -1.6540   0.0000   0.0000   0.0000   0.3402
  25.000   0.9628   0.34513   0.34228  -0.1200  0.0120  1.0000  -1.6344   0.0000   0.0000   0.0000   0.3420


