xflr5 v6.61

 Calculated polar for: LISSAMAN 7769 AIRFOIL

 1 1 Reynolds number fixed          Mach number fixed         

 xtrf =   1.000 (top)        1.000 (bottom)
 Mach =   0.000     Re =     0.688 e 6     Ncrit =   9.000

  alpha     CL        CD       CDp       Cm    Top Xtr Bot Xtr   Cpmin    Chinge    XCp    
 ------- -------- --------- --------- -------- ------- ------- -------- --------- ---------
 -10.000  -0.2999   0.09839   0.09494  -0.0136  0.4976  0.0273  -1.7667   0.0000   0.0000   0.0000   0.1951
  -9.900  -0.2973   0.09736   0.09392  -0.0140  0.4975  0.0275  -1.7591   0.0000   0.0000   0.0000   0.1936
  -9.800  -0.2944   0.09639   0.09295  -0.0143  0.4975  0.0277  -1.7482   0.0000   0.0000   0.0000   0.1923
  -9.700  -0.2914   0.09546   0.09202  -0.0145  0.4974  0.0279  -1.7357   0.0000   0.0000   0.0000   0.1909
  -9.600  -0.2885   0.09456   0.09112  -0.0148  0.4973  0.0281  -1.7229   0.0000   0.0000   0.0000   0.1896
  -9.500  -0.2856   0.09366   0.09022  -0.0151  0.4972  0.0283  -1.7109   0.0000   0.0000   0.0000   0.1882
  -9.400  -0.2828   0.09275   0.08932  -0.0153  0.4971  0.0285  -1.7008   0.0000   0.0000   0.0000   0.1868
  -9.300  -0.2803   0.09183   0.08839  -0.0156  0.4970  0.0286  -1.6935   0.0000   0.0000   0.0000   0.1855
  -9.200  -0.2781   0.09088   0.08744  -0.0159  0.4969  0.0287  -1.6901   0.0000   0.0000   0.0000   0.1841
  -9.100  -0.2762   0.08988   0.08645  -0.0162  0.4968  0.0288  -1.6915   0.0000   0.0000   0.0000   0.1827
  -9.000  -0.2745   0.08888   0.08545  -0.0164  0.4967  0.0288  -1.6944   0.0000   0.0000   0.0000   0.1814
  -8.900  -0.2729   0.08789   0.08446  -0.0167  0.4966  0.0289  -1.6974   0.0000   0.0000   0.0000   0.1801
  -8.800  -0.2715   0.08690   0.08347  -0.0170  0.4965  0.0290  -1.7006   0.0000   0.0000   0.0000   0.1789
  -8.700  -0.2701   0.08591   0.08249  -0.0172  0.4964  0.0290  -1.7039   0.0000   0.0000   0.0000   0.1777
  -8.600  -0.2688   0.08494   0.08152  -0.0175  0.4963  0.0291  -1.7073   0.0000   0.0000   0.0000   0.1766
  -8.500  -0.2677   0.08397   0.08055  -0.0177  0.4962  0.0291  -1.7109   0.0000   0.0000   0.0000   0.1756
  -8.400  -0.2666   0.08300   0.07959  -0.0179  0.4961  0.0292  -1.7146   0.0000   0.0000   0.0000   0.1747
  -8.300  -0.2657   0.08206   0.07865  -0.0181  0.4960  0.0292  -1.7178   0.0000   0.0000   0.0000   0.1739
  -8.200  -0.2648   0.08112   0.07771  -0.0183  0.4958  0.0293  -1.7213   0.0000   0.0000   0.0000   0.1731
  -8.100  -0.2642   0.08018   0.07678  -0.0184  0.4957  0.0294  -1.7251   0.0000   0.0000   0.0000   0.1725
  -8.000  -0.2638   0.07924   0.07584  -0.0186  0.4956  0.0294  -1.7293   0.0000   0.0000   0.0000   0.1720
  -7.900  -0.2636   0.07829   0.07490  -0.0187  0.4954  0.0295  -1.7339   0.0000   0.0000   0.0000   0.1717
  -7.800  -0.2636   0.07735   0.07396  -0.0188  0.4953  0.0295  -1.7390   0.0000   0.0000   0.0000   0.1715
  -7.700  -0.2640   0.07641   0.07303  -0.0188  0.4951  0.0296  -1.7447   0.0000   0.0000   0.0000   0.1715
  -7.600  -0.2647   0.07548   0.07211  -0.0188  0.4950  0.0297  -1.7510   0.0000   0.0000   0.0000   0.1718
  -7.500  -0.2659   0.07456   0.07120  -0.0188  0.4948  0.0297  -1.7581   0.0000   0.0000   0.0000   0.1724
  -7.400  -0.2677   0.07366   0.07030  -0.0187  0.4947  0.0298  -1.7664   0.0000   0.0000   0.0000   0.1734
  -7.300  -0.2703   0.07278   0.06943  -0.0185  0.4945  0.0298  -1.7762   0.0000   0.0000   0.0000   0.1749
  -7.200  -0.2742   0.07194   0.06860  -0.0182  0.4943  0.0299  -1.7882   0.0000   0.0000   0.0000   0.1773
  -7.100  -0.2797   0.07116   0.06784  -0.0177  0.4942  0.0299  -1.8031   0.0000   0.0000   0.0000   0.1807
  -7.000  -0.2864   0.07047   0.06716  -0.0171  0.4940  0.0300  -1.8203   0.0000   0.0000   0.0000   0.1847
  -6.900  -0.2902   0.06963   0.06632  -0.0170  0.4938  0.0300  -1.8338   0.0000   0.0000   0.0000   0.1861
  -6.800  -0.2915   0.06861   0.06530  -0.0173  0.4936  0.0301  -1.8440   0.0000   0.0000   0.0000   0.1855
  -6.700  -0.2921   0.06756   0.06425  -0.0176  0.4934  0.0302  -1.8531   0.0000   0.0000   0.0000   0.1846
  -6.600  -0.2921   0.06648   0.06316  -0.0180  0.4932  0.0303  -1.8613   0.0000   0.0000   0.0000   0.1832
  -6.500  -0.2916   0.06539   0.06206  -0.0184  0.4929  0.0303  -1.8683   0.0000   0.0000   0.0000   0.1819
  -6.400  -0.2906   0.06427   0.06094  -0.0188  0.4927  0.0304  -1.8744   0.0000   0.0000   0.0000   0.1803
  -6.300  -0.2889   0.06313   0.05979  -0.0194  0.4924  0.0305  -1.8795   0.0000   0.0000   0.0000   0.1782
  -6.200  -0.2868   0.06199   0.05863  -0.0198  0.4921  0.0306  -1.8835   0.0000   0.0000   0.0000   0.1761
  -6.100  -0.2843   0.06085   0.05748  -0.0203  0.4918  0.0307  -1.8864   0.0000   0.0000   0.0000   0.1740
  -6.000  -0.2814   0.05970   0.05631  -0.0208  0.4914  0.0308  -1.8883   0.0000   0.0000   0.0000   0.1716
  -5.900  -0.2778   0.05853   0.05513  -0.0213  0.4911  0.0310  -1.8892   0.0000   0.0000   0.0000   0.1688
  -5.800  -0.2737   0.05735   0.05393  -0.0218  0.4907  0.0311  -1.8891   0.0000   0.0000   0.0000   0.1658
  -5.700  -0.2693   0.05619   0.05274  -0.0223  0.4903  0.0312  -1.8878   0.0000   0.0000   0.0000   0.1626
  -5.600  -0.2647   0.05504   0.05157  -0.0228  0.4898  0.0314  -1.8856   0.0000   0.0000   0.0000   0.1595
  -5.500  -0.2598   0.05389   0.05039  -0.0233  0.4894  0.0315  -1.8824   0.0000   0.0000   0.0000   0.1561
  -5.400  -0.2544   0.05275   0.04922  -0.0237  0.4889  0.0317  -1.8783   0.0000   0.0000   0.0000   0.1523
  -5.300  -0.2485   0.05160   0.04805  -0.0242  0.4883  0.0319  -1.8732   0.0000   0.0000   0.0000   0.1483
  -5.200  -0.2423   0.05045   0.04687  -0.0246  0.4877  0.0320  -1.8673   0.0000   0.0000   0.0000   0.1439
  -5.100  -0.2356   0.04931   0.04570  -0.0251  0.4871  0.0322  -1.8605   0.0000   0.0000   0.0000   0.1390
  -5.000  -0.2287   0.04819   0.04454  -0.0255  0.4864  0.0324  -1.8528   0.0000   0.0000   0.0000   0.1339
  -4.900  -0.2218   0.04708   0.04340  -0.0259  0.4857  0.0326  -1.8445   0.0000   0.0000   0.0000   0.1285
  -4.800  -0.2147   0.04599   0.04227  -0.0263  0.4849  0.0329  -1.8355   0.0000   0.0000   0.0000   0.1228
  -4.700  -0.2073   0.04490   0.04114  -0.0267  0.4840  0.0331  -1.8259   0.0000   0.0000   0.0000   0.1165
  -4.600  -0.1996   0.04383   0.04003  -0.0271  0.4830  0.0334  -1.8156   0.0000   0.0000   0.0000   0.1097
  -4.500  -0.1917   0.04277   0.03892  -0.0274  0.4820  0.0336  -1.8049   0.0000   0.0000   0.0000   0.1023
  -4.400  -0.1836   0.04171   0.03782  -0.0277  0.4809  0.0339  -1.7936   0.0000   0.0000   0.0000   0.0940
  -4.300  -0.1752   0.04067   0.03673  -0.0280  0.4796  0.0342  -1.7818   0.0000   0.0000   0.0000   0.0849
  -4.200  -0.1666   0.03963   0.03565  -0.0283  0.4783  0.0346  -1.7697   0.0000   0.0000   0.0000   0.0747
  -4.100  -0.1578   0.03861   0.03458  -0.0286  0.4768  0.0349  -1.7572   0.0000   0.0000   0.0000   0.0632
  -4.000  -0.1487   0.03759   0.03351  -0.0289  0.4752  0.0353  -1.7444   0.0000   0.0000   0.0000   0.0502
  -3.900  -0.1395   0.03659   0.03245  -0.0291  0.4734  0.0357  -1.7311   0.0000   0.0000   0.0000   0.0353
  -3.800  -0.1302   0.03560   0.03141  -0.0293  0.4714  0.0362  -1.7176   0.0000   0.0000   0.0000   0.0184
  -3.700  -0.1209   0.03464   0.03039  -0.0296  0.4693  0.0366  -1.7037   0.0000   0.0000   0.0000  -0.0011
  -3.600  -0.1114   0.03369   0.02937  -0.0297  0.4669  0.0371  -1.6898   0.0000   0.0000   0.0000  -0.0241
  -3.500  -0.1018   0.03275   0.02836  -0.0299  0.4641  0.0377  -1.6757   0.0000   0.0000   0.0000  -0.0514
  -3.400  -0.0921   0.03183   0.02736  -0.0301  0.4610  0.0383  -1.6616   0.0000   0.0000   0.0000  -0.0847
  -3.300  -0.0823   0.03092   0.02637  -0.0302  0.4572  0.0389  -1.6476   0.0000   0.0000   0.0000  -0.1260
   0.500   0.3281   0.01624   0.01049  -0.0324  0.3988  0.0842  -0.9092   0.0000   0.0000   0.0000   0.3483
   0.600   0.3393   0.01633   0.01066  -0.0324  0.3986  0.0886  -0.9238   0.0000   0.0000   0.0000   0.3446
   0.700   0.3505   0.01698   0.01142  -0.0323  0.3985  0.0955  -0.9380   0.0000   0.0000   0.0000   0.3411
   1.000   0.3887   0.01193   0.00516  -0.0298  0.3980  0.0370  -0.9739   0.0000   0.0000   0.0000   0.3254
   1.100   0.4002   0.01174   0.00492  -0.0297  0.3979  0.0360  -0.9851   0.0000   0.0000   0.0000   0.3228
   1.200   0.4116   0.01159   0.00474  -0.0296  0.3978  0.0352  -0.9959   0.0000   0.0000   0.0000   0.3205
   1.300   0.4230   0.01147   0.00459  -0.0296  0.3977  0.0344  -1.0064   0.0000   0.0000   0.0000   0.3183
   1.500   0.4314   0.01903   0.01296  -0.0328  0.4021  0.0340  -0.9236   0.0000   0.0000   0.0000   0.3250
   1.600   0.4457   0.01788   0.01174  -0.0324  0.4039  0.0334  -0.9412   0.0000   0.0000   0.0000   0.3215
   1.700   0.4577   0.01755   0.01137  -0.0323  0.4047  0.0330  -0.9541   0.0000   0.0000   0.0000   0.3192
   1.800   0.4691   0.01748   0.01128  -0.0323  0.4052  0.0327  -0.9655   0.0000   0.0000   0.0000   0.3173
   1.900   0.4799   0.01759   0.01138  -0.0323  0.4053  0.0324  -0.9758   0.0000   0.0000   0.0000   0.3157
   2.000   0.4904   0.01784   0.01163  -0.0324  0.4052  0.0322  -0.9856   0.0000   0.0000   0.0000   0.3143
   2.100   0.5007   0.01815   0.01195  -0.0325  0.4050  0.0320  -0.9972   0.0000   0.0000   0.0000   0.3130
   2.200   0.5110   0.01846   0.01226  -0.0326  0.4048  0.0318  -1.0088   0.0000   0.0000   0.0000   0.3117
   2.300   0.5216   0.01867   0.01247  -0.0326  0.4048  0.0317  -1.0210   0.0000   0.0000   0.0000   0.3105
   2.400   0.5326   0.01873   0.01252  -0.0327  0.4051  0.0316  -1.0341   0.0000   0.0000   0.0000   0.3091
   2.500   0.5436   0.01877   0.01255  -0.0327  0.4053  0.0316  -1.0473   0.0000   0.0000   0.0000   0.3077
   2.600   0.5546   0.01884   0.01262  -0.0327  0.4056  0.0317  -1.0604   0.0000   0.0000   0.0000   0.3065
   2.700   0.5654   0.01894   0.01272  -0.0327  0.4058  0.0319  -1.0734   0.0000   0.0000   0.0000   0.3053
   2.800   0.5762   0.01907   0.01285  -0.0327  0.4059  0.0323  -1.0861   0.0000   0.0000   0.0000   0.3041
   2.900   0.5869   0.01922   0.01300  -0.0328  0.4060  0.0337  -1.0987   0.0000   0.0000   0.0000   0.3030
   3.000   0.5975   0.01940   0.01321  -0.0328  0.4061  0.0444  -1.1113   0.0000   0.0000   0.0000   0.3019
   3.100   0.6081   0.01957   0.01346  -0.0328  0.4061  0.0481  -1.1239   0.0000   0.0000   0.0000   0.3010
   3.200   0.6184   0.01971   0.01370  -0.0329  0.4062  0.0712  -1.1363   0.0000   0.0000   0.0000   0.3001
   3.300   0.6288   0.01990   0.01394  -0.0330  0.4062  0.0802  -1.1487   0.0000   0.0000   0.0000   0.2992
   3.400   0.6390   0.02007   0.01421  -0.0330  0.4063  0.0959  -1.1610   0.0000   0.0000   0.0000   0.2984
   3.500   0.6492   0.02026   0.01448  -0.0331  0.4063  0.1194  -1.1732   0.0000   0.0000   0.0000   0.2976
   3.600   0.6593   0.02048   0.01476  -0.0332  0.4062  0.1342  -1.1854   0.0000   0.0000   0.0000   0.2968
   3.700   0.6694   0.02075   0.01507  -0.0333  0.4062  0.1401  -1.1975   0.0000   0.0000   0.0000   0.2961
   3.800   0.6794   0.02105   0.01539  -0.0334  0.4061  0.1437  -1.2094   0.0000   0.0000   0.0000   0.2954
   3.900   0.6892   0.02137   0.01575  -0.0334  0.4060  0.1463  -1.2212   0.0000   0.0000   0.0000   0.2947
   4.000   0.6989   0.02173   0.01613  -0.0335  0.4059  0.1483  -1.2327   0.0000   0.0000   0.0000   0.2940
   4.100   0.7083   0.02212   0.01655  -0.0336  0.4058  0.1498  -1.2440   0.0000   0.0000   0.0000   0.2934
   4.200   0.7176   0.02257   0.01702  -0.0337  0.4056  0.1546  -1.2555   0.0000   0.0000   0.0000   0.2928
   4.300   0.7266   0.02306   0.01755  -0.0338  0.4053  0.1619  -1.2722   0.0000   0.0000   0.0000   0.2922
   4.400   0.7351   0.02363   0.01818  -0.0339  0.4050  0.1700  -1.2882   0.0000   0.0000   0.0000   0.2917
   4.500   0.7414   0.02467   0.01928  -0.0341  0.4043  0.1766  -1.3007   0.0000   0.0000   0.0000   0.2914
   4.600   0.7444   0.02639   0.02109  -0.0343  0.4033  0.1816  -1.3075   0.0000   0.0000   0.0000   0.2915
   4.700   0.7413   0.02926   0.02405  -0.0347  0.4020  0.1839  -1.3044   0.0000   0.0000   0.0000   0.2921
   4.800   0.7096   0.03687   0.03178  -0.0353  0.3999  0.1728  -1.2557   0.0000   0.0000   0.0000   0.2950
   4.900   0.7890   0.02144   0.01790  -0.0339  0.3982  1.0000  -1.3949   0.0000   0.0000   0.0000   0.2878
   5.000   0.8058   0.01994   0.01633  -0.0335  0.3978  1.0000  -1.4273   0.0000   0.0000   0.0000   0.2863
   5.100   0.8194   0.01924   0.01560  -0.0333  0.3976  1.0000  -1.4536   0.0000   0.0000   0.0000   0.2852
   5.200   0.8318   0.01885   0.01518  -0.0331  0.3974  1.0000  -1.4777   0.0000   0.0000   0.0000   0.2843
   5.300   0.8446   0.01834   0.01465  -0.0330  0.3972  1.0000  -1.5028   0.0000   0.0000   0.0000   0.2834
   5.400   0.8578   0.01775   0.01402  -0.0328  0.3970  1.0000  -1.5287   0.0000   0.0000   0.0000   0.2824
   5.500   0.8710   0.01714   0.01337  -0.0326  0.3967  1.0000  -1.5548   0.0000   0.0000   0.0000   0.2815
   5.600   0.8840   0.01662   0.01282  -0.0325  0.3965  1.0000  -1.5804   0.0000   0.0000   0.0000   0.2807
   5.700   0.8962   0.01629   0.01247  -0.0324  0.3963  1.0000  -1.6046   0.0000   0.0000   0.0000   0.2799
   5.800   0.9082   0.01602   0.01218  -0.0323  0.3961  1.0000  -1.6285   0.0000   0.0000   0.0000   0.2792
   5.900   0.9203   0.01574   0.01188  -0.0323  0.3959  1.0000  -1.6525   0.0000   0.0000   0.0000   0.2785
   6.000   0.9324   0.01547   0.01159  -0.0322  0.3956  1.0000  -1.6767   0.0000   0.0000   0.0000   0.2779
   6.100   0.9444   0.01519   0.01129  -0.0321  0.3954  1.0000  -1.7009   0.0000   0.0000   0.0000   0.2772
   6.200   0.9565   0.01491   0.01100  -0.0321  0.3952  1.0000  -1.7253   0.0000   0.0000   0.0000   0.2766
   6.300   0.9686   0.01464   0.01070  -0.0320  0.3949  1.0000  -1.7497   0.0000   0.0000   0.0000   0.2760
   6.400   0.9807   0.01436   0.01041  -0.0319  0.3946  1.0000  -1.7742   0.0000   0.0000   0.0000   0.2753
   6.500   0.9928   0.01410   0.01012  -0.0319  0.3943  1.0000  -1.7988   0.0000   0.0000   0.0000   0.2748
   6.600   1.0052   0.01373   0.00973  -0.0318  0.3939  1.0000  -1.8243   0.0000   0.0000   0.0000   0.2741
   6.700   1.0210   0.01243   0.00832  -0.0316  0.3927  1.0000  -1.8572   0.0000   0.0000   0.0000   0.2733
   6.800   1.0367   0.01109   0.00682  -0.0314  0.3905  1.0000  -1.8906   0.0000   0.0000   0.0000   0.2724
   6.900   1.0504   0.01030   0.00593  -0.0312  0.3878  1.0000  -1.9197   0.0000   0.0000   0.0000   0.2717
   7.000   1.0628   0.00989   0.00546  -0.0312  0.3849  1.0000  -1.9612   0.0000   0.0000   0.0000   0.2711
   7.100   1.0746   0.00969   0.00521  -0.0311  0.3821  1.0000  -2.0053   0.0000   0.0000   0.0000   0.2706
   7.200   1.0861   0.00959   0.00509  -0.0311  0.3797  1.0000  -2.0488   0.0000   0.0000   0.0000   0.2702
   7.300   1.0976   0.00949   0.00497  -0.0311  0.3768  1.0000  -2.0925   0.0000   0.0000   0.0000   0.2697
   7.400   1.1090   0.00939   0.00484  -0.0311  0.3730  1.0000  -2.1365   0.0000   0.0000   0.0000   0.2693
   7.500   1.1204   0.00930   0.00470  -0.0311  0.3675  1.0000  -2.1808   0.0000   0.0000   0.0000   0.2688
   7.600   1.1317   0.00918   0.00451  -0.0311  0.3582  1.0000  -2.2255   0.0000   0.0000   0.0000   0.2683
   7.700   1.1422   0.00908   0.00413  -0.0309  0.3305  1.0000  -2.2695   0.0000   0.0000   0.0000   0.2678
   7.800   1.1518   0.00923   0.00406  -0.0308  0.2957  1.0000  -2.3107   0.0000   0.0000   0.0000   0.2673
   7.900   1.1619   0.00941   0.00415  -0.0307  0.2838  1.0000  -2.3527   0.0000   0.0000   0.0000   0.2669
   8.000   1.1716   0.00964   0.00429  -0.0307  0.2711  1.0000  -2.3943   0.0000   0.0000   0.0000   0.2665
   8.100   1.1810   0.00992   0.00446  -0.0307  0.2572  1.0000  -2.4352   0.0000   0.0000   0.0000   0.2661
   8.200   1.1902   0.01023   0.00463  -0.0306  0.2431  1.0000  -2.4760   0.0000   0.0000   0.0000   0.2657
   8.300   1.2000   0.01046   0.00479  -0.0306  0.2279  1.0000  -2.5181   0.0000   0.0000   0.0000   0.2653
   8.400   1.2101   0.01065   0.00493  -0.0306  0.2120  1.0000  -2.5613   0.0000   0.0000   0.0000   0.2650
   8.500   1.2204   0.01079   0.00506  -0.0306  0.1998  1.0000  -2.6053   0.0000   0.0000   0.0000   0.2646
   8.600   1.2306   0.01094   0.00520  -0.0305  0.1965  1.0000  -2.6495   0.0000   0.0000   0.0000   0.2642
   8.700   1.2404   0.01114   0.00537  -0.0305  0.1913  1.0000  -2.6932   0.0000   0.0000   0.0000   0.2638
   8.800   1.2491   0.01150   0.00566  -0.0304  0.1818  1.0000  -2.7344   0.0000   0.0000   0.0000   0.2634
   8.900   1.2560   0.01212   0.00617  -0.0303  0.1688  1.0000  -2.7710   0.0000   0.0000   0.0000   0.2631
   9.000   1.2623   0.01277   0.00668  -0.0301  0.1535  1.0000  -2.8065   0.0000   0.0000   0.0000   0.2626
   9.100   1.2710   0.01308   0.00694  -0.0300  0.1464  1.0000  -2.8481   0.0000   0.0000   0.0000   0.2622
   9.200   1.2794   0.01340   0.00721  -0.0299  0.1406  1.0000  -2.8895   0.0000   0.0000   0.0000   0.2618
   9.300   1.2871   0.01379   0.00752  -0.0297  0.1334  1.0000  -2.9294   0.0000   0.0000   0.0000   0.2614
   9.400   1.2942   0.01423   0.00789  -0.0295  0.1256  1.0000  -2.9681   0.0000   0.0000   0.0000   0.2609
   9.800   1.2737   0.01974   0.01286  -0.0250  0.0195  1.0000  -3.0729   0.0000   0.0000   0.0000   0.2572
   9.900   1.2716   0.02052   0.01359  -0.0240  0.0146  1.0000  -3.1301   0.0000   0.0000   0.0000   0.2563
  10.000   1.2720   0.02109   0.01422  -0.0230  0.0126  1.0000  -3.1881   0.0000   0.0000   0.0000   0.2554
  10.200   1.2440   0.02383   0.01710  -0.0203  0.0145  1.0000  -3.1201   0.0000   0.0000   0.0000   0.2532
  10.300   1.2278   0.02530   0.01869  -0.0189  0.0185  1.0000  -3.0610   0.0000   0.0000   0.0000   0.2521
  10.400   1.2180   0.02639   0.01983  -0.0176  0.0192  1.0000  -3.0499   0.0000   0.0000   0.0000   0.2510
  10.500   1.2085   0.02749   0.02098  -0.0165  0.0195  1.0000  -3.0424   0.0000   0.0000   0.0000   0.2500
  10.600   1.1991   0.02866   0.02221  -0.0154  0.0200  1.0000  -3.0336   0.0000   0.0000   0.0000   0.2491
  10.700   1.1895   0.03001   0.02367  -0.0147  0.0216  1.0000  -3.0138   0.0000   0.0000   0.0000   0.2484
  12.000   1.0938   0.04606   0.03993  -0.0078  0.0125  1.0000  -3.0851   0.0000   0.0000   0.0000   0.2408
  12.100   1.0965   0.04665   0.04055  -0.0075  0.0124  1.0000  -3.1336   0.0000   0.0000   0.0000   0.2403
  12.200   1.0992   0.04723   0.04117  -0.0072  0.0123  1.0000  -3.1794   0.0000   0.0000   0.0000   0.2399
  12.300   1.1020   0.04782   0.04179  -0.0070  0.0122  1.0000  -3.2233   0.0000   0.0000   0.0000   0.2394
  12.400   1.1047   0.04842   0.04243  -0.0067  0.0121  1.0000  -3.2657   0.0000   0.0000   0.0000   0.2390
  12.500   1.1074   0.04903   0.04307  -0.0065  0.0121  1.0000  -3.3070   0.0000   0.0000   0.0000   0.2386
  12.600   1.1099   0.04966   0.04373  -0.0062  0.0121  1.0000  -3.3471   0.0000   0.0000   0.0000   0.2381
  12.700   1.1121   0.05031   0.04441  -0.0060  0.0120  1.0000  -3.3857   0.0000   0.0000   0.0000   0.2378
  12.800   1.1141   0.05100   0.04514  -0.0058  0.0120  1.0000  -3.4226   0.0000   0.0000   0.0000   0.2374
  12.900   1.1157   0.05175   0.04592  -0.0057  0.0120  1.0000  -3.4576   0.0000   0.0000   0.0000   0.2371
  13.000   1.1168   0.05259   0.04679  -0.0056  0.0120  1.0000  -3.4898   0.0000   0.0000   0.0000   0.2368
  13.100   1.1167   0.05358   0.04782  -0.0055  0.0120  1.0000  -3.5169   0.0000   0.0000   0.0000   0.2365
  13.200   1.1118   0.05525   0.04956  -0.0058  0.0120  1.0000  -3.5209   0.0000   0.0000   0.0000   0.2366
  13.300   0.9896   0.07326   0.06781  -0.0139  0.0132  1.0000  -2.9224   0.0000   0.0000   0.0000   0.2455
  13.400   0.9925   0.07399   0.06857  -0.0138  0.0124  1.0000  -2.9812   0.0000   0.0000   0.0000   0.2452
  13.500   0.9956   0.07469   0.06930  -0.0137  0.0123  1.0000  -3.0296   0.0000   0.0000   0.0000   0.2449
  13.600   0.9988   0.07539   0.07003  -0.0136  0.0122  1.0000  -3.0755   0.0000   0.0000   0.0000   0.2446
  13.700   1.0021   0.07608   0.07075  -0.0136  0.0122  1.0000  -3.1198   0.0000   0.0000   0.0000   0.2443
  13.800   1.0054   0.07676   0.07146  -0.0135  0.0121  1.0000  -3.1633   0.0000   0.0000   0.0000   0.2440
  13.900   1.0087   0.07745   0.07218  -0.0135  0.0121  1.0000  -3.2059   0.0000   0.0000   0.0000   0.2437
  14.000   1.0121   0.07814   0.07290  -0.0134  0.0121  1.0000  -3.2477   0.0000   0.0000   0.0000   0.2434
  14.100   1.0154   0.07884   0.07362  -0.0134  0.0120  1.0000  -3.2890   0.0000   0.0000   0.0000   0.2431
  14.200   1.0186   0.07955   0.07435  -0.0134  0.0120  1.0000  -3.3297   0.0000   0.0000   0.0000   0.2428
  14.300   1.0219   0.08026   0.07509  -0.0134  0.0120  1.0000  -3.3701   0.0000   0.0000   0.0000   0.2426
  14.400   1.0251   0.08097   0.07583  -0.0134  0.0120  1.0000  -3.4103   0.0000   0.0000   0.0000   0.2423
  14.500   1.0283   0.08169   0.07658  -0.0134  0.0120  1.0000  -3.4501   0.0000   0.0000   0.0000   0.2421
  14.600   1.0313   0.08243   0.07734  -0.0134  0.0120  1.0000  -3.4895   0.0000   0.0000   0.0000   0.2418
  14.700   1.0344   0.08317   0.07811  -0.0134  0.0120  1.0000  -3.5287   0.0000   0.0000   0.0000   0.2416
  14.800   1.0373   0.08392   0.07889  -0.0134  0.0120  1.0000  -3.5676   0.0000   0.0000   0.0000   0.2413
  14.900   1.0402   0.08468   0.07968  -0.0134  0.0120  1.0000  -3.6062   0.0000   0.0000   0.0000   0.2411
  15.000   1.0430   0.08545   0.08048  -0.0134  0.0120  1.0000  -3.6445   0.0000   0.0000   0.0000   0.2409
  15.100   1.0457   0.08624   0.08129  -0.0135  0.0120  1.0000  -3.6825   0.0000   0.0000   0.0000   0.2407
  15.200   1.0483   0.08702   0.08211  -0.0135  0.0120  1.0000  -3.7200   0.0000   0.0000   0.0000   0.2405
  15.300   1.0508   0.08781   0.08292  -0.0136  0.0120  1.0000  -3.7571   0.0000   0.0000   0.0000   0.2403
  15.400   1.0532   0.08861   0.08376  -0.0136  0.0120  1.0000  -3.7937   0.0000   0.0000   0.0000   0.2401
  15.500   1.0554   0.08944   0.08462  -0.0137  0.0121  1.0000  -3.8298   0.0000   0.0000   0.0000   0.2399
  15.600   1.0575   0.09030   0.08552  -0.0137  0.0121  1.0000  -3.8653   0.0000   0.0000   0.0000   0.2397
  15.700   1.0593   0.09121   0.08647  -0.0138  0.0121  1.0000  -3.8998   0.0000   0.0000   0.0000   0.2395
  15.800   1.0611   0.09216   0.08746  -0.0139  0.0122  1.0000  -3.9342   0.0000   0.0000   0.0000   0.2394
  15.900   1.0622   0.09322   0.08857  -0.0139  0.0123  1.0000  -3.9658   0.0000   0.0000   0.0000   0.2392


