xflr5 v6.61

 Calculated polar for: MH 17

 1 1 Reynolds number fixed          Mach number fixed         

 xtrf =   1.000 (top)        1.000 (bottom)
 Mach =   0.000     Re =     0.200 e 6     Ncrit =   9.000

  alpha     CL        CD       CDp       Cm    Top Xtr Bot Xtr   Cpmin    Chinge    XCp    
 ------- -------- --------- --------- -------- ------- ------- -------- --------- ---------
 -10.000  -0.4502   0.08871   0.08539  -0.0501  1.0000  0.0438  -2.1764   0.0000   0.0000   0.0000   0.1291
  -9.900  -0.4543   0.08667   0.08337  -0.0516  1.0000  0.0440  -2.2186   0.0000   0.0000   0.0000   0.1269
  -9.800  -0.4596   0.08458   0.08131  -0.0532  1.0000  0.0441  -2.2629   0.0000   0.0000   0.0000   0.1250
  -9.700  -0.4662   0.08267   0.07942  -0.0544  1.0000  0.0441  -2.3046   0.0000   0.0000   0.0000   0.1243
  -9.600  -0.4742   0.08120   0.07796  -0.0547  1.0000  0.0441  -2.3393   0.0000   0.0000   0.0000   0.1259
  -9.500  -0.4836   0.08011   0.07689  -0.0542  1.0000  0.0439  -2.3682   0.0000   0.0000   0.0000   0.1294
  -9.400  -0.4942   0.07935   0.07615  -0.0530  1.0000  0.0438  -2.3927   0.0000   0.0000   0.0000   0.1344
  -9.300  -0.5056   0.07872   0.07554  -0.0515  1.0000  0.0436  -2.4158   0.0000   0.0000   0.0000   0.1401
  -9.200  -0.5170   0.07812   0.07494  -0.0499  1.0000  0.0434  -2.4392   0.0000   0.0000   0.0000   0.1457
  -9.100  -0.5286   0.07752   0.07435  -0.0483  1.0000  0.0432  -2.4628   0.0000   0.0000   0.0000   0.1511
  -9.000  -0.5402   0.07694   0.07378  -0.0465  1.0000  0.0430  -2.4865   0.0000   0.0000   0.0000   0.1565
  -8.900  -0.5519   0.07639   0.07325  -0.0447  1.0000  0.0428  -2.5094   0.0000   0.0000   0.0000   0.1619
  -8.800  -0.5638   0.07588   0.07275  -0.0427  1.0000  0.0426  -2.5321   0.0000   0.0000   0.0000   0.1674
  -8.700  -0.5758   0.07542   0.07229  -0.0405  1.0000  0.0425  -2.5544   0.0000   0.0000   0.0000   0.1729
  -8.600  -0.5816   0.07407   0.07090  -0.0404  0.9984  0.0427  -2.5803   0.0000   0.0000   0.0000   0.1740
  -8.500  -0.5846   0.07245   0.06922  -0.0409  0.9959  0.0431  -2.6077   0.0000   0.0000   0.0000   0.1736
  -8.400  -0.5858   0.07065   0.06734  -0.0417  0.9935  0.0438  -2.6409   0.0000   0.0000   0.0000   0.1724
  -8.300  -0.5870   0.06915   0.06571  -0.0420  0.9904  0.0448  -2.6874   0.0000   0.0000   0.0000   0.1721
  -8.200  -0.5888   0.06883   0.06515  -0.0419  0.9868  0.0460  -2.7595   0.0000   0.0000   0.0000   0.1725
  -8.100  -0.5867   0.06831   0.06445  -0.0419  0.9846  0.0464  -2.7719   0.0000   0.0000   0.0000   0.1723
  -8.000  -0.5849   0.06734   0.06334  -0.0418  0.9828  0.0465  -2.7760   0.0000   0.0000   0.0000   0.1723
  -7.900  -0.5859   0.06645   0.06234  -0.0408  0.9800  0.0466  -2.7788   0.0000   0.0000   0.0000   0.1741
  -7.800  -0.5851   0.06540   0.06115  -0.0402  0.9776  0.0467  -2.7789   0.0000   0.0000   0.0000   0.1752
  -7.700  -0.5960   0.06013   0.05584  -0.0399  0.9755  0.0475  -2.8863   0.0000   0.0000   0.0000   0.1770
  -7.600  -0.5931   0.05700   0.05274  -0.0405  0.9744  0.0482  -2.8589   0.0000   0.0000   0.0000   0.1758
  -7.500  -0.5855   0.05520   0.05096  -0.0411  0.9735  0.0489  -2.7880   0.0000   0.0000   0.0000   0.1739
  -7.400  -0.5781   0.05377   0.04953  -0.0416  0.9724  0.0496  -2.7204   0.0000   0.0000   0.0000   0.1722
  -7.300  -0.5703   0.05249   0.04822  -0.0421  0.9715  0.0505  -2.6552   0.0000   0.0000   0.0000   0.1704
  -7.200  -0.5647   0.05140   0.04710  -0.0420  0.9700  0.0513  -2.6035   0.0000   0.0000   0.0000   0.1698
  -7.100  -0.5644   0.05062   0.04628  -0.0407  0.9671  0.0520  -2.5743   0.0000   0.0000   0.0000   0.1722
  -7.000  -0.5612   0.04967   0.04526  -0.0400  0.9648  0.0530  -2.5402   0.0000   0.0000   0.0000   0.1731
  -6.900  -0.5567   0.04865   0.04417  -0.0395  0.9628  0.0543  -2.5084   0.0000   0.0000   0.0000   0.1734
  -6.800  -0.5511   0.04762   0.04302  -0.0391  0.9611  0.0561  -2.4878   0.0000   0.0000   0.0000   0.1735
  -6.700  -0.5414   0.05063   0.04551  -0.0371  0.9586  0.0613  -2.5093   0.0000   0.0000   0.0000   0.1758
  -6.600  -0.5451   0.04691   0.04158  -0.0364  0.9570  0.0624  -2.5755   0.0000   0.0000   0.0000   0.1777
  -6.500  -0.5371   0.04386   0.03862  -0.0373  0.9564  0.0638  -2.5398   0.0000   0.0000   0.0000   0.1750
  -6.400  -0.5324   0.04272   0.03752  -0.0368  0.9545  0.0647  -2.4991   0.0000   0.0000   0.0000   0.1754
  -6.300  -0.5322   0.04205   0.03684  -0.0351  0.9513  0.0655  -2.4727   0.0000   0.0000   0.0000   0.1785
  -5.200  -0.4475   0.02906   0.02202  -0.0259  0.9325  0.0429  -2.6707   0.0000   0.0000   0.0000   0.1868
  -5.100  -0.4365   0.02756   0.02031  -0.0255  0.9313  0.0402  -2.6931   0.0000   0.0000   0.0000   0.1860
  -5.000  -0.4226   0.02603   0.01847  -0.0253  0.9305  0.0373  -2.7475   0.0000   0.0000   0.0000   0.1845
  -4.900  -0.4071   0.02504   0.01728  -0.0258  0.9298  0.0360  -2.7406   0.0000   0.0000   0.0000   0.1811
  -4.800  -0.3914   0.02425   0.01637  -0.0264  0.9291  0.0357  -2.7004   0.0000   0.0000   0.0000   0.1768
  -4.700  -0.3751   0.02346   0.01549  -0.0273  0.9286  0.0357  -2.6468   0.0000   0.0000   0.0000   0.1713
  -4.600  -0.3583   0.02268   0.01465  -0.0284  0.9281  0.0360  -2.5839   0.0000   0.0000   0.0000   0.1648
  -4.500  -0.3415   0.02197   0.01391  -0.0296  0.9276  0.0367  -2.5128   0.0000   0.0000   0.0000   0.1575
  -4.400  -0.3253   0.02139   0.01330  -0.0306  0.9271  0.0376  -2.4332   0.0000   0.0000   0.0000   0.1498
  -4.300  -0.3102   0.02102   0.01293  -0.0315  0.9264  0.0397  -2.3380   0.0000   0.0000   0.0000   0.1422
  -4.200  -0.2951   0.02067   0.01256  -0.0324  0.9257  0.0419  -2.2489   0.0000   0.0000   0.0000   0.1340
  -4.100  -0.2800   0.02023   0.01210  -0.0332  0.9251  0.0434  -2.1717   0.0000   0.0000   0.0000   0.1252
  -4.000  -0.2653   0.01978   0.01162  -0.0338  0.9245  0.0444  -2.1118   0.0000   0.0000   0.0000   0.1159
  -3.900  -0.2512   0.01939   0.01119  -0.0344  0.9238  0.0455  -2.0675   0.0000   0.0000   0.0000   0.1064
  -3.800  -0.2628   0.01958   0.01137  -0.0299  0.9178  0.0455  -2.0703   0.0000   0.0000   0.0000   0.1299
  -3.700  -0.2540   0.01936   0.01111  -0.0294  0.9157  0.0464  -2.0313   0.0000   0.0000   0.0000   0.1278
  -3.600  -0.2459   0.01885   0.01060  -0.0289  0.9140  0.0480  -2.0059   0.0000   0.0000   0.0000   0.1263
  -3.500  -0.2376   0.01838   0.01014  -0.0284  0.9124  0.0506  -1.9719   0.0000   0.0000   0.0000   0.1243
  -3.400  -0.2267   0.01810   0.00986  -0.0284  0.9112  0.0543  -1.9174   0.0000   0.0000   0.0000   0.1184
  -3.300  -0.2144   0.01789   0.00963  -0.0286  0.9102  0.0597  -1.8574   0.0000   0.0000   0.0000   0.1099
  -3.200  -0.2043   0.01754   0.00929  -0.0284  0.9092  0.0665  -1.8148   0.0000   0.0000   0.0000   0.1043
  -3.100  -0.1936   0.01726   0.00901  -0.0283  0.9082  0.0778  -1.7711   0.0000   0.0000   0.0000   0.0972
  -3.000  -0.2036   0.01742   0.00917  -0.0241  0.9024  0.0801  -1.7721   0.0000   0.0000   0.0000   0.1252
  -2.900  -0.2035   0.01699   0.00899  -0.0220  0.8993  0.1187  -1.7607   0.0000   0.0000   0.0000   0.1357
  -2.800  -0.2100   0.01598   0.00877  -0.0189  0.8965  0.2914  -1.7603   0.0000   0.0000   0.0000   0.1541
  -2.700  -0.2217   0.01490   0.00867  -0.0145  0.8940  0.5087  -1.7622   0.0000   0.0000   0.0000   0.1791
  -2.600  -0.2254   0.01427   0.00882  -0.0108  0.8926  0.6903  -1.7413   0.0000   0.0000   0.0000   0.1968
  -2.500  -0.1845   0.01408   0.00913  -0.0160  0.8941  0.8193  -1.5648   0.0000   0.0000   0.0000   0.1575
  -2.400  -0.1422   0.01443   0.00946  -0.0216  0.8957  0.8556  -1.3768   0.0000   0.0000   0.0000   0.0908
  -2.300  -0.1166   0.01480   0.00978  -0.0239  0.8959  0.8742  -1.2489   0.0000   0.0000   0.0000   0.0371
  -2.200  -0.0700   0.01595   0.01085  -0.0291  0.8985  0.8933  -1.0508   0.0000   0.0000   0.0000  -0.1782
  -2.100  -0.0183   0.01667   0.01146  -0.0360  0.9022  0.8975  -0.8762   0.0000   0.0000   0.0000  -1.7680
  -2.000   0.0043   0.01688   0.01160  -0.0381  0.9018  0.9011  -0.7855   0.0000   0.0000   0.0000   9.2586
  -1.900   0.0065   0.01696   0.01165  -0.0363  0.8988  0.9082  -0.7513   0.0000   0.0000   0.0000   5.9696
  -1.800   0.0287   0.01703   0.01167  -0.0385  0.8983  0.9093  -0.6660   0.0000   0.0000   0.0000   1.6187
  -1.700   0.0472   0.01703   0.01163  -0.0401  0.8974  0.9103  -0.5921   0.0000   0.0000   0.0000   1.1143
  -1.600   0.0649   0.01702   0.01158  -0.0415  0.8965  0.9113  -0.5216   0.0000   0.0000   0.0000   0.8993
  -1.500   0.0823   0.01701   0.01153  -0.0429  0.8955  0.9125  -0.4536   0.0000   0.0000   0.0000   0.7783
  -1.400   0.0991   0.01700   0.01148  -0.0441  0.8946  0.9139  -0.3963   0.0000   0.0000   0.0000   0.7006
  -1.300   0.1150   0.01699   0.01143  -0.0452  0.8936  0.9156  -0.3984   0.0000   0.0000   0.0000   0.6468
  -1.100   0.1263   0.01716   0.01156  -0.0433  0.8882  0.9244  -0.4028   0.0000   0.0000   0.0000   0.5960
  -1.000   0.1422   0.01719   0.01156  -0.0444  0.8863  0.9255  -0.4095   0.0000   0.0000   0.0000   0.5651
  -0.900   0.1584   0.01719   0.01155  -0.0456  0.8847  0.9267  -0.4165   0.0000   0.0000   0.0000   0.5400
  -0.800   0.1746   0.01718   0.01152  -0.0468  0.8832  0.9280  -0.4236   0.0000   0.0000   0.0000   0.5194
  -0.700   0.1906   0.01717   0.01148  -0.0479  0.8819  0.9296  -0.4308   0.0000   0.0000   0.0000   0.5023
  -0.600   0.2061   0.01715   0.01145  -0.0488  0.8806  0.9313  -0.4378   0.0000   0.0000   0.0000   0.4878
  -0.500   0.2204   0.01713   0.01141  -0.0496  0.8793  0.9336  -0.4445   0.0000   0.0000   0.0000   0.4754
  -0.400   0.2316   0.01712   0.01138  -0.0496  0.8778  0.9368  -0.4505   0.0000   0.0000   0.0000   0.4646
  -0.300   0.2402   0.01713   0.01137  -0.0491  0.8764  0.9405  -0.4588   0.0000   0.0000   0.0000   0.4546
  -0.200   0.2564   0.01713   0.01136  -0.0503  0.8747  0.9416  -0.4715   0.0000   0.0000   0.0000   0.4462
  -0.100   0.2705   0.01718   0.01142  -0.0513  0.8718  0.9432  -0.4832   0.0000   0.0000   0.0000   0.4393
   0.000   0.2854   0.01719   0.01143  -0.0523  0.8696  0.9449  -0.4955   0.0000   0.0000   0.0000   0.4327
   0.100   0.3002   0.01718   0.01141  -0.0531  0.8677  0.9468  -0.5080   0.0000   0.0000   0.0000   0.4265
   0.200   0.3144   0.01715   0.01138  -0.0539  0.8659  0.9490  -0.5209   0.0000   0.0000   0.0000   0.4206
   0.300   0.3273   0.01712   0.01134  -0.0543  0.8643  0.9518  -0.5330   0.0000   0.0000   0.0000   0.4151
   0.400   0.3339   0.01716   0.01137  -0.0534  0.8623  0.9563  -0.5415   0.0000   0.0000   0.0000   0.4089
   0.500   0.3513   0.01706   0.01127  -0.0547  0.8613  0.9572  -0.5565   0.0000   0.0000   0.0000   0.4047
   0.600   0.3682   0.01696   0.01117  -0.0559  0.8602  0.9582  -0.5719   0.0000   0.0000   0.0000   0.4007
   0.700   0.3830   0.01694   0.01117  -0.0569  0.8575  0.9599  -0.5860   0.0000   0.0000   0.0000   0.3973
   0.800   0.3966   0.01690   0.01114  -0.0576  0.8534  0.9621  -0.5996   0.0000   0.0000   0.0000   0.3938
   0.900   0.4108   0.01674   0.01097  -0.0582  0.8501  0.9642  -0.6139   0.0000   0.0000   0.0000   0.3900
   1.000   0.4245   0.01652   0.01075  -0.0584  0.8471  0.9666  -0.6281   0.0000   0.0000   0.0000   0.3860
   1.100   0.4365   0.01632   0.01053  -0.0583  0.8446  0.9694  -0.6416   0.0000   0.0000   0.0000   0.3817
   1.200   0.4485   0.01619   0.01041  -0.0584  0.8406  0.9719  -0.6554   0.0000   0.0000   0.0000   0.3783
   1.300   0.4636   0.01601   0.01025  -0.0593  0.8359  0.9735  -0.6713   0.0000   0.0000   0.0000   0.3759
   1.400   0.4788   0.01581   0.01005  -0.0600  0.8327  0.9753  -0.6875   0.0000   0.0000   0.0000   0.3733
   1.500   0.4935   0.01563   0.00988  -0.0607  0.8305  0.9772  -0.7035   0.0000   0.0000   0.0000   0.3709
   1.600   0.5077   0.01547   0.00974  -0.0613  0.8286  0.9795  -0.7191   0.0000   0.0000   0.0000   0.3685
   1.700   0.5210   0.01533   0.00960  -0.0616  0.8269  0.9820  -0.7341   0.0000   0.0000   0.0000   0.3660
   1.800   0.5342   0.01531   0.00961  -0.0623  0.8227  0.9845  -0.7496   0.0000   0.0000   0.0000   0.3644
   1.900   0.5498   0.01516   0.00949  -0.0634  0.8193  0.9864  -0.7673   0.0000   0.0000   0.0000   0.3630
   2.000   0.5651   0.01498   0.00933  -0.0643  0.8165  0.9883  -0.7850   0.0000   0.0000   0.0000   0.3614
   2.100   0.5800   0.01479   0.00915  -0.0651  0.8142  0.9905  -0.8025   0.0000   0.0000   0.0000   0.3597
   2.200   0.5947   0.01460   0.00898  -0.0658  0.8121  0.9927  -0.8200   0.0000   0.0000   0.0000   0.3580
   2.300   0.6097   0.01440   0.00879  -0.0665  0.8104  0.9946  -0.8378   0.0000   0.0000   0.0000   0.3564
   2.400   0.6246   0.01429   0.00873  -0.0677  0.8056  0.9967  -0.8960   0.0000   0.0000   0.0000   0.3555
   2.500   0.6399   0.01411   0.00861  -0.0687  0.8020  0.9987  -0.9597   0.0000   0.0000   0.0000   0.3544
   2.600   0.6532   0.01392   0.00845  -0.0691  0.7990  1.0000  -1.0197   0.0000   0.0000   0.0000   0.3529
   2.700   0.6611   0.01378   0.00831  -0.0684  0.7964  1.0000  -1.0702   0.0000   0.0000   0.0000   0.3505
   2.800   0.6693   0.01363   0.00816  -0.0678  0.7942  1.0000  -1.1269   0.0000   0.0000   0.0000   0.3481
   2.900   0.6753   0.01364   0.00822  -0.0670  0.7890  1.0000  -1.1768   0.0000   0.0000   0.0000   0.3460
   3.000   0.6825   0.01356   0.00817  -0.0663  0.7849  1.0000  -1.2314   0.0000   0.0000   0.0000   0.3439
   3.100   0.6905   0.01343   0.00805  -0.0657  0.7817  1.0000  -1.2893   0.0000   0.0000   0.0000   0.3417
   3.200   0.6989   0.01328   0.00791  -0.0650  0.7790  1.0000  -1.3495   0.0000   0.0000   0.0000   0.3395
   3.300   0.7061   0.01323   0.00789  -0.0643  0.7746  1.0000  -1.4059   0.0000   0.0000   0.0000   0.3375
   3.400   0.7132   0.01318   0.00788  -0.0636  0.7697  1.0000  -1.4626   0.0000   0.0000   0.0000   0.3355
   3.500   0.7213   0.01305   0.00777  -0.0629  0.7659  1.0000  -1.5237   0.0000   0.0000   0.0000   0.3335
   3.600   0.7301   0.01290   0.00762  -0.0623  0.7627  1.0000  -1.5879   0.0000   0.0000   0.0000   0.3316
   3.700   0.7373   0.01286   0.00766  -0.0616  0.7576  1.0000  -1.6465   0.0000   0.0000   0.0000   0.3297
   3.800   0.7449   0.01280   0.00763  -0.0609  0.7523  1.0000  -1.7072   0.0000   0.0000   0.0000   0.3278
   3.900   0.7535   0.01265   0.00750  -0.0603  0.7480  1.0000  -1.7729   0.0000   0.0000   0.0000   0.3259
   4.000   0.7612   0.01255   0.00741  -0.0595  0.7417  1.0000  -1.8357   0.0000   0.0000   0.0000   0.3240
   4.100   0.7687   0.01240   0.00728  -0.0586  0.7333  1.0000  -1.8997   0.0000   0.0000   0.0000   0.3220
   4.200   0.7761   0.01224   0.00713  -0.0577  0.7235  1.0000  -1.9735   0.0000   0.0000   0.0000   0.3199
   4.300   0.7840   0.01203   0.00689  -0.0567  0.7120  1.0000  -2.0506   0.0000   0.0000   0.0000   0.3178
   4.400   0.7911   0.01190   0.00673  -0.0556  0.6972  1.0000  -2.1245   0.0000   0.0000   0.0000   0.3157
   4.500   0.7980   0.01181   0.00660  -0.0546  0.6809  1.0000  -2.1986   0.0000   0.0000   0.0000   0.3137
   4.600   0.8050   0.01176   0.00651  -0.0536  0.6639  1.0000  -2.2731   0.0000   0.0000   0.0000   0.3118
   4.700   0.8116   0.01176   0.00647  -0.0525  0.6438  1.0000  -2.3462   0.0000   0.0000   0.0000   0.3099
   4.800   0.8181   0.01178   0.00643  -0.0515  0.6214  1.0000  -2.4197   0.0000   0.0000   0.0000   0.3080
   4.900   0.8242   0.01185   0.00642  -0.0504  0.5947  1.0000  -2.4911   0.0000   0.0000   0.0000   0.3061
   5.000   0.8291   0.01199   0.00640  -0.0491  0.5592  1.0000  -2.5586   0.0000   0.0000   0.0000   0.3041
   5.100   0.8325   0.01225   0.00643  -0.0476  0.5156  1.0000  -2.6198   0.0000   0.0000   0.0000   0.3019
   5.200   0.8342   0.01263   0.00653  -0.0458  0.4660  1.0000  -2.6741   0.0000   0.0000   0.0000   0.2995
   5.300   0.8350   0.01309   0.00671  -0.0440  0.4176  1.0000  -2.7237   0.0000   0.0000   0.0000   0.2972
   5.400   0.8361   0.01356   0.00693  -0.0423  0.3746  1.0000  -2.7732   0.0000   0.0000   0.0000   0.2950
   5.500   0.8374   0.01403   0.00718  -0.0407  0.3372  1.0000  -2.8226   0.0000   0.0000   0.0000   0.2929
   5.600   0.8389   0.01449   0.00745  -0.0392  0.3018  1.0000  -2.8706   0.0000   0.0000   0.0000   0.2909
   5.700   0.8398   0.01500   0.00773  -0.0375  0.2613  1.0000  -2.9128   0.0000   0.0000   0.0000   0.2888
   5.800   0.8384   0.01566   0.00806  -0.0356  0.2063  1.0000  -2.9394   0.0000   0.0000   0.0000   0.2864
   5.900   0.8328   0.01665   0.00851  -0.0330  0.1216  1.0000  -2.9431   0.0000   0.0000   0.0000   0.2834
   6.000   0.8285   0.01759   0.00903  -0.0306  0.0710  1.0000  -2.9491   0.0000   0.0000   0.0000   0.2806
   6.100   0.8302   0.01811   0.00947  -0.0289  0.0591  1.0000  -2.9750   0.0000   0.0000   0.0000   0.2784
   6.200   0.8325   0.01855   0.00987  -0.0274  0.0531  1.0000  -3.0097   0.0000   0.0000   0.0000   0.2764
   6.300   0.8356   0.01893   0.01027  -0.0260  0.0493  1.0000  -3.0458   0.0000   0.0000   0.0000   0.2745
   6.400   0.8399   0.01921   0.01059  -0.0248  0.0466  1.0000  -3.0934   0.0000   0.0000   0.0000   0.2728
   6.500   0.8436   0.01951   0.01093  -0.0235  0.0444  1.0000  -3.1382   0.0000   0.0000   0.0000   0.2710
   6.600   0.8467   0.01985   0.01129  -0.0221  0.0427  1.0000  -3.1801   0.0000   0.0000   0.0000   0.2692
   6.700   0.8489   0.02023   0.01169  -0.0206  0.0412  1.0000  -3.2185   0.0000   0.0000   0.0000   0.2672
   6.800   0.8499   0.02067   0.01214  -0.0189  0.0400  1.0000  -3.2615   0.0000   0.0000   0.0000   0.2650
   6.900   0.8498   0.02118   0.01267  -0.0169  0.0389  1.0000  -3.2954   0.0000   0.0000   0.0000   0.2627
   7.000   0.8490   0.02178   0.01329  -0.0149  0.0380  1.0000  -3.3216   0.0000   0.0000   0.0000   0.2602
   7.100   0.8510   0.02222   0.01377  -0.0134  0.0374  1.0000  -3.3649   0.0000   0.0000   0.0000   0.2582
   7.200   0.8545   0.02255   0.01413  -0.0120  0.0370  1.0000  -3.4191   0.0000   0.0000   0.0000   0.2565
   7.300   0.8581   0.02291   0.01453  -0.0107  0.0365  1.0000  -3.4723   0.0000   0.0000   0.0000   0.2547
   7.400   0.8618   0.02330   0.01494  -0.0094  0.0361  1.0000  -3.5249   0.0000   0.0000   0.0000   0.2531
   7.500   0.8660   0.02370   0.01537  -0.0082  0.0355  1.0000  -3.5793   0.0000   0.0000   0.0000   0.2515
   7.600   0.8704   0.02409   0.01579  -0.0071  0.0348  1.0000  -3.6367   0.0000   0.0000   0.0000   0.2501
   7.700   0.8751   0.02447   0.01619  -0.0060  0.0340  1.0000  -3.6974   0.0000   0.0000   0.0000   0.2487
   7.800   0.8798   0.02484   0.01659  -0.0049  0.0331  1.0000  -3.7609   0.0000   0.0000   0.0000   0.2473
   7.900   0.8845   0.02521   0.01697  -0.0038  0.0321  1.0000  -3.8263   0.0000   0.0000   0.0000   0.2460
   8.000   0.8895   0.02561   0.01739  -0.0029  0.0312  1.0000  -3.8931   0.0000   0.0000   0.0000   0.2447
   8.100   0.8961   0.02610   0.01790  -0.0022  0.0306  1.0000  -3.9608   0.0000   0.0000   0.0000   0.2438
   8.200   0.9046   0.02669   0.01850  -0.0018  0.0301  1.0000  -4.0306   0.0000   0.0000   0.0000   0.2433
   8.300   0.9141   0.02733   0.01917  -0.0016  0.0296  1.0000  -4.1021   0.0000   0.0000   0.0000   0.2429
   8.400   0.9239   0.02803   0.01990  -0.0014  0.0292  1.0000  -4.1724   0.0000   0.0000   0.0000   0.2426
   8.500   0.9349   0.02882   0.02072  -0.0015  0.0288  1.0000  -4.2423   0.0000   0.0000   0.0000   0.2425
   8.600   0.9465   0.02969   0.02164  -0.0016  0.0285  1.0000  -4.3096   0.0000   0.0000   0.0000   0.2426
   8.700   0.9580   0.03061   0.02263  -0.0017  0.0283  1.0000  -4.3710   0.0000   0.0000   0.0000   0.2426
   8.800   0.9687   0.03154   0.02364  -0.0017  0.0282  1.0000  -4.4257   0.0000   0.0000   0.0000   0.2424
   8.900   0.9784   0.03246   0.02469  -0.0014  0.0282  1.0000  -4.4738   0.0000   0.0000   0.0000   0.2420
   9.000   0.9870   0.03336   0.02569  -0.0009  0.0283  1.0000  -4.5142   0.0000   0.0000   0.0000   0.2414
   9.100   0.9948   0.03426   0.02672  -0.0003  0.0285  1.0000  -4.5447   0.0000   0.0000   0.0000   0.2407
   9.200   1.0021   0.03527   0.02788   0.0005  0.0290  1.0000  -4.5585   0.0000   0.0000   0.0000   0.2398
   9.300   1.0091   0.03643   0.02921   0.0013  0.0295  1.0000  -4.5623   0.0000   0.0000   0.0000   0.2389
   9.400   1.0144   0.03750   0.03041   0.0023  0.0297  1.0000  -4.5775   0.0000   0.0000   0.0000   0.2378
   9.500   1.0183   0.03844   0.03146   0.0034  0.0296  1.0000  -4.6044   0.0000   0.0000   0.0000   0.2366
   9.600   1.0214   0.03930   0.03239   0.0045  0.0293  1.0000  -4.6418   0.0000   0.0000   0.0000   0.2354
   9.700   1.0238   0.04015   0.03332   0.0057  0.0289  1.0000  -4.6826   0.0000   0.0000   0.0000   0.2342
   9.800   1.0259   0.04109   0.03432   0.0068  0.0285  1.0000  -4.7350   0.0000   0.0000   0.0000   0.2330
   9.900   1.0276   0.04211   0.03543   0.0080  0.0283  1.0000  -4.7789   0.0000   0.0000   0.0000   0.2317
  10.000   1.0287   0.04311   0.03654   0.0095  0.0283  1.0000  -4.8064   0.0000   0.0000   0.0000   0.2302
  10.100   1.0189   0.04483   0.03870   0.0133  0.0305  1.0000  -4.6437   0.0000   0.0000   0.0000   0.2262
  10.200   1.0125   0.04710   0.04125   0.0159  0.0327  1.0000  -4.5355   0.0000   0.0000   0.0000   0.2234
  10.300   1.0082   0.04887   0.04316   0.0179  0.0339  1.0000  -4.4980   0.0000   0.0000   0.0000   0.2213
  10.400   1.0037   0.05069   0.04508   0.0197  0.0350  1.0000  -4.4719   0.0000   0.0000   0.0000   0.2193
  10.700   0.8848   0.03192   0.02674   0.0354  0.0326  1.0000  -4.2048   0.0000   0.0000   0.0000   0.1995
  10.800   0.8772   0.03333   0.02824   0.0373  0.0332  1.0000  -4.1781   0.0000   0.0000   0.0000   0.1969
  10.900   0.8695   0.03476   0.02976   0.0390  0.0337  1.0000  -4.1537   0.0000   0.0000   0.0000   0.1944
  11.000   0.8617   0.03623   0.03131   0.0407  0.0342  1.0000  -4.1312   0.0000   0.0000   0.0000   0.1919
  11.100   0.8537   0.03775   0.03290   0.0422  0.0347  1.0000  -4.1095   0.0000   0.0000   0.0000   0.1896
  11.200   0.8455   0.03933   0.03455   0.0436  0.0351  1.0000  -4.0875   0.0000   0.0000   0.0000   0.1873
  11.300   0.8371   0.04103   0.03632   0.0449  0.0355  1.0000  -4.0641   0.0000   0.0000   0.0000   0.1851
  11.400   0.8285   0.04298   0.03834   0.0461  0.0360  1.0000  -4.0364   0.0000   0.0000   0.0000   0.1830
  13.100   0.6897   0.11934   0.11567   0.0232  0.0704  1.0000  -2.4516   0.0000   0.0000   0.0000   0.2012
  13.200   0.6911   0.12044   0.11677   0.0231  0.0691  1.0000  -2.4727   0.0000   0.0000   0.0000   0.2011
  13.300   0.4958   0.10436   0.10100   0.0313  0.0822  1.0000  -1.8533   0.0000   0.0000   0.0000   0.1755
  13.400   0.4961   0.10544   0.10208   0.0312  0.0817  1.0000  -1.8575   0.0000   0.0000   0.0000   0.1755
  13.500   0.4984   0.10631   0.10296   0.0315  0.0811  1.0000  -1.8756   0.0000   0.0000   0.0000   0.1752
  13.600   0.5023   0.10702   0.10368   0.0320  0.0805  1.0000  -1.9065   0.0000   0.0000   0.0000   0.1746
  13.700   0.5096   0.10749   0.10416   0.0331  0.0799  1.0000  -1.9623   0.0000   0.0000   0.0000   0.1731
  13.800   0.5135   0.10968   0.10633   0.0343  0.0787  1.0000  -1.9939   0.0000   0.0000   0.0000   0.1712
  13.900   0.5036   0.11196   0.10860   0.0324  0.0785  1.0000  -1.9149   0.0000   0.0000   0.0000   0.1737
  14.000   0.4699   0.11558   0.11216   0.0264  0.0751  1.0000  -1.6575   0.0000   0.0000   0.0000   0.1823
  14.100   0.4659   0.11714   0.11371   0.0255  0.0736  1.0000  -1.6211   0.0000   0.0000   0.0000   0.1839
  14.200   0.4639   0.11849   0.11505   0.0248  0.0724  1.0000  -1.6006   0.0000   0.0000   0.0000   0.1850
  14.300   0.4629   0.11972   0.11628   0.0244  0.0713  1.0000  -1.5883   0.0000   0.0000   0.0000   0.1859
  14.400   0.4628   0.12085   0.11742   0.0240  0.0703  1.0000  -1.5827   0.0000   0.0000   0.0000   0.1866
  14.500   0.4635   0.12190   0.11846   0.0237  0.0694  1.0000  -1.5836   0.0000   0.0000   0.0000   0.1871
  14.600   0.4650   0.12285   0.11942   0.0236  0.0685  1.0000  -1.5922   0.0000   0.0000   0.0000   0.1874
  14.700   0.4676   0.12370   0.12027   0.0237  0.0677  1.0000  -1.6094   0.0000   0.0000   0.0000   0.1875
  14.800   0.4716   0.12444   0.12101   0.0239  0.0670  1.0000  -1.6387   0.0000   0.0000   0.0000   0.1873
  14.900   0.4775   0.12506   0.12165   0.0245  0.0662  1.0000  -1.6842   0.0000   0.0000   0.0000   0.1865
  15.000   0.4888   0.12716   0.12375   0.0267  0.0645  1.0000  -1.7809   0.0000   0.0000   0.0000   0.1830
  15.100   0.4855   0.12869   0.12528   0.0256  0.0644  1.0000  -1.7411   0.0000   0.0000   0.0000   0.1848
  15.200   0.4820   0.13012   0.12670   0.0245  0.0642  1.0000  -1.6987   0.0000   0.0000   0.0000   0.1868
  15.300   0.4765   0.13157   0.12813   0.0230  0.0639  1.0000  -1.6371   0.0000   0.0000   0.0000   0.1893
  15.400   0.4684   0.13302   0.12956   0.0210  0.0632  1.0000  -1.5479   0.0000   0.0000   0.0000   0.1929
  15.500   0.4605   0.13451   0.13104   0.0191  0.0617  1.0000  -1.4644   0.0000   0.0000   0.0000   0.1964
  15.600   0.4574   0.13580   0.13232   0.0181  0.0603  1.0000  -1.4250   0.0000   0.0000   0.0000   0.1984
  15.700   0.4564   0.13698   0.13350   0.0174  0.0589  1.0000  -1.4050   0.0000   0.0000   0.0000   0.1998
  15.800   0.4567   0.13806   0.13458   0.0169  0.0575  1.0000  -1.4033   0.0000   0.0000   0.0000   0.2009
  15.900   0.4580   0.13902   0.13555   0.0165  0.0561  1.0000  -1.4150   0.0000   0.0000   0.0000   0.2016
  16.000   0.4612   0.13979   0.13632   0.0165  0.0547  1.0000  -1.4495   0.0000   0.0000   0.0000   0.2019
  16.100   0.4695   0.14010   0.13665   0.0173  0.0530  1.0000  -1.5459   0.0000   0.0000   0.0000   0.2005
  16.200   0.4796   0.14057   0.13713   0.0185  0.0518  1.0000  -1.6646   0.0000   0.0000   0.0000   0.1984
  16.300   0.4833   0.14387   0.14042   0.0191  0.0506  1.0000  -1.6956   0.0000   0.0000   0.0000   0.1974
  16.400   0.4825   0.14521   0.14176   0.0183  0.0506  1.0000  -1.6712   0.0000   0.0000   0.0000   0.1989
  16.500   0.4817   0.14650   0.14304   0.0175  0.0505  1.0000  -1.6461   0.0000   0.0000   0.0000   0.2006
  16.600   0.4808   0.14771   0.14425   0.0166  0.0504  1.0000  -1.6193   0.0000   0.0000   0.0000   0.2023
  16.700   0.4786   0.14887   0.14541   0.0155  0.0502  1.0000  -1.5796   0.0000   0.0000   0.0000   0.2044
  16.800   0.4751   0.14993   0.14646   0.0142  0.0498  1.0000  -1.5240   0.0000   0.0000   0.0000   0.2070
  16.900   0.4699   0.15093   0.14745   0.0126  0.0491  1.0000  -1.4503   0.0000   0.0000   0.0000   0.2102
  17.000   0.4663   0.15202   0.14853   0.0113  0.0480  1.0000  -1.3954   0.0000   0.0000   0.0000   0.2128
  17.100   0.4654   0.15321   0.14972   0.0104  0.0469  1.0000  -1.3689   0.0000   0.0000   0.0000   0.2147
  17.200   0.4657   0.15438   0.15089   0.0097  0.0459  1.0000  -1.3559   0.0000   0.0000   0.0000   0.2161
  17.300   0.4665   0.15552   0.15203   0.0091  0.0449  1.0000  -1.3496   0.0000   0.0000   0.0000   0.2173
  17.400   0.4675   0.15664   0.15315   0.0086  0.0441  1.0000  -1.3478   0.0000   0.0000   0.0000   0.2184
  17.500   0.4689   0.15774   0.15425   0.0081  0.0433  1.0000  -1.3499   0.0000   0.0000   0.0000   0.2194
  17.600   0.4705   0.15880   0.15532   0.0077  0.0425  1.0000  -1.3556   0.0000   0.0000   0.0000   0.2204
  17.700   0.4724   0.15984   0.15636   0.0072  0.0418  1.0000  -1.3653   0.0000   0.0000   0.0000   0.2212
  17.800   0.4746   0.16087   0.15740   0.0069  0.0412  1.0000  -1.3795   0.0000   0.0000   0.0000   0.2219
  17.900   0.4771   0.16188   0.15841   0.0066  0.0406  1.0000  -1.3996   0.0000   0.0000   0.0000   0.2224
  18.000   0.4803   0.16287   0.15941   0.0064  0.0400  1.0000  -1.4277   0.0000   0.0000   0.0000   0.2227
  18.100   0.4846   0.16391   0.16046   0.0064  0.0395  1.0000  -1.4686   0.0000   0.0000   0.0000   0.2227
  18.200   0.4912   0.16515   0.16171   0.0068  0.0389  1.0000  -1.5357   0.0000   0.0000   0.0000   0.2219
  19.300   0.4951   0.17953   0.17609  -0.0011  0.0362  1.0000  -1.3195   0.0000   0.0000   0.0000   0.2375
  19.400   0.4948   0.18057   0.17713  -0.0021  0.0355  1.0000  -1.2849   0.0000   0.0000   0.0000   0.2394
  19.500   0.4955   0.18172   0.17828  -0.0029  0.0348  1.0000  -1.2637   0.0000   0.0000   0.0000   0.2410
  19.600   0.4966   0.18291   0.17948  -0.0036  0.0341  1.0000  -1.2498   0.0000   0.0000   0.0000   0.2422
  19.700   0.4980   0.18409   0.18066  -0.0042  0.0335  1.0000  -1.2399   0.0000   0.0000   0.0000   0.2434
  19.800   0.4994   0.18529   0.18186  -0.0048  0.0329  1.0000  -1.2324   0.0000   0.0000   0.0000   0.2445
  19.900   0.5010   0.18647   0.18305  -0.0054  0.0323  1.0000  -1.2268   0.0000   0.0000   0.0000   0.2456
  20.000   0.5027   0.18765   0.18423  -0.0060  0.0318  1.0000  -1.2226   0.0000   0.0000   0.0000   0.2466
  20.100   0.5044   0.18881   0.18539  -0.0066  0.0312  1.0000  -1.2205   0.0000   0.0000   0.0000   0.2476
  20.200   0.5062   0.18994   0.18653  -0.0071  0.0307  1.0000  -1.2212   0.0000   0.0000   0.0000   0.2485
  20.300   0.5082   0.19107   0.18766  -0.0076  0.0301  1.0000  -1.2257   0.0000   0.0000   0.0000   0.2493
  20.400   0.5104   0.19216   0.18875  -0.0081  0.0295  1.0000  -1.2353   0.0000   0.0000   0.0000   0.2500
  20.500   0.5129   0.19321   0.18981  -0.0085  0.0289  1.0000  -1.2523   0.0000   0.0000   0.0000   0.2505
  20.600   0.5160   0.19426   0.19087  -0.0088  0.0283  1.0000  -1.2801   0.0000   0.0000   0.0000   0.2508
  20.700   0.5201   0.19542   0.19204  -0.0088  0.0277  1.0000  -1.3262   0.0000   0.0000   0.0000   0.2506
  20.800   0.5299   0.19790   0.19454  -0.0079  0.0269  1.0000  -1.4389   0.0000   0.0000   0.0000   0.2483
  21.200   0.5363   0.20557   0.20220  -0.0102  0.0263  1.0000  -1.3758   0.0000   0.0000   0.0000   0.2521
  21.300   0.5371   0.20665   0.20328  -0.0110  0.0263  1.0000  -1.3651   0.0000   0.0000   0.0000   0.2533
  21.400   0.5376   0.20766   0.20429  -0.0118  0.0262  1.0000  -1.3492   0.0000   0.0000   0.0000   0.2547
  21.500   0.5379   0.20860   0.20524  -0.0126  0.0262  1.0000  -1.3319   0.0000   0.0000   0.0000   0.2562
  21.600   0.5378   0.20946   0.20609  -0.0135  0.0261  1.0000  -1.3096   0.0000   0.0000   0.0000   0.2578
  21.700   0.5375   0.21026   0.20689  -0.0145  0.0260  1.0000  -1.2843   0.0000   0.0000   0.0000   0.2595
  21.800   0.5372   0.21105   0.20768  -0.0155  0.0258  1.0000  -1.2569   0.0000   0.0000   0.0000   0.2613
  21.900   0.5371   0.21188   0.20851  -0.0165  0.0256  1.0000  -1.2278   0.0000   0.0000   0.0000   0.2631
  22.000   0.5374   0.21282   0.20946  -0.0174  0.0253  1.0000  -1.1999   0.0000   0.0000   0.0000   0.2648
  22.100   0.5383   0.21393   0.21057  -0.0183  0.0248  1.0000  -1.1795   0.0000   0.0000   0.0000   0.2663
  22.200   0.5396   0.21513   0.21178  -0.0190  0.0244  1.0000  -1.1672   0.0000   0.0000   0.0000   0.2675
  22.300   0.5412   0.21639   0.21303  -0.0197  0.0240  1.0000  -1.1603   0.0000   0.0000   0.0000   0.2686
  22.400   0.5428   0.21765   0.21430  -0.0204  0.0235  1.0000  -1.1565   0.0000   0.0000   0.0000   0.2696
  22.500   0.5445   0.21890   0.21556  -0.0211  0.0231  1.0000  -1.1546   0.0000   0.0000   0.0000   0.2705
  22.600   0.5462   0.22018   0.21684  -0.0217  0.0228  1.0000  -1.1541   0.0000   0.0000   0.0000   0.2715
  22.700   0.5479   0.22145   0.21811  -0.0223  0.0224  1.0000  -1.1546   0.0000   0.0000   0.0000   0.2724
  22.800   0.5497   0.22271   0.21938  -0.0230  0.0221  1.0000  -1.1560   0.0000   0.0000   0.0000   0.2733
  22.900   0.5515   0.22398   0.22065  -0.0236  0.0218  1.0000  -1.1581   0.0000   0.0000   0.0000   0.2741
  23.000   0.5533   0.22524   0.22194  -0.0242  0.0215  1.0000  -1.1608   0.0000   0.0000   0.0000   0.2750
  23.100   0.5551   0.22649   0.22320  -0.0248  0.0212  1.0000  -1.1643   0.0000   0.0000   0.0000   0.2758
  23.200   0.5569   0.22774   0.22446  -0.0254  0.0209  1.0000  -1.1687   0.0000   0.0000   0.0000   0.2766
  23.300   0.5587   0.22899   0.22571  -0.0260  0.0206  1.0000  -1.1739   0.0000   0.0000   0.0000   0.2774
  23.400   0.5606   0.23023   0.22696  -0.0266  0.0203  1.0000  -1.1800   0.0000   0.0000   0.0000   0.2782
  23.500   0.5625   0.23147   0.22821  -0.0272  0.0201  1.0000  -1.1872   0.0000   0.0000   0.0000   0.2789
  23.600   0.5644   0.23271   0.22945  -0.0278  0.0198  1.0000  -1.1957   0.0000   0.0000   0.0000   0.2796
  23.700   0.5664   0.23395   0.23069  -0.0284  0.0196  1.0000  -1.2055   0.0000   0.0000   0.0000   0.2803
  23.800   0.5684   0.23522   0.23197  -0.0290  0.0194  1.0000  -1.2172   0.0000   0.0000   0.0000   0.2810
  23.900   0.5704   0.23647   0.23323  -0.0295  0.0192  1.0000  -1.2311   0.0000   0.0000   0.0000   0.2816
  24.000   0.5726   0.23775   0.23452  -0.0300  0.0190  1.0000  -1.2478   0.0000   0.0000   0.0000   0.2821
  24.100   0.5750   0.23909   0.23586  -0.0305  0.0188  1.0000  -1.2683   0.0000   0.0000   0.0000   0.2825
  24.200   0.5776   0.24052   0.23730  -0.0309  0.0186  1.0000  -1.2941   0.0000   0.0000   0.0000   0.2828
  24.300   0.5808   0.24222   0.23901  -0.0312  0.0184  1.0000  -1.3294   0.0000   0.0000   0.0000   0.2827
  24.400   0.5866   0.24517   0.24197  -0.0310  0.0181  1.0000  -1.3934   0.0000   0.0000   0.0000   0.2817
  24.500   0.8619   0.29587   0.29188  -0.0594  0.0173  1.0000  -2.0339   0.0000   0.0000   0.0000   0.2849
  24.600   0.8645   0.29681   0.29281  -0.0608  0.0170  1.0000  -1.9901   0.0000   0.0000   0.0000   0.2861
  24.700   0.8674   0.29798   0.29399  -0.0619  0.0166  1.0000  -1.9569   0.0000   0.0000   0.0000   0.2870
  24.800   0.8704   0.29925   0.29526  -0.0630  0.0162  1.0000  -1.9374   0.0000   0.0000   0.0000   0.2877
  24.900   0.8733   0.30052   0.29653  -0.0639  0.0158  1.0000  -1.9263   0.0000   0.0000   0.0000   0.2883
  25.000   0.8762   0.30179   0.29780  -0.0647  0.0154  1.0000  -1.9198   0.0000   0.0000   0.0000   0.2888
  25.100   0.8790   0.30299   0.29900  -0.0656  0.0151  1.0000  -1.9162   0.0000   0.0000   0.0000   0.2894
  25.200   0.8818   0.30424   0.30026  -0.0664  0.0148  1.0000  -1.9143   0.0000   0.0000   0.0000   0.2898
  25.300   0.8846   0.30549   0.30151  -0.0673  0.0145  1.0000  -1.9132   0.0000   0.0000   0.0000   0.2903
  25.400   0.8874   0.30670   0.30272  -0.0681  0.0143  1.0000  -1.9126   0.0000   0.0000   0.0000   0.2908
  25.500   0.8902   0.30791   0.30394  -0.0689  0.0141  1.0000  -1.9130   0.0000   0.0000   0.0000   0.2912
  25.600   0.8930   0.30912   0.30517  -0.0698  0.0139  1.0000  -1.9145   0.0000   0.0000   0.0000   0.2917
  25.700   0.8958   0.31029   0.30635  -0.0706  0.0137  1.0000  -1.9172   0.0000   0.0000   0.0000   0.2921
  25.800   0.8985   0.31146   0.30752  -0.0714  0.0135  1.0000  -1.9212   0.0000   0.0000   0.0000   0.2926
  25.900   0.9013   0.31262   0.30868  -0.0722  0.0134  1.0000  -1.9266   0.0000   0.0000   0.0000   0.2930
  26.000   0.9040   0.31377   0.30983  -0.0730  0.0132  1.0000  -1.9336   0.0000   0.0000   0.0000   0.2934
  26.100   0.9067   0.31490   0.31097  -0.0738  0.0131  1.0000  -1.9423   0.0000   0.0000   0.0000   0.2938
  26.200   0.9095   0.31603   0.31210  -0.0746  0.0129  1.0000  -1.9530   0.0000   0.0000   0.0000   0.2941
  26.300   0.9122   0.31722   0.31330  -0.0754  0.0128  1.0000  -1.9661   0.0000   0.0000   0.0000   0.2945
  26.400   0.9149   0.31836   0.31445  -0.0761  0.0127  1.0000  -1.9818   0.0000   0.0000   0.0000   0.2948
  26.500   0.9176   0.31952   0.31561  -0.0768  0.0125  1.0000  -2.0006   0.0000   0.0000   0.0000   0.2950
  26.600   0.9203   0.32073   0.31682  -0.0774  0.0124  1.0000  -2.0234   0.0000   0.0000   0.0000   0.2952
  26.700   0.9231   0.32202   0.31812  -0.0780  0.0123  1.0000  -2.0511   0.0000   0.0000   0.0000   0.2953
  26.800   0.9260   0.32353   0.31964  -0.0784  0.0122  1.0000  -2.0859   0.0000   0.0000   0.0000   0.2953
  26.900   0.9292   0.32559   0.32171  -0.0786  0.0121  1.0000  -2.1334   0.0000   0.0000   0.0000   0.2949


