xflr5 v6.61

 Calculated polar for: MH 18

 1 1 Reynolds number fixed          Mach number fixed         

 xtrf =   1.000 (top)        1.000 (bottom)
 Mach =   0.000     Re =     0.563 e 6     Ncrit =   9.000

  alpha     CL        CD       CDp       Cm    Top Xtr Bot Xtr   Cpmin    Chinge    XCp    
 ------- -------- --------- --------- -------- ------- ------- -------- --------- ---------
 -10.000  -0.4273   0.10925   0.10708  -0.0080  0.8551  0.0149  -1.9996   0.0000   0.0000   0.0000   0.2230
  -9.900  -0.4263   0.10769   0.10550  -0.0087  0.8516  0.0149  -2.0162   0.0000   0.0000   0.0000   0.2215
  -9.800  -0.4253   0.10612   0.10392  -0.0093  0.8478  0.0149  -2.0334   0.0000   0.0000   0.0000   0.2200
  -9.600  -0.4233   0.10292   0.10070  -0.0108  0.8413  0.0150  -2.0696   0.0000   0.0000   0.0000   0.2166
  -9.500  -0.4222   0.10128   0.09906  -0.0116  0.8397  0.0150  -2.0887   0.0000   0.0000   0.0000   0.2147
  -9.400  -0.4213   0.09964   0.09742  -0.0124  0.8378  0.0150  -2.1085   0.0000   0.0000   0.0000   0.2127
  -9.300  -0.4205   0.09799   0.09577  -0.0132  0.8357  0.0150  -2.1289   0.0000   0.0000   0.0000   0.2108
  -9.200  -0.4197   0.09631   0.09410  -0.0141  0.8333  0.0150  -2.1500   0.0000   0.0000   0.0000   0.2088
  -9.100  -0.4190   0.09462   0.09241  -0.0149  0.8308  0.0150  -2.1718   0.0000   0.0000   0.0000   0.2068
  -9.000  -0.4184   0.09293   0.09072  -0.0158  0.8281  0.0150  -2.1944   0.0000   0.0000   0.0000   0.2048
  -8.900  -0.4180   0.09124   0.08902  -0.0167  0.8253  0.0150  -2.2179   0.0000   0.0000   0.0000   0.2028
  -8.800  -0.4178   0.08954   0.08731  -0.0175  0.8224  0.0150  -2.2422   0.0000   0.0000   0.0000   0.2007
  -8.700  -0.4178   0.08783   0.08560  -0.0184  0.8195  0.0150  -2.2676   0.0000   0.0000   0.0000   0.1987
  -8.600  -0.4181   0.08612   0.08388  -0.0194  0.8166  0.0150  -2.2939   0.0000   0.0000   0.0000   0.1967
  -8.500  -0.4185   0.08439   0.08214  -0.0203  0.8134  0.0150  -2.3215   0.0000   0.0000   0.0000   0.1945
  -8.400  -0.4191   0.08263   0.08037  -0.0214  0.8099  0.0150  -2.3505   0.0000   0.0000   0.0000   0.1922
  -8.300  -0.4198   0.08084   0.07856  -0.0225  0.8058  0.0150  -2.3811   0.0000   0.0000   0.0000   0.1897
  -8.200  -0.4208   0.07900   0.07671  -0.0238  0.8013  0.0150  -2.4138   0.0000   0.0000   0.0000   0.1868
  -8.100  -0.4222   0.07704   0.07477  -0.0254  0.8000  0.0150  -2.4496   0.0000   0.0000   0.0000   0.1834
  -8.000  -0.4243   0.07499   0.07273  -0.0273  0.7984  0.0150  -2.4896   0.0000   0.0000   0.0000   0.1794
  -7.900  -0.4274   0.07285   0.07059  -0.0295  0.7965  0.0150  -2.5345   0.0000   0.0000   0.0000   0.1748
  -7.800  -0.4301   0.07083   0.06856  -0.0310  0.7943  0.0150  -2.5779   0.0000   0.0000   0.0000   0.1721
  -7.700  -0.4328   0.06891   0.06662  -0.0319  0.7922  0.0150  -2.6203   0.0000   0.0000   0.0000   0.1705
  -7.600  -0.4341   0.06687   0.06455  -0.0330  0.7901  0.0150  -2.6643   0.0000   0.0000   0.0000   0.1683
  -7.500  -0.4346   0.06474   0.06239  -0.0340  0.7879  0.0150  -2.7091   0.0000   0.0000   0.0000   0.1660
  -7.400  -0.4348   0.06263   0.06024  -0.0349  0.7858  0.0150  -2.7534   0.0000   0.0000   0.0000   0.1641
  -7.300  -0.4348   0.06056   0.05812  -0.0356  0.7836  0.0150  -2.7970   0.0000   0.0000   0.0000   0.1626
  -7.200  -0.4346   0.05853   0.05603  -0.0361  0.7814  0.0150  -2.8392   0.0000   0.0000   0.0000   0.1614
  -7.100  -0.4341   0.05655   0.05398  -0.0365  0.7792  0.0150  -2.8795   0.0000   0.0000   0.0000   0.1604
  -7.000  -0.4333   0.05462   0.05198  -0.0367  0.7770  0.0150  -2.9178   0.0000   0.0000   0.0000   0.1598
  -6.900  -0.4322   0.05273   0.05001  -0.0369  0.7748  0.0150  -2.9541   0.0000   0.0000   0.0000   0.1593
  -6.800  -0.4309   0.05088   0.04807  -0.0369  0.7725  0.0150  -2.9882   0.0000   0.0000   0.0000   0.1589
  -6.700  -0.4291   0.04905   0.04616  -0.0369  0.7701  0.0150  -3.0210   0.0000   0.0000   0.0000   0.1587
  -6.600  -0.4271   0.04725   0.04426  -0.0367  0.7674  0.0150  -3.0524   0.0000   0.0000   0.0000   0.1586
  -6.400  -0.4515   0.03674   0.03328  -0.0354  0.7617  0.0124  -3.6518   0.0000   0.0000   0.0000   0.1662
  -6.300  -0.4510   0.03399   0.03031  -0.0346  0.7583  0.0115  -3.8003   0.0000   0.0000   0.0000   0.1679
  -6.200  -0.4492   0.03139   0.02750  -0.0336  0.7571  0.0107  -3.9490   0.0000   0.0000   0.0000   0.1698
  -6.100  -0.4464   0.02887   0.02474  -0.0325  0.7563  0.0100  -4.1078   0.0000   0.0000   0.0000   0.1717
  -6.000  -0.4427   0.02644   0.02207  -0.0313  0.7555  0.0094  -4.2755   0.0000   0.0000   0.0000   0.1737
  -5.900  -0.4378   0.02432   0.01969  -0.0302  0.7545  0.0089  -4.4207   0.0000   0.0000   0.0000   0.1755
  -5.800  -0.4317   0.02254   0.01768  -0.0292  0.7534  0.0086  -4.5299   0.0000   0.0000   0.0000   0.1767
  -5.700  -0.4244   0.02112   0.01607  -0.0284  0.7522  0.0085  -4.5917   0.0000   0.0000   0.0000   0.1774
  -5.600  -0.4163   0.01995   0.01475  -0.0278  0.7509  0.0084  -4.6174   0.0000   0.0000   0.0000   0.1777
  -5.500  -0.4076   0.01895   0.01360  -0.0272  0.7496  0.0084  -4.6195   0.0000   0.0000   0.0000   0.1776
  -5.400  -0.3986   0.01808   0.01260  -0.0267  0.7483  0.0084  -4.6026   0.0000   0.0000   0.0000   0.1774
  -5.300  -0.3892   0.01731   0.01171  -0.0263  0.7470  0.0084  -4.5707   0.0000   0.0000   0.0000   0.1769
  -5.200  -0.3797   0.01661   0.01090  -0.0259  0.7456  0.0085  -4.5271   0.0000   0.0000   0.0000   0.1763
  -5.100  -0.3700   0.01597   0.01017  -0.0255  0.7442  0.0086  -4.4739   0.0000   0.0000   0.0000   0.1755
  -5.000  -0.3601   0.01548   0.00960  -0.0252  0.7427  0.0088  -4.3945   0.0000   0.0000   0.0000   0.1744
  -4.900  -0.3499   0.01512   0.00909  -0.0250  0.7413  0.0091  -4.2904   0.0000   0.0000   0.0000   0.1730
  -4.800  -0.3396   0.01477   0.00869  -0.0248  0.7398  0.0095  -4.1851   0.0000   0.0000   0.0000   0.1715
  -4.700  -0.3295   0.01440   0.00826  -0.0245  0.7384  0.0099  -4.0882   0.0000   0.0000   0.0000   0.1700
  -4.600  -0.3194   0.01399   0.00779  -0.0242  0.7369  0.0102  -4.0031   0.0000   0.0000   0.0000   0.1686
  -4.500  -0.3095   0.01355   0.00728  -0.0239  0.7355  0.0104  -3.9292   0.0000   0.0000   0.0000   0.1673
  -4.400  -0.2998   0.01311   0.00676  -0.0235  0.7340  0.0106  -3.8613   0.0000   0.0000   0.0000   0.1660
  -4.300  -0.2900   0.01271   0.00629  -0.0231  0.7325  0.0108  -3.7900   0.0000   0.0000   0.0000   0.1647
  -4.200  -0.2802   0.01235   0.00586  -0.0227  0.7310  0.0112  -3.7153   0.0000   0.0000   0.0000   0.1632
  -4.100  -0.2703   0.01203   0.00547  -0.0224  0.7294  0.0117  -3.6374   0.0000   0.0000   0.0000   0.1615
  -4.000  -0.2603   0.01175   0.00512  -0.0220  0.7278  0.0123  -3.5559   0.0000   0.0000   0.0000   0.1596
  -3.900  -0.2501   0.01151   0.00482  -0.0217  0.7262  0.0130  -3.4678   0.0000   0.0000   0.0000   0.1572
  -3.800  -0.2397   0.01133   0.00458  -0.0215  0.7244  0.0139  -3.3670   0.0000   0.0000   0.0000   0.1543
  -3.700  -0.2290   0.01122   0.00444  -0.0214  0.7225  0.0147  -3.2471   0.0000   0.0000   0.0000   0.1505
  -3.600  -0.2189   0.01097   0.00412  -0.0211  0.7205  0.0166  -3.1661   0.0000   0.0000   0.0000   0.1475
  -3.500  -0.2097   0.01056   0.00372  -0.0206  0.7184  0.0304  -3.1262   0.0000   0.0000   0.0000   0.1454
  -3.400  -0.1999   0.01032   0.00358  -0.0204  0.7161  0.0497  -3.0179   0.0000   0.0000   0.0000   0.1416
  -3.300  -0.1894   0.01022   0.00352  -0.0204  0.7139  0.0626  -2.8961   0.0000   0.0000   0.0000   0.1361
  -3.200  -0.1788   0.01012   0.00348  -0.0203  0.7120  0.0734  -2.7790   0.0000   0.0000   0.0000   0.1299
  -3.100  -0.1683   0.00998   0.00338  -0.0203  0.7116  0.0876  -2.6615   0.0000   0.0000   0.0000   0.1230
  -3.000  -0.1579   0.00981   0.00331  -0.0202  0.7110  0.1041  -2.5445   0.0000   0.0000   0.0000   0.1155
  -2.900  -0.1476   0.00965   0.00322  -0.0201  0.7104  0.1244  -2.4295   0.0000   0.0000   0.0000   0.1071
  -2.800  -0.1370   0.00952   0.00314  -0.0200  0.7097  0.1387  -2.3138   0.0000   0.0000   0.0000   0.0968
  -2.700  -0.1264   0.00939   0.00307  -0.0199  0.7089  0.1565  -2.1997   0.0000   0.0000   0.0000   0.0849
  -2.600  -0.1160   0.00926   0.00300  -0.0198  0.7081  0.1734  -2.0870   0.0000   0.0000   0.0000   0.0711
  -2.500  -0.1052   0.00916   0.00294  -0.0198  0.7073  0.1905  -1.9745   0.0000   0.0000   0.0000   0.0536
  -2.400  -0.0950   0.00900   0.00288  -0.0197  0.7064  0.2138  -1.8661   0.0000   0.0000   0.0000   0.0340
  -2.300  -0.0847   0.00886   0.00282  -0.0196  0.7053  0.2407  -1.7587   0.0000   0.0000   0.0000   0.0094
  -2.200  -0.0745   0.00871   0.00276  -0.0195  0.7042  0.2678  -1.6535   0.0000   0.0000   0.0000  -0.0214
  -2.100  -0.0647   0.00852   0.00271  -0.0193  0.7030  0.3045  -1.5521   0.0000   0.0000   0.0000  -0.0591
  -2.000  -0.0547   0.00836   0.00265  -0.0191  0.7017  0.3386  -1.4514   0.0000   0.0000   0.0000  -0.1116
  -1.800  -0.0355   0.00800   0.00255  -0.0186  0.6989  0.4205  -1.2585   0.0000   0.0000   0.0000  -0.2920
  -1.700  -0.0271   0.00774   0.00251  -0.0182  0.6976  0.4817  -1.1700   0.0000   0.0000   0.0000  -0.4422
  -1.600  -0.0194   0.00745   0.00246  -0.0175  0.6963  0.5485  -1.0864   0.0000   0.0000   0.0000  -0.6789
  -1.500  -0.0119   0.00720   0.00243  -0.0168  0.6948  0.6130  -1.0048   0.0000   0.0000   0.0000  -1.1987
  -1.400  -0.0043   0.00697   0.00240  -0.0160  0.6934  0.6709  -0.9245   0.0000   0.0000   0.0000  -3.5973
  -1.300   0.0035   0.00676   0.00234  -0.0152  0.6919  0.7267  -0.8481   0.0000   0.0000   0.0000   4.7526
  -1.200   0.0118   0.00655   0.00232  -0.0145  0.6903  0.7829  -0.7668   0.0000   0.0000   0.0000   1.5071
  -1.100   0.0243   0.00636   0.00233  -0.0146  0.6888  0.8432  -0.6709   0.0000   0.0000   0.0000   0.8646
  -1.000   0.0662   0.00632   0.00241  -0.0210  0.6875  0.9084  -0.5503   0.0000   0.0000   0.0000   0.5715
  -0.900   0.0971   0.00641   0.00247  -0.0251  0.6860  0.9297  -0.4887   0.0000   0.0000   0.0000   0.5110
  -0.800   0.1162   0.00649   0.00252  -0.0267  0.6844  0.9384  -0.4986   0.0000   0.0000   0.0000   0.4813
  -0.700   0.1273   0.00655   0.00254  -0.0266  0.6825  0.9473  -0.5062   0.0000   0.0000   0.0000   0.4598
  -0.600   0.1406   0.00662   0.00258  -0.0269  0.6805  0.9545  -0.5147   0.0000   0.0000   0.0000   0.4422
  -0.500   0.1579   0.00670   0.00261  -0.0282  0.6783  0.9603  -0.5253   0.0000   0.0000   0.0000   0.4287
  -0.400   0.1721   0.00678   0.00265  -0.0287  0.6759  0.9658  -0.5342   0.0000   0.0000   0.0000   0.4171
  -0.300   0.1820   0.00687   0.00271  -0.0284  0.6735  0.9708  -0.5411   0.0000   0.0000   0.0000   0.4061
  -0.200   0.1981   0.00694   0.00275  -0.0295  0.6712  0.9730  -0.5517   0.0000   0.0000   0.0000   0.3986
  -0.100   0.2169   0.00702   0.00280  -0.0312  0.6688  0.9755  -0.5640   0.0000   0.0000   0.0000   0.3932
   0.000   0.2351   0.00712   0.00287  -0.0327  0.6661  0.9784  -0.5760   0.0000   0.0000   0.0000   0.3885
   0.100   0.2516   0.00716   0.00290  -0.0339  0.6650  0.9814  -0.5872   0.0000   0.0000   0.0000   0.3838
   0.200   0.2662   0.00718   0.00290  -0.0346  0.6644  0.9842  -0.5977   0.0000   0.0000   0.0000   0.3790
   0.300   0.2799   0.00721   0.00291  -0.0351  0.6638  0.9868  -0.6076   0.0000   0.0000   0.0000   0.3744
   0.400   0.2992   0.00718   0.00287  -0.0369  0.6630  0.9884  -0.6206   0.0000   0.0000   0.0000   0.3721
   0.500   0.3177   0.00716   0.00283  -0.0385  0.6621  0.9903  -0.6331   0.0000   0.0000   0.0000   0.3699
   0.600   0.3348   0.00714   0.00280  -0.0398  0.6611  0.9922  -0.6453   0.0000   0.0000   0.0000   0.3676
   0.700   0.3516   0.00712   0.00278  -0.0411  0.6602  0.9941  -0.6582   0.0000   0.0000   0.0000   0.3653
   0.800   0.3683   0.00712   0.00276  -0.0423  0.6592  0.9961  -0.6712   0.0000   0.0000   0.0000   0.3633
   0.900   0.3860   0.00708   0.00271  -0.0438  0.6581  0.9977  -0.6848   0.0000   0.0000   0.0000   0.3617
   1.000   0.4043   0.00703   0.00265  -0.0454  0.6567  0.9995  -0.6988   0.0000   0.0000   0.0000   0.3605
   1.100   0.4171   0.00700   0.00262  -0.0458  0.6551  1.0000  -0.7096   0.0000   0.0000   0.0000   0.3579
   1.200   0.4274   0.00699   0.00260  -0.0457  0.6534  1.0000  -0.7191   0.0000   0.0000   0.0000   0.3549
   1.300   0.4377   0.00697   0.00258  -0.0456  0.6515  1.0000  -0.7286   0.0000   0.0000   0.0000   0.3520
   1.400   0.4481   0.00696   0.00256  -0.0455  0.6497  1.0000  -0.7382   0.0000   0.0000   0.0000   0.3493
   1.500   0.4584   0.00695   0.00254  -0.0454  0.6479  1.0000  -0.7477   0.0000   0.0000   0.0000   0.3467
   1.600   0.4689   0.00695   0.00253  -0.0453  0.6462  1.0000  -0.7579   0.0000   0.0000   0.0000   0.3442
   1.700   0.4793   0.00694   0.00252  -0.0452  0.6446  1.0000  -0.7688   0.0000   0.0000   0.0000   0.3418
   1.800   0.4897   0.00694   0.00251  -0.0451  0.6428  1.0000  -0.7798   0.0000   0.0000   0.0000   0.3395
   1.900   0.5002   0.00694   0.00250  -0.0450  0.6410  1.0000  -0.7908   0.0000   0.0000   0.0000   0.3373
   2.000   0.5106   0.00694   0.00249  -0.0449  0.6389  1.0000  -0.8018   0.0000   0.0000   0.0000   0.3352
   2.100   0.5210   0.00694   0.00248  -0.0447  0.6366  1.0000  -0.8129   0.0000   0.0000   0.0000   0.3331
   2.200   0.5314   0.00695   0.00247  -0.0446  0.6340  1.0000  -0.8240   0.0000   0.0000   0.0000   0.3311
   2.300   0.5418   0.00696   0.00247  -0.0445  0.6309  1.0000  -0.8351   0.0000   0.0000   0.0000   0.3292
   2.400   0.5523   0.00699   0.00247  -0.0444  0.6273  1.0000  -0.8462   0.0000   0.0000   0.0000   0.3274
   2.500   0.5628   0.00703   0.00250  -0.0443  0.6234  1.0000  -0.8581   0.0000   0.0000   0.0000   0.3257
   2.600   0.5733   0.00710   0.00255  -0.0443  0.6193  1.0000  -0.8708   0.0000   0.0000   0.0000   0.3241
   2.700   0.5839   0.00712   0.00259  -0.0443  0.6173  1.0000  -0.8837   0.0000   0.0000   0.0000   0.3225
   2.800   0.5946   0.00711   0.00259  -0.0442  0.6166  1.0000  -0.8967   0.0000   0.0000   0.0000   0.3210
   2.900   0.6052   0.00710   0.00259  -0.0441  0.6157  1.0000  -0.9097   0.0000   0.0000   0.0000   0.3195
   3.000   0.6158   0.00708   0.00259  -0.0440  0.6145  1.0000  -0.9228   0.0000   0.0000   0.0000   0.3180
   3.100   0.6264   0.00707   0.00259  -0.0440  0.6129  1.0000  -0.9369   0.0000   0.0000   0.0000   0.3166
   3.200   0.6370   0.00706   0.00259  -0.0439  0.6109  1.0000  -0.9521   0.0000   0.0000   0.0000   0.3152
   3.300   0.6476   0.00705   0.00259  -0.0438  0.6084  1.0000  -0.9674   0.0000   0.0000   0.0000   0.3139
   3.400   0.6582   0.00704   0.00259  -0.0437  0.6057  1.0000  -0.9826   0.0000   0.0000   0.0000   0.3126
   3.500   0.6689   0.00703   0.00260  -0.0437  0.6029  1.0000  -0.9980   0.0000   0.0000   0.0000   0.3113
   3.600   0.6795   0.00703   0.00260  -0.0436  0.6000  1.0000  -1.0159   0.0000   0.0000   0.0000   0.3101
   3.700   0.6901   0.00704   0.00262  -0.0435  0.5965  1.0000  -1.0339   0.0000   0.0000   0.0000   0.3089
   3.800   0.7006   0.00704   0.00262  -0.0434  0.5926  1.0000  -1.0519   0.0000   0.0000   0.0000   0.3077
   3.900   0.7111   0.00705   0.00262  -0.0433  0.5882  1.0000  -1.0699   0.0000   0.0000   0.0000   0.3066
   4.000   0.7215   0.00707   0.00261  -0.0432  0.5832  1.0000  -1.0880   0.0000   0.0000   0.0000   0.3054
   4.100   0.7319   0.00711   0.00262  -0.0431  0.5774  1.0000  -1.1068   0.0000   0.0000   0.0000   0.3043
   4.200   0.7424   0.00717   0.00266  -0.0430  0.5708  1.0000  -1.1282   0.0000   0.0000   0.0000   0.3033
   4.300   0.7530   0.00717   0.00269  -0.0430  0.5683  1.0000  -1.1502   0.0000   0.0000   0.0000   0.3023
   4.400   0.7638   0.00717   0.00272  -0.0429  0.5655  1.0000  -1.1722   0.0000   0.0000   0.0000   0.3014
   4.500   0.7744   0.00717   0.00274  -0.0428  0.5615  1.0000  -1.1956   0.0000   0.0000   0.0000   0.3004
   4.600   0.7850   0.00719   0.00277  -0.0428  0.5562  1.0000  -1.2224   0.0000   0.0000   0.0000   0.2995
   4.700   0.7956   0.00721   0.00279  -0.0427  0.5500  1.0000  -1.2493   0.0000   0.0000   0.0000   0.2986
   4.800   0.8060   0.00724   0.00284  -0.0426  0.5431  1.0000  -1.2775   0.0000   0.0000   0.0000   0.2977
   4.900   0.8162   0.00729   0.00286  -0.0425  0.5345  1.0000  -1.3219   0.0000   0.0000   0.0000   0.2967
   5.000   0.8263   0.00738   0.00289  -0.0423  0.5233  1.0000  -1.3664   0.0000   0.0000   0.0000   0.2958
   5.100   0.8368   0.00742   0.00294  -0.0423  0.5170  1.0000  -1.4121   0.0000   0.0000   0.0000   0.2950
   5.200   0.8472   0.00747   0.00298  -0.0422  0.5084  1.0000  -1.4866   0.0000   0.0000   0.0000   0.2942
   5.300   0.8574   0.00754   0.00303  -0.0421  0.4979  1.0000  -1.5953   0.0000   0.0000   0.0000   0.2934
   5.400   0.8672   0.00766   0.00308  -0.0419  0.4854  1.0000  -1.7046   0.0000   0.0000   0.0000   0.2925
   5.500   0.8771   0.00778   0.00316  -0.0418  0.4725  1.0000  -1.8160   0.0000   0.0000   0.0000   0.2917
   5.600   0.8872   0.00787   0.00323  -0.0417  0.4632  1.0000  -1.9311   0.0000   0.0000   0.0000   0.2910
   5.700   0.8971   0.00799   0.00331  -0.0416  0.4512  1.0000  -2.0467   0.0000   0.0000   0.0000   0.2902
   5.800   0.9064   0.00817   0.00342  -0.0414  0.4370  1.0000  -2.1616   0.0000   0.0000   0.0000   0.2894
   5.900   0.9161   0.00831   0.00352  -0.0412  0.4245  1.0000  -2.2799   0.0000   0.0000   0.0000   0.2886
   6.000   0.9260   0.00841   0.00362  -0.0411  0.4151  1.0000  -2.4021   0.0000   0.0000   0.0000   0.2879
   6.100   0.9353   0.00859   0.00373  -0.0409  0.4005  1.0000  -2.5222   0.0000   0.0000   0.0000   0.2871
   6.200   0.9438   0.00886   0.00390  -0.0406  0.3805  1.0000  -2.6394   0.0000   0.0000   0.0000   0.2864
   6.300   0.9533   0.00899   0.00401  -0.0405  0.3683  1.0000  -2.7651   0.0000   0.0000   0.0000   0.2856
   6.400   0.9617   0.00925   0.00417  -0.0402  0.3496  1.0000  -2.8854   0.0000   0.0000   0.0000   0.2848
   6.500   0.9701   0.00950   0.00433  -0.0399  0.3320  1.0000  -3.0075   0.0000   0.0000   0.0000   0.2841
   6.600   0.9794   0.00964   0.00446  -0.0397  0.3212  1.0000  -3.1368   0.0000   0.0000   0.0000   0.2833
   6.700   0.9880   0.00985   0.00461  -0.0394  0.3079  1.0000  -3.2632   0.0000   0.0000   0.0000   0.2826
   6.800   0.9960   0.01011   0.00480  -0.0390  0.2922  1.0000  -3.3874   0.0000   0.0000   0.0000   0.2818
   6.900   1.0052   0.01025   0.00493  -0.0388  0.2834  1.0000  -3.5207   0.0000   0.0000   0.0000   0.2811
   7.000   1.0137   0.01045   0.00508  -0.0385  0.2713  1.0000  -3.6516   0.0000   0.0000   0.0000   0.2803
   7.100   1.0211   0.01074   0.00529  -0.0380  0.2554  1.0000  -3.7759   0.0000   0.0000   0.0000   0.2795
   7.200   1.0294   0.01095   0.00546  -0.0377  0.2430  1.0000  -3.9075   0.0000   0.0000   0.0000   0.2787
   7.300   1.0373   0.01118   0.00564  -0.0373  0.2298  1.0000  -4.0380   0.0000   0.0000   0.0000   0.2779
   7.400   1.0435   0.01154   0.00589  -0.0367  0.2104  1.0000  -4.1578   0.0000   0.0000   0.0000   0.2770
   7.500   1.0508   0.01180   0.00609  -0.0362  0.1952  1.0000  -4.2859   0.0000   0.0000   0.0000   0.2762
   7.700   1.0609   0.01265   0.00666  -0.0347  0.1516  1.0000  -4.5126   0.0000   0.0000   0.0000   0.2742
   7.800   1.0653   0.01309   0.00697  -0.0338  0.1295  1.0000  -4.6220   0.0000   0.0000   0.0000   0.2731
   7.900   1.0685   0.01361   0.00732  -0.0328  0.1078  1.0000  -4.7227   0.0000   0.0000   0.0000   0.2720
   8.000   1.0734   0.01397   0.00760  -0.0320  0.0927  1.0000  -4.8368   0.0000   0.0000   0.0000   0.2709
   8.100   1.0770   0.01442   0.00793  -0.0310  0.0767  1.0000  -4.9407   0.0000   0.0000   0.0000   0.2698
   8.200   1.0812   0.01480   0.00824  -0.0300  0.0648  1.0000  -5.0499   0.0000   0.0000   0.0000   0.2687
   8.300   1.0848   0.01521   0.00857  -0.0290  0.0525  1.0000  -5.1529   0.0000   0.0000   0.0000   0.2675
   8.400   1.0881   0.01561   0.00890  -0.0279  0.0430  1.0000  -5.2535   0.0000   0.0000   0.0000   0.2663
   8.500   1.0915   0.01600   0.00924  -0.0268  0.0334  1.0000  -5.3515   0.0000   0.0000   0.0000   0.2651
   8.600   1.0937   0.01644   0.00960  -0.0256  0.0269  1.0000  -5.4390   0.0000   0.0000   0.0000   0.2637
   8.700   1.0957   0.01689   0.01015  -0.0242  0.0192  1.0000  -5.5046   0.0000   0.0000   0.0000   0.2623
   8.800   1.0995   0.01720   0.01048  -0.0231  0.0166  1.0000  -5.5982   0.0000   0.0000   0.0000   0.2611
   8.900   1.1005   0.01766   0.01091  -0.0217  0.0137  1.0000  -5.6587   0.0000   0.0000   0.0000   0.2597
   9.000   1.0952   0.01829   0.01158  -0.0191  0.0104  1.0000  -5.6324   0.0000   0.0000   0.0000   0.2572
   9.100   1.0839   0.01909   0.01254  -0.0156  0.0089  1.0000  -5.5470   0.0000   0.0000   0.0000   0.2541
   9.200   1.0876   0.01932   0.01277  -0.0146  0.0087  1.0000  -5.6667   0.0000   0.0000   0.0000   0.2530
   9.300   1.0916   0.01956   0.01302  -0.0137  0.0085  1.0000  -5.7917   0.0000   0.0000   0.0000   0.2519
   9.400   1.0953   0.01983   0.01332  -0.0127  0.0083  1.0000  -5.9098   0.0000   0.0000   0.0000   0.2509
   9.500   1.0985   0.02015   0.01366  -0.0118  0.0080  1.0000  -6.0195   0.0000   0.0000   0.0000   0.2498
   9.600   1.1013   0.02051   0.01406  -0.0107  0.0078  1.0000  -6.1202   0.0000   0.0000   0.0000   0.2487
   9.700   1.1035   0.02093   0.01452  -0.0097  0.0075  1.0000  -6.2109   0.0000   0.0000   0.0000   0.2476
   9.800   1.1051   0.02139   0.01503  -0.0087  0.0072  1.0000  -6.2931   0.0000   0.0000   0.0000   0.2465
   9.900   1.1067   0.02189   0.01557  -0.0076  0.0069  1.0000  -6.3710   0.0000   0.0000   0.0000   0.2454
  10.000   1.1082   0.02242   0.01614  -0.0066  0.0066  1.0000  -6.4462   0.0000   0.0000   0.0000   0.2443
  10.100   1.1095   0.02298   0.01675  -0.0056  0.0064  1.0000  -6.5181   0.0000   0.0000   0.0000   0.2432
  10.200   1.1103   0.02358   0.01740  -0.0046  0.0062  1.0000  -6.5846   0.0000   0.0000   0.0000   0.2422
  10.300   1.1110   0.02420   0.01807  -0.0036  0.0060  1.0000  -6.6496   0.0000   0.0000   0.0000   0.2411
  10.400   1.1118   0.02484   0.01876  -0.0027  0.0059  1.0000  -6.7145   0.0000   0.0000   0.0000   0.2401
  10.500   1.1127   0.02550   0.01947  -0.0018  0.0057  1.0000  -6.7791   0.0000   0.0000   0.0000   0.2391
  10.600   1.1135   0.02617   0.02020  -0.0009  0.0056  1.0000  -6.8425   0.0000   0.0000   0.0000   0.2382
  10.700   1.1139   0.02690   0.02098  -0.0000  0.0055  1.0000  -6.9020   0.0000   0.0000   0.0000   0.2372
  10.800   1.1142   0.02764   0.02177   0.0008  0.0054  1.0000  -6.9605   0.0000   0.0000   0.0000   0.2363
  10.900   1.1148   0.02839   0.02257   0.0017  0.0053  1.0000  -7.0197   0.0000   0.0000   0.0000   0.2354
  11.000   1.1154   0.02914   0.02337   0.0025  0.0052  1.0000  -7.0785   0.0000   0.0000   0.0000   0.2345
  11.100   1.1160   0.02989   0.02418   0.0033  0.0052  1.0000  -7.1363   0.0000   0.0000   0.0000   0.2336
  11.200   1.1166   0.03066   0.02500   0.0041  0.0051  1.0000  -7.1936   0.0000   0.0000   0.0000   0.2327
  11.300   1.1173   0.03144   0.02584   0.0048  0.0050  1.0000  -7.2518   0.0000   0.0000   0.0000   0.2319
  11.400   1.1177   0.03226   0.02671   0.0056  0.0050  1.0000  -7.3106   0.0000   0.0000   0.0000   0.2311
  11.500   1.1184   0.03307   0.02757   0.0062  0.0049  1.0000  -7.3730   0.0000   0.0000   0.0000   0.2303
  11.600   1.1195   0.03386   0.02841   0.0069  0.0048  1.0000  -7.4403   0.0000   0.0000   0.0000   0.2296
  11.700   1.1208   0.03464   0.02924   0.0075  0.0048  1.0000  -7.5122   0.0000   0.0000   0.0000   0.2289
  11.800   1.1223   0.03541   0.03006   0.0081  0.0047  1.0000  -7.5885   0.0000   0.0000   0.0000   0.2282
  11.900   1.1240   0.03618   0.03087   0.0087  0.0046  1.0000  -7.6684   0.0000   0.0000   0.0000   0.2275
  12.000   1.1257   0.03694   0.03168   0.0092  0.0045  1.0000  -7.7516   0.0000   0.0000   0.0000   0.2269
  12.100   1.1275   0.03771   0.03250   0.0097  0.0044  1.0000  -7.8372   0.0000   0.0000   0.0000   0.2263
  12.200   1.1291   0.03849   0.03332   0.0102  0.0043  1.0000  -7.9240   0.0000   0.0000   0.0000   0.2257
  12.300   1.1302   0.03932   0.03420   0.0106  0.0042  1.0000  -8.0063   0.0000   0.0000   0.0000   0.2252
  12.400   1.1308   0.04019   0.03512   0.0110  0.0042  1.0000  -8.0851   0.0000   0.0000   0.0000   0.2246
  12.500   1.1315   0.04107   0.03604   0.0114  0.0041  1.0000  -8.1637   0.0000   0.0000   0.0000   0.2241
  12.600   1.1321   0.04194   0.03696   0.0118  0.0040  1.0000  -8.2402   0.0000   0.0000   0.0000   0.2236
  12.700   1.1326   0.04283   0.03790   0.0123  0.0040  1.0000  -8.3127   0.0000   0.0000   0.0000   0.2230
  12.800   1.1329   0.04376   0.03889   0.0127  0.0039  1.0000  -8.3788   0.0000   0.0000   0.0000   0.2225
  12.900   1.1329   0.04476   0.03994   0.0131  0.0039  1.0000  -8.4346   0.0000   0.0000   0.0000   0.2219
  13.000   1.1326   0.04582   0.04107   0.0136  0.0038  1.0000  -8.4797   0.0000   0.0000   0.0000   0.2213
  13.100   1.1320   0.04693   0.04224   0.0140  0.0038  1.0000  -8.5215   0.0000   0.0000   0.0000   0.2208
  13.200   1.1310   0.04810   0.04348   0.0144  0.0038  1.0000  -8.5576   0.0000   0.0000   0.0000   0.2203
  13.300   1.1290   0.04938   0.04483   0.0146  0.0038  1.0000  -8.5853   0.0000   0.0000   0.0000   0.2198
  13.400   1.1270   0.05069   0.04621   0.0149  0.0038  1.0000  -8.6110   0.0000   0.0000   0.0000   0.2194
  13.500   1.1251   0.05202   0.04761   0.0151  0.0038  1.0000  -8.6361   0.0000   0.0000   0.0000   0.2190
  13.600   1.1232   0.05337   0.04903   0.0153  0.0038  1.0000  -8.6591   0.0000   0.0000   0.0000   0.2186
  13.700   1.1212   0.05476   0.05049   0.0155  0.0037  1.0000  -8.6787   0.0000   0.0000   0.0000   0.2182
  13.800   1.1188   0.05620   0.05200   0.0156  0.0037  1.0000  -8.6945   0.0000   0.0000   0.0000   0.2179
  13.900   1.1162   0.05770   0.05357   0.0157  0.0037  1.0000  -8.7057   0.0000   0.0000   0.0000   0.2176
  14.000   1.1124   0.05933   0.05528   0.0157  0.0037  1.0000  -8.7072   0.0000   0.0000   0.0000   0.2174
  14.100   1.1081   0.06106   0.05708   0.0155  0.0037  1.0000  -8.7023   0.0000   0.0000   0.0000   0.2173
  14.200   1.1041   0.06279   0.05888   0.0154  0.0037  1.0000  -8.6975   0.0000   0.0000   0.0000   0.2172
  14.300   1.1001   0.06453   0.06070   0.0152  0.0037  1.0000  -8.6906   0.0000   0.0000   0.0000   0.2171
  14.400   1.0960   0.06633   0.06257   0.0149  0.0037  1.0000  -8.6801   0.0000   0.0000   0.0000   0.2171
  14.500   1.0914   0.06819   0.06450   0.0146  0.0037  1.0000  -8.6645   0.0000   0.0000   0.0000   0.2171
  14.600   1.0853   0.07022   0.06660   0.0141  0.0037  1.0000  -8.6364   0.0000   0.0000   0.0000   0.2173
  14.700   1.0794   0.07229   0.06875   0.0136  0.0037  1.0000  -8.6073   0.0000   0.0000   0.0000   0.2175
  14.800   1.0739   0.07438   0.07091   0.0130  0.0037  1.0000  -8.5777   0.0000   0.0000   0.0000   0.2178
  14.900   1.0684   0.07654   0.07315   0.0124  0.0037  1.0000  -8.5450   0.0000   0.0000   0.0000   0.2181
  15.000   1.0620   0.07890   0.07558   0.0116  0.0038  1.0000  -8.5041   0.0000   0.0000   0.0000   0.2186
  15.100   1.0553   0.08144   0.07819   0.0106  0.0038  1.0000  -8.4568   0.0000   0.0000   0.0000   0.2193
  15.200   1.0490   0.08394   0.08076   0.0096  0.0038  1.0000  -8.4097   0.0000   0.0000   0.0000   0.2200
  15.300   1.0426   0.08649   0.08338   0.0086  0.0038  1.0000  -8.3594   0.0000   0.0000   0.0000   0.2207
  15.400   1.0353   0.08932   0.08628   0.0073  0.0038  1.0000  -8.2990   0.0000   0.0000   0.0000   0.2218
  15.500   1.0282   0.09219   0.08921   0.0059  0.0038  1.0000  -8.2362   0.0000   0.0000   0.0000   0.2228
  15.600   1.0213   0.09502   0.09211   0.0046  0.0038  1.0000  -8.1722   0.0000   0.0000   0.0000   0.2239
  15.700   1.0140   0.09803   0.09519   0.0031  0.0039  1.0000  -8.1008   0.0000   0.0000   0.0000   0.2252
  15.800   1.0062   0.10124   0.09847   0.0014  0.0039  1.0000  -8.0221   0.0000   0.0000   0.0000   0.2267
  15.900   0.9989   0.10435   0.10164  -0.0002  0.0039  1.0000  -7.9435   0.0000   0.0000   0.0000   0.2281
  16.000   0.9912   0.10760   0.10495  -0.0019  0.0039  1.0000  -7.8578   0.0000   0.0000   0.0000   0.2297
  16.100   0.9830   0.11110   0.10851  -0.0039  0.0040  1.0000  -7.7628   0.0000   0.0000   0.0000   0.2316
  16.200   0.9755   0.11445   0.11192  -0.0057  0.0040  1.0000  -7.6682   0.0000   0.0000   0.0000   0.2334
  16.300   0.9673   0.11802   0.11555  -0.0077  0.0040  1.0000  -7.5629   0.0000   0.0000   0.0000   0.2354
  16.400   0.9590   0.12175   0.11933  -0.0099  0.0041  1.0000  -7.4488   0.0000   0.0000   0.0000   0.2376
  16.500   0.9511   0.12539   0.12302  -0.0119  0.0041  1.0000  -7.3322   0.0000   0.0000   0.0000   0.2397
  16.600   0.9421   0.12947   0.12715  -0.0143  0.0041  1.0000  -7.1941   0.0000   0.0000   0.0000   0.2423
  16.700   0.9336   0.13346   0.13119  -0.0165  0.0042  1.0000  -7.0518   0.0000   0.0000   0.0000   0.2448
  16.800   0.9242   0.13785   0.13563  -0.0190  0.0042  1.0000  -6.8835   0.0000   0.0000   0.0000   0.2476
  16.900   0.9148   0.14235   0.14017  -0.0214  0.0043  1.0000  -6.6986   0.0000   0.0000   0.0000   0.2505
  17.000   0.9039   0.14745   0.14531  -0.0242  0.0044  1.0000  -6.4660   0.0000   0.0000   0.0000   0.2539
  17.100   0.8919   0.15285   0.15075  -0.0270  0.0045  1.0000  -6.1712   0.0000   0.0000   0.0000   0.2576
  17.200   0.8752   0.16007   0.15800  -0.0305  0.0046  1.0000  -5.6871   0.0000   0.0000   0.0000   0.2624
  17.300   0.8570   0.16870   0.16661  -0.0337  0.0049  1.0000  -5.0129   0.0000   0.0000   0.0000   0.2674
  17.400   0.8492   0.17387   0.17176  -0.0357  0.0051  1.0000  -4.6781   0.0000   0.0000   0.0000   0.2703
  17.500   0.8443   0.17800   0.17587  -0.0374  0.0052  1.0000  -4.4479   0.0000   0.0000   0.0000   0.2725
  17.600   0.8410   0.18165   0.17952  -0.0388  0.0053  1.0000  -4.2641   0.0000   0.0000   0.0000   0.2744
  17.700   0.8385   0.18501   0.18286  -0.0402  0.0055  1.0000  -4.1088   0.0000   0.0000   0.0000   0.2761
  17.800   0.8367   0.18817   0.18601  -0.0414  0.0056  1.0000  -3.9733   0.0000   0.0000   0.0000   0.2777
  17.900   0.8354   0.19116   0.18900  -0.0426  0.0057  1.0000  -3.8525   0.0000   0.0000   0.0000   0.2791
  18.000   0.8345   0.19404   0.19187  -0.0437  0.0058  1.0000  -3.7431   0.0000   0.0000   0.0000   0.2805
  18.100   0.8339   0.19682   0.19464  -0.0448  0.0059  1.0000  -3.6429   0.0000   0.0000   0.0000   0.2817
  18.200   0.8336   0.19953   0.19734  -0.0458  0.0060  1.0000  -3.5501   0.0000   0.0000   0.0000   0.2829
  18.300   0.8335   0.20217   0.19997  -0.0468  0.0061  1.0000  -3.4635   0.0000   0.0000   0.0000   0.2840
  18.400   0.8335   0.20475   0.20255  -0.0478  0.0062  1.0000  -3.3821   0.0000   0.0000   0.0000   0.2851
  18.500   0.8337   0.20730   0.20509  -0.0487  0.0064  1.0000  -3.3050   0.0000   0.0000   0.0000   0.2862
  18.600   0.8340   0.20980   0.20759  -0.0497  0.0065  1.0000  -3.2315   0.0000   0.0000   0.0000   0.2872
  18.700   0.8343   0.21229   0.21007  -0.0506  0.0067  1.0000  -3.1608   0.0000   0.0000   0.0000   0.2881
  18.800   0.8347   0.21476   0.21254  -0.0515  0.0069  1.0000  -3.0916   0.0000   0.0000   0.0000   0.2891
  18.900   0.8350   0.21725   0.21502  -0.0524  0.0071  1.0000  -3.0217   0.0000   0.0000   0.0000   0.2900
  19.000   0.8350   0.21983   0.21760  -0.0533  0.0074  1.0000  -2.9452   0.0000   0.0000   0.0000   0.2910
  19.200   0.8283   0.22774   0.22548  -0.0551  0.0087  1.0000  -2.5782   0.0000   0.0000   0.0000   0.2936
  19.300   0.8297   0.22992   0.22766  -0.0559  0.0087  1.0000  -2.5485   0.0000   0.0000   0.0000   0.2943
  19.400   0.8312   0.23210   0.22984  -0.0566  0.0087  1.0000  -2.5204   0.0000   0.0000   0.0000   0.2950
  19.500   0.8326   0.23426   0.23200  -0.0573  0.0087  1.0000  -2.4938   0.0000   0.0000   0.0000   0.2956
  19.600   0.8342   0.23642   0.23416  -0.0581  0.0087  1.0000  -2.4683   0.0000   0.0000   0.0000   0.2962
  19.700   0.8357   0.23858   0.23632  -0.0588  0.0087  1.0000  -2.4439   0.0000   0.0000   0.0000   0.2968
  19.800   0.8372   0.24073   0.23847  -0.0596  0.0087  1.0000  -2.4204   0.0000   0.0000   0.0000   0.2975
  19.900   0.8388   0.24288   0.24062  -0.0603  0.0087  1.0000  -2.3978   0.0000   0.0000   0.0000   0.2981
  20.000   0.8403   0.24503   0.24276  -0.0610  0.0087  1.0000  -2.3761   0.0000   0.0000   0.0000   0.2987
  20.100   0.8419   0.24717   0.24491  -0.0617  0.0087  1.0000  -2.3550   0.0000   0.0000   0.0000   0.2993
  20.200   0.8435   0.24932   0.24705  -0.0625  0.0087  1.0000  -2.3347   0.0000   0.0000   0.0000   0.2999
  20.300   0.8451   0.25146   0.24920  -0.0632  0.0087  1.0000  -2.3150   0.0000   0.0000   0.0000   0.3004
  20.400   0.8467   0.25361   0.25134  -0.0639  0.0087  1.0000  -2.2960   0.0000   0.0000   0.0000   0.3010
  20.500   0.8483   0.25575   0.25349  -0.0646  0.0087  1.0000  -2.2775   0.0000   0.0000   0.0000   0.3016
  20.600   0.8498   0.25790   0.25563  -0.0653  0.0087  1.0000  -2.2596   0.0000   0.0000   0.0000   0.3021
  20.700   0.8514   0.26004   0.25778  -0.0661  0.0087  1.0000  -2.2422   0.0000   0.0000   0.0000   0.3027
  20.800   0.8530   0.26219   0.25993  -0.0668  0.0087  1.0000  -2.2253   0.0000   0.0000   0.0000   0.3032
  20.900   0.8546   0.26434   0.26207  -0.0675  0.0087  1.0000  -2.2088   0.0000   0.0000   0.0000   0.3038
  21.000   0.8561   0.26649   0.26422  -0.0682  0.0087  1.0000  -2.1928   0.0000   0.0000   0.0000   0.3043
  21.100   0.8577   0.26864   0.26637  -0.0689  0.0087  1.0000  -2.1772   0.0000   0.0000   0.0000   0.3049
  21.200   0.8592   0.27078   0.26852  -0.0696  0.0087  1.0000  -2.1620   0.0000   0.0000   0.0000   0.3054
  21.300   0.8607   0.27294   0.27067  -0.0703  0.0087  1.0000  -2.1471   0.0000   0.0000   0.0000   0.3059
  21.400   0.8622   0.27509   0.27283  -0.0710  0.0087  1.0000  -2.1326   0.0000   0.0000   0.0000   0.3064
  21.500   0.8637   0.27724   0.27498  -0.0717  0.0087  1.0000  -2.1184   0.0000   0.0000   0.0000   0.3070
  21.600   0.8652   0.27939   0.27714  -0.0724  0.0087  1.0000  -2.1046   0.0000   0.0000   0.0000   0.3075
  21.700   0.8666   0.28155   0.27929  -0.0731  0.0086  1.0000  -2.0910   0.0000   0.0000   0.0000   0.3080
  21.800   0.8681   0.28371   0.28145  -0.0738  0.0086  1.0000  -2.0778   0.0000   0.0000   0.0000   0.3085
  21.900   0.8695   0.28586   0.28361  -0.0745  0.0086  1.0000  -2.0649   0.0000   0.0000   0.0000   0.3090
  22.000   0.8709   0.28802   0.28577  -0.0752  0.0086  1.0000  -2.0522   0.0000   0.0000   0.0000   0.3095
  22.100   0.8722   0.29018   0.28793  -0.0758  0.0086  1.0000  -2.0397   0.0000   0.0000   0.0000   0.3100
  22.200   0.8735   0.29233   0.29009  -0.0765  0.0086  1.0000  -2.0275   0.0000   0.0000   0.0000   0.3105
  22.300   0.8748   0.29449   0.29224  -0.0772  0.0086  1.0000  -2.0154   0.0000   0.0000   0.0000   0.3110
  22.400   0.8761   0.29665   0.29440  -0.0779  0.0086  1.0000  -2.0036   0.0000   0.0000   0.0000   0.3115
  22.500   0.8773   0.29880   0.29656  -0.0786  0.0086  1.0000  -1.9919   0.0000   0.0000   0.0000   0.3120
  22.600   0.8786   0.30096   0.29872  -0.0792  0.0086  1.0000  -1.9805   0.0000   0.0000   0.0000   0.3125
  22.700   0.8797   0.30311   0.30087  -0.0799  0.0086  1.0000  -1.9693   0.0000   0.0000   0.0000   0.3130
  22.800   0.8809   0.30526   0.30302  -0.0806  0.0086  1.0000  -1.9582   0.0000   0.0000   0.0000   0.3135
  22.900   0.8819   0.30741   0.30517  -0.0812  0.0086  1.0000  -1.9474   0.0000   0.0000   0.0000   0.3140
  23.000   0.8830   0.30955   0.30732  -0.0819  0.0086  1.0000  -1.9367   0.0000   0.0000   0.0000   0.3144
  23.100   0.8840   0.31169   0.30946  -0.0825  0.0085  1.0000  -1.9261   0.0000   0.0000   0.0000   0.3149
  23.200   0.8850   0.31383   0.31160  -0.0832  0.0085  1.0000  -1.9158   0.0000   0.0000   0.0000   0.3154
  23.300   0.8859   0.31596   0.31374  -0.0838  0.0085  1.0000  -1.9053   0.0000   0.0000   0.0000   0.3159
  23.400   0.8867   0.31808   0.31586  -0.0845  0.0085  1.0000  -1.8950   0.0000   0.0000   0.0000   0.3164
  23.500   0.8875   0.32020   0.31798  -0.0851  0.0085  1.0000  -1.8848   0.0000   0.0000   0.0000   0.3169
  23.600   0.8882   0.32230   0.32009  -0.0858  0.0085  1.0000  -1.8747   0.0000   0.0000   0.0000   0.3173
  23.700   0.8889   0.32440   0.32219  -0.0864  0.0085  1.0000  -1.8647   0.0000   0.0000   0.0000   0.3178
  23.800   0.8895   0.32648   0.32427  -0.0870  0.0084  1.0000  -1.8549   0.0000   0.0000   0.0000   0.3183
  23.900   0.8900   0.32855   0.32635  -0.0876  0.0084  1.0000  -1.8452   0.0000   0.0000   0.0000   0.3188
  24.000   0.8905   0.33060   0.32840  -0.0882  0.0084  1.0000  -1.8356   0.0000   0.0000   0.0000   0.3193
  24.100   0.8908   0.33263   0.33044  -0.0888  0.0084  1.0000  -1.8260   0.0000   0.0000   0.0000   0.3198
  24.200   0.8911   0.33464   0.33245  -0.0894  0.0084  1.0000  -1.8159   0.0000   0.0000   0.0000   0.3203
  24.300   0.8912   0.33663   0.33444  -0.0900  0.0083  1.0000  -1.8059   0.0000   0.0000   0.0000   0.3208
  24.400   0.8912   0.33858   0.33640  -0.0906  0.0083  1.0000  -1.7959   0.0000   0.0000   0.0000   0.3213
  24.500   0.8911   0.34050   0.33833  -0.0912  0.0082  1.0000  -1.7859   0.0000   0.0000   0.0000   0.3218
  24.600   0.8909   0.34238   0.34022  -0.0917  0.0082  1.0000  -1.7747   0.0000   0.0000   0.0000   0.3224
  24.700   0.8904   0.34424   0.34208  -0.0923  0.0081  1.0000  -1.7615   0.0000   0.0000   0.0000   0.3229
  24.800   0.8897   0.34604   0.34389  -0.0929  0.0081  1.0000  -1.7479   0.0000   0.0000   0.0000   0.3235
  24.900   0.8888   0.34778   0.34564  -0.0934  0.0080  1.0000  -1.7335   0.0000   0.0000   0.0000   0.3241
  25.000   0.8877   0.34945   0.34731  -0.0939  0.0079  1.0000  -1.7180   0.0000   0.0000   0.0000   0.3247
  25.100   0.8860   0.35102   0.34889  -0.0943  0.0078  1.0000  -1.7006   0.0000   0.0000   0.0000   0.3253
  25.200   0.8835   0.35242   0.35029  -0.0947  0.0076  1.0000  -1.6805   0.0000   0.0000   0.0000   0.3260
  25.300   0.8087   0.33383   0.33185  -0.0878  0.0080  1.0000  -1.4740   0.0000   0.0000   0.0000   0.3296
  25.400   0.8055   0.33390   0.33193  -0.0880  0.0080  1.0000  -1.4542   0.0000   0.0000   0.0000   0.3304
  25.500   0.8029   0.33409   0.33212  -0.0883  0.0079  1.0000  -1.4356   0.0000   0.0000   0.0000   0.3311
  25.600   0.8007   0.33434   0.33239  -0.0887  0.0078  1.0000  -1.4176   0.0000   0.0000   0.0000   0.3318
  25.700   0.7987   0.33465   0.33271  -0.0891  0.0077  1.0000  -1.3998   0.0000   0.0000   0.0000   0.3325
  25.800   0.7968   0.33500   0.33307  -0.0894  0.0075  1.0000  -1.3822   0.0000   0.0000   0.0000   0.3332
  25.900   0.7949   0.33532   0.33344  -0.0898  0.0074  1.0000  -1.3647   0.0000   0.0000   0.0000   0.3338
  26.000   0.7933   0.33571   0.33383  -0.0901  0.0073  1.0000  -1.3481   0.0000   0.0000   0.0000   0.3345
  26.100   0.7917   0.33610   0.33423  -0.0905  0.0071  1.0000  -1.3322   0.0000   0.0000   0.0000   0.3351
  26.200   0.7902   0.33650   0.33464  -0.0909  0.0070  1.0000  -1.3170   0.0000   0.0000   0.0000   0.3357
  26.300   0.7887   0.33690   0.33505  -0.0913  0.0069  1.0000  -1.3073   0.0000   0.0000   0.0000   0.3364
  26.400   0.7873   0.33731   0.33547  -0.0916  0.0067  1.0000  -1.3011   0.0000   0.0000   0.0000   0.3370
  26.500   0.7860   0.33773   0.33589  -0.0920  0.0066  1.0000  -1.2954   0.0000   0.0000   0.0000   0.3376
  26.600   0.7847   0.33815   0.33633  -0.0924  0.0065  1.0000  -1.2902   0.0000   0.0000   0.0000   0.3382
  26.700   0.7835   0.33859   0.33677  -0.0928  0.0064  1.0000  -1.2855   0.0000   0.0000   0.0000   0.3388
  26.800   0.7824   0.33903   0.33722  -0.0932  0.0063  1.0000  -1.2811   0.0000   0.0000   0.0000   0.3394
  26.900   0.7813   0.33948   0.33768  -0.0936  0.0062  1.0000  -1.2770   0.0000   0.0000   0.0000   0.3400
  27.000   0.7803   0.33993   0.33814  -0.0940  0.0061  1.0000  -1.2733   0.0000   0.0000   0.0000   0.3405
  27.100   0.7794   0.34040   0.33861  -0.0944  0.0060  1.0000  -1.2698   0.0000   0.0000   0.0000   0.3411
  27.200   0.7785   0.34087   0.33909  -0.0948  0.0059  1.0000  -1.2666   0.0000   0.0000   0.0000   0.3417
  27.300   0.7776   0.34134   0.33957  -0.0952  0.0058  1.0000  -1.2635   0.0000   0.0000   0.0000   0.3423
  27.400   0.7768   0.34183   0.34006  -0.0957  0.0057  1.0000  -1.2607   0.0000   0.0000   0.0000   0.3428
  27.500   0.7760   0.34231   0.34056  -0.0961  0.0056  1.0000  -1.2580   0.0000   0.0000   0.0000   0.3434
  27.600   0.7753   0.34281   0.34106  -0.0965  0.0055  1.0000  -1.2555   0.0000   0.0000   0.0000   0.3439
  27.700   0.7746   0.34331   0.34157  -0.0969  0.0054  1.0000  -1.2531   0.0000   0.0000   0.0000   0.3445
  27.800   0.7740   0.34381   0.34208  -0.0974  0.0053  1.0000  -1.2508   0.0000   0.0000   0.0000   0.3450
  27.900   0.7733   0.34432   0.34260  -0.0978  0.0053  1.0000  -1.2487   0.0000   0.0000   0.0000   0.3456
  28.000   0.7728   0.34484   0.34312  -0.0983  0.0052  1.0000  -1.2466   0.0000   0.0000   0.0000   0.3461
  28.100   0.7722   0.34536   0.34364  -0.0987  0.0051  1.0000  -1.2445   0.0000   0.0000   0.0000   0.3466
  28.200   0.7717   0.34588   0.34417  -0.0991  0.0050  1.0000  -1.2425   0.0000   0.0000   0.0000   0.3472
  28.300   0.7712   0.34641   0.34471  -0.0996  0.0050  1.0000  -1.2406   0.0000   0.0000   0.0000   0.3477
  28.400   0.7707   0.34694   0.34525  -0.1000  0.0049  1.0000  -1.2387   0.0000   0.0000   0.0000   0.3482
  28.500   0.7703   0.34747   0.34579  -0.1005  0.0048  1.0000  -1.2369   0.0000   0.0000   0.0000   0.3487
  28.600   0.7698   0.34801   0.34633  -0.1009  0.0048  1.0000  -1.2350   0.0000   0.0000   0.0000   0.3493
  28.700   0.7694   0.34855   0.34688  -0.1014  0.0047  1.0000  -1.2332   0.0000   0.0000   0.0000   0.3498
  28.800   0.7691   0.34909   0.34743  -0.1019  0.0046  1.0000  -1.2313   0.0000   0.0000   0.0000   0.3503
  28.900   0.7687   0.34964   0.34798  -0.1023  0.0046  1.0000  -1.2295   0.0000   0.0000   0.0000   0.3508
  29.000   0.7684   0.35019   0.34854  -0.1028  0.0045  1.0000  -1.2276   0.0000   0.0000   0.0000   0.3513
  29.100   0.7680   0.35074   0.34909  -0.1032  0.0044  1.0000  -1.2258   0.0000   0.0000   0.0000   0.3518
  29.200   0.7677   0.35130   0.34965  -0.1037  0.0044  1.0000  -1.2239   0.0000   0.0000   0.0000   0.3523
  29.300   0.7674   0.35185   0.35022  -0.1042  0.0043  1.0000  -1.2219   0.0000   0.0000   0.0000   0.3528
  29.400   0.7672   0.35241   0.35078  -0.1046  0.0043  1.0000  -1.2200   0.0000   0.0000   0.0000   0.3533
  29.500   0.7669   0.35297   0.35135  -0.1051  0.0042  1.0000  -1.2184   0.0000   0.0000   0.0000   0.3538
  29.600   0.7667   0.35353   0.35191  -0.1056  0.0041  1.0000  -1.2170   0.0000   0.0000   0.0000   0.3543
  29.700   0.7664   0.35408   0.35248  -0.1060  0.0041  1.0000  -1.2160   0.0000   0.0000   0.0000   0.3548
  29.800   0.7662   0.35464   0.35304  -0.1065  0.0040  1.0000  -1.2152   0.0000   0.0000   0.0000   0.3552
  29.900   0.7660   0.35520   0.35360  -0.1070  0.0039  1.0000  -1.2147   0.0000   0.0000   0.0000   0.3557
  30.000   0.7658   0.35576   0.35417  -0.1075  0.0039  1.0000  -1.2145   0.0000   0.0000   0.0000   0.3562


