xflr5 v6.61

 Calculated polar for: MH 18

 1 1 Reynolds number fixed          Mach number fixed         

 xtrf =   1.000 (top)        1.000 (bottom)
 Mach =   0.000     Re =     1.000 e 6     Ncrit =   9.000

  alpha     CL        CD       CDp       Cm    Top Xtr Bot Xtr   Cpmin    Chinge    XCp    
 ------- -------- --------- --------- -------- ------- ------- -------- --------- ---------
 -10.000  -0.4628   0.10256   0.10065  -0.0062  0.8120  0.0070  -2.5531   0.0000   0.0000   0.0000   0.2286
  -9.900  -0.4621   0.10103   0.09910  -0.0070  0.8079  0.0071  -2.5612   0.0000   0.0000   0.0000   0.2270
  -9.800  -0.4614   0.09949   0.09755  -0.0077  0.8037  0.0072  -2.5707   0.0000   0.0000   0.0000   0.2254
  -9.700  -0.4609   0.09793   0.09598  -0.0085  0.8008  0.0072  -2.5818   0.0000   0.0000   0.0000   0.2238
  -9.600  -0.4604   0.09634   0.09440  -0.0094  0.7999  0.0073  -2.5943   0.0000   0.0000   0.0000   0.2220
  -9.500  -0.4599   0.09471   0.09278  -0.0102  0.7987  0.0074  -2.6080   0.0000   0.0000   0.0000   0.2202
  -9.400  -0.4595   0.09306   0.09113  -0.0111  0.7973  0.0074  -2.6233   0.0000   0.0000   0.0000   0.2184
  -9.300  -0.4593   0.09140   0.08947  -0.0120  0.7956  0.0075  -2.6405   0.0000   0.0000   0.0000   0.2165
  -9.200  -0.4593   0.08971   0.08779  -0.0130  0.7938  0.0075  -2.6597   0.0000   0.0000   0.0000   0.2146
  -9.100  -0.4596   0.08801   0.08609  -0.0139  0.7917  0.0076  -2.6811   0.0000   0.0000   0.0000   0.2126
  -9.000  -0.4601   0.08629   0.08437  -0.0149  0.7894  0.0076  -2.7050   0.0000   0.0000   0.0000   0.2107
  -8.900  -0.4610   0.08455   0.08263  -0.0159  0.7870  0.0077  -2.7317   0.0000   0.0000   0.0000   0.2087
  -8.800  -0.4622   0.08279   0.08086  -0.0169  0.7844  0.0077  -2.7616   0.0000   0.0000   0.0000   0.2067
  -8.700  -0.4637   0.08098   0.07905  -0.0180  0.7816  0.0077  -2.7947   0.0000   0.0000   0.0000   0.2046
  -8.600  -0.4655   0.07911   0.07718  -0.0192  0.7786  0.0078  -2.8318   0.0000   0.0000   0.0000   0.2024
  -8.500  -0.4681   0.07719   0.07524  -0.0204  0.7753  0.0078  -2.8748   0.0000   0.0000   0.0000   0.2000
  -8.400  -0.4716   0.07517   0.07322  -0.0219  0.7715  0.0078  -2.9266   0.0000   0.0000   0.0000   0.1973
  -8.300  -0.4769   0.07297   0.07101  -0.0238  0.7669  0.0077  -2.9946   0.0000   0.0000   0.0000   0.1940
  -8.200  -0.4849   0.07055   0.06858  -0.0261  0.7616  0.0076  -3.0867   0.0000   0.0000   0.0000   0.1903
  -8.100  -0.4916   0.06831   0.06631  -0.0274  0.7575  0.0076  -3.1691   0.0000   0.0000   0.0000   0.1885
  -8.000  -0.4961   0.06588   0.06387  -0.0290  0.7567  0.0075  -3.2495   0.0000   0.0000   0.0000   0.1861
  -7.900  -0.4989   0.06332   0.06129  -0.0305  0.7559  0.0075  -3.3262   0.0000   0.0000   0.0000   0.1834
  -7.800  -0.5010   0.06079   0.05873  -0.0318  0.7549  0.0075  -3.3986   0.0000   0.0000   0.0000   0.1811
  -7.700  -0.5024   0.05832   0.05622  -0.0329  0.7539  0.0075  -3.4656   0.0000   0.0000   0.0000   0.1792
  -7.600  -0.5030   0.05590   0.05375  -0.0337  0.7527  0.0075  -3.5271   0.0000   0.0000   0.0000   0.1777
  -7.500  -0.5031   0.05356   0.05136  -0.0343  0.7514  0.0076  -3.5819   0.0000   0.0000   0.0000   0.1765
  -7.400  -0.5025   0.05133   0.04907  -0.0347  0.7500  0.0076  -3.6294   0.0000   0.0000   0.0000   0.1756
  -7.300  -0.5012   0.04915   0.04682  -0.0350  0.7485  0.0077  -3.6712   0.0000   0.0000   0.0000   0.1750
  -7.200  -0.4994   0.04710   0.04470  -0.0351  0.7469  0.0078  -3.7044   0.0000   0.0000   0.0000   0.1745
  -7.100  -0.4970   0.04512   0.04264  -0.0351  0.7452  0.0079  -3.7320   0.0000   0.0000   0.0000   0.1742
  -7.000  -0.4942   0.04327   0.04071  -0.0350  0.7435  0.0080  -3.7508   0.0000   0.0000   0.0000   0.1740
  -6.900  -0.4908   0.04149   0.03884  -0.0348  0.7416  0.0082  -3.7646   0.0000   0.0000   0.0000   0.1740
  -6.800  -0.4870   0.03983   0.03709  -0.0345  0.7396  0.0083  -3.7704   0.0000   0.0000   0.0000   0.1740
  -6.700  -0.4827   0.03825   0.03541  -0.0342  0.7376  0.0085  -3.7709   0.0000   0.0000   0.0000   0.1740
  -6.600  -0.4779   0.03674   0.03380  -0.0338  0.7354  0.0087  -3.7670   0.0000   0.0000   0.0000   0.1741
  -6.500  -0.4728   0.03532   0.03227  -0.0334  0.7331  0.0089  -3.7571   0.0000   0.0000   0.0000   0.1742
  -6.400  -0.4674   0.03398   0.03082  -0.0329  0.7305  0.0092  -3.7430   0.0000   0.0000   0.0000   0.1743
  -6.200  -0.4774   0.02260   0.01839  -0.0274  0.7262  0.0059  -5.0284   0.0000   0.0000   0.0000   0.1870
  -6.100  -0.4673   0.02233   0.01806  -0.0272  0.7230  0.0057  -4.9320   0.0000   0.0000   0.0000   0.1863
  -6.000  -0.4571   0.02209   0.01777  -0.0270  0.7197  0.0055  -4.8204   0.0000   0.0000   0.0000   0.1855
  -5.900  -0.4471   0.02185   0.01747  -0.0268  0.7166  0.0054  -4.7086   0.0000   0.0000   0.0000   0.1846
  -5.800  -0.4371   0.02158   0.01716  -0.0266  0.7136  0.0053  -4.5998   0.0000   0.0000   0.0000   0.1837
  -5.700  -0.4272   0.02127   0.01680  -0.0264  0.7120  0.0052  -4.4956   0.0000   0.0000   0.0000   0.1828
  -5.600  -0.4174   0.02090   0.01639  -0.0261  0.7116  0.0051  -4.3975   0.0000   0.0000   0.0000   0.1820
  -5.500  -0.4077   0.02049   0.01593  -0.0259  0.7111  0.0051  -4.3072   0.0000   0.0000   0.0000   0.1811
  -5.400  -0.3981   0.02002   0.01540  -0.0256  0.7106  0.0050  -4.2265   0.0000   0.0000   0.0000   0.1803
  -5.300  -0.3887   0.01947   0.01478  -0.0253  0.7101  0.0050  -4.1583   0.0000   0.0000   0.0000   0.1796
  -5.200  -0.3795   0.01881   0.01404  -0.0249  0.7095  0.0049  -4.1069   0.0000   0.0000   0.0000   0.1790
  -5.100  -0.3707   0.01801   0.01313  -0.0245  0.7088  0.0049  -4.0787   0.0000   0.0000   0.0000   0.1787
  -5.000  -0.3622   0.01700   0.01192  -0.0239  0.7081  0.0049  -4.0835   0.0000   0.0000   0.0000   0.1787
  -4.900  -0.3541   0.01581   0.01059  -0.0232  0.7073  0.0049  -4.1158   0.0000   0.0000   0.0000   0.1790
  -4.800  -0.3460   0.01458   0.00919  -0.0225  0.7065  0.0050  -4.1592   0.0000   0.0000   0.0000   0.1795
  -4.700  -0.3377   0.01351   0.00799  -0.0219  0.7056  0.0051  -4.1777   0.0000   0.0000   0.0000   0.1798
  -4.600  -0.3290   0.01266   0.00703  -0.0213  0.7047  0.0052  -4.1643   0.0000   0.0000   0.0000   0.1798
  -4.500  -0.3200   0.01199   0.00625  -0.0208  0.7037  0.0053  -4.1264   0.0000   0.0000   0.0000   0.1797
  -4.400  -0.3109   0.01143   0.00561  -0.0203  0.7027  0.0054  -4.0711   0.0000   0.0000   0.0000   0.1793
  -4.300  -0.3015   0.01097   0.00507  -0.0199  0.7017  0.0056  -4.0037   0.0000   0.0000   0.0000   0.1787
  -4.200  -0.2920   0.01056   0.00458  -0.0194  0.7006  0.0058  -3.9309   0.0000   0.0000   0.0000   0.1780
  -4.100  -0.2824   0.01019   0.00413  -0.0191  0.6995  0.0062  -3.8547   0.0000   0.0000   0.0000   0.1771
  -4.000  -0.2723   0.00990   0.00377  -0.0187  0.6984  0.0068  -3.7676   0.0000   0.0000   0.0000   0.1757
  -3.900  -0.2619   0.00967   0.00348  -0.0185  0.6972  0.0074  -3.6759   0.0000   0.0000   0.0000   0.1739
  -3.800  -0.2514   0.00947   0.00322  -0.0183  0.6960  0.0081  -3.5852   0.0000   0.0000   0.0000   0.1718
  -3.700  -0.2407   0.00929   0.00300  -0.0181  0.6947  0.0094  -3.4950   0.0000   0.0000   0.0000   0.1694
  -3.600  -0.2300   0.00913   0.00283  -0.0179  0.6935  0.0116  -3.3938   0.0000   0.0000   0.0000   0.1666
  -3.500  -0.2193   0.00901   0.00270  -0.0178  0.6921  0.0144  -3.2720   0.0000   0.0000   0.0000   0.1633
  -3.400  -0.2089   0.00883   0.00255  -0.0176  0.6906  0.0248  -3.1553   0.0000   0.0000   0.0000   0.1600
  -3.300  -0.1982   0.00871   0.00246  -0.0175  0.6890  0.0319  -3.0158   0.0000   0.0000   0.0000   0.1558
  -3.200  -0.1878   0.00857   0.00237  -0.0174  0.6872  0.0433  -2.8781   0.0000   0.0000   0.0000   0.1513
  -3.100  -0.1770   0.00848   0.00230  -0.0174  0.6853  0.0500  -2.7373   0.0000   0.0000   0.0000   0.1459
  -3.000  -0.1663   0.00839   0.00223  -0.0173  0.6833  0.0612  -2.6142   0.0000   0.0000   0.0000   0.1397
  -2.900  -0.1558   0.00827   0.00216  -0.0172  0.6810  0.0722  -2.4952   0.0000   0.0000   0.0000   0.1330
  -2.800  -0.1449   0.00820   0.00210  -0.0172  0.6786  0.0816  -2.3752   0.0000   0.0000   0.0000   0.1248
  -2.700  -0.1346   0.00806   0.00205  -0.0171  0.6762  0.1000  -2.2598   0.0000   0.0000   0.0000   0.1162
  -2.600  -0.1239   0.00798   0.00200  -0.0171  0.6736  0.1158  -2.1435   0.0000   0.0000   0.0000   0.1053
  -2.500  -0.1135   0.00787   0.00196  -0.0170  0.6710  0.1338  -2.0306   0.0000   0.0000   0.0000   0.0931
  -2.400  -0.1026   0.00782   0.00193  -0.0170  0.6685  0.1428  -1.9163   0.0000   0.0000   0.0000   0.0768
  -2.300  -0.0920   0.00774   0.00190  -0.0169  0.6660  0.1615  -1.8059   0.0000   0.0000   0.0000   0.0577
  -2.200  -0.0812   0.00765   0.00187  -0.0169  0.6651  0.1748  -1.6957   0.0000   0.0000   0.0000   0.0330
  -2.100  -0.0702   0.00758   0.00182  -0.0169  0.6648  0.1881  -1.5865   0.0000   0.0000   0.0000  -0.0002
  -2.000  -0.0596   0.00745   0.00177  -0.0168  0.6645  0.2082  -1.4816   0.0000   0.0000   0.0000  -0.0426
  -1.900  -0.0488   0.00737   0.00173  -0.0168  0.6641  0.2235  -1.3768   0.0000   0.0000   0.0000  -0.1063
  -1.800  -0.0386   0.00720   0.00168  -0.0167  0.6636  0.2561  -1.2776   0.0000   0.0000   0.0000  -0.1963
  -1.700  -0.0281   0.00708   0.00164  -0.0166  0.6631  0.2841  -1.1787   0.0000   0.0000   0.0000  -0.3595
  -1.600  -0.0178   0.00694   0.00160  -0.0165  0.6625  0.3123  -1.0829   0.0000   0.0000   0.0000  -0.7042
  -1.500  -0.0075   0.00679   0.00157  -0.0164  0.6619  0.3451  -0.9897   0.0000   0.0000   0.0000  -1.9828
  -1.400   0.0025   0.00663   0.00153  -0.0162  0.6612  0.3857  -0.9007   0.0000   0.0000   0.0000   6.9789
  -1.300   0.0121   0.00644   0.00147  -0.0160  0.6604  0.4334  -0.8164   0.0000   0.0000   0.0000   1.6027
  -1.200   0.0217   0.00627   0.00144  -0.0157  0.6595  0.4789  -0.7313   0.0000   0.0000   0.0000   0.9905
  -1.100   0.0311   0.00609   0.00141  -0.0154  0.6585  0.5233  -0.6485   0.0000   0.0000   0.0000   0.7548
  -1.000   0.0404   0.00592   0.00138  -0.0151  0.6574  0.5690  -0.5890   0.0000   0.0000   0.0000   0.6296
  -0.900   0.0494   0.00575   0.00136  -0.0146  0.6564  0.6141  -0.5592   0.0000   0.0000   0.0000   0.5511
  -0.800   0.0583   0.00558   0.00134  -0.0142  0.6553  0.6587  -0.5299   0.0000   0.0000   0.0000   0.4966
  -0.700   0.0669   0.00542   0.00132  -0.0136  0.6543  0.7040  -0.5012   0.0000   0.0000   0.0000   0.4562
  -0.600   0.0753   0.00526   0.00131  -0.0130  0.6533  0.7498  -0.4847   0.0000   0.0000   0.0000   0.4244
  -0.500   0.0833   0.00508   0.00130  -0.0123  0.6522  0.8026  -0.4908   0.0000   0.0000   0.0000   0.3982
  -0.400   0.0937   0.00489   0.00132  -0.0119  0.6510  0.8654  -0.4980   0.0000   0.0000   0.0000   0.3781
  -0.300   0.1272   0.00484   0.00140  -0.0167  0.6496  0.9253  -0.5163   0.0000   0.0000   0.0000   0.3815
  -0.200   0.1589   0.00490   0.00144  -0.0212  0.6478  0.9364  -0.5337   0.0000   0.0000   0.0000   0.3832
  -0.100   0.1753   0.00496   0.00149  -0.0223  0.6460  0.9465  -0.5443   0.0000   0.0000   0.0000   0.3765
   0.000   0.1871   0.00501   0.00152  -0.0223  0.6442  0.9536  -0.5532   0.0000   0.0000   0.0000   0.3686
   0.100   0.2022   0.00506   0.00155  -0.0232  0.6425  0.9581  -0.5638   0.0000   0.0000   0.0000   0.3636
   0.200   0.2155   0.00511   0.00157  -0.0236  0.6408  0.9617  -0.5734   0.0000   0.0000   0.0000   0.3584
   0.300   0.2274   0.00515   0.00159  -0.0238  0.6391  0.9654  -0.5824   0.0000   0.0000   0.0000   0.3532
   0.400   0.2361   0.00520   0.00162  -0.0232  0.6373  0.9699  -0.5897   0.0000   0.0000   0.0000   0.3467
   0.500   0.2495   0.00525   0.00165  -0.0236  0.6352  0.9726  -0.5994   0.0000   0.0000   0.0000   0.3431
   0.600   0.2673   0.00530   0.00167  -0.0251  0.6326  0.9744  -0.6114   0.0000   0.0000   0.0000   0.3422
   0.700   0.2836   0.00535   0.00169  -0.0262  0.6295  0.9760  -0.6226   0.0000   0.0000   0.0000   0.3407
   0.800   0.2985   0.00539   0.00171  -0.0270  0.6262  0.9774  -0.6338   0.0000   0.0000   0.0000   0.3388
   0.900   0.3133   0.00544   0.00174  -0.0279  0.6228  0.9790  -0.6455   0.0000   0.0000   0.0000   0.3371
   1.000   0.3283   0.00550   0.00178  -0.0287  0.6197  0.9811  -0.6574   0.0000   0.0000   0.0000   0.3355
   1.100   0.3426   0.00556   0.00182  -0.0294  0.6176  0.9832  -0.6690   0.0000   0.0000   0.0000   0.3338
   1.200   0.3555   0.00559   0.00185  -0.0298  0.6173  0.9852  -0.6798   0.0000   0.0000   0.0000   0.3317
   1.300   0.3676   0.00562   0.00188  -0.0300  0.6170  0.9868  -0.6903   0.0000   0.0000   0.0000   0.3294
   1.400   0.3844   0.00562   0.00188  -0.0313  0.6166  0.9875  -0.7034   0.0000   0.0000   0.0000   0.3290
   1.500   0.4015   0.00562   0.00187  -0.0326  0.6161  0.9885  -0.7166   0.0000   0.0000   0.0000   0.3288
   1.600   0.4182   0.00561   0.00187  -0.0338  0.6154  0.9895  -0.7298   0.0000   0.0000   0.0000   0.3284
   1.700   0.4349   0.00560   0.00186  -0.0351  0.6145  0.9907  -0.7430   0.0000   0.0000   0.0000   0.3281
   1.800   0.4516   0.00560   0.00185  -0.0363  0.6134  0.9921  -0.7577   0.0000   0.0000   0.0000   0.3278
   1.900   0.4693   0.00559   0.00185  -0.0378  0.6121  0.9939  -0.7732   0.0000   0.0000   0.0000   0.3278
   2.000   0.4873   0.00559   0.00185  -0.0393  0.6106  0.9959  -0.7890   0.0000   0.0000   0.0000   0.3279
   2.100   0.5062   0.00557   0.00183  -0.0410  0.6090  0.9974  -0.8053   0.0000   0.0000   0.0000   0.3282
   2.200   0.5249   0.00553   0.00179  -0.0427  0.6075  0.9988  -0.8216   0.0000   0.0000   0.0000   0.3285
   2.300   0.5424   0.00550   0.00176  -0.0442  0.6057  1.0000  -0.8372   0.0000   0.0000   0.0000   0.3284
   2.400   0.5530   0.00550   0.00176  -0.0441  0.6035  1.0000  -0.8484   0.0000   0.0000   0.0000   0.3267
   2.500   0.5636   0.00550   0.00176  -0.0440  0.6010  1.0000  -0.8604   0.0000   0.0000   0.0000   0.3250
   2.600   0.5741   0.00550   0.00175  -0.0440  0.5981  1.0000  -0.8733   0.0000   0.0000   0.0000   0.3233
   2.700   0.5847   0.00551   0.00175  -0.0439  0.5947  1.0000  -0.8863   0.0000   0.0000   0.0000   0.3217
   2.800   0.5953   0.00552   0.00175  -0.0438  0.5910  1.0000  -0.8992   0.0000   0.0000   0.0000   0.3202
   2.900   0.6059   0.00554   0.00174  -0.0438  0.5871  1.0000  -0.9122   0.0000   0.0000   0.0000   0.3187
   3.000   0.6165   0.00556   0.00175  -0.0437  0.5830  1.0000  -0.9253   0.0000   0.0000   0.0000   0.3173
   3.100   0.6271   0.00559   0.00176  -0.0437  0.5784  1.0000  -0.9393   0.0000   0.0000   0.0000   0.3159
   3.200   0.6377   0.00563   0.00178  -0.0436  0.5732  1.0000  -0.9544   0.0000   0.0000   0.0000   0.3146
   3.300   0.6483   0.00565   0.00179  -0.0436  0.5695  1.0000  -0.9696   0.0000   0.0000   0.0000   0.3134
   3.400   0.6590   0.00564   0.00180  -0.0435  0.5684  1.0000  -0.9850   0.0000   0.0000   0.0000   0.3121
   3.500   0.6698   0.00564   0.00182  -0.0435  0.5667  1.0000  -1.0007   0.0000   0.0000   0.0000   0.3109
   3.600   0.6805   0.00564   0.00183  -0.0434  0.5644  1.0000  -1.0187   0.0000   0.0000   0.0000   0.3097
   3.700   0.6912   0.00565   0.00186  -0.0434  0.5613  1.0000  -1.0368   0.0000   0.0000   0.0000   0.3086
   3.800   0.7018   0.00566   0.00187  -0.0433  0.5570  1.0000  -1.0549   0.0000   0.0000   0.0000   0.3075
   3.900   0.7125   0.00569   0.00188  -0.0433  0.5506  1.0000  -1.0731   0.0000   0.0000   0.0000   0.3064
   4.000   0.7230   0.00573   0.00189  -0.0432  0.5421  1.0000  -1.0912   0.0000   0.0000   0.0000   0.3053
   4.100   0.7335   0.00580   0.00190  -0.0432  0.5316  1.0000  -1.1105   0.0000   0.0000   0.0000   0.3043
   4.200   0.7441   0.00586   0.00193  -0.0432  0.5219  1.0000  -1.1321   0.0000   0.0000   0.0000   0.3034
   4.300   0.7549   0.00588   0.00196  -0.0431  0.5185  1.0000  -1.1541   0.0000   0.0000   0.0000   0.3024
   4.400   0.7655   0.00591   0.00199  -0.0431  0.5129  1.0000  -1.1761   0.0000   0.0000   0.0000   0.3015
   4.500   0.7761   0.00597   0.00202  -0.0431  0.5035  1.0000  -1.2001   0.0000   0.0000   0.0000   0.3005
   4.600   0.7864   0.00608   0.00206  -0.0430  0.4897  1.0000  -1.2266   0.0000   0.0000   0.0000   0.2997
   4.700   0.7969   0.00619   0.00211  -0.0430  0.4739  1.0000  -1.2532   0.0000   0.0000   0.0000   0.2988
   4.800   0.8074   0.00625   0.00218  -0.0430  0.4674  1.0000  -1.2835   0.0000   0.0000   0.0000   0.2980
   4.900   0.8180   0.00631   0.00223  -0.0429  0.4594  1.0000  -1.3284   0.0000   0.0000   0.0000   0.2972
   5.000   0.8283   0.00643   0.00229  -0.0429  0.4481  1.0000  -1.3733   0.0000   0.0000   0.0000   0.2964
   5.100   0.8385   0.00658   0.00237  -0.0429  0.4319  1.0000  -1.4181   0.0000   0.0000   0.0000   0.2956
   5.200   0.8489   0.00666   0.00243  -0.0428  0.4231  1.0000  -1.5110   0.0000   0.0000   0.0000   0.2948
   5.300   0.8593   0.00674   0.00250  -0.0428  0.4147  1.0000  -1.6217   0.0000   0.0000   0.0000   0.2941
   5.400   0.8694   0.00687   0.00258  -0.0427  0.4034  1.0000  -1.7334   0.0000   0.0000   0.0000   0.2933
   5.500   0.8792   0.00707   0.00268  -0.0427  0.3849  1.0000  -1.8451   0.0000   0.0000   0.0000   0.2926
   5.600   0.8894   0.00717   0.00276  -0.0426  0.3731  1.0000  -1.9613   0.0000   0.0000   0.0000   0.2919
   5.700   0.8991   0.00736   0.00287  -0.0425  0.3568  1.0000  -2.0770   0.0000   0.0000   0.0000   0.2911
   5.800   0.9085   0.00759   0.00300  -0.0424  0.3355  1.0000  -2.1925   0.0000   0.0000   0.0000   0.2904
   5.900   0.9185   0.00769   0.00308  -0.0423  0.3266  1.0000  -2.3143   0.0000   0.0000   0.0000   0.2897
   6.000   0.9279   0.00788   0.00320  -0.0422  0.3122  1.0000  -2.4348   0.0000   0.0000   0.0000   0.2890
   6.100   0.9370   0.00811   0.00333  -0.0420  0.2941  1.0000  -2.5547   0.0000   0.0000   0.0000   0.2882
   6.200   0.9469   0.00821   0.00342  -0.0419  0.2863  1.0000  -2.6819   0.0000   0.0000   0.0000   0.2875
   6.300   0.9566   0.00833   0.00352  -0.0417  0.2779  1.0000  -2.8100   0.0000   0.0000   0.0000   0.2868
   6.400   0.9657   0.00853   0.00366  -0.0415  0.2652  1.0000  -2.9359   0.0000   0.0000   0.0000   0.2861
   6.500   0.9746   0.00875   0.00380  -0.0413  0.2486  1.0000  -3.0621   0.0000   0.0000   0.0000   0.2854
   6.600   0.9843   0.00886   0.00390  -0.0412  0.2417  1.0000  -3.1955   0.0000   0.0000   0.0000   0.2847
   6.700   0.9932   0.00905   0.00404  -0.0409  0.2294  1.0000  -3.3256   0.0000   0.0000   0.0000   0.2839
   6.800   1.0011   0.00935   0.00423  -0.0406  0.2092  1.0000  -3.4507   0.0000   0.0000   0.0000   0.2832
   6.900   1.0100   0.00953   0.00436  -0.0403  0.1977  1.0000  -3.5840   0.0000   0.0000   0.0000   0.2824
   7.000   1.0171   0.00990   0.00460  -0.0399  0.1764  1.0000  -3.7061   0.0000   0.0000   0.0000   0.2816
   7.100   1.0252   0.01014   0.00477  -0.0395  0.1607  1.0000  -3.8370   0.0000   0.0000   0.0000   0.2808
   7.200   1.0315   0.01056   0.00503  -0.0390  0.1366  1.0000  -3.9557   0.0000   0.0000   0.0000   0.2799
   7.300   1.0386   0.01087   0.00525  -0.0385  0.1209  1.0000  -4.0816   0.0000   0.0000   0.0000   0.2791
   7.400   1.0452   0.01122   0.00550  -0.0380  0.1028  1.0000  -4.2049   0.0000   0.0000   0.0000   0.2782
   7.500   1.0517   0.01156   0.00574  -0.0374  0.0890  1.0000  -4.3289   0.0000   0.0000   0.0000   0.2773
   7.600   1.0584   0.01187   0.00598  -0.0368  0.0748  1.0000  -4.4550   0.0000   0.0000   0.0000   0.2764
   7.700   1.0641   0.01225   0.00625  -0.0361  0.0617  1.0000  -4.5749   0.0000   0.0000   0.0000   0.2755
   7.800   1.0707   0.01254   0.00649  -0.0355  0.0506  1.0000  -4.7025   0.0000   0.0000   0.0000   0.2746
   7.900   1.0761   0.01291   0.00677  -0.0347  0.0406  1.0000  -4.8213   0.0000   0.0000   0.0000   0.2736
   8.000   1.0829   0.01315   0.00698  -0.0341  0.0329  1.0000  -4.9520   0.0000   0.0000   0.0000   0.2727
   8.100   1.0889   0.01344   0.00723  -0.0334  0.0277  1.0000  -5.0775   0.0000   0.0000   0.0000   0.2717
   8.200   1.0948   0.01373   0.00747  -0.0327  0.0215  1.0000  -5.2008   0.0000   0.0000   0.0000   0.2708
   8.300   1.1019   0.01392   0.00767  -0.0321  0.0186  1.0000  -5.3342   0.0000   0.0000   0.0000   0.2699
   8.400   1.1079   0.01417   0.00790  -0.0314  0.0158  1.0000  -5.4596   0.0000   0.0000   0.0000   0.2690
   8.500   1.1104   0.01467   0.00847  -0.0300  0.0088  1.0000  -5.5242   0.0000   0.0000   0.0000   0.2675
   8.600   1.1180   0.01480   0.00860  -0.0295  0.0087  1.0000  -5.6930   0.0000   0.0000   0.0000   0.2668
   8.700   1.1251   0.01494   0.00876  -0.0290  0.0083  1.0000  -5.8552   0.0000   0.0000   0.0000   0.2660
   8.800   1.1315   0.01514   0.00897  -0.0283  0.0076  1.0000  -6.0034   0.0000   0.0000   0.0000   0.2651
   8.900   1.1370   0.01538   0.00922  -0.0274  0.0066  1.0000  -6.1339   0.0000   0.0000   0.0000   0.2641
   9.000   1.1418   0.01566   0.00950  -0.0265  0.0056  1.0000  -6.2514   0.0000   0.0000   0.0000   0.2630
   9.100   1.1460   0.01596   0.00982  -0.0254  0.0049  1.0000  -6.3571   0.0000   0.0000   0.0000   0.2619
   9.200   1.1497   0.01629   0.01018  -0.0242  0.0043  1.0000  -6.4507   0.0000   0.0000   0.0000   0.2607
   9.300   1.1527   0.01664   0.01057  -0.0230  0.0039  1.0000  -6.5320   0.0000   0.0000   0.0000   0.2594
   9.400   1.1544   0.01701   0.01100  -0.0215  0.0036  1.0000  -6.6011   0.0000   0.0000   0.0000   0.2579
   9.500   1.1529   0.01735   0.01139  -0.0195  0.0034  1.0000  -6.6515   0.0000   0.0000   0.0000   0.2560
   9.600   1.1506   0.01770   0.01179  -0.0174  0.0032  1.0000  -6.6978   0.0000   0.0000   0.0000   0.2541
   9.700   1.1490   0.01811   0.01225  -0.0155  0.0031  1.0000  -6.7475   0.0000   0.0000   0.0000   0.2523
   9.800   1.1477   0.01857   0.01277  -0.0137  0.0029  1.0000  -6.7976   0.0000   0.0000   0.0000   0.2507
   9.900   1.1463   0.01909   0.01335  -0.0121  0.0028  1.0000  -6.8455   0.0000   0.0000   0.0000   0.2491
  10.000   1.1450   0.01966   0.01398  -0.0105  0.0027  1.0000  -6.8918   0.0000   0.0000   0.0000   0.2476
  10.100   1.1433   0.02029   0.01468  -0.0090  0.0026  1.0000  -6.9330   0.0000   0.0000   0.0000   0.2461
  10.200   1.1412   0.02099   0.01545  -0.0075  0.0025  1.0000  -6.9697   0.0000   0.0000   0.0000   0.2447
  10.300   1.1392   0.02173   0.01626  -0.0061  0.0024  1.0000  -7.0040   0.0000   0.0000   0.0000   0.2433
  10.400   1.1369   0.02252   0.01711  -0.0048  0.0024  1.0000  -7.0349   0.0000   0.0000   0.0000   0.2420
  10.500   1.1343   0.02335   0.01801  -0.0035  0.0023  1.0000  -7.0637   0.0000   0.0000   0.0000   0.2407
  10.600   1.1323   0.02419   0.01891  -0.0023  0.0023  1.0000  -7.0968   0.0000   0.0000   0.0000   0.2395
  10.700   1.1306   0.02504   0.01983  -0.0011  0.0023  1.0000  -7.1300   0.0000   0.0000   0.0000   0.2383
  10.800   1.1289   0.02593   0.02078   0.0000  0.0022  1.0000  -7.1609   0.0000   0.0000   0.0000   0.2371
  10.900   1.1267   0.02688   0.02180   0.0011  0.0022  1.0000  -7.1870   0.0000   0.0000   0.0000   0.2360
  11.000   1.1247   0.02785   0.02283   0.0022  0.0022  1.0000  -7.2112   0.0000   0.0000   0.0000   0.2349
  11.100   1.1229   0.02883   0.02387   0.0032  0.0022  1.0000  -7.2337   0.0000   0.0000   0.0000   0.2337
  11.200   1.1212   0.02982   0.02493   0.0043  0.0021  1.0000  -7.2534   0.0000   0.0000   0.0000   0.2326
  11.300   1.1197   0.03084   0.02603   0.0053  0.0021  1.0000  -7.2699   0.0000   0.0000   0.0000   0.2315
  11.400   1.1184   0.03192   0.02718   0.0064  0.0021  1.0000  -7.2822   0.0000   0.0000   0.0000   0.2304
  11.500   1.1172   0.03304   0.02838   0.0074  0.0021  1.0000  -7.2894   0.0000   0.0000   0.0000   0.2294
  11.600   1.1163   0.03418   0.02959   0.0084  0.0021  1.0000  -7.3000   0.0000   0.0000   0.0000   0.2283
  11.700   1.1202   0.03460   0.03002   0.0086  0.0021  1.0000  -7.4489   0.0000   0.0000   0.0000   0.2280
  11.800   1.1231   0.03517   0.03062   0.0089  0.0020  1.0000  -7.5723   0.0000   0.0000   0.0000   0.2275
  11.900   1.1258   0.03578   0.03126   0.0093  0.0020  1.0000  -7.6890   0.0000   0.0000   0.0000   0.2270
  12.000   1.1284   0.03641   0.03194   0.0097  0.0020  1.0000  -7.8014   0.0000   0.0000   0.0000   0.2266
  12.100   1.1309   0.03708   0.03264   0.0101  0.0020  1.0000  -7.9096   0.0000   0.0000   0.0000   0.2260
  12.200   1.1332   0.03777   0.03338   0.0105  0.0020  1.0000  -8.0136   0.0000   0.0000   0.0000   0.2255
  12.300   1.1352   0.03850   0.03414   0.0109  0.0020  1.0000  -8.1132   0.0000   0.0000   0.0000   0.2250
  12.400   1.1370   0.03926   0.03495   0.0113  0.0019  1.0000  -8.2083   0.0000   0.0000   0.0000   0.2245
  12.500   1.1382   0.04007   0.03580   0.0117  0.0019  1.0000  -8.2965   0.0000   0.0000   0.0000   0.2240
  12.600   1.1382   0.04100   0.03678   0.0120  0.0019  1.0000  -8.3703   0.0000   0.0000   0.0000   0.2235
  12.700   1.1379   0.04193   0.03775   0.0124  0.0019  1.0000  -8.4402   0.0000   0.0000   0.0000   0.2230
  12.800   1.1378   0.04285   0.03872   0.0128  0.0019  1.0000  -8.5115   0.0000   0.0000   0.0000   0.2225
  12.900   1.1379   0.04378   0.03970   0.0132  0.0019  1.0000  -8.5828   0.0000   0.0000   0.0000   0.2220
  13.000   1.1379   0.04474   0.04071   0.0135  0.0019  1.0000  -8.6525   0.0000   0.0000   0.0000   0.2215
  13.100   1.1378   0.04574   0.04176   0.0138  0.0018  1.0000  -8.7194   0.0000   0.0000   0.0000   0.2210
  13.200   1.1375   0.04678   0.04285   0.0141  0.0018  1.0000  -8.7826   0.0000   0.0000   0.0000   0.2206
  13.300   1.1365   0.04790   0.04403   0.0143  0.0018  1.0000  -8.8375   0.0000   0.0000   0.0000   0.2202
  13.400   1.1340   0.04919   0.04537   0.0145  0.0018  1.0000  -8.8763   0.0000   0.0000   0.0000   0.2198
  13.500   1.1321   0.05047   0.04670   0.0146  0.0018  1.0000  -8.9190   0.0000   0.0000   0.0000   0.2195
  13.600   1.1305   0.05173   0.04802   0.0147  0.0018  1.0000  -8.9639   0.0000   0.0000   0.0000   0.2192
  13.700   1.1290   0.05301   0.04935   0.0148  0.0018  1.0000  -9.0076   0.0000   0.0000   0.0000   0.2189
  13.800   1.1273   0.05433   0.05072   0.0149  0.0017  1.0000  -9.0480   0.0000   0.0000   0.0000   0.2186
  13.900   1.1253   0.05569   0.05214   0.0149  0.0017  1.0000  -9.0836   0.0000   0.0000   0.0000   0.2184
  14.000   1.1223   0.05721   0.05372   0.0148  0.0017  1.0000  -9.1072   0.0000   0.0000   0.0000   0.2182
  14.100   1.1180   0.05891   0.05548   0.0146  0.0017  1.0000  -9.1156   0.0000   0.0000   0.0000   0.2182
  14.200   1.1144   0.06054   0.05717   0.0144  0.0017  1.0000  -9.1304   0.0000   0.0000   0.0000   0.2181
  14.300   1.1112   0.06216   0.05885   0.0142  0.0017  1.0000  -9.1463   0.0000   0.0000   0.0000   0.2180
  14.400   1.1079   0.06382   0.06057   0.0140  0.0017  1.0000  -9.1585   0.0000   0.0000   0.0000   0.2180
  14.500   1.1042   0.06555   0.06235   0.0137  0.0017  1.0000  -9.1649   0.0000   0.0000   0.0000   0.2180
  14.600   1.0986   0.06758   0.06445   0.0132  0.0017  1.0000  -9.1502   0.0000   0.0000   0.0000   0.2183
  14.700   1.0931   0.06962   0.06655   0.0126  0.0017  1.0000  -9.1342   0.0000   0.0000   0.0000   0.2185
  14.800   1.0880   0.07155   0.06853   0.0121  0.0017  1.0000  -9.1207   0.0000   0.0000   0.0000   0.2187
  14.900   1.0829   0.07352   0.07056   0.0116  0.0017  1.0000  -9.1049   0.0000   0.0000   0.0000   0.2190
  15.000   1.0772   0.07569   0.07280   0.0109  0.0017  1.0000  -9.0797   0.0000   0.0000   0.0000   0.2194
  15.100   1.0701   0.07820   0.07537   0.0099  0.0017  1.0000  -9.0373   0.0000   0.0000   0.0000   0.2200
  15.200   1.0641   0.08057   0.07779   0.0090  0.0017  1.0000  -9.0030   0.0000   0.0000   0.0000   0.2206
  15.300   1.0583   0.08296   0.08024   0.0081  0.0017  1.0000  -8.9677   0.0000   0.0000   0.0000   0.2212
  15.400   1.0514   0.08565   0.08300   0.0069  0.0017  1.0000  -8.9174   0.0000   0.0000   0.0000   0.2221
  15.500   1.0439   0.08852   0.08593   0.0056  0.0017  1.0000  -8.8574   0.0000   0.0000   0.0000   0.2232
  15.600   1.0374   0.09123   0.08870   0.0044  0.0017  1.0000  -8.8039   0.0000   0.0000   0.0000   0.2241
  15.700   1.0307   0.09403   0.09156   0.0031  0.0017  1.0000  -8.7460   0.0000   0.0000   0.0000   0.2251
  15.800   1.0222   0.09734   0.09492   0.0014  0.0017  1.0000  -8.6624   0.0000   0.0000   0.0000   0.2266
  15.900   1.0149   0.10039   0.09803  -0.0001  0.0017  1.0000  -8.5890   0.0000   0.0000   0.0000   0.2279
  16.000   1.0077   0.10343   0.10113  -0.0016  0.0017  1.0000  -8.5135   0.0000   0.0000   0.0000   0.2292
  16.100   0.9987   0.10705   0.10481  -0.0036  0.0017  1.0000  -8.4095   0.0000   0.0000   0.0000   0.2311
  16.200   0.9908   0.11040   0.10822  -0.0054  0.0017  1.0000  -8.3143   0.0000   0.0000   0.0000   0.2328
  16.300   0.9830   0.11374   0.11161  -0.0071  0.0017  1.0000  -8.2163   0.0000   0.0000   0.0000   0.2344
  16.400   0.9732   0.11775   0.11567  -0.0094  0.0018  1.0000  -8.0824   0.0000   0.0000   0.0000   0.2367
  16.500   0.9648   0.12139   0.11937  -0.0113  0.0018  1.0000  -7.9604   0.0000   0.0000   0.0000   0.2388
  16.600   0.9553   0.12541   0.12344  -0.0136  0.0018  1.0000  -7.8133   0.0000   0.0000   0.0000   0.2411
  16.700   0.9450   0.12974   0.12783  -0.0160  0.0018  1.0000  -7.6412   0.0000   0.0000   0.0000   0.2437
  16.800   0.9349   0.13402   0.13216  -0.0183  0.0018  1.0000  -7.4599   0.0000   0.0000   0.0000   0.2464
  16.900   0.9214   0.13946   0.13765  -0.0212  0.0019  1.0000  -7.1901   0.0000   0.0000   0.0000   0.2499
  17.000   0.8995   0.14737   0.14563  -0.0254  0.0019  1.0000  -6.6819   0.0000   0.0000   0.0000   0.2553
  17.300   0.8663   0.16225   0.16061  -0.0328  0.0022  1.0000  -5.7462   0.0000   0.0000   0.0000   0.2652
  17.400   0.8646   0.16483   0.16320  -0.0340  0.0022  1.0000  -5.6880   0.0000   0.0000   0.0000   0.2667
  17.500   0.8631   0.16738   0.16576  -0.0352  0.0022  1.0000  -5.6283   0.0000   0.0000   0.0000   0.2681
  17.600   0.8615   0.17009   0.16848  -0.0364  0.0022  1.0000  -5.5594   0.0000   0.0000   0.0000   0.2695
  17.700   0.8602   0.17271   0.17110  -0.0376  0.0022  1.0000  -5.4916   0.0000   0.0000   0.0000   0.2708
  17.800   0.8591   0.17526   0.17366  -0.0387  0.0022  1.0000  -5.4252   0.0000   0.0000   0.0000   0.2721
  17.900   0.8581   0.17787   0.17627  -0.0398  0.0022  1.0000  -5.3526   0.0000   0.0000   0.0000   0.2734
  18.000   0.8573   0.18045   0.17885  -0.0408  0.0023  1.0000  -5.2804   0.0000   0.0000   0.0000   0.2746
  18.100   0.8568   0.18292   0.18133  -0.0418  0.0023  1.0000  -5.2140   0.0000   0.0000   0.0000   0.2757
  18.200   0.8565   0.18536   0.18376  -0.0428  0.0023  1.0000  -5.1496   0.0000   0.0000   0.0000   0.2768
  18.300   0.8563   0.18778   0.18619  -0.0438  0.0023  1.0000  -5.0839   0.0000   0.0000   0.0000   0.2778
  18.400   0.8564   0.19015   0.18855  -0.0447  0.0023  1.0000  -5.0231   0.0000   0.0000   0.0000   0.2788
  18.500   0.8566   0.19245   0.19085  -0.0456  0.0024  1.0000  -4.9675   0.0000   0.0000   0.0000   0.2798
  18.600   0.8571   0.19470   0.19310  -0.0465  0.0024  1.0000  -4.9149   0.0000   0.0000   0.0000   0.2807
  18.700   0.8576   0.19693   0.19533  -0.0474  0.0024  1.0000  -4.8637   0.0000   0.0000   0.0000   0.2815
  18.800   0.8583   0.19916   0.19756  -0.0482  0.0025  1.0000  -4.8111   0.0000   0.0000   0.0000   0.2824
  18.900   0.8590   0.20145   0.19984  -0.0490  0.0026  1.0000  -4.7502   0.0000   0.0000   0.0000   0.2832
  19.000   0.8594   0.20406   0.20245  -0.0499  0.0027  1.0000  -4.6441   0.0000   0.0000   0.0000   0.2841
  19.400   0.8319   0.23130   0.22960  -0.0563  0.0082  1.0000  -2.3769   0.0000   0.0000   0.0000   0.2946
  19.500   0.8386   0.23156   0.22986  -0.0568  0.0072  1.0000  -2.4906   0.0000   0.0000   0.0000   0.2944
  19.600   0.8408   0.23352   0.23183  -0.0576  0.0068  1.0000  -2.4812   0.0000   0.0000   0.0000   0.2951
  19.700   0.8426   0.23558   0.23389  -0.0584  0.0065  1.0000  -2.4651   0.0000   0.0000   0.0000   0.2958
  19.800   0.8443   0.23766   0.23596  -0.0592  0.0062  1.0000  -2.4492   0.0000   0.0000   0.0000   0.2965
  19.900   0.8459   0.23972   0.23803  -0.0600  0.0060  1.0000  -2.4346   0.0000   0.0000   0.0000   0.2971
  20.000   0.8475   0.24178   0.24008  -0.0608  0.0058  1.0000  -2.4216   0.0000   0.0000   0.0000   0.2978
  20.100   0.8492   0.24383   0.24213  -0.0615  0.0056  1.0000  -2.4101   0.0000   0.0000   0.0000   0.2984
  20.200   0.8508   0.24586   0.24417  -0.0623  0.0054  1.0000  -2.4000   0.0000   0.0000   0.0000   0.2990
  20.300   0.8524   0.24789   0.24619  -0.0631  0.0052  1.0000  -2.3914   0.0000   0.0000   0.0000   0.2996
  20.400   0.8540   0.24991   0.24821  -0.0638  0.0051  1.0000  -2.3841   0.0000   0.0000   0.0000   0.3002
  20.500   0.8557   0.25192   0.25022  -0.0646  0.0049  1.0000  -2.3778   0.0000   0.0000   0.0000   0.3008
  20.600   0.8573   0.25392   0.25222  -0.0653  0.0048  1.0000  -2.3727   0.0000   0.0000   0.0000   0.3014
  20.700   0.8589   0.25592   0.25422  -0.0661  0.0046  1.0000  -2.3685   0.0000   0.0000   0.0000   0.3020
  20.800   0.8605   0.25791   0.25622  -0.0668  0.0045  1.0000  -2.3653   0.0000   0.0000   0.0000   0.3025
  20.900   0.8622   0.25990   0.25821  -0.0675  0.0044  1.0000  -2.3629   0.0000   0.0000   0.0000   0.3031
  21.000   0.8638   0.26189   0.26019  -0.0683  0.0043  1.0000  -2.3614   0.0000   0.0000   0.0000   0.3036
  21.100   0.8654   0.26387   0.26218  -0.0690  0.0042  1.0000  -2.3608   0.0000   0.0000   0.0000   0.3041
  21.200   0.8670   0.26585   0.26416  -0.0697  0.0041  1.0000  -2.3609   0.0000   0.0000   0.0000   0.3047
  21.300   0.8686   0.26783   0.26613  -0.0704  0.0040  1.0000  -2.3617   0.0000   0.0000   0.0000   0.3052
  21.400   0.8702   0.26980   0.26811  -0.0711  0.0039  1.0000  -2.3633   0.0000   0.0000   0.0000   0.3057
  21.500   0.8718   0.27177   0.27008  -0.0718  0.0038  1.0000  -2.3656   0.0000   0.0000   0.0000   0.3062
  21.600   0.8734   0.27374   0.27205  -0.0725  0.0038  1.0000  -2.3687   0.0000   0.0000   0.0000   0.3067
  21.700   0.8750   0.27570   0.27402  -0.0733  0.0037  1.0000  -2.3724   0.0000   0.0000   0.0000   0.3072
  21.800   0.8766   0.27767   0.27598  -0.0740  0.0036  1.0000  -2.3768   0.0000   0.0000   0.0000   0.3077
  21.900   0.8781   0.27963   0.27794  -0.0747  0.0036  1.0000  -2.3818   0.0000   0.0000   0.0000   0.3082
  22.000   0.8797   0.28158   0.27990  -0.0753  0.0035  1.0000  -2.3876   0.0000   0.0000   0.0000   0.3086
  22.100   0.8812   0.28354   0.28186  -0.0760  0.0034  1.0000  -2.3939   0.0000   0.0000   0.0000   0.3091
  22.200   0.8827   0.28549   0.28381  -0.0767  0.0034  1.0000  -2.4009   0.0000   0.0000   0.0000   0.3096
  22.300   0.8842   0.28744   0.28576  -0.0774  0.0033  1.0000  -2.4086   0.0000   0.0000   0.0000   0.3100
  22.400   0.8857   0.28939   0.28771  -0.0781  0.0033  1.0000  -2.4168   0.0000   0.0000   0.0000   0.3105
  22.500   0.8871   0.29133   0.28966  -0.0788  0.0032  1.0000  -2.4257   0.0000   0.0000   0.0000   0.3109
  22.600   0.8886   0.29328   0.29160  -0.0794  0.0032  1.0000  -2.4352   0.0000   0.0000   0.0000   0.3114
  22.700   0.8900   0.29522   0.29355  -0.0801  0.0031  1.0000  -2.4452   0.0000   0.0000   0.0000   0.3118
  22.800   0.8914   0.29715   0.29548  -0.0808  0.0031  1.0000  -2.4558   0.0000   0.0000   0.0000   0.3122
  22.900   0.8927   0.29909   0.29742  -0.0814  0.0030  1.0000  -2.4669   0.0000   0.0000   0.0000   0.3126
  23.000   0.8941   0.30102   0.29935  -0.0821  0.0030  1.0000  -2.4786   0.0000   0.0000   0.0000   0.3131
  23.100   0.8954   0.30295   0.30128  -0.0828  0.0030  1.0000  -2.4907   0.0000   0.0000   0.0000   0.3135
  23.200   0.8966   0.30487   0.30321  -0.0834  0.0029  1.0000  -2.5033   0.0000   0.0000   0.0000   0.3139
  23.300   0.8979   0.30679   0.30514  -0.0840  0.0029  1.0000  -2.5163   0.0000   0.0000   0.0000   0.3143
  23.400   0.8991   0.30872   0.30706  -0.0847  0.0028  1.0000  -2.5296   0.0000   0.0000   0.0000   0.3147
  23.500   0.9003   0.31064   0.30899  -0.0853  0.0028  1.0000  -2.5431   0.0000   0.0000   0.0000   0.3151
  23.600   0.9013   0.31263   0.31099  -0.0860  0.0028  1.0000  -2.5507   0.0000   0.0000   0.0000   0.3155
  23.700   0.9023   0.31464   0.31300  -0.0866  0.0027  1.0000  -2.5573   0.0000   0.0000   0.0000   0.3160
  23.800   0.9032   0.31665   0.31501  -0.0873  0.0027  1.0000  -2.5635   0.0000   0.0000   0.0000   0.3164
  23.900   0.9040   0.31867   0.31703  -0.0879  0.0027  1.0000  -2.5691   0.0000   0.0000   0.0000   0.3168
  24.000   0.9048   0.32070   0.31906  -0.0885  0.0026  1.0000  -2.5738   0.0000   0.0000   0.0000   0.3173
  24.100   0.9055   0.32275   0.32112  -0.0892  0.0026  1.0000  -2.5764   0.0000   0.0000   0.0000   0.3177
  24.200   0.9061   0.32481   0.32318  -0.0898  0.0026  1.0000  -2.5775   0.0000   0.0000   0.0000   0.3182
  24.300   0.9065   0.32688   0.32526  -0.0904  0.0025  1.0000  -2.5767   0.0000   0.0000   0.0000   0.3187
  24.400   0.9069   0.32898   0.32736  -0.0910  0.0025  1.0000  -2.5736   0.0000   0.0000   0.0000   0.3191
  24.500   0.9071   0.33110   0.32949  -0.0916  0.0025  1.0000  -2.5674   0.0000   0.0000   0.0000   0.3196
  24.600   0.9072   0.33326   0.33168  -0.0922  0.0025  1.0000  -2.5554   0.0000   0.0000   0.0000   0.3201
  24.700   0.9070   0.33543   0.33386  -0.0928  0.0024  1.0000  -2.5418   0.0000   0.0000   0.0000   0.3206
  24.800   0.9066   0.33766   0.33609  -0.0934  0.0024  1.0000  -2.5220   0.0000   0.0000   0.0000   0.3212
  24.900   0.9058   0.33995   0.33838  -0.0939  0.0024  1.0000  -2.4935   0.0000   0.0000   0.0000   0.3218
  25.000   0.9046   0.34235   0.34079  -0.0945  0.0023  1.0000  -2.4519   0.0000   0.0000   0.0000   0.3224
  25.100   0.9026   0.34493   0.34337  -0.0950  0.0023  1.0000  -2.3882   0.0000   0.0000   0.0000   0.3231
  25.200   0.8988   0.34797   0.34641  -0.0954  0.0022  1.0000  -2.2727   0.0000   0.0000   0.0000   0.3240


