xflr5 v6.61

 Calculated polar for: MH 16

 1 1 Reynolds number fixed          Mach number fixed         

 xtrf =   1.000 (top)        1.000 (bottom)
 Mach =   0.000     Re =     0.625 e 6     Ncrit =   9.000

  alpha     CL        CD       CDp       Cm    Top Xtr Bot Xtr   Cpmin    Chinge    XCp    
 ------- -------- --------- --------- -------- ------- ------- -------- --------- ---------
  -9.700  -0.6154   0.03132   0.02700  -0.0897  0.9476  0.0127  -5.6539   0.0000   0.0000   0.0000   0.0937
  -9.600  -0.6147   0.03087   0.02646  -0.0881  0.9463  0.0126  -5.6168   0.0000   0.0000   0.0000   0.0962
  -9.500  -0.6130   0.03036   0.02587  -0.0867  0.9451  0.0126  -5.5719   0.0000   0.0000   0.0000   0.0983
  -9.400  -0.6107   0.02981   0.02524  -0.0854  0.9440  0.0125  -5.5229   0.0000   0.0000   0.0000   0.0999
  -9.300  -0.6077   0.02922   0.02457  -0.0843  0.9429  0.0125  -5.4714   0.0000   0.0000   0.0000   0.1012
  -9.200  -0.6042   0.02859   0.02385  -0.0832  0.9420  0.0125  -5.4184   0.0000   0.0000   0.0000   0.1022
  -9.100  -0.6002   0.02792   0.02309  -0.0823  0.9411  0.0125  -5.3714   0.0000   0.0000   0.0000   0.1030
  -9.000  -0.5958   0.02721   0.02228  -0.0814  0.9402  0.0125  -5.3348   0.0000   0.0000   0.0000   0.1035
  -8.900  -0.5909   0.02644   0.02141  -0.0806  0.9395  0.0124  -5.2992   0.0000   0.0000   0.0000   0.1039
  -8.800  -0.5856   0.02561   0.02048  -0.0798  0.9387  0.0124  -5.2652   0.0000   0.0000   0.0000   0.1039
  -8.700  -0.5797   0.02472   0.01947  -0.0792  0.9381  0.0125  -5.2333   0.0000   0.0000   0.0000   0.1037
  -8.600  -0.5731   0.02371   0.01835  -0.0787  0.9374  0.0125  -5.2064   0.0000   0.0000   0.0000   0.1031
  -8.500  -0.5656   0.02236   0.01687  -0.0785  0.9369  0.0127  -5.1919   0.0000   0.0000   0.0000   0.1016
  -8.400  -0.5567   0.02138   0.01583  -0.0785  0.9365  0.0129  -5.1320   0.0000   0.0000   0.0000   0.0994
  -8.300  -0.5478   0.02082   0.01524  -0.0784  0.9360  0.0131  -5.0403   0.0000   0.0000   0.0000   0.0974
  -8.200  -0.5391   0.02042   0.01481  -0.0782  0.9355  0.0133  -4.9410   0.0000   0.0000   0.0000   0.0955
  -8.100  -0.5302   0.02006   0.01441  -0.0780  0.9349  0.0135  -4.8442   0.0000   0.0000   0.0000   0.0935
  -8.000  -0.5210   0.01967   0.01398  -0.0778  0.9344  0.0137  -4.7525   0.0000   0.0000   0.0000   0.0912
  -7.900  -0.5113   0.01925   0.01351  -0.0778  0.9339  0.0139  -4.6656   0.0000   0.0000   0.0000   0.0885
  -7.800  -0.5012   0.01883   0.01305  -0.0777  0.9334  0.0140  -4.5782   0.0000   0.0000   0.0000   0.0856
  -7.700  -0.4911   0.01842   0.01261  -0.0777  0.9328  0.0142  -4.4897   0.0000   0.0000   0.0000   0.0824
  -7.600  -0.4811   0.01804   0.01219  -0.0777  0.9322  0.0144  -4.4008   0.0000   0.0000   0.0000   0.0792
  -7.500  -0.4712   0.01768   0.01179  -0.0776  0.9316  0.0146  -4.3123   0.0000   0.0000   0.0000   0.0760
  -7.400  -0.4617   0.01734   0.01141  -0.0774  0.9309  0.0148  -4.2248   0.0000   0.0000   0.0000   0.0730
  -7.300  -0.4527   0.01704   0.01108  -0.0772  0.9301  0.0150  -4.1393   0.0000   0.0000   0.0000   0.0703
  -7.200  -0.4445   0.01678   0.01079  -0.0767  0.9292  0.0152  -4.0565   0.0000   0.0000   0.0000   0.0681
  -7.100  -0.4370   0.01658   0.01056  -0.0761  0.9281  0.0154  -3.9768   0.0000   0.0000   0.0000   0.0666
  -7.000  -0.4315   0.01649   0.01044  -0.0752  0.9265  0.0156  -3.9050   0.0000   0.0000   0.0000   0.0667
  -6.900  -0.4309   0.01657   0.01050  -0.0731  0.9243  0.0157  -3.8541   0.0000   0.0000   0.0000   0.0713
  -6.800  -0.4254   0.01639   0.01029  -0.0721  0.9238  0.0159  -3.7812   0.0000   0.0000   0.0000   0.0717
  -6.700  -0.4200   0.01622   0.01010  -0.0710  0.9232  0.0161  -3.7080   0.0000   0.0000   0.0000   0.0722
  -6.600  -0.4146   0.01608   0.00993  -0.0699  0.9226  0.0163  -3.6337   0.0000   0.0000   0.0000   0.0727
  -6.500  -0.4088   0.01597   0.00979  -0.0689  0.9218  0.0164  -3.5549   0.0000   0.0000   0.0000   0.0729
  -6.400  -0.4060   0.01562   0.00942  -0.0673  0.9207  0.0167  -3.5046   0.0000   0.0000   0.0000   0.0757
  -6.300  -0.4042   0.01526   0.00903  -0.0655  0.9193  0.0172  -3.4581   0.0000   0.0000   0.0000   0.0795
  -6.200  -0.4002   0.01505   0.00881  -0.0641  0.9181  0.0176  -3.3966   0.0000   0.0000   0.0000   0.0814
  -6.100  -0.3954   0.01491   0.00866  -0.0630  0.9170  0.0180  -3.3307   0.0000   0.0000   0.0000   0.0825
  -6.000  -0.3899   0.01478   0.00852  -0.0619  0.9159  0.0184  -3.2628   0.0000   0.0000   0.0000   0.0831
  -5.900  -0.3841   0.01466   0.00838  -0.0609  0.9148  0.0189  -3.1956   0.0000   0.0000   0.0000   0.0833
  -5.800  -0.3777   0.01452   0.00823  -0.0600  0.9137  0.0193  -3.1287   0.0000   0.0000   0.0000   0.0831
  -5.700  -0.3710   0.01438   0.00806  -0.0591  0.9126  0.0197  -3.0617   0.0000   0.0000   0.0000   0.0826
  -5.600  -0.3637   0.01423   0.00790  -0.0584  0.9115  0.0202  -2.9929   0.0000   0.0000   0.0000   0.0815
  -5.500  -0.3558   0.01409   0.00773  -0.0578  0.9105  0.0207  -2.9212   0.0000   0.0000   0.0000   0.0796
  -5.400  -0.3473   0.01396   0.00758  -0.0573  0.9096  0.0211  -2.8464   0.0000   0.0000   0.0000   0.0771
  -5.300  -0.3400   0.01375   0.00734  -0.0566  0.9086  0.0217  -2.7829   0.0000   0.0000   0.0000   0.0757
  -5.200  -0.3330   0.01350   0.00708  -0.0558  0.9077  0.0228  -2.7210   0.0000   0.0000   0.0000   0.0747
  -5.100  -0.3244   0.01334   0.00691  -0.0553  0.9069  0.0238  -2.6443   0.0000   0.0000   0.0000   0.0715
  -5.000  -0.3149   0.01320   0.00676  -0.0550  0.9062  0.0249  -2.5646   0.0000   0.0000   0.0000   0.0673
  -4.900  -0.3048   0.01307   0.00661  -0.0549  0.9055  0.0263  -2.4827   0.0000   0.0000   0.0000   0.0621
  -4.800  -0.2950   0.01288   0.00640  -0.0546  0.9048  0.0283  -2.4073   0.0000   0.0000   0.0000   0.0569
  -4.700  -0.2849   0.01269   0.00622  -0.0545  0.9041  0.0310  -2.3273   0.0000   0.0000   0.0000   0.0507
  -4.600  -0.2742   0.01251   0.00603  -0.0544  0.9034  0.0348  -2.2492   0.0000   0.0000   0.0000   0.0434
  -4.500  -0.2644   0.01225   0.00582  -0.0542  0.9027  0.0440  -2.1761   0.0000   0.0000   0.0000   0.0368
  -4.400  -0.2576   0.01178   0.00557  -0.0535  0.9019  0.0869  -2.1138   0.0000   0.0000   0.0000   0.0341
  -4.300  -0.2500   0.01137   0.00540  -0.0530  0.9011  0.1378  -2.0437   0.0000   0.0000   0.0000   0.0296
  -4.200  -0.2400   0.01112   0.00527  -0.0529  0.9004  0.1675  -1.9709   0.0000   0.0000   0.0000   0.0211
  -4.100  -0.2296   0.01091   0.00516  -0.0529  0.8997  0.1917  -1.8968   0.0000   0.0000   0.0000   0.0111
  -4.000  -0.2189   0.01074   0.00505  -0.0529  0.8990  0.2133  -1.8218   0.0000   0.0000   0.0000  -0.0002
  -3.900  -0.2084   0.01058   0.00496  -0.0529  0.8982  0.2336  -1.7475   0.0000   0.0000   0.0000  -0.0126
  -3.800  -0.1983   0.01044   0.00489  -0.0528  0.8974  0.2538  -1.6753   0.0000   0.0000   0.0000  -0.0251
  -3.700  -0.1887   0.01032   0.00484  -0.0526  0.8964  0.2742  -1.6057   0.0000   0.0000   0.0000  -0.0375
  -3.600  -0.1807   0.01029   0.00489  -0.0520  0.8948  0.2945  -1.5416   0.0000   0.0000   0.0000  -0.0471
  -3.500  -0.1755   0.01029   0.00496  -0.0509  0.8932  0.3154  -1.4876   0.0000   0.0000   0.0000  -0.0490
  -3.400  -0.1695   0.01011   0.00488  -0.0499  0.8924  0.3414  -1.4311   0.0000   0.0000   0.0000  -0.0536
  -3.300  -0.1641   0.00993   0.00481  -0.0488  0.8914  0.3712  -1.3771   0.0000   0.0000   0.0000  -0.0566
  -3.200  -0.1598   0.00975   0.00476  -0.0475  0.8901  0.4052  -1.3270   0.0000   0.0000   0.0000  -0.0562
  -3.100  -0.1564   0.00955   0.00471  -0.0460  0.8887  0.4453  -1.2802   0.0000   0.0000   0.0000  -0.0528
  -3.000  -0.1535   0.00935   0.00467  -0.0443  0.8871  0.4882  -1.2351   0.0000   0.0000   0.0000  -0.0476
  -2.900  -0.1505   0.00915   0.00463  -0.0427  0.8854  0.5308  -1.1901   0.0000   0.0000   0.0000  -0.0421
  -2.800  -0.1475   0.00897   0.00460  -0.0410  0.8837  0.5704  -1.1454   0.0000   0.0000   0.0000  -0.0362
  -2.700  -0.1432   0.00880   0.00457  -0.0395  0.8821  0.6078  -1.0972   0.0000   0.0000   0.0000  -0.0341
  -2.600  -0.1383   0.00863   0.00453  -0.0381  0.8807  0.6414  -1.0476   0.0000   0.0000   0.0000  -0.0340
  -2.500  -0.1319   0.00848   0.00449  -0.0371  0.8795  0.6715  -0.9971   0.0000   0.0000   0.0000  -0.0397
  -2.400  -0.1240   0.00835   0.00444  -0.0364  0.8784  0.6958  -0.9464   0.0000   0.0000   0.0000  -0.0518
  -2.300  -0.1146   0.00825   0.00439  -0.0359  0.8775  0.7142  -0.8927   0.0000   0.0000   0.0000  -0.0724
  -2.200  -0.1049   0.00816   0.00435  -0.0356  0.8766  0.7315  -0.8387   0.0000   0.0000   0.0000  -0.0986
  -2.100  -0.0948   0.00807   0.00431  -0.0353  0.8758  0.7476  -0.7846   0.0000   0.0000   0.0000  -0.1322
  -2.000  -0.0840   0.00799   0.00426  -0.0352  0.8751  0.7633  -0.7295   0.0000   0.0000   0.0000  -0.1794
  -1.900  -0.0726   0.00791   0.00423  -0.0352  0.8744  0.7788  -0.6738   0.0000   0.0000   0.0000  -0.2461
  -1.800  -0.0605   0.00784   0.00420  -0.0354  0.8738  0.7924  -0.6171   0.0000   0.0000   0.0000  -0.3477
  -1.700  -0.0479   0.00777   0.00417  -0.0356  0.8732  0.8062  -0.5625   0.0000   0.0000   0.0000  -0.5088
  -1.600  -0.0347   0.00772   0.00414  -0.0360  0.8727  0.8182  -0.5123   0.0000   0.0000   0.0000  -0.8064
  -1.500  -0.0211   0.00768   0.00413  -0.0365  0.8721  0.8299  -0.4619   0.0000   0.0000   0.0000  -1.5083
  -1.400  -0.0085   0.00764   0.00409  -0.0368  0.8715  0.8396  -0.4430   0.0000   0.0000   0.0000  -4.1410
  -1.300   0.0071   0.00762   0.00410  -0.0377  0.8711  0.8480  -0.4251   0.0000   0.0000   0.0000   5.6395
  -1.200   0.0210   0.00761   0.00409  -0.0383  0.8706  0.8565  -0.4091   0.0000   0.0000   0.0000   2.0941
  -1.100   0.0326   0.00758   0.00406  -0.0383  0.8699  0.8641  -0.3947   0.0000   0.0000   0.0000   1.4394
  -1.000   0.0485   0.00758   0.00406  -0.0393  0.8694  0.8695  -0.3775   0.0000   0.0000   0.0000   1.0688
  -0.900   0.0652   0.00758   0.00408  -0.0405  0.8689  0.8744  -0.3801   0.0000   0.0000   0.0000   0.8770
  -0.800   0.0805   0.00760   0.00409  -0.0414  0.8682  0.8794  -0.3869   0.0000   0.0000   0.0000   0.7681
  -0.700   0.0934   0.00762   0.00410  -0.0417  0.8673  0.8846  -0.3928   0.0000   0.0000   0.0000   0.6997
  -0.600   0.1019   0.00772   0.00419  -0.0411  0.8655  0.8901  -0.3969   0.0000   0.0000   0.0000   0.6559
  -0.500   0.1101   0.00772   0.00419  -0.0405  0.8645  0.8948  -0.4008   0.0000   0.0000   0.0000   0.6195
  -0.400   0.1265   0.00774   0.00421  -0.0416  0.8639  0.8975  -0.4082   0.0000   0.0000   0.0000   0.5803
  -0.300   0.1428   0.00776   0.00424  -0.0428  0.8633  0.9000  -0.4155   0.0000   0.0000   0.0000   0.5503
  -0.200   0.1585   0.00778   0.00427  -0.0438  0.8625  0.9023  -0.4226   0.0000   0.0000   0.0000   0.5265
  -0.100   0.1731   0.00781   0.00430  -0.0445  0.8615  0.9047  -0.4292   0.0000   0.0000   0.0000   0.5072
   0.000   0.1864   0.00784   0.00433  -0.0450  0.8603  0.9073  -0.4354   0.0000   0.0000   0.0000   0.4910
   0.100   0.1996   0.00787   0.00436  -0.0454  0.8590  0.9099  -0.4417   0.0000   0.0000   0.0000   0.4770
   0.200   0.2123   0.00789   0.00439  -0.0457  0.8577  0.9126  -0.4479   0.0000   0.0000   0.0000   0.4646
   0.300   0.2239   0.00791   0.00442  -0.0458  0.8563  0.9156  -0.4536   0.0000   0.0000   0.0000   0.4535
   0.400   0.2314   0.00793   0.00443  -0.0449  0.8546  0.9195  -0.4576   0.0000   0.0000   0.0000   0.4429
   0.500   0.2294   0.00791   0.00441  -0.0418  0.8522  0.9247  -0.4576   0.0000   0.0000   0.0000   0.4310
   0.600   0.2512   0.00791   0.00440  -0.0440  0.8512  0.9265  -0.4705   0.0000   0.0000   0.0000   0.4239
   0.700   0.2754   0.00788   0.00437  -0.0467  0.8500  0.9277  -0.4901   0.0000   0.0000   0.0000   0.4181
   0.800   0.2987   0.00783   0.00432  -0.0491  0.8483  0.9286  -0.5093   0.0000   0.0000   0.0000   0.4129
   0.900   0.3203   0.00776   0.00424  -0.0512  0.8465  0.9293  -0.5286   0.0000   0.0000   0.0000   0.4083
   1.000   0.3394   0.00768   0.00414  -0.0528  0.8445  0.9298  -0.5464   0.0000   0.0000   0.0000   0.4039
   1.100   0.3570   0.00760   0.00405  -0.0541  0.8425  0.9303  -0.5633   0.0000   0.0000   0.0000   0.3997
   1.200   0.3745   0.00756   0.00399  -0.0554  0.8401  0.9307  -0.5802   0.0000   0.0000   0.0000   0.3961
   1.300   0.3901   0.00755   0.00398  -0.0563  0.8377  0.9313  -0.5966   0.0000   0.0000   0.0000   0.3925
   1.400   0.4041   0.00755   0.00400  -0.0570  0.8353  0.9320  -0.6122   0.0000   0.0000   0.0000   0.3889
   1.500   0.4185   0.00756   0.00402  -0.0577  0.8328  0.9327  -0.6281   0.0000   0.0000   0.0000   0.3857
   1.600   0.4330   0.00756   0.00404  -0.0584  0.8303  0.9335  -0.6442   0.0000   0.0000   0.0000   0.3826
   1.700   0.4477   0.00756   0.00404  -0.0592  0.8278  0.9342  -0.6604   0.0000   0.0000   0.0000   0.3798
   1.800   0.4623   0.00756   0.00404  -0.0599  0.8252  0.9349  -0.6773   0.0000   0.0000   0.0000   0.3772
   1.900   0.4770   0.00754   0.00403  -0.0607  0.8226  0.9357  -0.6948   0.0000   0.0000   0.0000   0.3747
   2.000   0.4918   0.00752   0.00402  -0.0615  0.8201  0.9364  -0.7124   0.0000   0.0000   0.0000   0.3724
   2.100   0.5069   0.00750   0.00400  -0.0623  0.8175  0.9371  -0.7303   0.0000   0.0000   0.0000   0.3703
   2.200   0.5222   0.00747   0.00396  -0.0632  0.8148  0.9379  -0.7484   0.0000   0.0000   0.0000   0.3683
   2.300   0.5361   0.00748   0.00397  -0.0638  0.8117  0.9388  -0.7663   0.0000   0.0000   0.0000   0.3662
   2.400   0.5475   0.00752   0.00404  -0.0639  0.8077  0.9401  -0.7827   0.0000   0.0000   0.0000   0.3638
   2.500   0.5592   0.00754   0.00408  -0.0640  0.8033  0.9415  -0.8170   0.0000   0.0000   0.0000   0.3615
   2.600   0.5714   0.00755   0.00410  -0.0642  0.7986  0.9429  -0.8717   0.0000   0.0000   0.0000   0.3593
   2.700   0.5838   0.00754   0.00409  -0.0645  0.7938  0.9442  -0.9302   0.0000   0.0000   0.0000   0.3573
   2.800   0.5967   0.00753   0.00406  -0.0648  0.7888  0.9455  -0.9906   0.0000   0.0000   0.0000   0.3554
   2.900   0.6064   0.00757   0.00411  -0.0645  0.7831  0.9475  -1.0436   0.0000   0.0000   0.0000   0.3530
   3.000   0.6145   0.00761   0.00417  -0.0638  0.7761  0.9498  -1.0936   0.0000   0.0000   0.0000   0.3504
   3.100   0.6218   0.00766   0.00420  -0.0629  0.7684  0.9523  -1.1421   0.0000   0.0000   0.0000   0.3477
   3.200   0.6268   0.00773   0.00424  -0.0615  0.7610  0.9551  -1.1853   0.0000   0.0000   0.0000   0.3445
   3.300   0.6251   0.00792   0.00443  -0.0586  0.7524  0.9584  -1.2113   0.0000   0.0000   0.0000   0.3401
   3.400   0.6309   0.00803   0.00449  -0.0574  0.7399  0.9598  -1.2603   0.0000   0.0000   0.0000   0.3372
   3.500   0.6435   0.00799   0.00438  -0.0577  0.7202  0.9608  -1.3323   0.0000   0.0000   0.0000   0.3358
   3.600   0.6547   0.00805   0.00432  -0.0577  0.6939  0.9617  -1.4015   0.0000   0.0000   0.0000   0.3342
   3.700   0.6645   0.00819   0.00432  -0.0574  0.6647  0.9627  -1.4671   0.0000   0.0000   0.0000   0.3324
   3.800   0.6735   0.00836   0.00436  -0.0571  0.6365  0.9637  -1.5311   0.0000   0.0000   0.0000   0.3306
   3.900   0.6820   0.00856   0.00444  -0.0566  0.6090  0.9648  -1.5939   0.0000   0.0000   0.0000   0.3288
   4.100   0.6976   0.00900   0.00462  -0.0555  0.5518  0.9674  -1.7173   0.0000   0.0000   0.0000   0.3251
   4.200   0.7039   0.00925   0.00473  -0.0546  0.5182  0.9689  -1.7751   0.0000   0.0000   0.0000   0.3231
   4.300   0.7083   0.00952   0.00485  -0.0534  0.4846  0.9709  -1.8269   0.0000   0.0000   0.0000   0.3208
   4.400   0.7117   0.00978   0.00496  -0.0520  0.4486  0.9730  -1.8759   0.0000   0.0000   0.0000   0.3184
   4.500   0.7155   0.01008   0.00509  -0.0507  0.4099  0.9753  -1.9260   0.0000   0.0000   0.0000   0.3161
   4.600   0.7200   0.01041   0.00523  -0.0496  0.3701  0.9775  -1.9791   0.0000   0.0000   0.0000   0.3141
   4.700   0.7254   0.01075   0.00538  -0.0488  0.3325  0.9795  -2.0351   0.0000   0.0000   0.0000   0.3123
   4.800   0.7321   0.01103   0.00553  -0.0481  0.2996  0.9814  -2.0977   0.0000   0.0000   0.0000   0.3107
   5.000   0.7474   0.01154   0.00579  -0.0473  0.2489  0.9848  -2.2422   0.0000   0.0000   0.0000   0.3080
   5.100   0.7560   0.01175   0.00591  -0.0470  0.2282  0.9864  -2.3190   0.0000   0.0000   0.0000   0.3069
   5.200   0.7647   0.01195   0.00602  -0.0468  0.2089  0.9879  -2.3965   0.0000   0.0000   0.0000   0.3058
   5.300   0.7732   0.01217   0.00615  -0.0465  0.1890  0.9893  -2.4738   0.0000   0.0000   0.0000   0.3047
   5.400   0.7812   0.01242   0.00628  -0.0462  0.1665  0.9907  -2.5489   0.0000   0.0000   0.0000   0.3035
   5.500   0.7884   0.01273   0.00644  -0.0457  0.1372  0.9922  -2.6205   0.0000   0.0000   0.0000   0.3023
   5.600   0.7930   0.01322   0.00667  -0.0448  0.0913  0.9937  -2.6799   0.0000   0.0000   0.0000   0.3007
   5.700   0.7962   0.01381   0.00700  -0.0437  0.0482  0.9951  -2.7316   0.0000   0.0000   0.0000   0.2990
   5.800   0.8041   0.01412   0.00723  -0.0433  0.0363  0.9961  -2.8010   0.0000   0.0000   0.0000   0.2979
   5.900   0.8136   0.01433   0.00744  -0.0432  0.0315  0.9970  -2.8766   0.0000   0.0000   0.0000   0.2970
   6.000   0.8232   0.01454   0.00763  -0.0431  0.0286  0.9977  -2.9556   0.0000   0.0000   0.0000   0.2962
   6.100   0.8327   0.01476   0.00786  -0.0430  0.0265  0.9984  -3.0299   0.0000   0.0000   0.0000   0.2953
   6.200   0.8432   0.01491   0.00803  -0.0430  0.0252  0.9990  -3.1129   0.0000   0.0000   0.0000   0.2946
   6.300   0.8537   0.01507   0.00821  -0.0431  0.0239  0.9996  -3.1977   0.0000   0.0000   0.0000   0.2940
   6.400   0.8626   0.01527   0.00841  -0.0428  0.0228  1.0000  -3.2870   0.0000   0.0000   0.0000   0.2931
   6.500   0.8646   0.01548   0.00863  -0.0412  0.0220  1.0000  -3.3421   0.0000   0.0000   0.0000   0.2909
   6.600   0.8654   0.01575   0.00893  -0.0393  0.0213  1.0000  -3.3866   0.0000   0.0000   0.0000   0.2886
   6.700   0.8693   0.01586   0.00906  -0.0380  0.0210  1.0000  -3.4550   0.0000   0.0000   0.0000   0.2868
   6.800   0.8726   0.01599   0.00920  -0.0366  0.0206  1.0000  -3.5207   0.0000   0.0000   0.0000   0.2849
   6.900   0.8755   0.01613   0.00936  -0.0351  0.0201  1.0000  -3.5852   0.0000   0.0000   0.0000   0.2830
   7.000   0.8784   0.01627   0.00952  -0.0336  0.0197  1.0000  -3.6497   0.0000   0.0000   0.0000   0.2811
   7.100   0.8813   0.01642   0.00969  -0.0322  0.0192  1.0000  -3.7157   0.0000   0.0000   0.0000   0.2792
   7.200   0.8844   0.01657   0.00986  -0.0308  0.0188  1.0000  -3.7831   0.0000   0.0000   0.0000   0.2774
   7.300   0.8874   0.01674   0.01004  -0.0294  0.0183  1.0000  -3.8511   0.0000   0.0000   0.0000   0.2755
   7.400   0.8903   0.01692   0.01023  -0.0279  0.0179  1.0000  -3.9180   0.0000   0.0000   0.0000   0.2737
   7.500   0.8926   0.01713   0.01045  -0.0264  0.0176  1.0000  -3.9807   0.0000   0.0000   0.0000   0.2718
   7.600   0.8941   0.01739   0.01073  -0.0248  0.0172  1.0000  -4.0367   0.0000   0.0000   0.0000   0.2698
   7.700   0.8944   0.01772   0.01108  -0.0229  0.0169  1.0000  -4.0823   0.0000   0.0000   0.0000   0.2676
   7.800   0.8931   0.01814   0.01154  -0.0208  0.0166  1.0000  -4.1133   0.0000   0.0000   0.0000   0.2651
   7.900   0.8946   0.01842   0.01183  -0.0192  0.0164  1.0000  -4.1668   0.0000   0.0000   0.0000   0.2632
   8.000   0.8980   0.01859   0.01204  -0.0178  0.0163  1.0000  -4.2342   0.0000   0.0000   0.0000   0.2615
   8.100   0.9011   0.01879   0.01226  -0.0165  0.0161  1.0000  -4.3000   0.0000   0.0000   0.0000   0.2598
   8.200   0.9042   0.01901   0.01250  -0.0152  0.0159  1.0000  -4.3649   0.0000   0.0000   0.0000   0.2582
   8.300   0.9072   0.01923   0.01275  -0.0138  0.0157  1.0000  -4.4291   0.0000   0.0000   0.0000   0.2565
   8.400   0.9103   0.01947   0.01301  -0.0125  0.0155  1.0000  -4.4930   0.0000   0.0000   0.0000   0.2549
   8.500   0.9133   0.01972   0.01328  -0.0112  0.0153  1.0000  -4.5567   0.0000   0.0000   0.0000   0.2533
   8.600   0.9164   0.01998   0.01357  -0.0099  0.0151  1.0000  -4.6205   0.0000   0.0000   0.0000   0.2517
   8.700   0.9196   0.02024   0.01385  -0.0086  0.0149  1.0000  -4.6850   0.0000   0.0000   0.0000   0.2501
   8.800   0.9229   0.02050   0.01413  -0.0073  0.0147  1.0000  -4.7514   0.0000   0.0000   0.0000   0.2486
   8.900   0.9264   0.02075   0.01442  -0.0061  0.0145  1.0000  -4.8199   0.0000   0.0000   0.0000   0.2472
   9.000   0.9298   0.02101   0.01469  -0.0049  0.0143  1.0000  -4.8900   0.0000   0.0000   0.0000   0.2457
   9.100   0.9332   0.02126   0.01496  -0.0037  0.0141  1.0000  -4.9643   0.0000   0.0000   0.0000   0.2443
   9.200   0.9366   0.02151   0.01523  -0.0026  0.0138  1.0000  -5.0469   0.0000   0.0000   0.0000   0.2429
   9.300   0.9400   0.02177   0.01551  -0.0014  0.0136  1.0000  -5.1309   0.0000   0.0000   0.0000   0.2416
   9.400   0.9433   0.02205   0.01580  -0.0003  0.0134  1.0000  -5.2150   0.0000   0.0000   0.0000   0.2402
   9.500   0.9465   0.02237   0.01612   0.0009  0.0132  1.0000  -5.2971   0.0000   0.0000   0.0000   0.2389
   9.600   0.9495   0.02276   0.01652   0.0021  0.0130  1.0000  -5.3739   0.0000   0.0000   0.0000   0.2375
   9.700   0.9524   0.02327   0.01705   0.0032  0.0128  1.0000  -5.4412   0.0000   0.0000   0.0000   0.2361
   9.800   0.9564   0.02402   0.01783   0.0042  0.0125  1.0000  -5.4972   0.0000   0.0000   0.0000   0.2350
   9.900   0.9636   0.02485   0.01871   0.0047  0.0123  1.0000  -5.5611   0.0000   0.0000   0.0000   0.2344
  10.000   0.9678   0.02512   0.01901   0.0057  0.0123  1.0000  -5.6448   0.0000   0.0000   0.0000   0.2333
  10.100   0.9721   0.02541   0.01935   0.0067  0.0122  1.0000  -5.7281   0.0000   0.0000   0.0000   0.2322
  10.200   0.9767   0.02573   0.01971   0.0077  0.0121  1.0000  -5.8108   0.0000   0.0000   0.0000   0.2311
  10.300   0.9814   0.02609   0.02011   0.0086  0.0120  1.0000  -5.8926   0.0000   0.0000   0.0000   0.2301
  10.400   0.9863   0.02647   0.02054   0.0095  0.0119  1.0000  -5.9732   0.0000   0.0000   0.0000   0.2291
  10.500   0.9911   0.02688   0.02100   0.0103  0.0118  1.0000  -6.0526   0.0000   0.0000   0.0000   0.2282
  10.600   0.9960   0.02732   0.02149   0.0112  0.0117  1.0000  -6.1306   0.0000   0.0000   0.0000   0.2272
  10.700   1.0009   0.02778   0.02200   0.0120  0.0116  1.0000  -6.2068   0.0000   0.0000   0.0000   0.2263
  10.800   1.0057   0.02827   0.02255   0.0128  0.0115  1.0000  -6.2812   0.0000   0.0000   0.0000   0.2254
  10.900   1.0104   0.02879   0.02313   0.0137  0.0114  1.0000  -6.3532   0.0000   0.0000   0.0000   0.2245
  11.000   1.0150   0.02934   0.02373   0.0145  0.0113  1.0000  -6.4225   0.0000   0.0000   0.0000   0.2236
  11.100   1.0192   0.02991   0.02437   0.0154  0.0112  1.0000  -6.4888   0.0000   0.0000   0.0000   0.2227
  11.200   1.0232   0.03052   0.02505   0.0163  0.0111  1.0000  -6.5514   0.0000   0.0000   0.0000   0.2217
  11.300   1.0268   0.03113   0.02573   0.0173  0.0110  1.0000  -6.6121   0.0000   0.0000   0.0000   0.2207
  11.400   1.0298   0.03173   0.02640   0.0183  0.0109  1.0000  -6.6720   0.0000   0.0000   0.0000   0.2197
  11.500   1.0322   0.03233   0.02706   0.0193  0.0108  1.0000  -6.7311   0.0000   0.0000   0.0000   0.2186
  11.600   1.0341   0.03292   0.02771   0.0204  0.0107  1.0000  -6.7900   0.0000   0.0000   0.0000   0.2174
  11.700   1.0357   0.03350   0.02835   0.0215  0.0106  1.0000  -6.8499   0.0000   0.0000   0.0000   0.2162
  11.800   1.0370   0.03407   0.02897   0.0226  0.0105  1.0000  -6.9116   0.0000   0.0000   0.0000   0.2151
  11.900   1.0383   0.03462   0.02958   0.0237  0.0104  1.0000  -6.9760   0.0000   0.0000   0.0000   0.2139
  12.000   1.0395   0.03516   0.03017   0.0247  0.0103  1.0000  -7.0437   0.0000   0.0000   0.0000   0.2128
  12.100   1.0408   0.03569   0.03074   0.0257  0.0102  1.0000  -7.1148   0.0000   0.0000   0.0000   0.2117
  12.200   1.0420   0.03621   0.03129   0.0267  0.0101  1.0000  -7.1885   0.0000   0.0000   0.0000   0.2106
  12.300   1.0429   0.03673   0.03186   0.0277  0.0100  1.0000  -7.2626   0.0000   0.0000   0.0000   0.2095
  12.400   1.0430   0.03733   0.03250   0.0288  0.0099  1.0000  -7.3250   0.0000   0.0000   0.0000   0.2083
  12.500   1.0428   0.03796   0.03319   0.0298  0.0098  1.0000  -7.3839   0.0000   0.0000   0.0000   0.2071
  12.600   1.0426   0.03864   0.03391   0.0308  0.0098  1.0000  -7.4395   0.0000   0.0000   0.0000   0.2060
  12.700   1.0420   0.03938   0.03471   0.0319  0.0097  1.0000  -7.4880   0.0000   0.0000   0.0000   0.2048
  12.800   1.0406   0.04018   0.03558   0.0329  0.0097  1.0000  -7.5277   0.0000   0.0000   0.0000   0.2036
  12.900   1.0389   0.04103   0.03648   0.0340  0.0096  1.0000  -7.5634   0.0000   0.0000   0.0000   0.2024
  13.000   1.0369   0.04191   0.03743   0.0350  0.0096  1.0000  -7.5960   0.0000   0.0000   0.0000   0.2011
  13.100   1.0348   0.04284   0.03842   0.0360  0.0095  1.0000  -7.6248   0.0000   0.0000   0.0000   0.1999
  13.200   1.0319   0.04382   0.03947   0.0370  0.0095  1.0000  -7.6481   0.0000   0.0000   0.0000   0.1987
  13.300   1.0285   0.04485   0.04057   0.0380  0.0095  1.0000  -7.6716   0.0000   0.0000   0.0000   0.1974
  13.400   1.0247   0.04592   0.04172   0.0389  0.0095  1.0000  -7.6908   0.0000   0.0000   0.0000   0.1962
  13.500   1.0206   0.04705   0.04292   0.0398  0.0095  1.0000  -7.7047   0.0000   0.0000   0.0000   0.1950
  13.600   1.0158   0.04823   0.04418   0.0407  0.0094  1.0000  -7.7112   0.0000   0.0000   0.0000   0.1937
  13.700   1.0107   0.04948   0.04550   0.0415  0.0094  1.0000  -7.7138   0.0000   0.0000   0.0000   0.1926
  13.800   1.0051   0.05078   0.04689   0.0423  0.0094  1.0000  -7.7100   0.0000   0.0000   0.0000   0.1914
  13.900   0.9990   0.05217   0.04835   0.0430  0.0094  1.0000  -7.6993   0.0000   0.0000   0.0000   0.1902
  14.000   0.9925   0.05364   0.04991   0.0436  0.0095  1.0000  -7.6817   0.0000   0.0000   0.0000   0.1891
  14.100   0.9850   0.05522   0.05158   0.0441  0.0095  1.0000  -7.6518   0.0000   0.0000   0.0000   0.1881
  14.200   0.9764   0.05699   0.05345   0.0445  0.0095  1.0000  -7.6029   0.0000   0.0000   0.0000   0.1870
  14.300   0.9641   0.05930   0.05589   0.0448  0.0096  1.0000  -7.4937   0.0000   0.0000   0.0000   0.1859
  14.400   0.8841   0.07138   0.06859   0.0433  0.0108  1.0000  -6.3830   0.0000   0.0000   0.0000   0.1830
  14.500   0.8734   0.07398   0.07125   0.0425  0.0109  1.0000  -6.3089   0.0000   0.0000   0.0000   0.1832
  14.600   0.8630   0.07665   0.07399   0.0414  0.0109  1.0000  -6.2374   0.0000   0.0000   0.0000   0.1836
  14.700   0.8528   0.07942   0.07683   0.0402  0.0110  1.0000  -6.1662   0.0000   0.0000   0.0000   0.1842
  14.800   0.8428   0.08231   0.07978   0.0388  0.0111  1.0000  -6.0938   0.0000   0.0000   0.0000   0.1851
  14.900   0.8329   0.08533   0.08285   0.0371  0.0111  1.0000  -6.0188   0.0000   0.0000   0.0000   0.1862
  15.000   0.8230   0.08849   0.08607   0.0354  0.0112  1.0000  -5.9395   0.0000   0.0000   0.0000   0.1876
  15.100   0.8130   0.09182   0.08945   0.0334  0.0112  1.0000  -5.8545   0.0000   0.0000   0.0000   0.1894
  15.200   0.8030   0.09537   0.09305   0.0312  0.0113  1.0000  -5.7612   0.0000   0.0000   0.0000   0.1914
  15.300   0.7927   0.09916   0.09689   0.0288  0.0114  1.0000  -5.6570   0.0000   0.0000   0.0000   0.1937
  15.400   0.7821   0.10325   0.10104   0.0261  0.0114  1.0000  -5.5377   0.0000   0.0000   0.0000   0.1964
  15.500   0.7710   0.10771   0.10554   0.0233  0.0115  1.0000  -5.3980   0.0000   0.0000   0.0000   0.1995
  15.600   0.7591   0.11258   0.11044   0.0203  0.0116  1.0000  -5.2313   0.0000   0.0000   0.0000   0.2029
  15.700   0.7464   0.11778   0.11568   0.0172  0.0118  1.0000  -5.0361   0.0000   0.0000   0.0000   0.2065
  15.800   0.7346   0.12269   0.12060   0.0145  0.0120  1.0000  -4.8444   0.0000   0.0000   0.0000   0.2097
  15.900   0.6758   0.13292   0.13088   0.0147  0.0121  1.0000  -4.4864   0.0000   0.0000   0.0000   0.2088
  16.000   0.6854   0.13213   0.13011   0.0157  0.0129  1.0000  -4.6081   0.0000   0.0000   0.0000   0.2074
  16.100   0.6828   0.13385   0.13182   0.0151  0.0128  1.0000  -4.6248   0.0000   0.0000   0.0000   0.2081
  16.200   0.5846   0.16185   0.15981   0.0061  0.0175  1.0000  -2.5315   0.0000   0.0000   0.0000   0.2223
  16.300   0.5832   0.16304   0.16100   0.0058  0.0174  1.0000  -2.5347   0.0000   0.0000   0.0000   0.2227
  16.400   0.5821   0.16412   0.16208   0.0056  0.0173  1.0000  -2.5435   0.0000   0.0000   0.0000   0.2230
  16.500   0.5811   0.16511   0.16307   0.0054  0.0172  1.0000  -2.5563   0.0000   0.0000   0.0000   0.2232
  16.600   0.5799   0.16607   0.16403   0.0053  0.0171  1.0000  -2.5668   0.0000   0.0000   0.0000   0.2234
  16.700   0.5788   0.16694   0.16491   0.0051  0.0170  1.0000  -2.5822   0.0000   0.0000   0.0000   0.2235
  16.800   0.5778   0.16771   0.16567   0.0051  0.0169  1.0000  -2.6030   0.0000   0.0000   0.0000   0.2235
  16.900   0.5770   0.16836   0.16633   0.0051  0.0168  1.0000  -2.6297   0.0000   0.0000   0.0000   0.2234
  17.000   0.5656   0.17016   0.16812   0.0051  0.0165  1.0000  -2.5183   0.0000   0.0000   0.0000   0.2232
  17.100   0.5621   0.17146   0.16941   0.0049  0.0165  1.0000  -2.4671   0.0000   0.0000   0.0000   0.2237
  17.200   0.5586   0.17240   0.17035   0.0047  0.0164  1.0000  -2.4180   0.0000   0.0000   0.0000   0.2240
  17.300   0.5555   0.17324   0.17119   0.0045  0.0164  1.0000  -2.3713   0.0000   0.0000   0.0000   0.2244
  17.400   0.5527   0.17411   0.17206   0.0042  0.0164  1.0000  -2.3263   0.0000   0.0000   0.0000   0.2248
  17.500   0.5502   0.17502   0.17296   0.0040  0.0164  1.0000  -2.2821   0.0000   0.0000   0.0000   0.2252
  17.600   0.5478   0.17596   0.17390   0.0038  0.0164  1.0000  -2.2378   0.0000   0.0000   0.0000   0.2256
  17.700   0.5456   0.17696   0.17489   0.0035  0.0163  1.0000  -2.1912   0.0000   0.0000   0.0000   0.2260
  17.800   0.5418   0.17842   0.17635   0.0029  0.0162  1.0000  -2.0946   0.0000   0.0000   0.0000   0.2272
  17.900   0.5357   0.18051   0.17843   0.0018  0.0156  1.0000  -1.9262   0.0000   0.0000   0.0000   0.2293
  18.000   0.5334   0.18158   0.17950   0.0015  0.0152  1.0000  -1.8750   0.0000   0.0000   0.0000   0.2300
  18.100   0.5321   0.18251   0.18042   0.0012  0.0149  1.0000  -1.8464   0.0000   0.0000   0.0000   0.2306
  18.200   0.5315   0.18341   0.18132   0.0008  0.0146  1.0000  -1.8267   0.0000   0.0000   0.0000   0.2313
  18.300   0.5315   0.18435   0.18226   0.0003  0.0144  1.0000  -1.8124   0.0000   0.0000   0.0000   0.2322
  18.400   0.5319   0.18531   0.18322  -0.0003  0.0142  1.0000  -1.8027   0.0000   0.0000   0.0000   0.2333
  18.500   0.5326   0.18629   0.18421  -0.0010  0.0140  1.0000  -1.7969   0.0000   0.0000   0.0000   0.2345
  18.600   0.5338   0.18729   0.18521  -0.0017  0.0138  1.0000  -1.7951   0.0000   0.0000   0.0000   0.2358
  18.700   0.5352   0.18829   0.18621  -0.0025  0.0136  1.0000  -1.7972   0.0000   0.0000   0.0000   0.2371
  18.800   0.5369   0.18929   0.18722  -0.0033  0.0134  1.0000  -1.8033   0.0000   0.0000   0.0000   0.2385
  18.900   0.5389   0.19029   0.18821  -0.0041  0.0133  1.0000  -1.8137   0.0000   0.0000   0.0000   0.2399
  19.000   0.5411   0.19126   0.18919  -0.0049  0.0132  1.0000  -1.8295   0.0000   0.0000   0.0000   0.2413
  19.100   0.5436   0.19218   0.19012  -0.0057  0.0130  1.0000  -1.8533   0.0000   0.0000   0.0000   0.2426
  19.200   0.5465   0.19304   0.19098  -0.0064  0.0129  1.0000  -1.8870   0.0000   0.0000   0.0000   0.2438
  19.300   0.5499   0.19381   0.19176  -0.0071  0.0128  1.0000  -1.9339   0.0000   0.0000   0.0000   0.2448
  19.400   0.5535   0.19455   0.19251  -0.0077  0.0127  1.0000  -1.9882   0.0000   0.0000   0.0000   0.2456
  19.500   0.5571   0.19538   0.19334  -0.0084  0.0125  1.0000  -2.0476   0.0000   0.0000   0.0000   0.2465
  19.600   0.5574   0.19766   0.19562  -0.0098  0.0124  1.0000  -1.9767   0.0000   0.0000   0.0000   0.2491
  19.700   0.5591   0.19922   0.19719  -0.0110  0.0123  1.0000  -1.9417   0.0000   0.0000   0.0000   0.2513
  19.800   0.5608   0.20078   0.19875  -0.0123  0.0123  1.0000  -1.9069   0.0000   0.0000   0.0000   0.2534
  19.900   0.5624   0.20240   0.20037  -0.0135  0.0123  1.0000  -1.8656   0.0000   0.0000   0.0000   0.2555
  20.000   0.5637   0.20410   0.20208  -0.0149  0.0122  1.0000  -1.8122   0.0000   0.0000   0.0000   0.2579
  20.100   0.5643   0.20595   0.20393  -0.0164  0.0122  1.0000  -1.7401   0.0000   0.0000   0.0000   0.2606
  20.200   0.5637   0.20827   0.20625  -0.0183  0.0119  1.0000  -1.6198   0.0000   0.0000   0.0000   0.2642
  20.300   0.5654   0.21009   0.20808  -0.0197  0.0114  1.0000  -1.5690   0.0000   0.0000   0.0000   0.2665
  20.400   0.5676   0.21162   0.20961  -0.0208  0.0111  1.0000  -1.5529   0.0000   0.0000   0.0000   0.2683
  20.500   0.5700   0.21306   0.21106  -0.0220  0.0109  1.0000  -1.5452   0.0000   0.0000   0.0000   0.2701
  20.600   0.5725   0.21449   0.21249  -0.0231  0.0106  1.0000  -1.5419   0.0000   0.0000   0.0000   0.2718
  20.700   0.5750   0.21588   0.21389  -0.0242  0.0104  1.0000  -1.5418   0.0000   0.0000   0.0000   0.2734
  20.800   0.5776   0.21725   0.21527  -0.0253  0.0103  1.0000  -1.5445   0.0000   0.0000   0.0000   0.2750
  20.900   0.5802   0.21860   0.21663  -0.0263  0.0101  1.0000  -1.5498   0.0000   0.0000   0.0000   0.2765
  21.000   0.5828   0.21993   0.21796  -0.0274  0.0099  1.0000  -1.5580   0.0000   0.0000   0.0000   0.2780
  21.100   0.5855   0.22124   0.21927  -0.0284  0.0098  1.0000  -1.5690   0.0000   0.0000   0.0000   0.2795
  21.200   0.5882   0.22252   0.22056  -0.0295  0.0097  1.0000  -1.5831   0.0000   0.0000   0.0000   0.2809
  21.300   0.5910   0.22379   0.22183  -0.0305  0.0096  1.0000  -1.6007   0.0000   0.0000   0.0000   0.2822
  21.400   0.5939   0.22502   0.22307  -0.0315  0.0095  1.0000  -1.6221   0.0000   0.0000   0.0000   0.2835
  21.500   0.5968   0.22623   0.22429  -0.0324  0.0094  1.0000  -1.6481   0.0000   0.0000   0.0000   0.2847
  21.600   0.5999   0.22741   0.22547  -0.0333  0.0093  1.0000  -1.6795   0.0000   0.0000   0.0000   0.2858
  21.700   0.6032   0.22856   0.22663  -0.0342  0.0092  1.0000  -1.7183   0.0000   0.0000   0.0000   0.2867
  21.800   0.6070   0.22970   0.22778  -0.0350  0.0092  1.0000  -1.7693   0.0000   0.0000   0.0000   0.2874
  22.100   0.6156   0.23488   0.23297  -0.0380  0.0090  1.0000  -1.7681   0.0000   0.0000   0.0000   0.2912
  22.200   0.6177   0.23655   0.23464  -0.0392  0.0090  1.0000  -1.7432   0.0000   0.0000   0.0000   0.2929
  22.300   0.6196   0.23824   0.23634  -0.0404  0.0090  1.0000  -1.7126   0.0000   0.0000   0.0000   0.2945
  22.400   0.6214   0.23996   0.23806  -0.0417  0.0089  1.0000  -1.6774   0.0000   0.0000   0.0000   0.2963
  22.500   0.6228   0.24176   0.23987  -0.0430  0.0089  1.0000  -1.6268   0.0000   0.0000   0.0000   0.2983
  22.600   0.6240   0.24364   0.24175  -0.0444  0.0089  1.0000  -1.5652   0.0000   0.0000   0.0000   0.3003
  22.700   0.6253   0.24570   0.24381  -0.0459  0.0087  1.0000  -1.4791   0.0000   0.0000   0.0000   0.3025
  22.800   0.6273   0.24768   0.24580  -0.0471  0.0084  1.0000  -1.4136   0.0000   0.0000   0.0000   0.3042
  22.900   0.6298   0.24936   0.24748  -0.0482  0.0082  1.0000  -1.3916   0.0000   0.0000   0.0000   0.3055
  23.000   0.6323   0.25097   0.24910  -0.0493  0.0080  1.0000  -1.3784   0.0000   0.0000   0.0000   0.3068
  23.100   0.6348   0.25255   0.25068  -0.0503  0.0078  1.0000  -1.3690   0.0000   0.0000   0.0000   0.3080
  23.200   0.6372   0.25413   0.25227  -0.0514  0.0076  1.0000  -1.3621   0.0000   0.0000   0.0000   0.3092
  23.300   0.6397   0.25568   0.25382  -0.0524  0.0075  1.0000  -1.3570   0.0000   0.0000   0.0000   0.3104
  23.400   0.6422   0.25722   0.25537  -0.0534  0.0073  1.0000  -1.3538   0.0000   0.0000   0.0000   0.3115
  23.500   0.6447   0.25874   0.25690  -0.0544  0.0072  1.0000  -1.3570   0.0000   0.0000   0.0000   0.3127
  23.600   0.6472   0.26025   0.25842  -0.0555  0.0071  1.0000  -1.3648   0.0000   0.0000   0.0000   0.3138
  23.700   0.6497   0.26175   0.25992  -0.0565  0.0070  1.0000  -1.3743   0.0000   0.0000   0.0000   0.3148
  23.800   0.6522   0.26323   0.26141  -0.0575  0.0069  1.0000  -1.3855   0.0000   0.0000   0.0000   0.3159
  23.900   0.6546   0.26470   0.26288  -0.0585  0.0068  1.0000  -1.3988   0.0000   0.0000   0.0000   0.3169
  24.000   0.6571   0.26616   0.26435  -0.0595  0.0067  1.0000  -1.4143   0.0000   0.0000   0.0000   0.3179
  24.100   0.6596   0.26760   0.26579  -0.0605  0.0066  1.0000  -1.4323   0.0000   0.0000   0.0000   0.3189
  24.200   0.6621   0.26902   0.26722  -0.0614  0.0066  1.0000  -1.4532   0.0000   0.0000   0.0000   0.3198
  24.300   0.6647   0.27042   0.26862  -0.0624  0.0065  1.0000  -1.4778   0.0000   0.0000   0.0000   0.3207
  24.400   0.6673   0.27180   0.27002  -0.0633  0.0065  1.0000  -1.5066   0.0000   0.0000   0.0000   0.3215
  24.500   0.6701   0.27320   0.27142  -0.0642  0.0064  1.0000  -1.5414   0.0000   0.0000   0.0000   0.3222
  24.600   0.6732   0.27463   0.27286  -0.0650  0.0064  1.0000  -1.5869   0.0000   0.0000   0.0000   0.3227
  25.100   0.8316   0.26506   0.26288  -0.0566  0.0063  1.0000  -2.3721   0.0000   0.0000   0.0000   0.2829
  25.200   0.8335   0.26611   0.26393  -0.0574  0.0063  1.0000  -2.3498   0.0000   0.0000   0.0000   0.2834
  25.300   0.8353   0.26719   0.26501  -0.0582  0.0063  1.0000  -2.3215   0.0000   0.0000   0.0000   0.2841
  25.400   0.8371   0.26828   0.26610  -0.0590  0.0062  1.0000  -2.2928   0.0000   0.0000   0.0000   0.2847
  25.500   0.8390   0.26936   0.26718  -0.0599  0.0062  1.0000  -2.2639   0.0000   0.0000   0.0000   0.2853
  25.600   0.8409   0.27045   0.26827  -0.0607  0.0062  1.0000  -2.2346   0.0000   0.0000   0.0000   0.2859
  25.700   0.8429   0.27154   0.26936  -0.0615  0.0062  1.0000  -2.2043   0.0000   0.0000   0.0000   0.2865
  25.800   0.8449   0.27265   0.27046  -0.0623  0.0062  1.0000  -2.1720   0.0000   0.0000   0.0000   0.2871
  25.900   0.8470   0.27378   0.27160  -0.0631  0.0061  1.0000  -2.1366   0.0000   0.0000   0.0000   0.2877
  26.000   0.8493   0.27495   0.27276  -0.0639  0.0061  1.0000  -2.0977   0.0000   0.0000   0.0000   0.2883
  26.100   0.8517   0.27610   0.27391  -0.0647  0.0060  1.0000  -2.0603   0.0000   0.0000   0.0000   0.2888
  26.200   0.8541   0.27722   0.27503  -0.0654  0.0059  1.0000  -2.0345   0.0000   0.0000   0.0000   0.2892
  26.300   0.8564   0.27824   0.27606  -0.0661  0.0057  1.0000  -2.0201   0.0000   0.0000   0.0000   0.2896
  26.400   0.8586   0.27921   0.27703  -0.0668  0.0056  1.0000  -2.0127   0.0000   0.0000   0.0000   0.2900
  26.500   0.8609   0.28012   0.27794  -0.0674  0.0055  1.0000  -2.0092   0.0000   0.0000   0.0000   0.2903
  26.600   0.8630   0.28105   0.27887  -0.0681  0.0054  1.0000  -2.0083   0.0000   0.0000   0.0000   0.2906
  26.700   0.8652   0.28195   0.27978  -0.0688  0.0053  1.0000  -2.0095   0.0000   0.0000   0.0000   0.2910
  26.800   0.8674   0.28284   0.28067  -0.0694  0.0052  1.0000  -2.0123   0.0000   0.0000   0.0000   0.2913
  26.900   0.8695   0.28372   0.28154  -0.0701  0.0051  1.0000  -2.0164   0.0000   0.0000   0.0000   0.2917
  27.000   0.8716   0.28458   0.28241  -0.0708  0.0050  1.0000  -2.0217   0.0000   0.0000   0.0000   0.2920
  27.100   0.8738   0.28543   0.28326  -0.0714  0.0049  1.0000  -2.0276   0.0000   0.0000   0.0000   0.2923
  27.200   0.8759   0.28628   0.28411  -0.0721  0.0048  1.0000  -2.0337   0.0000   0.0000   0.0000   0.2926
  27.300   0.8780   0.28711   0.28494  -0.0728  0.0048  1.0000  -2.0406   0.0000   0.0000   0.0000   0.2929
  27.400   0.8800   0.28793   0.28576  -0.0734  0.0047  1.0000  -2.0485   0.0000   0.0000   0.0000   0.2932
  27.500   0.8821   0.28874   0.28658  -0.0741  0.0046  1.0000  -2.0577   0.0000   0.0000   0.0000   0.2936
  27.600   0.8842   0.28953   0.28737  -0.0748  0.0046  1.0000  -2.0681   0.0000   0.0000   0.0000   0.2939
  27.700   0.8862   0.29032   0.28816  -0.0754  0.0045  1.0000  -2.0800   0.0000   0.0000   0.0000   0.2942
  27.800   0.8882   0.29108   0.28893  -0.0761  0.0045  1.0000  -2.0935   0.0000   0.0000   0.0000   0.2944
  27.900   0.8902   0.29187   0.28972  -0.0768  0.0045  1.0000  -2.1087   0.0000   0.0000   0.0000   0.2947
  28.000   0.8922   0.29261   0.29046  -0.0774  0.0044  1.0000  -2.1259   0.0000   0.0000   0.0000   0.2950
  28.100   0.8941   0.29334   0.29119  -0.0781  0.0044  1.0000  -2.1453   0.0000   0.0000   0.0000   0.2953
  28.200   0.8961   0.29405   0.29191  -0.0787  0.0044  1.0000  -2.1672   0.0000   0.0000   0.0000   0.2955
  28.300   0.8980   0.29475   0.29261  -0.0793  0.0043  1.0000  -2.1919   0.0000   0.0000   0.0000   0.2957
  28.400   0.8999   0.29544   0.29330  -0.0799  0.0043  1.0000  -2.2200   0.0000   0.0000   0.0000   0.2959
  28.500   0.9019   0.29612   0.29399  -0.0805  0.0043  1.0000  -2.2523   0.0000   0.0000   0.0000   0.2960
  28.600   0.9039   0.29684   0.29471  -0.0810  0.0042  1.0000  -2.2909   0.0000   0.0000   0.0000   0.2961
  28.700   0.9061   0.29770   0.29558  -0.0813  0.0042  1.0000  -2.3427   0.0000   0.0000   0.0000   0.2959
  29.700   0.9246   0.30692   0.30479  -0.0889  0.0041  1.0000  -2.1012   0.0000   0.0000   0.0000   0.2999
  29.800   0.9266   0.30785   0.30573  -0.0897  0.0041  1.0000  -2.0813   0.0000   0.0000   0.0000   0.3003
  29.900   0.9286   0.30879   0.30667  -0.0904  0.0041  1.0000  -2.0610   0.0000   0.0000   0.0000   0.3006
  30.000   0.9306   0.30974   0.30762  -0.0912  0.0041  1.0000  -2.0405   0.0000   0.0000   0.0000   0.3010


