xflr5 v6.61

 Calculated polar for: MH 16

 1 1 Reynolds number fixed          Mach number fixed         

 xtrf =   1.000 (top)        1.000 (bottom)
 Mach =   0.000     Re =     0.719 e 6     Ncrit =   9.000

  alpha     CL        CD       CDp       Cm    Top Xtr Bot Xtr   Cpmin    Chinge    XCp    
 ------- -------- --------- --------- -------- ------- ------- -------- --------- ---------
 -10.000  -0.5742   0.03022   0.02633  -0.1034  0.9522  0.0115  -5.5834   0.0000   0.0000   0.0000   0.0584
  -9.900  -0.5793   0.02948   0.02550  -0.1010  0.9504  0.0114  -5.5936   0.0000   0.0000   0.0000   0.0644
  -9.800  -0.5838   0.02875   0.02468  -0.0986  0.9487  0.0114  -5.6006   0.0000   0.0000   0.0000   0.0700
  -9.700  -0.5872   0.02800   0.02383  -0.0964  0.9470  0.0113  -5.6028   0.0000   0.0000   0.0000   0.0750
  -9.600  -0.5884   0.02716   0.02287  -0.0946  0.9456  0.0113  -5.5970   0.0000   0.0000   0.0000   0.0785
  -9.500  -0.5876   0.02628   0.02187  -0.0931  0.9443  0.0113  -5.5812   0.0000   0.0000   0.0000   0.0809
  -9.400  -0.5855   0.02542   0.02090  -0.0919  0.9431  0.0113  -5.5560   0.0000   0.0000   0.0000   0.0826
  -9.300  -0.5824   0.02460   0.01996  -0.0907  0.9420  0.0113  -5.5366   0.0000   0.0000   0.0000   0.0837
  -9.200  -0.5783   0.02383   0.01909  -0.0898  0.9411  0.0113  -5.5120   0.0000   0.0000   0.0000   0.0844
  -9.100  -0.5736   0.02312   0.01827  -0.0889  0.9402  0.0113  -5.4792   0.0000   0.0000   0.0000   0.0848
  -9.000  -0.5680   0.02244   0.01750  -0.0881  0.9394  0.0114  -5.4384   0.0000   0.0000   0.0000   0.0847
  -8.900  -0.5619   0.02181   0.01678  -0.0874  0.9386  0.0114  -5.3906   0.0000   0.0000   0.0000   0.0843
  -8.800  -0.5552   0.02123   0.01610  -0.0868  0.9379  0.0115  -5.3362   0.0000   0.0000   0.0000   0.0836
  -8.700  -0.5480   0.02068   0.01547  -0.0863  0.9371  0.0116  -5.2757   0.0000   0.0000   0.0000   0.0826
  -8.600  -0.5406   0.02023   0.01496  -0.0857  0.9364  0.0117  -5.2048   0.0000   0.0000   0.0000   0.0814
  -8.500  -0.5331   0.01988   0.01454  -0.0852  0.9357  0.0119  -5.1257   0.0000   0.0000   0.0000   0.0802
  -8.400  -0.5256   0.01961   0.01421  -0.0847  0.9349  0.0120  -5.0414   0.0000   0.0000   0.0000   0.0791
  -8.300  -0.5182   0.01940   0.01394  -0.0841  0.9341  0.0122  -4.9533   0.0000   0.0000   0.0000   0.0780
  -8.200  -0.5111   0.01927   0.01375  -0.0834  0.9332  0.0123  -4.8618   0.0000   0.0000   0.0000   0.0770
  -8.100  -0.5042   0.01918   0.01362  -0.0827  0.9322  0.0124  -4.7695   0.0000   0.0000   0.0000   0.0763
  -8.000  -0.4924   0.01777   0.01211  -0.0833  0.9319  0.0126  -4.7444   0.0000   0.0000   0.0000   0.0712
  -7.900  -0.4833   0.01705   0.01135  -0.0832  0.9312  0.0128  -4.6802   0.0000   0.0000   0.0000   0.0682
  -7.800  -0.4755   0.01658   0.01086  -0.0828  0.9303  0.0130  -4.6036   0.0000   0.0000   0.0000   0.0663
  -7.700  -0.4683   0.01626   0.01052  -0.0822  0.9291  0.0132  -4.5205   0.0000   0.0000   0.0000   0.0649
  -7.600  -0.4622   0.01607   0.01031  -0.0814  0.9275  0.0133  -4.4384   0.0000   0.0000   0.0000   0.0643
  -7.500  -0.4600   0.01611   0.01033  -0.0798  0.9245  0.0135  -4.3743   0.0000   0.0000   0.0000   0.0671
  -7.400  -0.4541   0.01588   0.01008  -0.0789  0.9241  0.0136  -4.2908   0.0000   0.0000   0.0000   0.0669
  -7.300  -0.4481   0.01567   0.00985  -0.0779  0.9236  0.0138  -4.2076   0.0000   0.0000   0.0000   0.0668
  -7.200  -0.4422   0.01547   0.00963  -0.0770  0.9230  0.0140  -4.1255   0.0000   0.0000   0.0000   0.0667
  -7.100  -0.4365   0.01529   0.00943  -0.0760  0.9224  0.0142  -4.0450   0.0000   0.0000   0.0000   0.0667
  -7.000  -0.4308   0.01511   0.00923  -0.0750  0.9218  0.0144  -3.9656   0.0000   0.0000   0.0000   0.0668
  -6.900  -0.4252   0.01494   0.00904  -0.0740  0.9211  0.0146  -3.8870   0.0000   0.0000   0.0000   0.0670
  -6.800  -0.4195   0.01478   0.00886  -0.0730  0.9203  0.0149  -3.8090   0.0000   0.0000   0.0000   0.0671
  -6.700  -0.4138   0.01462   0.00868  -0.0720  0.9195  0.0151  -3.7312   0.0000   0.0000   0.0000   0.0672
  -6.600  -0.4080   0.01447   0.00850  -0.0710  0.9187  0.0153  -3.6532   0.0000   0.0000   0.0000   0.0672
  -6.500  -0.4021   0.01432   0.00833  -0.0700  0.9178  0.0156  -3.5752   0.0000   0.0000   0.0000   0.0672
  -6.400  -0.3958   0.01420   0.00819  -0.0691  0.9169  0.0159  -3.4937   0.0000   0.0000   0.0000   0.0668
  -6.300  -0.3887   0.01410   0.00807  -0.0683  0.9159  0.0161  -3.4142   0.0000   0.0000   0.0000   0.0656
  -6.200  -0.3808   0.01402   0.00797  -0.0677  0.9150  0.0164  -3.3337   0.0000   0.0000   0.0000   0.0636
  -6.100  -0.3763   0.01372   0.00763  -0.0665  0.9138  0.0168  -3.2851   0.0000   0.0000   0.0000   0.0649
  -6.000  -0.3717   0.01342   0.00730  -0.0652  0.9126  0.0174  -3.2346   0.0000   0.0000   0.0000   0.0661
  -5.900  -0.3650   0.01323   0.00711  -0.0644  0.9117  0.0179  -3.1645   0.0000   0.0000   0.0000   0.0651
  -5.800  -0.3576   0.01309   0.00695  -0.0637  0.9108  0.0183  -3.0895   0.0000   0.0000   0.0000   0.0634
  -5.700  -0.3498   0.01296   0.00681  -0.0631  0.9100  0.0188  -3.0137   0.0000   0.0000   0.0000   0.0612
  -5.600  -0.3416   0.01283   0.00667  -0.0626  0.9092  0.0194  -2.9374   0.0000   0.0000   0.0000   0.0585
  -5.500  -0.3331   0.01270   0.00652  -0.0621  0.9084  0.0200  -2.8604   0.0000   0.0000   0.0000   0.0553
  -5.400  -0.3241   0.01258   0.00637  -0.0617  0.9076  0.0206  -2.7824   0.0000   0.0000   0.0000   0.0513
  -5.300  -0.3147   0.01246   0.00624  -0.0614  0.9069  0.0211  -2.7018   0.0000   0.0000   0.0000   0.0465
  -5.200  -0.3063   0.01226   0.00601  -0.0609  0.9061  0.0220  -2.6332   0.0000   0.0000   0.0000   0.0429
  -5.100  -0.2976   0.01206   0.00581  -0.0604  0.9053  0.0234  -2.5595   0.0000   0.0000   0.0000   0.0385
  -5.000  -0.2880   0.01193   0.00566  -0.0602  0.9046  0.0247  -2.4776   0.0000   0.0000   0.0000   0.0325
  -4.900  -0.2780   0.01181   0.00553  -0.0600  0.9040  0.0263  -2.3950   0.0000   0.0000   0.0000   0.0257
  -4.800  -0.2687   0.01165   0.00536  -0.0597  0.9033  0.0288  -2.3201   0.0000   0.0000   0.0000   0.0193
  -4.700  -0.2590   0.01149   0.00522  -0.0594  0.9026  0.0321  -2.2415   0.0000   0.0000   0.0000   0.0119
  -4.600  -0.2497   0.01129   0.00504  -0.0591  0.9018  0.0389  -2.1678   0.0000   0.0000   0.0000   0.0045
  -4.500  -0.2422   0.01096   0.00483  -0.0585  0.9009  0.0642  -2.1013   0.0000   0.0000   0.0000  -0.0002
  -4.400  -0.2363   0.01054   0.00465  -0.0576  0.8999  0.1150  -2.0384   0.0000   0.0000   0.0000  -0.0025
  -4.300  -0.2281   0.01029   0.00454  -0.0571  0.8988  0.1477  -1.9718   0.0000   0.0000   0.0000  -0.0092
  -4.200  -0.2192   0.01013   0.00446  -0.0568  0.8977  0.1697  -1.9028   0.0000   0.0000   0.0000  -0.0179
  -4.100  -0.2108   0.01004   0.00443  -0.0563  0.8962  0.1890  -1.8352   0.0000   0.0000   0.0000  -0.0261
  -4.000  -0.2055   0.01014   0.00459  -0.0552  0.8935  0.2043  -1.7787   0.0000   0.0000   0.0000  -0.0276
  -3.900  -0.1974   0.00999   0.00450  -0.0547  0.8930  0.2219  -1.7129   0.0000   0.0000   0.0000  -0.0359
  -3.800  -0.1894   0.00985   0.00442  -0.0541  0.8923  0.2394  -1.6478   0.0000   0.0000   0.0000  -0.0446
  -3.700  -0.1815   0.00971   0.00434  -0.0535  0.8916  0.2570  -1.5836   0.0000   0.0000   0.0000  -0.0539
  -3.600  -0.1737   0.00958   0.00428  -0.0529  0.8908  0.2753  -1.5203   0.0000   0.0000   0.0000  -0.0637
  -3.500  -0.1661   0.00945   0.00422  -0.0522  0.8899  0.2946  -1.4581   0.0000   0.0000   0.0000  -0.0740
  -3.400  -0.1588   0.00931   0.00416  -0.0515  0.8889  0.3170  -1.3979   0.0000   0.0000   0.0000  -0.0839
  -3.300  -0.1520   0.00916   0.00410  -0.0507  0.8878  0.3438  -1.3396   0.0000   0.0000   0.0000  -0.0933
  -3.200  -0.1457   0.00899   0.00405  -0.0498  0.8867  0.3759  -1.2835   0.0000   0.0000   0.0000  -0.1016
  -3.100  -0.1404   0.00878   0.00399  -0.0487  0.8854  0.4154  -1.2314   0.0000   0.0000   0.0000  -0.1063
  -3.000  -0.1358   0.00856   0.00394  -0.0474  0.8840  0.4603  -1.1815   0.0000   0.0000   0.0000  -0.1088
  -2.900  -0.1314   0.00834   0.00389  -0.0461  0.8827  0.5060  -1.1327   0.0000   0.0000   0.0000  -0.1102
  -2.800  -0.1269   0.00814   0.00384  -0.0447  0.8813  0.5492  -1.0840   0.0000   0.0000   0.0000  -0.1120
  -2.700  -0.1217   0.00795   0.00380  -0.0435  0.8801  0.5883  -1.0336   0.0000   0.0000   0.0000  -0.1169
  -2.600  -0.1156   0.00778   0.00375  -0.0424  0.8789  0.6235  -0.9852   0.0000   0.0000   0.0000  -0.1263
  -2.500  -0.1084   0.00763   0.00371  -0.0415  0.8779  0.6527  -0.9365   0.0000   0.0000   0.0000  -0.1430
  -2.400  -0.1002   0.00751   0.00366  -0.0409  0.8770  0.6755  -0.8858   0.0000   0.0000   0.0000  -0.1681
  -2.300  -0.0909   0.00742   0.00362  -0.0405  0.8761  0.6925  -0.8330   0.0000   0.0000   0.0000  -0.2060
  -2.200  -0.0809   0.00734   0.00357  -0.0402  0.8753  0.7088  -0.7792   0.0000   0.0000   0.0000  -0.2588
  -2.100  -0.0712   0.00724   0.00353  -0.0399  0.8746  0.7250  -0.7268   0.0000   0.0000   0.0000  -0.3227
  -2.000  -0.0607   0.00716   0.00348  -0.0397  0.8738  0.7399  -0.6733   0.0000   0.0000   0.0000  -0.4186
  -1.900  -0.0501   0.00707   0.00344  -0.0395  0.8731  0.7554  -0.6204   0.0000   0.0000   0.0000  -0.5553
  -1.800  -0.0390   0.00700   0.00341  -0.0395  0.8724  0.7688  -0.5679   0.0000   0.0000   0.0000  -0.7809
  -1.700  -0.0278   0.00693   0.00337  -0.0395  0.8717  0.7828  -0.5216   0.0000   0.0000   0.0000  -1.1946
  -1.600  -0.0162   0.00687   0.00335  -0.0395  0.8710  0.7955  -0.4751   0.0000   0.0000   0.0000  -2.2281
  -1.500  -0.0046   0.00683   0.00333  -0.0396  0.8702  0.8085  -0.4473   0.0000   0.0000   0.0000  -8.4473
  -1.400   0.0075   0.00679   0.00333  -0.0398  0.8695  0.8192  -0.4313   0.0000   0.0000   0.0000   5.6005
  -1.300   0.0197   0.00678   0.00333  -0.0400  0.8687  0.8299  -0.4165   0.0000   0.0000   0.0000   2.3048
  -1.200   0.0310   0.00678   0.00334  -0.0400  0.8677  0.8392  -0.4023   0.0000   0.0000   0.0000   1.5551
  -1.100   0.0442   0.00681   0.00340  -0.0404  0.8665  0.8474  -0.3869   0.0000   0.0000   0.0000   1.1745
  -1.000   0.0551   0.00688   0.00349  -0.0404  0.8651  0.8557  -0.3767   0.0000   0.0000   0.0000   0.9900
  -0.900   0.0647   0.00686   0.00346  -0.0400  0.8644  0.8631  -0.3810   0.0000   0.0000   0.0000   0.8742
  -0.800   0.0768   0.00684   0.00346  -0.0402  0.8637  0.8688  -0.3863   0.0000   0.0000   0.0000   0.7782
  -0.700   0.0904   0.00684   0.00348  -0.0408  0.8629  0.8741  -0.3925   0.0000   0.0000   0.0000   0.7040
  -0.600   0.1028   0.00685   0.00350  -0.0410  0.8621  0.8796  -0.3982   0.0000   0.0000   0.0000   0.6513
  -0.500   0.1134   0.00685   0.00351  -0.0409  0.8610  0.8850  -0.4032   0.0000   0.0000   0.0000   0.6122
  -0.400   0.1213   0.00684   0.00350  -0.0402  0.8595  0.8904  -0.4070   0.0000   0.0000   0.0000   0.5822
  -0.300   0.1307   0.00683   0.00349  -0.0397  0.8582  0.8948  -0.4115   0.0000   0.0000   0.0000   0.5550
  -0.200   0.1464   0.00684   0.00350  -0.0407  0.8573  0.8978  -0.4186   0.0000   0.0000   0.0000   0.5288
  -0.100   0.1621   0.00685   0.00352  -0.0418  0.8564  0.9005  -0.4257   0.0000   0.0000   0.0000   0.5076
   0.000   0.1778   0.00686   0.00353  -0.0427  0.8554  0.9030  -0.4328   0.0000   0.0000   0.0000   0.4902
   0.100   0.1929   0.00688   0.00355  -0.0436  0.8544  0.9055  -0.4400   0.0000   0.0000   0.0000   0.4755
   0.200   0.2065   0.00688   0.00356  -0.0441  0.8534  0.9081  -0.4466   0.0000   0.0000   0.0000   0.4629
   0.300   0.2198   0.00689   0.00356  -0.0445  0.8522  0.9109  -0.4530   0.0000   0.0000   0.0000   0.4517
   0.400   0.2330   0.00687   0.00354  -0.0449  0.8508  0.9136  -0.4595   0.0000   0.0000   0.0000   0.4417
   0.500   0.2457   0.00682   0.00349  -0.0451  0.8492  0.9166  -0.4659   0.0000   0.0000   0.0000   0.4325
   0.600   0.2564   0.00677   0.00342  -0.0449  0.8473  0.9201  -0.4742   0.0000   0.0000   0.0000   0.4237
   0.700   0.2618   0.00673   0.00336  -0.0434  0.8451  0.9242  -0.4826   0.0000   0.0000   0.0000   0.4142
   0.800   0.2811   0.00669   0.00331  -0.0450  0.8431  0.9267  -0.4994   0.0000   0.0000   0.0000   0.4085
   0.900   0.3029   0.00669   0.00329  -0.0472  0.8407  0.9284  -0.5182   0.0000   0.0000   0.0000   0.4041
   1.000   0.3224   0.00673   0.00333  -0.0489  0.8382  0.9295  -0.5361   0.0000   0.0000   0.0000   0.3999
   1.100   0.3389   0.00674   0.00335  -0.0500  0.8359  0.9304  -0.5522   0.0000   0.0000   0.0000   0.3958
   1.200   0.3543   0.00674   0.00336  -0.0509  0.8333  0.9310  -0.5676   0.0000   0.0000   0.0000   0.3918
   1.300   0.3695   0.00673   0.00336  -0.0518  0.8305  0.9316  -0.5831   0.0000   0.0000   0.0000   0.3882
   1.400   0.3848   0.00673   0.00336  -0.0527  0.8279  0.9322  -0.5995   0.0000   0.0000   0.0000   0.3848
   1.500   0.4000   0.00673   0.00336  -0.0536  0.8255  0.9328  -0.6159   0.0000   0.0000   0.0000   0.3818
   1.600   0.4152   0.00673   0.00337  -0.0545  0.8232  0.9333  -0.6324   0.0000   0.0000   0.0000   0.3789
   1.700   0.4304   0.00673   0.00336  -0.0553  0.8209  0.9339  -0.6490   0.0000   0.0000   0.0000   0.3762
   1.800   0.4457   0.00671   0.00335  -0.0563  0.8185  0.9345  -0.6658   0.0000   0.0000   0.0000   0.3738
   1.900   0.4611   0.00671   0.00333  -0.0572  0.8159  0.9350  -0.6836   0.0000   0.0000   0.0000   0.3715
   2.000   0.4765   0.00671   0.00332  -0.0581  0.8132  0.9356  -0.7016   0.0000   0.0000   0.0000   0.3694
   2.100   0.4897   0.00674   0.00337  -0.0586  0.8104  0.9364  -0.7180   0.0000   0.0000   0.0000   0.3670
   2.200   0.5027   0.00677   0.00343  -0.0590  0.8067  0.9373  -0.7343   0.0000   0.0000   0.0000   0.3646
   2.300   0.5157   0.00679   0.00346  -0.0594  0.8024  0.9383  -0.7507   0.0000   0.0000   0.0000   0.3624
   2.400   0.5290   0.00680   0.00348  -0.0599  0.7979  0.9392  -0.7685   0.0000   0.0000   0.0000   0.3603
   2.500   0.5426   0.00680   0.00347  -0.0604  0.7935  0.9401  -0.7866   0.0000   0.0000   0.0000   0.3584
   2.600   0.5563   0.00681   0.00346  -0.0610  0.7889  0.9410  -0.8368   0.0000   0.0000   0.0000   0.3565
   2.700   0.5684   0.00684   0.00350  -0.0612  0.7837  0.9422  -0.8937   0.0000   0.0000   0.0000   0.3545
   2.800   0.5796   0.00687   0.00354  -0.0612  0.7768  0.9436  -0.9495   0.0000   0.0000   0.0000   0.3524
   2.900   0.5909   0.00689   0.00356  -0.0612  0.7691  0.9450  -1.0061   0.0000   0.0000   0.0000   0.3503
   3.000   0.6020   0.00693   0.00355  -0.0612  0.7615  0.9465  -1.0632   0.0000   0.0000   0.0000   0.3482
   3.100   0.6111   0.00698   0.00361  -0.0607  0.7527  0.9484  -1.1158   0.0000   0.0000   0.0000   0.3459
   3.200   0.6183   0.00705   0.00365  -0.0598  0.7417  0.9507  -1.1645   0.0000   0.0000   0.0000   0.3432
   3.300   0.6227   0.00716   0.00371  -0.0583  0.7293  0.9536  -1.2063   0.0000   0.0000   0.0000   0.3400
   3.400   0.6219   0.00734   0.00383  -0.0556  0.7148  0.9569  -1.2357   0.0000   0.0000   0.0000   0.3356
   3.500   0.6221   0.00756   0.00399  -0.0531  0.6988  0.9591  -1.2712   0.0000   0.0000   0.0000   0.3315
   3.600   0.6283   0.00766   0.00398  -0.0521  0.6759  0.9606  -1.3246   0.0000   0.0000   0.0000   0.3289
   3.700   0.6374   0.00778   0.00398  -0.0517  0.6485  0.9618  -1.3870   0.0000   0.0000   0.0000   0.3271
   3.800   0.6461   0.00795   0.00403  -0.0513  0.6215  0.9628  -1.4491   0.0000   0.0000   0.0000   0.3252
   3.900   0.6546   0.00813   0.00411  -0.0508  0.5952  0.9638  -1.5110   0.0000   0.0000   0.0000   0.3234
   4.000   0.6627   0.00833   0.00420  -0.0503  0.5688  0.9649  -1.5725   0.0000   0.0000   0.0000   0.3216
   4.100   0.6700   0.00856   0.00430  -0.0497  0.5399  0.9661  -1.6320   0.0000   0.0000   0.0000   0.3197
   4.200   0.6751   0.00882   0.00441  -0.0486  0.5092  0.9676  -1.6850   0.0000   0.0000   0.0000   0.3174
   4.300   0.6796   0.00906   0.00452  -0.0473  0.4755  0.9693  -1.7364   0.0000   0.0000   0.0000   0.3151
   4.400   0.6837   0.00936   0.00465  -0.0461  0.4378  0.9711  -1.7870   0.0000   0.0000   0.0000   0.3127
   4.500   0.6885   0.00970   0.00480  -0.0451  0.3961  0.9729  -1.8399   0.0000   0.0000   0.0000   0.3107
   4.600   0.6943   0.01003   0.00495  -0.0443  0.3556  0.9746  -1.8964   0.0000   0.0000   0.0000   0.3089
   4.700   0.7012   0.01034   0.00510  -0.0437  0.3197  0.9762  -1.9569   0.0000   0.0000   0.0000   0.3074
   4.800   0.7086   0.01063   0.00524  -0.0433  0.2897  0.9778  -2.0197   0.0000   0.0000   0.0000   0.3060
   4.900   0.7170   0.01087   0.00537  -0.0430  0.2644  0.9793  -2.0872   0.0000   0.0000   0.0000   0.3048
   5.000   0.7257   0.01109   0.00549  -0.0427  0.2428  0.9808  -2.1634   0.0000   0.0000   0.0000   0.3036
   5.100   0.7348   0.01129   0.00561  -0.0426  0.2239  0.9822  -2.2416   0.0000   0.0000   0.0000   0.3026
   5.200   0.7439   0.01148   0.00572  -0.0424  0.2058  0.9836  -2.3204   0.0000   0.0000   0.0000   0.3016
   5.300   0.7527   0.01169   0.00584  -0.0422  0.1873  0.9850  -2.3987   0.0000   0.0000   0.0000   0.3005
   5.400   0.7610   0.01192   0.00597  -0.0419  0.1667  0.9864  -2.4753   0.0000   0.0000   0.0000   0.2994
   5.500   0.7690   0.01219   0.00611  -0.0415  0.1413  0.9879  -2.5503   0.0000   0.0000   0.0000   0.2983
   5.600   0.7749   0.01258   0.00631  -0.0409  0.1051  0.9894  -2.6162   0.0000   0.0000   0.0000   0.2969
   5.700   0.7782   0.01314   0.00660  -0.0398  0.0588  0.9911  -2.6702   0.0000   0.0000   0.0000   0.2952
   5.800   0.7848   0.01352   0.00686  -0.0392  0.0384  0.9924  -2.7362   0.0000   0.0000   0.0000   0.2939
   5.900   0.7938   0.01375   0.00705  -0.0389  0.0318  0.9935  -2.8115   0.0000   0.0000   0.0000   0.2930
   6.000   0.8031   0.01396   0.00725  -0.0388  0.0282  0.9944  -2.8894   0.0000   0.0000   0.0000   0.2921
   6.100   0.8128   0.01414   0.00743  -0.0387  0.0261  0.9953  -2.9672   0.0000   0.0000   0.0000   0.2913
   6.200   0.8229   0.01428   0.00759  -0.0387  0.0246  0.9960  -3.0508   0.0000   0.0000   0.0000   0.2906
   6.300   0.8327   0.01446   0.00777  -0.0386  0.0232  0.9968  -3.1337   0.0000   0.0000   0.0000   0.2899
   6.400   0.8415   0.01473   0.00804  -0.0383  0.0217  0.9975  -3.2059   0.0000   0.0000   0.0000   0.2890
   6.500   0.8512   0.01491   0.00825  -0.0382  0.0210  0.9981  -3.2965   0.0000   0.0000   0.0000   0.2882
   6.600   0.8614   0.01505   0.00841  -0.0382  0.0203  0.9987  -3.3938   0.0000   0.0000   0.0000   0.2876
   6.700   0.8715   0.01521   0.00858  -0.0382  0.0196  0.9992  -3.4918   0.0000   0.0000   0.0000   0.2870
   6.800   0.8818   0.01537   0.00875  -0.0383  0.0188  0.9996  -3.5929   0.0000   0.0000   0.0000   0.2864
   6.900   0.8912   0.01553   0.00892  -0.0381  0.0182  1.0000  -3.6918   0.0000   0.0000   0.0000   0.2857
   7.000   0.8935   0.01570   0.00910  -0.0366  0.0177  1.0000  -3.7564   0.0000   0.0000   0.0000   0.2837
   7.100   0.8949   0.01591   0.00933  -0.0348  0.0172  1.0000  -3.8130   0.0000   0.0000   0.0000   0.2816
   7.200   0.8948   0.01619   0.00964  -0.0328  0.0168  1.0000  -3.8576   0.0000   0.0000   0.0000   0.2793
   7.300   0.8943   0.01651   0.00999  -0.0308  0.0164  1.0000  -3.8967   0.0000   0.0000   0.0000   0.2769
   7.400   0.8980   0.01664   0.01014  -0.0295  0.0163  1.0000  -3.9675   0.0000   0.0000   0.0000   0.2751
   7.500   0.9015   0.01679   0.01031  -0.0281  0.0161  1.0000  -4.0372   0.0000   0.0000   0.0000   0.2734
   7.600   0.9048   0.01695   0.01049  -0.0268  0.0159  1.0000  -4.1056   0.0000   0.0000   0.0000   0.2717
   7.700   0.9080   0.01712   0.01068  -0.0254  0.0157  1.0000  -4.1731   0.0000   0.0000   0.0000   0.2700
   7.800   0.9112   0.01730   0.01088  -0.0240  0.0155  1.0000  -4.2402   0.0000   0.0000   0.0000   0.2682
   7.900   0.9143   0.01749   0.01109  -0.0226  0.0152  1.0000  -4.3070   0.0000   0.0000   0.0000   0.2665
   8.000   0.9171   0.01768   0.01131  -0.0212  0.0150  1.0000  -4.3729   0.0000   0.0000   0.0000   0.2648
   8.100   0.9197   0.01789   0.01154  -0.0198  0.0148  1.0000  -4.4380   0.0000   0.0000   0.0000   0.2630
   8.200   0.9223   0.01810   0.01177  -0.0183  0.0146  1.0000  -4.5032   0.0000   0.0000   0.0000   0.2613
   8.300   0.9249   0.01832   0.01201  -0.0169  0.0144  1.0000  -4.5693   0.0000   0.0000   0.0000   0.2596
   8.400   0.9276   0.01854   0.01225  -0.0155  0.0142  1.0000  -4.6365   0.0000   0.0000   0.0000   0.2579
   8.500   0.9306   0.01876   0.01248  -0.0142  0.0140  1.0000  -4.7057   0.0000   0.0000   0.0000   0.2563
   8.600   0.9336   0.01899   0.01272  -0.0129  0.0138  1.0000  -4.7769   0.0000   0.0000   0.0000   0.2547
   8.700   0.9366   0.01922   0.01297  -0.0116  0.0136  1.0000  -4.8491   0.0000   0.0000   0.0000   0.2532
   8.800   0.9395   0.01946   0.01324  -0.0103  0.0133  1.0000  -4.9205   0.0000   0.0000   0.0000   0.2516
   8.900   0.9419   0.01975   0.01354  -0.0089  0.0131  1.0000  -4.9874   0.0000   0.0000   0.0000   0.2500
   9.000   0.9433   0.02012   0.01392  -0.0074  0.0129  1.0000  -5.0446   0.0000   0.0000   0.0000   0.2482
   9.100   0.9432   0.02062   0.01445  -0.0056  0.0127  1.0000  -5.0838   0.0000   0.0000   0.0000   0.2463
   9.200   0.9416   0.02140   0.01526  -0.0037  0.0124  1.0000  -5.1047   0.0000   0.0000   0.0000   0.2441
   9.300   0.9459   0.02155   0.01545  -0.0026  0.0123  1.0000  -5.1958   0.0000   0.0000   0.0000   0.2428
   9.400   0.9500   0.02175   0.01567  -0.0015  0.0122  1.0000  -5.2833   0.0000   0.0000   0.0000   0.2416
   9.500   0.9538   0.02199   0.01594  -0.0004  0.0121  1.0000  -5.3669   0.0000   0.0000   0.0000   0.2403
   9.600   0.9577   0.02226   0.01624   0.0007  0.0120  1.0000  -5.4492   0.0000   0.0000   0.0000   0.2390
   9.700   0.9615   0.02254   0.01656   0.0018  0.0119  1.0000  -5.5310   0.0000   0.0000   0.0000   0.2377
   9.800   0.9654   0.02284   0.01689   0.0028  0.0117  1.0000  -5.6125   0.0000   0.0000   0.0000   0.2365
   9.900   0.9694   0.02316   0.01723   0.0039  0.0116  1.0000  -5.6938   0.0000   0.0000   0.0000   0.2353
  10.000   0.9734   0.02349   0.01759   0.0049  0.0115  1.0000  -5.7752   0.0000   0.0000   0.0000   0.2341
  10.100   0.9775   0.02383   0.01796   0.0059  0.0113  1.0000  -5.8569   0.0000   0.0000   0.0000   0.2330
  10.200   0.9817   0.02418   0.01835   0.0069  0.0112  1.0000  -5.9389   0.0000   0.0000   0.0000   0.2319
  10.300   0.9858   0.02453   0.01874   0.0079  0.0111  1.0000  -6.0213   0.0000   0.0000   0.0000   0.2308
  10.400   0.9901   0.02490   0.01914   0.0089  0.0110  1.0000  -6.1041   0.0000   0.0000   0.0000   0.2297
  10.500   0.9943   0.02527   0.01955   0.0098  0.0108  1.0000  -6.1874   0.0000   0.0000   0.0000   0.2287
  10.600   0.9985   0.02565   0.01996   0.0107  0.0107  1.0000  -6.2706   0.0000   0.0000   0.0000   0.2276
  10.700   1.0025   0.02604   0.02038   0.0117  0.0106  1.0000  -6.3538   0.0000   0.0000   0.0000   0.2266
  10.800   1.0065   0.02643   0.02081   0.0126  0.0105  1.0000  -6.4371   0.0000   0.0000   0.0000   0.2256
  10.900   1.0103   0.02683   0.02124   0.0136  0.0104  1.0000  -6.5201   0.0000   0.0000   0.0000   0.2246
  11.000   1.0141   0.02724   0.02169   0.0145  0.0103  1.0000  -6.6023   0.0000   0.0000   0.0000   0.2235
  11.100   1.0177   0.02766   0.02215   0.0155  0.0102  1.0000  -6.6847   0.0000   0.0000   0.0000   0.2225
  11.200   1.0213   0.02809   0.02262   0.0164  0.0101  1.0000  -6.7674   0.0000   0.0000   0.0000   0.2215
  11.300   1.0248   0.02853   0.02309   0.0173  0.0100  1.0000  -6.8504   0.0000   0.0000   0.0000   0.2206
  11.400   1.0281   0.02896   0.02356   0.0182  0.0099  1.0000  -6.9354   0.0000   0.0000   0.0000   0.2196
  11.500   1.0314   0.02939   0.02402   0.0191  0.0098  1.0000  -7.0221   0.0000   0.0000   0.0000   0.2186
  11.600   1.0345   0.02984   0.02450   0.0200  0.0097  1.0000  -7.1098   0.0000   0.0000   0.0000   0.2176
  11.700   1.0376   0.03031   0.02500   0.0209  0.0096  1.0000  -7.1972   0.0000   0.0000   0.0000   0.2167
  11.800   1.0407   0.03084   0.02556   0.0218  0.0095  1.0000  -7.2820   0.0000   0.0000   0.0000   0.2158
  11.900   1.0436   0.03149   0.02624   0.0226  0.0094  1.0000  -7.3584   0.0000   0.0000   0.0000   0.2149
  12.000   1.0465   0.03242   0.02723   0.0234  0.0093  1.0000  -7.4132   0.0000   0.0000   0.0000   0.2141
  12.100   1.0479   0.03423   0.02919   0.0243  0.0091  1.0000  -7.3930   0.0000   0.0000   0.0000   0.2131
  12.200   1.0461   0.03571   0.03081   0.0256  0.0090  1.0000  -7.3724   0.0000   0.0000   0.0000   0.2118
  12.300   1.0454   0.03610   0.03125   0.0268  0.0089  1.0000  -7.4363   0.0000   0.0000   0.0000   0.2104
  12.400   1.0448   0.03659   0.03181   0.0280  0.0089  1.0000  -7.4932   0.0000   0.0000   0.0000   0.2090
  12.500   1.0443   0.03717   0.03246   0.0292  0.0089  1.0000  -7.5444   0.0000   0.0000   0.0000   0.2078
  12.600   1.0437   0.03784   0.03320   0.0303  0.0088  1.0000  -7.5890   0.0000   0.0000   0.0000   0.2065
  12.700   1.0427   0.03857   0.03400   0.0314  0.0088  1.0000  -7.6282   0.0000   0.0000   0.0000   0.2053
  12.800   1.0410   0.03935   0.03486   0.0325  0.0088  1.0000  -7.6605   0.0000   0.0000   0.0000   0.2040
  12.900   1.0390   0.04019   0.03577   0.0336  0.0087  1.0000  -7.6885   0.0000   0.0000   0.0000   0.2027
  13.000   1.0368   0.04107   0.03673   0.0347  0.0087  1.0000  -7.7128   0.0000   0.0000   0.0000   0.2014
  13.100   1.0342   0.04201   0.03775   0.0357  0.0087  1.0000  -7.7323   0.0000   0.0000   0.0000   0.2001
  13.200   1.0308   0.04300   0.03882   0.0368  0.0086  1.0000  -7.7454   0.0000   0.0000   0.0000   0.1988
  13.300   1.0272   0.04404   0.03994   0.0378  0.0086  1.0000  -7.7548   0.0000   0.0000   0.0000   0.1975
  13.400   1.0234   0.04513   0.04110   0.0388  0.0086  1.0000  -7.7643   0.0000   0.0000   0.0000   0.1963
  13.500   1.0188   0.04627   0.04233   0.0397  0.0086  1.0000  -7.7724   0.0000   0.0000   0.0000   0.1950
  13.600   1.0139   0.04747   0.04361   0.0405  0.0086  1.0000  -7.7766   0.0000   0.0000   0.0000   0.1938
  13.700   1.0088   0.04873   0.04495   0.0413  0.0086  1.0000  -7.7773   0.0000   0.0000   0.0000   0.1926
  13.800   1.0031   0.05006   0.04636   0.0421  0.0085  1.0000  -7.7722   0.0000   0.0000   0.0000   0.1915
  13.900   0.9972   0.05145   0.04783   0.0427  0.0085  1.0000  -7.7643   0.0000   0.0000   0.0000   0.1904
  14.000   0.9907   0.05291   0.04936   0.0433  0.0085  1.0000  -7.7513   0.0000   0.0000   0.0000   0.1893
  14.100   0.9841   0.05443   0.05096   0.0437  0.0085  1.0000  -7.7353   0.0000   0.0000   0.0000   0.1884
  14.200   0.9770   0.05602   0.05263   0.0440  0.0085  1.0000  -7.7149   0.0000   0.0000   0.0000   0.1875
  14.300   0.9699   0.05769   0.05437   0.0443  0.0085  1.0000  -7.6916   0.0000   0.0000   0.0000   0.1867
  14.400   0.9623   0.05945   0.05620   0.0444  0.0085  1.0000  -7.6642   0.0000   0.0000   0.0000   0.1860
  14.500   0.9547   0.06129   0.05812   0.0443  0.0085  1.0000  -7.6338   0.0000   0.0000   0.0000   0.1854
  14.600   0.9468   0.06322   0.06012   0.0442  0.0085  1.0000  -7.6000   0.0000   0.0000   0.0000   0.1850
  14.700   0.9387   0.06525   0.06222   0.0439  0.0086  1.0000  -7.5625   0.0000   0.0000   0.0000   0.1847
  14.800   0.9304   0.06737   0.06441   0.0434  0.0086  1.0000  -7.5217   0.0000   0.0000   0.0000   0.1845
  14.900   0.9221   0.06959   0.06669   0.0428  0.0086  1.0000  -7.4775   0.0000   0.0000   0.0000   0.1845
  15.000   0.9136   0.07192   0.06909   0.0421  0.0086  1.0000  -7.4294   0.0000   0.0000   0.0000   0.1846
  15.100   0.9049   0.07436   0.07160   0.0411  0.0086  1.0000  -7.3772   0.0000   0.0000   0.0000   0.1850
  15.200   0.8961   0.07693   0.07422   0.0401  0.0086  1.0000  -7.3207   0.0000   0.0000   0.0000   0.1855
  15.300   0.8872   0.07962   0.07697   0.0389  0.0087  1.0000  -7.2595   0.0000   0.0000   0.0000   0.1862
  15.400   0.8782   0.08244   0.07985   0.0375  0.0087  1.0000  -7.1929   0.0000   0.0000   0.0000   0.1871
  15.500   0.8690   0.08540   0.08288   0.0359  0.0087  1.0000  -7.1200   0.0000   0.0000   0.0000   0.1881
  15.600   0.8596   0.08851   0.08604   0.0342  0.0087  1.0000  -7.0396   0.0000   0.0000   0.0000   0.1894
  15.700   0.8499   0.09180   0.08939   0.0324  0.0088  1.0000  -6.9496   0.0000   0.0000   0.0000   0.1909
  15.800   0.8398   0.09532   0.09296   0.0304  0.0088  1.0000  -6.8462   0.0000   0.0000   0.0000   0.1927
  15.900   0.8284   0.09919   0.09688   0.0281  0.0089  1.0000  -6.7167   0.0000   0.0000   0.0000   0.1947
  16.000   0.6679   0.15120   0.14923   0.0024  0.0153  1.0000  -2.9045   0.0000   0.0000   0.0000   0.2271
  16.100   0.6669   0.15351   0.15154   0.0014  0.0150  1.0000  -2.8448   0.0000   0.0000   0.0000   0.2286
  16.200   0.6666   0.15554   0.15355   0.0005  0.0147  1.0000  -2.8050   0.0000   0.0000   0.0000   0.2298
  16.300   0.6666   0.15741   0.15543  -0.0004  0.0145  1.0000  -2.7755   0.0000   0.0000   0.0000   0.2309
  16.400   0.6669   0.15917   0.15718  -0.0011  0.0143  1.0000  -2.7543   0.0000   0.0000   0.0000   0.2320
  16.500   0.6675   0.16082   0.15883  -0.0019  0.0141  1.0000  -2.7399   0.0000   0.0000   0.0000   0.2329
  16.600   0.6683   0.16239   0.16039  -0.0026  0.0139  1.0000  -2.7313   0.0000   0.0000   0.0000   0.2338
  16.700   0.6694   0.16388   0.16188  -0.0033  0.0138  1.0000  -2.7281   0.0000   0.0000   0.0000   0.2347
  16.800   0.6706   0.16529   0.16329  -0.0039  0.0136  1.0000  -2.7300   0.0000   0.0000   0.0000   0.2355
  16.900   0.6720   0.16663   0.16463  -0.0045  0.0135  1.0000  -2.7370   0.0000   0.0000   0.0000   0.2362
  17.000   0.6735   0.16791   0.16591  -0.0051  0.0134  1.0000  -2.7493   0.0000   0.0000   0.0000   0.2369
  17.100   0.6752   0.16912   0.16712  -0.0056  0.0133  1.0000  -2.7657   0.0000   0.0000   0.0000   0.2375
  17.200   0.6770   0.17027   0.16827  -0.0061  0.0132  1.0000  -2.7872   0.0000   0.0000   0.0000   0.2381
  17.300   0.6790   0.17137   0.16936  -0.0066  0.0131  1.0000  -2.8127   0.0000   0.0000   0.0000   0.2386
  17.400   0.6809   0.17242   0.17042  -0.0071  0.0130  1.0000  -2.8415   0.0000   0.0000   0.0000   0.2391
  17.500   0.6831   0.17342   0.17142  -0.0075  0.0129  1.0000  -2.8751   0.0000   0.0000   0.0000   0.2395
  17.600   0.6851   0.17442   0.17242  -0.0080  0.0128  1.0000  -2.9087   0.0000   0.0000   0.0000   0.2399
  17.700   0.6871   0.17540   0.17340  -0.0084  0.0127  1.0000  -2.9444   0.0000   0.0000   0.0000   0.2403
  17.800   0.6891   0.17632   0.17432  -0.0088  0.0127  1.0000  -2.9846   0.0000   0.0000   0.0000   0.2406
  17.900   0.6851   0.17894   0.17693  -0.0096  0.0124  1.0000  -2.8811   0.0000   0.0000   0.0000   0.2417
  18.000   0.6862   0.18067   0.17866  -0.0104  0.0124  1.0000  -2.8427   0.0000   0.0000   0.0000   0.2427
  18.100   0.6874   0.18238   0.18036  -0.0111  0.0124  1.0000  -2.8054   0.0000   0.0000   0.0000   0.2437
  18.200   0.6886   0.18406   0.18204  -0.0119  0.0123  1.0000  -2.7685   0.0000   0.0000   0.0000   0.2446
  18.300   0.6900   0.18573   0.18370  -0.0127  0.0123  1.0000  -2.7317   0.0000   0.0000   0.0000   0.2456
  18.400   0.6914   0.18738   0.18535  -0.0135  0.0123  1.0000  -2.6942   0.0000   0.0000   0.0000   0.2466
  18.500   0.6929   0.18904   0.18701  -0.0143  0.0123  1.0000  -2.6541   0.0000   0.0000   0.0000   0.2476
  18.600   0.6937   0.19111   0.18908  -0.0154  0.0121  1.0000  -2.5687   0.0000   0.0000   0.0000   0.2491
  18.700   0.6926   0.19435   0.19230  -0.0173  0.0115  1.0000  -2.3557   0.0000   0.0000   0.0000   0.2519
  18.800   0.6941   0.19589   0.19384  -0.0181  0.0111  1.0000  -2.3235   0.0000   0.0000   0.0000   0.2528
  18.900   0.6959   0.19723   0.19518  -0.0187  0.0109  1.0000  -2.3091   0.0000   0.0000   0.0000   0.2536
  19.000   0.6978   0.19853   0.19648  -0.0194  0.0107  1.0000  -2.3004   0.0000   0.0000   0.0000   0.2542
  19.100   0.6998   0.19978   0.19773  -0.0200  0.0105  1.0000  -2.2955   0.0000   0.0000   0.0000   0.2549
  19.200   0.7018   0.20099   0.19894  -0.0206  0.0104  1.0000  -2.2938   0.0000   0.0000   0.0000   0.2555
  19.300   0.7039   0.20217   0.20012  -0.0212  0.0102  1.0000  -2.2952   0.0000   0.0000   0.0000   0.2561
  19.400   0.7060   0.20331   0.20126  -0.0218  0.0101  1.0000  -2.2997   0.0000   0.0000   0.0000   0.2567
  19.500   0.7082   0.20442   0.20237  -0.0224  0.0100  1.0000  -2.3072   0.0000   0.0000   0.0000   0.2573
  19.600   0.7104   0.20550   0.20345  -0.0230  0.0099  1.0000  -2.3179   0.0000   0.0000   0.0000   0.2578
  19.700   0.7127   0.20654   0.20449  -0.0235  0.0098  1.0000  -2.3319   0.0000   0.0000   0.0000   0.2583
  19.800   0.7151   0.20754   0.20550  -0.0241  0.0097  1.0000  -2.3508   0.0000   0.0000   0.0000   0.2587
  19.900   0.7175   0.20851   0.20646  -0.0246  0.0096  1.0000  -2.3787   0.0000   0.0000   0.0000   0.2591
  20.000   0.7200   0.20944   0.20739  -0.0251  0.0095  1.0000  -2.4107   0.0000   0.0000   0.0000   0.2595
  20.100   0.7226   0.21033   0.20829  -0.0256  0.0094  1.0000  -2.4473   0.0000   0.0000   0.0000   0.2598
  20.200   0.7252   0.21117   0.20913  -0.0260  0.0094  1.0000  -2.4893   0.0000   0.0000   0.0000   0.2601
  20.300   0.7281   0.21196   0.20992  -0.0264  0.0093  1.0000  -2.5380   0.0000   0.0000   0.0000   0.2602
  20.400   0.7310   0.21272   0.21069  -0.0267  0.0092  1.0000  -2.5913   0.0000   0.0000   0.0000   0.2603
  20.500   0.7336   0.21355   0.21152  -0.0270  0.0092  1.0000  -2.6407   0.0000   0.0000   0.0000   0.2605
  20.600   0.7338   0.21542   0.21337  -0.0275  0.0090  1.0000  -2.5970   0.0000   0.0000   0.0000   0.2609
  20.700   0.7357   0.21676   0.21471  -0.0282  0.0090  1.0000  -2.5778   0.0000   0.0000   0.0000   0.2616
  20.800   0.7377   0.21809   0.21604  -0.0289  0.0090  1.0000  -2.5583   0.0000   0.0000   0.0000   0.2623
  20.900   0.7397   0.21941   0.21736  -0.0296  0.0090  1.0000  -2.5386   0.0000   0.0000   0.0000   0.2630
  21.000   0.7417   0.22072   0.21867  -0.0303  0.0090  1.0000  -2.5186   0.0000   0.0000   0.0000   0.2636
  21.100   0.7438   0.22202   0.21997  -0.0310  0.0089  1.0000  -2.4981   0.0000   0.0000   0.0000   0.2643
  21.200   0.7456   0.22338   0.22133  -0.0318  0.0089  1.0000  -2.4674   0.0000   0.0000   0.0000   0.2651
  21.300   0.7473   0.22477   0.22272  -0.0326  0.0089  1.0000  -2.4294   0.0000   0.0000   0.0000   0.2659
  21.400   0.7488   0.22625   0.22419  -0.0335  0.0089  1.0000  -2.3765   0.0000   0.0000   0.0000   0.2670
  21.500   0.7499   0.22792   0.22586  -0.0346  0.0088  1.0000  -2.2947   0.0000   0.0000   0.0000   0.2683
  21.600   0.7515   0.22979   0.22773  -0.0358  0.0085  1.0000  -2.1903   0.0000   0.0000   0.0000   0.2696
  21.700   0.7537   0.23119   0.22912  -0.0365  0.0083  1.0000  -2.1507   0.0000   0.0000   0.0000   0.2703
  21.800   0.7560   0.23240   0.23033  -0.0372  0.0081  1.0000  -2.1349   0.0000   0.0000   0.0000   0.2709
  21.900   0.7583   0.23353   0.23146  -0.0378  0.0079  1.0000  -2.1271   0.0000   0.0000   0.0000   0.2714
  22.000   0.7605   0.23464   0.23257  -0.0385  0.0077  1.0000  -2.1239   0.0000   0.0000   0.0000   0.2719
  22.100   0.7628   0.23572   0.23365  -0.0391  0.0076  1.0000  -2.1244   0.0000   0.0000   0.0000   0.2724
  22.200   0.7652   0.23676   0.23470  -0.0397  0.0074  1.0000  -2.1279   0.0000   0.0000   0.0000   0.2729
  22.300   0.7675   0.23778   0.23572  -0.0403  0.0073  1.0000  -2.1344   0.0000   0.0000   0.0000   0.2733
  22.400   0.7698   0.23878   0.23671  -0.0410  0.0072  1.0000  -2.1436   0.0000   0.0000   0.0000   0.2738
  22.500   0.7722   0.23975   0.23768  -0.0416  0.0071  1.0000  -2.1554   0.0000   0.0000   0.0000   0.2742
  22.600   0.7745   0.24069   0.23863  -0.0422  0.0070  1.0000  -2.1695   0.0000   0.0000   0.0000   0.2746
  22.700   0.7769   0.24163   0.23957  -0.0428  0.0069  1.0000  -2.1855   0.0000   0.0000   0.0000   0.2750
  22.800   0.7792   0.24254   0.24049  -0.0434  0.0068  1.0000  -2.2028   0.0000   0.0000   0.0000   0.2754
  22.900   0.7816   0.24345   0.24139  -0.0440  0.0068  1.0000  -2.2209   0.0000   0.0000   0.0000   0.2758
  23.000   0.7839   0.24433   0.24227  -0.0446  0.0067  1.0000  -2.2414   0.0000   0.0000   0.0000   0.2761
  23.100   0.7863   0.24519   0.24314  -0.0451  0.0066  1.0000  -2.2646   0.0000   0.0000   0.0000   0.2765
  23.200   0.7887   0.24604   0.24400  -0.0457  0.0066  1.0000  -2.2909   0.0000   0.0000   0.0000   0.2768
  23.300   0.7911   0.24686   0.24481  -0.0463  0.0065  1.0000  -2.3206   0.0000   0.0000   0.0000   0.2771
  23.400   0.7936   0.24765   0.24561  -0.0468  0.0065  1.0000  -2.3543   0.0000   0.0000   0.0000   0.2773
  23.500   0.7961   0.24842   0.24638  -0.0472  0.0065  1.0000  -2.3931   0.0000   0.0000   0.0000   0.2775
  23.600   0.7987   0.24918   0.24714  -0.0476  0.0064  1.0000  -2.4393   0.0000   0.0000   0.0000   0.2775
  23.700   0.8016   0.24995   0.24791  -0.0479  0.0064  1.0000  -2.4987   0.0000   0.0000   0.0000   0.2773
  23.800   0.8034   0.25144   0.24940  -0.0483  0.0063  1.0000  -2.4658   0.0000   0.0000   0.0000   0.2776
  23.900   0.8056   0.25255   0.25051  -0.0490  0.0063  1.0000  -2.4450   0.0000   0.0000   0.0000   0.2781
  24.000   0.8077   0.25366   0.25161  -0.0497  0.0063  1.0000  -2.4233   0.0000   0.0000   0.0000   0.2786
  24.100   0.8098   0.25476   0.25271  -0.0504  0.0063  1.0000  -2.4000   0.0000   0.0000   0.0000   0.2791
  24.200   0.8117   0.25590   0.25385  -0.0512  0.0063  1.0000  -2.3663   0.0000   0.0000   0.0000   0.2797
  24.300   0.8137   0.25704   0.25500  -0.0520  0.0063  1.0000  -2.3309   0.0000   0.0000   0.0000   0.2803
  24.400   0.8155   0.25821   0.25617  -0.0528  0.0062  1.0000  -2.3000   0.0000   0.0000   0.0000   0.2810
  24.500   0.8173   0.25940   0.25735  -0.0536  0.0062  1.0000  -2.2667   0.0000   0.0000   0.0000   0.2817
  24.600   0.8192   0.26060   0.25855  -0.0545  0.0062  1.0000  -2.2308   0.0000   0.0000   0.0000   0.2824
  24.700   0.8212   0.26183   0.25978  -0.0553  0.0062  1.0000  -2.1905   0.0000   0.0000   0.0000   0.2831
  24.800   0.8233   0.26312   0.26107  -0.0562  0.0061  1.0000  -2.1420   0.0000   0.0000   0.0000   0.2838
  24.900   0.8257   0.26449   0.26244  -0.0570  0.0060  1.0000  -2.0848   0.0000   0.0000   0.0000   0.2845
  25.000   0.8282   0.26572   0.26367  -0.0578  0.0058  1.0000  -2.0496   0.0000   0.0000   0.0000   0.2850
  25.100   0.8305   0.26680   0.26475  -0.0584  0.0057  1.0000  -2.0362   0.0000   0.0000   0.0000   0.2854
  25.200   0.8328   0.26781   0.26576  -0.0591  0.0056  1.0000  -2.0306   0.0000   0.0000   0.0000   0.2858
  25.300   0.8351   0.26878   0.26673  -0.0597  0.0055  1.0000  -2.0286   0.0000   0.0000   0.0000   0.2862
  25.400   0.8373   0.26976   0.26771  -0.0604  0.0054  1.0000  -2.0287   0.0000   0.0000   0.0000   0.2866
  25.500   0.8396   0.27072   0.26868  -0.0611  0.0053  1.0000  -2.0304   0.0000   0.0000   0.0000   0.2869
  25.600   0.8418   0.27165   0.26961  -0.0617  0.0052  1.0000  -2.0332   0.0000   0.0000   0.0000   0.2873
  25.700   0.8440   0.27258   0.27054  -0.0624  0.0051  1.0000  -2.0371   0.0000   0.0000   0.0000   0.2877
  25.800   0.8462   0.27350   0.27146  -0.0630  0.0050  1.0000  -2.0419   0.0000   0.0000   0.0000   0.2880
  25.900   0.8485   0.27440   0.27236  -0.0637  0.0050  1.0000  -2.0478   0.0000   0.0000   0.0000   0.2884
  26.000   0.8506   0.27529   0.27325  -0.0643  0.0049  1.0000  -2.0553   0.0000   0.0000   0.0000   0.2887
  26.100   0.8528   0.27616   0.27413  -0.0650  0.0048  1.0000  -2.0643   0.0000   0.0000   0.0000   0.2891
  26.200   0.8550   0.27702   0.27499  -0.0657  0.0047  1.0000  -2.0750   0.0000   0.0000   0.0000   0.2894
  26.300   0.8572   0.27786   0.27583  -0.0663  0.0047  1.0000  -2.0876   0.0000   0.0000   0.0000   0.2897
  26.400   0.8593   0.27868   0.27665  -0.0670  0.0046  1.0000  -2.1022   0.0000   0.0000   0.0000   0.2901
  26.500   0.8615   0.27949   0.27746  -0.0676  0.0046  1.0000  -2.1188   0.0000   0.0000   0.0000   0.2904
  26.600   0.8636   0.28028   0.27825  -0.0683  0.0045  1.0000  -2.1376   0.0000   0.0000   0.0000   0.2907
  26.700   0.8657   0.28108   0.27906  -0.0689  0.0045  1.0000  -2.1587   0.0000   0.0000   0.0000   0.2910
  26.800   0.8678   0.28183   0.27981  -0.0696  0.0044  1.0000  -2.1821   0.0000   0.0000   0.0000   0.2913
  26.900   0.8699   0.28257   0.28055  -0.0702  0.0044  1.0000  -2.2079   0.0000   0.0000   0.0000   0.2915
  27.000   0.8719   0.28329   0.28128  -0.0708  0.0044  1.0000  -2.2362   0.0000   0.0000   0.0000   0.2918
  27.100   0.8740   0.28400   0.28199  -0.0714  0.0043  1.0000  -2.2673   0.0000   0.0000   0.0000   0.2920
  27.200   0.8760   0.28470   0.28269  -0.0720  0.0043  1.0000  -2.3015   0.0000   0.0000   0.0000   0.2922
  27.300   0.8781   0.28540   0.28339  -0.0725  0.0043  1.0000  -2.3398   0.0000   0.0000   0.0000   0.2923
  27.400   0.8803   0.28612   0.28412  -0.0730  0.0042  1.0000  -2.3854   0.0000   0.0000   0.0000   0.2923


