xflr5 v6.61

 Calculated polar for: MH 17

 1 1 Reynolds number fixed          Mach number fixed         

 xtrf =   1.000 (top)        1.000 (bottom)
 Mach =   0.000     Re =     0.563 e 6     Ncrit =   9.000

  alpha     CL        CD       CDp       Cm    Top Xtr Bot Xtr   Cpmin    Chinge    XCp    
 ------- -------- --------- --------- -------- ------- ------- -------- --------- ---------
 -10.000  -0.3513   0.05727   0.05528  -0.0633  0.9365  0.0173  -2.4545   0.0000   0.0000   0.0000   0.0618
  -9.900  -0.3673   0.05228   0.05027  -0.0675  0.9355  0.0171  -2.6623   0.0000   0.0000   0.0000   0.0583
  -9.600  -0.4776   0.05926   0.05679  -0.0771  0.9554  0.0158  -3.5667   0.0000   0.0000   0.0000   0.0793
  -9.500  -0.4894   0.05730   0.05476  -0.0761  0.9500  0.0159  -3.6492   0.0000   0.0000   0.0000   0.0855
  -9.400  -0.4990   0.05579   0.05319  -0.0748  0.9452  0.0160  -3.6999   0.0000   0.0000   0.0000   0.0914
  -9.300  -0.5074   0.05453   0.05185  -0.0731  0.9410  0.0161  -3.7341   0.0000   0.0000   0.0000   0.0973
  -9.200  -0.5153   0.05347   0.05074  -0.0712  0.9373  0.0161  -3.7574   0.0000   0.0000   0.0000   0.1034
  -9.100  -0.5226   0.05251   0.04974  -0.0693  0.9339  0.0162  -3.7736   0.0000   0.0000   0.0000   0.1093
  -9.000  -0.5283   0.05149   0.04866  -0.0676  0.9309  0.0163  -3.7821   0.0000   0.0000   0.0000   0.1141
  -8.900  -0.5328   0.05043   0.04755  -0.0660  0.9282  0.0163  -3.7828   0.0000   0.0000   0.0000   0.1182
  -8.800  -0.5364   0.04942   0.04647  -0.0646  0.9258  0.0164  -3.7770   0.0000   0.0000   0.0000   0.1219
  -8.700  -0.5380   0.04852   0.04551  -0.0633  0.9235  0.0165  -3.7517   0.0000   0.0000   0.0000   0.1247
  -8.600  -0.5387   0.04763   0.04459  -0.0621  0.9216  0.0166  -3.7175   0.0000   0.0000   0.0000   0.1271
  -8.500  -0.5391   0.04677   0.04369  -0.0610  0.9196  0.0167  -3.6818   0.0000   0.0000   0.0000   0.1294
  -8.400  -0.5392   0.04592   0.04279  -0.0598  0.9176  0.0168  -3.6450   0.0000   0.0000   0.0000   0.1317
  -8.300  -0.5390   0.04507   0.04190  -0.0587  0.9156  0.0168  -3.6073   0.0000   0.0000   0.0000   0.1339
  -8.200  -0.5385   0.04424   0.04101  -0.0575  0.9137  0.0170  -3.5691   0.0000   0.0000   0.0000   0.1361
  -8.100  -0.5378   0.04341   0.04012  -0.0563  0.9119  0.0171  -3.5307   0.0000   0.0000   0.0000   0.1383
  -8.000  -0.5369   0.04259   0.03923  -0.0551  0.9102  0.0172  -3.4922   0.0000   0.0000   0.0000   0.1404
  -7.900  -0.5356   0.04178   0.03836  -0.0539  0.9085  0.0173  -3.4538   0.0000   0.0000   0.0000   0.1425
  -7.800  -0.5338   0.04093   0.03745  -0.0528  0.9070  0.0175  -3.4146   0.0000   0.0000   0.0000   0.1443
  -7.700  -0.5317   0.04006   0.03652  -0.0517  0.9054  0.0176  -3.3754   0.0000   0.0000   0.0000   0.1460
  -7.600  -0.5293   0.03920   0.03559  -0.0506  0.9037  0.0178  -3.3371   0.0000   0.0000   0.0000   0.1477
  -7.500  -0.5267   0.03833   0.03464  -0.0495  0.9020  0.0180  -3.3004   0.0000   0.0000   0.0000   0.1494
  -7.400  -0.5239   0.03747   0.03370  -0.0484  0.9003  0.0182  -3.2627   0.0000   0.0000   0.0000   0.1511
  -7.300  -0.5208   0.03661   0.03277  -0.0472  0.8987  0.0185  -3.2259   0.0000   0.0000   0.0000   0.1528
  -7.200  -0.5175   0.03575   0.03182  -0.0461  0.8972  0.0188  -3.1904   0.0000   0.0000   0.0000   0.1545
  -7.100  -0.5139   0.03489   0.03087  -0.0449  0.8957  0.0191  -3.1565   0.0000   0.0000   0.0000   0.1563
  -7.000  -0.5100   0.03403   0.02992  -0.0437  0.8943  0.0195  -3.1241   0.0000   0.0000   0.0000   0.1580
  -6.900  -0.5059   0.03321   0.02899  -0.0425  0.8929  0.0199  -3.0942   0.0000   0.0000   0.0000   0.1597
  -6.400  -0.4906   0.02460   0.01921  -0.0332  0.8852  0.0161  -3.7411   0.0000   0.0000   0.0000   0.1760
  -6.300  -0.4819   0.02433   0.01887  -0.0327  0.8838  0.0159  -3.6940   0.0000   0.0000   0.0000   0.1760
  -6.200  -0.4736   0.02390   0.01837  -0.0321  0.8825  0.0158  -3.6499   0.0000   0.0000   0.0000   0.1761
  -6.100  -0.4654   0.02337   0.01776  -0.0315  0.8813  0.0158  -3.6089   0.0000   0.0000   0.0000   0.1763
  -6.000  -0.4572   0.02276   0.01707  -0.0309  0.8802  0.0157  -3.5694   0.0000   0.0000   0.0000   0.1764
  -5.900  -0.4488   0.02211   0.01633  -0.0303  0.8791  0.0157  -3.5299   0.0000   0.0000   0.0000   0.1764
  -5.800  -0.4402   0.02143   0.01556  -0.0298  0.8780  0.0157  -3.4882   0.0000   0.0000   0.0000   0.1762
  -5.700  -0.4312   0.02074   0.01478  -0.0294  0.8770  0.0156  -3.4442   0.0000   0.0000   0.0000   0.1758
  -5.600  -0.4219   0.02005   0.01400  -0.0290  0.8759  0.0156  -3.3979   0.0000   0.0000   0.0000   0.1752
  -5.500  -0.4119   0.01930   0.01318  -0.0288  0.8749  0.0156  -3.3496   0.0000   0.0000   0.0000   0.1740
  -5.400  -0.4003   0.01777   0.01152  -0.0290  0.8739  0.0159  -3.3466   0.0000   0.0000   0.0000   0.1716
  -5.300  -0.3883   0.01648   0.01016  -0.0293  0.8730  0.0164  -3.3171   0.0000   0.0000   0.0000   0.1685
  -5.200  -0.3778   0.01584   0.00948  -0.0292  0.8718  0.0167  -3.2489   0.0000   0.0000   0.0000   0.1665
  -5.100  -0.3677   0.01537   0.00898  -0.0291  0.8706  0.0170  -3.1746   0.0000   0.0000   0.0000   0.1647
  -5.000  -0.3578   0.01494   0.00852  -0.0289  0.8694  0.0171  -3.1051   0.0000   0.0000   0.0000   0.1632
  -4.900  -0.3485   0.01455   0.00810  -0.0285  0.8681  0.0173  -3.0334   0.0000   0.0000   0.0000   0.1620
  -4.800  -0.3394   0.01421   0.00775  -0.0281  0.8668  0.0176  -2.9584   0.0000   0.0000   0.0000   0.1610
  -4.700  -0.3305   0.01392   0.00743  -0.0277  0.8656  0.0179  -2.8809   0.0000   0.0000   0.0000   0.1600
  -4.600  -0.3217   0.01366   0.00716  -0.0273  0.8643  0.0183  -2.8018   0.0000   0.0000   0.0000   0.1592
  -4.500  -0.3129   0.01342   0.00690  -0.0268  0.8632  0.0188  -2.7225   0.0000   0.0000   0.0000   0.1583
  -4.400  -0.3042   0.01321   0.00666  -0.0263  0.8621  0.0193  -2.6436   0.0000   0.0000   0.0000   0.1575
  -4.300  -0.2956   0.01300   0.00643  -0.0258  0.8610  0.0198  -2.5650   0.0000   0.0000   0.0000   0.1567
  -4.200  -0.2871   0.01282   0.00622  -0.0253  0.8599  0.0203  -2.4866   0.0000   0.0000   0.0000   0.1559
  -4.100  -0.2784   0.01264   0.00602  -0.0248  0.8587  0.0209  -2.4074   0.0000   0.0000   0.0000   0.1549
  -4.000  -0.2697   0.01246   0.00583  -0.0244  0.8572  0.0214  -2.3375   0.0000   0.0000   0.0000   0.1537
  -3.900  -0.2608   0.01230   0.00564  -0.0239  0.8557  0.0220  -2.2791   0.0000   0.0000   0.0000   0.1523
  -3.800  -0.2518   0.01216   0.00548  -0.0235  0.8542  0.0225  -2.2166   0.0000   0.0000   0.0000   0.1506
  -3.700  -0.2424   0.01206   0.00537  -0.0232  0.8528  0.0229  -2.1483   0.0000   0.0000   0.0000   0.1482
  -3.600  -0.2365   0.01168   0.00493  -0.0221  0.8512  0.0244  -2.1201   0.0000   0.0000   0.0000   0.1504
  -3.500  -0.2288   0.01144   0.00468  -0.0214  0.8498  0.0264  -2.0695   0.0000   0.0000   0.0000   0.1503
  -3.400  -0.2199   0.01129   0.00453  -0.0210  0.8485  0.0281  -2.0040   0.0000   0.0000   0.0000   0.1485
  -3.300  -0.2107   0.01117   0.00438  -0.0206  0.8474  0.0298  -1.9394   0.0000   0.0000   0.0000   0.1463
  -3.200  -0.2015   0.01105   0.00424  -0.0202  0.8462  0.0315  -1.8755   0.0000   0.0000   0.0000   0.1437
  -3.100  -0.1919   0.01096   0.00412  -0.0199  0.8451  0.0330  -1.8081   0.0000   0.0000   0.0000   0.1403
  -3.000  -0.1837   0.01076   0.00389  -0.0192  0.8440  0.0381  -1.7599   0.0000   0.0000   0.0000   0.1392
  -2.900  -0.1750   0.01062   0.00378  -0.0187  0.8428  0.0450  -1.6985   0.0000   0.0000   0.0000   0.1368
  -2.800  -0.1677   0.01036   0.00364  -0.0180  0.8412  0.0712  -1.6435   0.0000   0.0000   0.0000   0.1364
  -2.700  -0.1634   0.00992   0.00352  -0.0168  0.8393  0.1479  -1.5925   0.0000   0.0000   0.0000   0.1407
  -2.600  -0.1595   0.00946   0.00338  -0.0156  0.8375  0.2351  -1.5396   0.0000   0.0000   0.0000   0.1459
  -2.500  -0.1591   0.00878   0.00320  -0.0137  0.8356  0.3641  -1.5006   0.0000   0.0000   0.0000   0.1578
  -2.400  -0.1642   0.00799   0.00304  -0.0106  0.8335  0.5265  -1.4791   0.0000   0.0000   0.0000   0.1797
  -2.300  -0.1634   0.00765   0.00299  -0.0084  0.8318  0.6066  -1.4361   0.0000   0.0000   0.0000   0.1932
  -2.200  -0.1593   0.00745   0.00296  -0.0068  0.8304  0.6530  -1.3813   0.0000   0.0000   0.0000   0.2017
  -2.100  -0.1531   0.00732   0.00292  -0.0057  0.8292  0.6843  -1.3197   0.0000   0.0000   0.0000   0.2075
  -2.000  -0.1457   0.00723   0.00289  -0.0048  0.8280  0.7088  -1.2543   0.0000   0.0000   0.0000   0.2115
  -1.900  -0.1380   0.00714   0.00286  -0.0040  0.8268  0.7304  -1.1887   0.0000   0.0000   0.0000   0.2155
  -1.800  -0.1301   0.00705   0.00285  -0.0033  0.8253  0.7510  -1.1235   0.0000   0.0000   0.0000   0.2194
  -1.700  -0.1215   0.00696   0.00284  -0.0027  0.8236  0.7702  -1.0567   0.0000   0.0000   0.0000   0.2224
  -1.600  -0.1120   0.00688   0.00282  -0.0023  0.8219  0.7878  -0.9945   0.0000   0.0000   0.0000   0.2238
  -1.500  -0.1013   0.00680   0.00281  -0.0022  0.8204  0.8051  -0.9340   0.0000   0.0000   0.0000   0.2226
  -1.400  -0.0888   0.00673   0.00281  -0.0024  0.8190  0.8241  -0.8696   0.0000   0.0000   0.0000   0.2168
  -1.300  -0.0698   0.00669   0.00286  -0.0040  0.8181  0.8521  -0.7876   0.0000   0.0000   0.0000   0.1854
  -1.200  -0.0505   0.00674   0.00297  -0.0056  0.8172  0.8765  -0.7077   0.0000   0.0000   0.0000   0.1302
  -1.100  -0.0326   0.00680   0.00305  -0.0070  0.8162  0.8883  -0.6330   0.0000   0.0000   0.0000   0.0236
  -1.000  -0.0177   0.00684   0.00307  -0.0077  0.8151  0.8944  -0.5678   0.0000   0.0000   0.0000  -0.2054
  -0.900  -0.0010   0.00690   0.00311  -0.0089  0.8141  0.8991  -0.4991   0.0000   0.0000   0.0000  -9.3758
  -0.800   0.0043   0.00694   0.00313  -0.0075  0.8127  0.9078  -0.4589   0.0000   0.0000   0.0000   2.0587
  -0.700   0.0229   0.00700   0.00317  -0.0091  0.8118  0.9099  -0.3945   0.0000   0.0000   0.0000   0.6562
  -0.600   0.0400   0.00706   0.00320  -0.0104  0.8109  0.9117  -0.3852   0.0000   0.0000   0.0000   0.5139
  -0.500   0.0557   0.00710   0.00322  -0.0114  0.8097  0.9134  -0.3920   0.0000   0.0000   0.0000   0.4571
  -0.400   0.0702   0.00714   0.00326  -0.0122  0.8081  0.9152  -0.3982   0.0000   0.0000   0.0000   0.4249
  -0.200   0.0855   0.00722   0.00332  -0.0106  0.8040  0.9243  -0.4052   0.0000   0.0000   0.0000   0.3741
  -0.100   0.1020   0.00724   0.00334  -0.0118  0.8025  0.9250  -0.4124   0.0000   0.0000   0.0000   0.3655
   0.000   0.1181   0.00727   0.00335  -0.0129  0.8011  0.9256  -0.4195   0.0000   0.0000   0.0000   0.3590
   0.100   0.1339   0.00730   0.00336  -0.0140  0.7997  0.9264  -0.4265   0.0000   0.0000   0.0000   0.3535
   0.200   0.1493   0.00733   0.00337  -0.0149  0.7982  0.9271  -0.4363   0.0000   0.0000   0.0000   0.3488
   0.300   0.1645   0.00734   0.00336  -0.0158  0.7964  0.9279  -0.4486   0.0000   0.0000   0.0000   0.3447
   0.400   0.1794   0.00736   0.00334  -0.0165  0.7943  0.9287  -0.4610   0.0000   0.0000   0.0000   0.3408
   0.500   0.1936   0.00738   0.00336  -0.0172  0.7908  0.9297  -0.4731   0.0000   0.0000   0.0000   0.3374
   0.600   0.2076   0.00739   0.00336  -0.0178  0.7869  0.9309  -0.4852   0.0000   0.0000   0.0000   0.3342
   0.700   0.2213   0.00739   0.00334  -0.0183  0.7833  0.9323  -0.4978   0.0000   0.0000   0.0000   0.3310
   0.800   0.2340   0.00739   0.00332  -0.0186  0.7804  0.9341  -0.5099   0.0000   0.0000   0.0000   0.3277
   0.900   0.2360   0.00741   0.00331  -0.0165  0.7779  0.9404  -0.5158   0.0000   0.0000   0.0000   0.3179
   1.000   0.2514   0.00744   0.00335  -0.0175  0.7750  0.9408  -0.5293   0.0000   0.0000   0.0000   0.3175
   1.100   0.2667   0.00747   0.00338  -0.0185  0.7722  0.9413  -0.5434   0.0000   0.0000   0.0000   0.3170
   1.200   0.2820   0.00749   0.00340  -0.0194  0.7695  0.9418  -0.5578   0.0000   0.0000   0.0000   0.3165
   1.300   0.2972   0.00751   0.00342  -0.0203  0.7670  0.9424  -0.5723   0.0000   0.0000   0.0000   0.3160
   1.400   0.3123   0.00754   0.00343  -0.0212  0.7647  0.9430  -0.5868   0.0000   0.0000   0.0000   0.3155
   1.500   0.3273   0.00756   0.00343  -0.0221  0.7625  0.9437  -0.6013   0.0000   0.0000   0.0000   0.3149
   1.600   0.3420   0.00760   0.00347  -0.0229  0.7599  0.9445  -0.6159   0.0000   0.0000   0.0000   0.3144
   1.700   0.3565   0.00763   0.00351  -0.0237  0.7569  0.9454  -0.6310   0.0000   0.0000   0.0000   0.3138
   1.800   0.3706   0.00766   0.00355  -0.0244  0.7538  0.9465  -0.6461   0.0000   0.0000   0.0000   0.3131
   1.900   0.3844   0.00768   0.00357  -0.0250  0.7509  0.9477  -0.6610   0.0000   0.0000   0.0000   0.3123
   2.000   0.3977   0.00771   0.00358  -0.0255  0.7481  0.9491  -0.6756   0.0000   0.0000   0.0000   0.3113
   2.100   0.4101   0.00774   0.00359  -0.0258  0.7455  0.9508  -0.6897   0.0000   0.0000   0.0000   0.3100
   2.200   0.4194   0.00778   0.00366  -0.0254  0.7420  0.9537  -0.7016   0.0000   0.0000   0.0000   0.3076
   2.300   0.4272   0.00781   0.00370  -0.0247  0.7384  0.9567  -0.7130   0.0000   0.0000   0.0000   0.3048
   2.400   0.4424   0.00783   0.00372  -0.0257  0.7350  0.9572  -0.7303   0.0000   0.0000   0.0000   0.3049
   2.500   0.4575   0.00785   0.00372  -0.0266  0.7318  0.9577  -0.7475   0.0000   0.0000   0.0000   0.3049
   2.600   0.4725   0.00787   0.00373  -0.0275  0.7287  0.9583  -0.7647   0.0000   0.0000   0.0000   0.3049
   2.700   0.4873   0.00789   0.00378  -0.0283  0.7245  0.9590  -0.7819   0.0000   0.0000   0.0000   0.3048
   2.800   0.5018   0.00790   0.00380  -0.0292  0.7201  0.9597  -0.7989   0.0000   0.0000   0.0000   0.3047
   2.900   0.5161   0.00793   0.00381  -0.0299  0.7161  0.9606  -0.8158   0.0000   0.0000   0.0000   0.3045
   3.000   0.5302   0.00795   0.00383  -0.0306  0.7125  0.9614  -0.8560   0.0000   0.0000   0.0000   0.3042
   3.100   0.5441   0.00797   0.00387  -0.0313  0.7079  0.9624  -0.9159   0.0000   0.0000   0.0000   0.3039
   3.200   0.5576   0.00799   0.00391  -0.0319  0.7030  0.9636  -0.9756   0.0000   0.0000   0.0000   0.3035
   3.300   0.5705   0.00802   0.00393  -0.0323  0.6982  0.9649  -1.0411   0.0000   0.0000   0.0000   0.3029
   3.400   0.5828   0.00806   0.00397  -0.0326  0.6930  0.9665  -1.1097   0.0000   0.0000   0.0000   0.3021
   3.500   0.5934   0.00810   0.00403  -0.0325  0.6875  0.9686  -1.1741   0.0000   0.0000   0.0000   0.3009
   3.600   0.6009   0.00818   0.00409  -0.0318  0.6825  0.9713  -1.2307   0.0000   0.0000   0.0000   0.2989
   3.700   0.6157   0.00819   0.00410  -0.0327  0.6755  0.9719  -1.3096   0.0000   0.0000   0.0000   0.2990
   4.000   0.6566   0.00833   0.00410  -0.0345  0.6281  0.9740  -1.5437   0.0000   0.0000   0.0000   0.2982
   4.100   0.6694   0.00841   0.00413  -0.0350  0.6081  0.9749  -1.6208   0.0000   0.0000   0.0000   0.2978
   4.200   0.6817   0.00852   0.00417  -0.0354  0.5865  0.9760  -1.6974   0.0000   0.0000   0.0000   0.2974
   4.300   0.6928   0.00869   0.00422  -0.0355  0.5564  0.9774  -1.7714   0.0000   0.0000   0.0000   0.2967
   4.400   0.7022   0.00895   0.00431  -0.0354  0.5169  0.9792  -1.8406   0.0000   0.0000   0.0000   0.2957
   4.500   0.7100   0.00928   0.00444  -0.0349  0.4736  0.9813  -1.9149   0.0000   0.0000   0.0000   0.2944
   4.600   0.7155   0.00966   0.00463  -0.0340  0.4327  0.9838  -1.9814   0.0000   0.0000   0.0000   0.2927
   4.700   0.7266   0.01002   0.00476  -0.0345  0.3845  0.9846  -2.0696   0.0000   0.0000   0.0000   0.2924
   4.800   0.7377   0.01036   0.00490  -0.0349  0.3421  0.9855  -2.1590   0.0000   0.0000   0.0000   0.2922
   4.900   0.7489   0.01067   0.00503  -0.0353  0.3069  0.9865  -2.2497   0.0000   0.0000   0.0000   0.2920
   5.000   0.7601   0.01095   0.00517  -0.0357  0.2764  0.9876  -2.3413   0.0000   0.0000   0.0000   0.2917
   5.100   0.7711   0.01123   0.00530  -0.0360  0.2472  0.9888  -2.4326   0.0000   0.0000   0.0000   0.2914
   5.200   0.7815   0.01154   0.00547  -0.0363  0.2157  0.9901  -2.5208   0.0000   0.0000   0.0000   0.2910
   5.300   0.7910   0.01192   0.00565  -0.0364  0.1773  0.9916  -2.6049   0.0000   0.0000   0.0000   0.2905
   5.400   0.7976   0.01254   0.00594  -0.0361  0.1173  0.9933  -2.6744   0.0000   0.0000   0.0000   0.2896
   5.500   0.8033   0.01344   0.00640  -0.0357  0.0444  0.9947  -2.7337   0.0000   0.0000   0.0000   0.2888
   5.600   0.8152   0.01373   0.00664  -0.0362  0.0329  0.9956  -2.8163   0.0000   0.0000   0.0000   0.2886
   5.700   0.8268   0.01405   0.00696  -0.0365  0.0272  0.9966  -2.8882   0.0000   0.0000   0.0000   0.2882
   5.800   0.8393   0.01422   0.00716  -0.0370  0.0257  0.9975  -2.9768   0.0000   0.0000   0.0000   0.2881
   5.900   0.8520   0.01437   0.00734  -0.0375  0.0245  0.9984  -3.0694   0.0000   0.0000   0.0000   0.2879
   6.000   0.8646   0.01454   0.00753  -0.0381  0.0232  0.9993  -3.1623   0.0000   0.0000   0.0000   0.2878
   6.100   0.8773   0.01472   0.00773  -0.0387  0.0219  1.0000  -3.2590   0.0000   0.0000   0.0000   0.2878
   6.200   0.8834   0.01492   0.00794  -0.0378  0.0210  1.0000  -3.3292   0.0000   0.0000   0.0000   0.2864
   6.300   0.8887   0.01517   0.00820  -0.0368  0.0199  1.0000  -3.3948   0.0000   0.0000   0.0000   0.2849
   6.400   0.8927   0.01552   0.00859  -0.0356  0.0189  1.0000  -3.4573   0.0000   0.0000   0.0000   0.2833
   6.500   0.8947   0.01601   0.00913  -0.0340  0.0181  1.0000  -3.5004   0.0000   0.0000   0.0000   0.2813
   6.600   0.8984   0.01635   0.00953  -0.0327  0.0178  1.0000  -3.5609   0.0000   0.0000   0.0000   0.2796
   6.700   0.9044   0.01651   0.00972  -0.0318  0.0176  1.0000  -3.6464   0.0000   0.0000   0.0000   0.2783
   6.800   0.9100   0.01670   0.00993  -0.0309  0.0174  1.0000  -3.7294   0.0000   0.0000   0.0000   0.2769
   6.900   0.9153   0.01691   0.01016  -0.0299  0.0171  1.0000  -3.8100   0.0000   0.0000   0.0000   0.2755
   7.000   0.9202   0.01714   0.01041  -0.0288  0.0168  1.0000  -3.8882   0.0000   0.0000   0.0000   0.2741
   7.100   0.9248   0.01738   0.01068  -0.0277  0.0166  1.0000  -3.9645   0.0000   0.0000   0.0000   0.2726
   7.200   0.9291   0.01763   0.01096  -0.0266  0.0163  1.0000  -4.0391   0.0000   0.0000   0.0000   0.2711
   7.300   0.9332   0.01789   0.01124  -0.0254  0.0160  1.0000  -4.1123   0.0000   0.0000   0.0000   0.2696
   7.400   0.9371   0.01816   0.01153  -0.0241  0.0158  1.0000  -4.1842   0.0000   0.0000   0.0000   0.2680
   7.500   0.9409   0.01843   0.01183  -0.0228  0.0155  1.0000  -4.2551   0.0000   0.0000   0.0000   0.2665
   7.600   0.9444   0.01871   0.01214  -0.0216  0.0153  1.0000  -4.3250   0.0000   0.0000   0.0000   0.2649
   7.700   0.9478   0.01900   0.01245  -0.0202  0.0150  1.0000  -4.3938   0.0000   0.0000   0.0000   0.2633
   7.800   0.9510   0.01929   0.01277  -0.0189  0.0148  1.0000  -4.4618   0.0000   0.0000   0.0000   0.2617
   7.900   0.9541   0.01958   0.01309  -0.0175  0.0146  1.0000  -4.5291   0.0000   0.0000   0.0000   0.2601
   8.000   0.9571   0.01988   0.01341  -0.0161  0.0143  1.0000  -4.5963   0.0000   0.0000   0.0000   0.2584
   8.100   0.9601   0.02017   0.01372  -0.0148  0.0141  1.0000  -4.6661   0.0000   0.0000   0.0000   0.2568
   8.200   0.9625   0.02044   0.01401  -0.0133  0.0139  1.0000  -4.7357   0.0000   0.0000   0.0000   0.2552
   8.300   0.9639   0.02069   0.01427  -0.0116  0.0137  1.0000  -4.8026   0.0000   0.0000   0.0000   0.2533
   8.400   0.9648   0.02094   0.01453  -0.0098  0.0135  1.0000  -4.8677   0.0000   0.0000   0.0000   0.2513
   8.500   0.9655   0.02120   0.01481  -0.0081  0.0133  1.0000  -4.9316   0.0000   0.0000   0.0000   0.2493
   8.600   0.9661   0.02151   0.01516  -0.0063  0.0130  1.0000  -4.9943   0.0000   0.0000   0.0000   0.2474
   8.700   0.9670   0.02192   0.01558  -0.0046  0.0128  1.0000  -5.0521   0.0000   0.0000   0.0000   0.2455
   8.800   0.9687   0.02253   0.01622  -0.0032  0.0125  1.0000  -5.1010   0.0000   0.0000   0.0000   0.2439
   8.900   0.9826   0.02430   0.01805  -0.0041  0.0120  1.0000  -5.1422   0.0000   0.0000   0.0000   0.2447
   9.000   0.9987   0.02573   0.01955  -0.0054  0.0118  1.0000  -5.2119   0.0000   0.0000   0.0000   0.2458
   9.100   1.0016   0.02595   0.01982  -0.0040  0.0118  1.0000  -5.2848   0.0000   0.0000   0.0000   0.2443
   9.200   1.0044   0.02622   0.02012  -0.0026  0.0117  1.0000  -5.3538   0.0000   0.0000   0.0000   0.2428
   9.300   1.0073   0.02652   0.02047  -0.0013  0.0116  1.0000  -5.4207   0.0000   0.0000   0.0000   0.2413
   9.400   1.0104   0.02687   0.02087   0.0000  0.0116  1.0000  -5.4862   0.0000   0.0000   0.0000   0.2399
   9.500   1.0138   0.02725   0.02129   0.0013  0.0115  1.0000  -5.5503   0.0000   0.0000   0.0000   0.2385
   9.600   1.0172   0.02766   0.02176   0.0025  0.0114  1.0000  -5.6125   0.0000   0.0000   0.0000   0.2372
   9.700   1.0207   0.02811   0.02226   0.0037  0.0113  1.0000  -5.6724   0.0000   0.0000   0.0000   0.2359
   9.800   1.0241   0.02858   0.02279   0.0049  0.0113  1.0000  -5.7295   0.0000   0.0000   0.0000   0.2346
   9.900   1.0274   0.02909   0.02336   0.0061  0.0112  1.0000  -5.7831   0.0000   0.0000   0.0000   0.2333
  10.000   1.0306   0.02963   0.02396   0.0073  0.0111  1.0000  -5.8329   0.0000   0.0000   0.0000   0.2321
  10.100   1.0335   0.03020   0.02459   0.0086  0.0110  1.0000  -5.8781   0.0000   0.0000   0.0000   0.2307
  10.200   1.0360   0.03080   0.02527   0.0099  0.0109  1.0000  -5.9248   0.0000   0.0000   0.0000   0.2294
  10.300   1.0382   0.03145   0.02598   0.0112  0.0108  1.0000  -5.9829   0.0000   0.0000   0.0000   0.2280
  10.400   1.0399   0.03213   0.02673   0.0126  0.0108  1.0000  -6.0354   0.0000   0.0000   0.0000   0.2266
  10.500   1.0411   0.03284   0.02753   0.0140  0.0107  1.0000  -6.0819   0.0000   0.0000   0.0000   0.2251
  10.600   1.0417   0.03360   0.02837   0.0155  0.0106  1.0000  -6.1219   0.0000   0.0000   0.0000   0.2236
  10.700   1.0417   0.03440   0.02925   0.0170  0.0106  1.0000  -6.1551   0.0000   0.0000   0.0000   0.2219
  10.800   1.0410   0.03525   0.03019   0.0186  0.0106  1.0000  -6.1812   0.0000   0.0000   0.0000   0.2203
  10.900   1.0397   0.03614   0.03117   0.0203  0.0106  1.0000  -6.2003   0.0000   0.0000   0.0000   0.2185
  11.000   1.0379   0.03710   0.03222   0.0220  0.0106  1.0000  -6.2125   0.0000   0.0000   0.0000   0.2167
  11.100   1.0353   0.03811   0.03333   0.0237  0.0106  1.0000  -6.2179   0.0000   0.0000   0.0000   0.2149
  11.200   1.0321   0.03917   0.03448   0.0254  0.0106  1.0000  -6.2169   0.0000   0.0000   0.0000   0.2130
  11.300   1.0280   0.04027   0.03568   0.0272  0.0107  1.0000  -6.2101   0.0000   0.0000   0.0000   0.2110
  11.400   1.0232   0.04141   0.03691   0.0290  0.0108  1.0000  -6.1984   0.0000   0.0000   0.0000   0.2090
  11.500   1.0177   0.04260   0.03819   0.0308  0.0109  1.0000  -6.1821   0.0000   0.0000   0.0000   0.2069
  11.600   1.0116   0.04384   0.03952   0.0325  0.0110  1.0000  -6.1613   0.0000   0.0000   0.0000   0.2049
  11.700   1.0048   0.04516   0.04093   0.0342  0.0111  1.0000  -6.1348   0.0000   0.0000   0.0000   0.2028
  11.800   0.9970   0.04659   0.04246   0.0359  0.0112  1.0000  -6.0997   0.0000   0.0000   0.0000   0.2007
  11.900   0.9870   0.04840   0.04437   0.0376  0.0114  1.0000  -6.0376   0.0000   0.0000   0.0000   0.1985
  12.200   0.8591   0.03153   0.02781   0.0481  0.0111  1.0000  -5.6412   0.0000   0.0000   0.0000   0.1811
  12.300   0.8510   0.03319   0.02954   0.0491  0.0111  1.0000  -5.6172   0.0000   0.0000   0.0000   0.1793
  12.400   0.8426   0.03493   0.03135   0.0500  0.0112  1.0000  -5.5906   0.0000   0.0000   0.0000   0.1774
  12.500   0.8337   0.03672   0.03321   0.0509  0.0112  1.0000  -5.5609   0.0000   0.0000   0.0000   0.1756
  12.600   0.8245   0.03859   0.03513   0.0517  0.0113  1.0000  -5.5283   0.0000   0.0000   0.0000   0.1739
  12.700   0.8149   0.04055   0.03716   0.0523  0.0113  1.0000  -5.4923   0.0000   0.0000   0.0000   0.1721
  12.800   0.8049   0.04261   0.03929   0.0529  0.0114  1.0000  -5.4520   0.0000   0.0000   0.0000   0.1705
  12.900   0.7942   0.04476   0.04150   0.0534  0.0114  1.0000  -5.4052   0.0000   0.0000   0.0000   0.1689
  13.000   0.7818   0.04730   0.04410   0.0537  0.0115  1.0000  -5.3357   0.0000   0.0000   0.0000   0.1672
  14.100   0.5920   0.08077   0.07849   0.0456  0.0173  1.0000  -3.7810   0.0000   0.0000   0.0000   0.1581
  14.200   0.5815   0.08335   0.08110   0.0440  0.0174  1.0000  -3.7041   0.0000   0.0000   0.0000   0.1594
  14.300   0.5713   0.08600   0.08379   0.0424  0.0174  1.0000  -3.6239   0.0000   0.0000   0.0000   0.1609
  14.400   0.5613   0.08874   0.08656   0.0406  0.0174  1.0000  -3.5393   0.0000   0.0000   0.0000   0.1627
  14.500   0.5515   0.09156   0.08941   0.0388  0.0174  1.0000  -3.4496   0.0000   0.0000   0.0000   0.1647
  14.600   0.5419   0.09447   0.09235   0.0370  0.0175  1.0000  -3.3545   0.0000   0.0000   0.0000   0.1669
  14.700   0.5326   0.09748   0.09539   0.0351  0.0175  1.0000  -3.2524   0.0000   0.0000   0.0000   0.1693
  14.800   0.5236   0.10059   0.09852   0.0332  0.0174  1.0000  -3.1432   0.0000   0.0000   0.0000   0.1719
  14.900   0.5153   0.10379   0.10174   0.0313  0.0173  1.0000  -3.0274   0.0000   0.0000   0.0000   0.1747
  15.000   0.4894   0.11451   0.11247   0.0266  0.0207  1.0000  -2.3159   0.0000   0.0000   0.0000   0.1822
  15.100   0.4868   0.11625   0.11420   0.0259  0.0206  1.0000  -2.2777   0.0000   0.0000   0.0000   0.1835
  15.200   0.4848   0.11785   0.11580   0.0252  0.0205  1.0000  -2.2486   0.0000   0.0000   0.0000   0.1846
  15.300   0.4832   0.11934   0.11729   0.0246  0.0203  1.0000  -2.2270   0.0000   0.0000   0.0000   0.1857
  15.400   0.4821   0.12074   0.11869   0.0240  0.0201  1.0000  -2.2119   0.0000   0.0000   0.0000   0.1868
  15.500   0.4813   0.12206   0.12001   0.0235  0.0200  1.0000  -2.2025   0.0000   0.0000   0.0000   0.1878
  15.600   0.4808   0.12331   0.12126   0.0230  0.0198  1.0000  -2.1984   0.0000   0.0000   0.0000   0.1887
  15.700   0.4806   0.12450   0.12244   0.0225  0.0196  1.0000  -2.1993   0.0000   0.0000   0.0000   0.1896
  15.800   0.4807   0.12562   0.12357   0.0221  0.0195  1.0000  -2.2048   0.0000   0.0000   0.0000   0.1905
  15.900   0.4810   0.12669   0.12464   0.0216  0.0193  1.0000  -2.2147   0.0000   0.0000   0.0000   0.1913
  16.000   0.4816   0.12772   0.12566   0.0213  0.0192  1.0000  -2.2288   0.0000   0.0000   0.0000   0.1920
  16.100   0.4823   0.12869   0.12664   0.0209  0.0190  1.0000  -2.2468   0.0000   0.0000   0.0000   0.1927
  16.200   0.4823   0.12986   0.12781   0.0205  0.0188  1.0000  -2.2509   0.0000   0.0000   0.0000   0.1936
  16.300   0.4817   0.13121   0.12915   0.0199  0.0187  1.0000  -2.2414   0.0000   0.0000   0.0000   0.1946
  16.400   0.4802   0.13276   0.13071   0.0193  0.0184  1.0000  -2.2174   0.0000   0.0000   0.0000   0.1957
  16.500   0.4686   0.13721   0.13512   0.0178  0.0179  1.0000  -1.9829   0.0000   0.0000   0.0000   0.1983
  16.600   0.4685   0.13874   0.13665   0.0171  0.0178  1.0000  -1.9557   0.0000   0.0000   0.0000   0.1996
  16.700   0.4686   0.14025   0.13816   0.0165  0.0178  1.0000  -1.9301   0.0000   0.0000   0.0000   0.2010
  16.800   0.4687   0.14174   0.13965   0.0158  0.0178  1.0000  -1.9060   0.0000   0.0000   0.0000   0.2023
  16.900   0.4690   0.14321   0.14112   0.0152  0.0178  1.0000  -1.8831   0.0000   0.0000   0.0000   0.2037
  17.000   0.4694   0.14466   0.14257   0.0146  0.0178  1.0000  -1.8614   0.0000   0.0000   0.0000   0.2051
  17.100   0.4698   0.14609   0.14400   0.0139  0.0178  1.0000  -1.8407   0.0000   0.0000   0.0000   0.2064
  17.200   0.4703   0.14750   0.14541   0.0133  0.0178  1.0000  -1.8210   0.0000   0.0000   0.0000   0.2078
  17.300   0.4710   0.14889   0.14680   0.0126  0.0177  1.0000  -1.8022   0.0000   0.0000   0.0000   0.2091
  17.400   0.4716   0.15027   0.14818   0.0120  0.0177  1.0000  -1.7841   0.0000   0.0000   0.0000   0.2105
  17.500   0.4724   0.15162   0.14953   0.0113  0.0177  1.0000  -1.7667   0.0000   0.0000   0.0000   0.2119
  17.600   0.4733   0.15295   0.15086   0.0107  0.0176  1.0000  -1.7498   0.0000   0.0000   0.0000   0.2133
  17.700   0.4742   0.15424   0.15214   0.0100  0.0175  1.0000  -1.7331   0.0000   0.0000   0.0000   0.2147
  17.800   0.4754   0.15545   0.15336   0.0093  0.0174  1.0000  -1.7157   0.0000   0.0000   0.0000   0.2163
  17.900   0.4757   0.15689   0.15479   0.0083  0.0169  1.0000  -1.6684   0.0000   0.0000   0.0000   0.2184
  18.000   0.4755   0.15844   0.15635   0.0073  0.0163  1.0000  -1.6168   0.0000   0.0000   0.0000   0.2204
  18.100   0.4761   0.15984   0.15775   0.0066  0.0158  1.0000  -1.5889   0.0000   0.0000   0.0000   0.2220
  18.200   0.4771   0.16113   0.15904   0.0059  0.0153  1.0000  -1.5751   0.0000   0.0000   0.0000   0.2234
  18.300   0.4783   0.16233   0.16024   0.0053  0.0149  1.0000  -1.5695   0.0000   0.0000   0.0000   0.2247
  18.400   0.4797   0.16351   0.16142   0.0047  0.0145  1.0000  -1.5693   0.0000   0.0000   0.0000   0.2258
  18.500   0.4812   0.16466   0.16257   0.0041  0.0142  1.0000  -1.5717   0.0000   0.0000   0.0000   0.2270
  18.600   0.4827   0.16580   0.16373   0.0035  0.0139  1.0000  -1.5733   0.0000   0.0000   0.0000   0.2281
  18.700   0.4843   0.16691   0.16484   0.0030  0.0137  1.0000  -1.5778   0.0000   0.0000   0.0000   0.2292
  18.800   0.4860   0.16801   0.16593   0.0024  0.0135  1.0000  -1.5852   0.0000   0.0000   0.0000   0.2302
  18.900   0.4878   0.16906   0.16700   0.0019  0.0133  1.0000  -1.5960   0.0000   0.0000   0.0000   0.2312
  19.000   0.4897   0.17009   0.16802   0.0014  0.0131  1.0000  -1.6109   0.0000   0.0000   0.0000   0.2322
  19.100   0.4918   0.17108   0.16902   0.0009  0.0130  1.0000  -1.6306   0.0000   0.0000   0.0000   0.2330
  19.200   0.4941   0.17202   0.16997   0.0005  0.0128  1.0000  -1.6558   0.0000   0.0000   0.0000   0.2338
  19.300   0.4967   0.17292   0.17086   0.0001  0.0127  1.0000  -1.6882   0.0000   0.0000   0.0000   0.2345
  19.400   0.4995   0.17377   0.17172  -0.0003  0.0125  1.0000  -1.7292   0.0000   0.0000   0.0000   0.2349
  19.500   0.5022   0.17467   0.17262  -0.0006  0.0124  1.0000  -1.7683   0.0000   0.0000   0.0000   0.2354
  19.600   0.5044   0.17584   0.17379  -0.0010  0.0121  1.0000  -1.7967   0.0000   0.0000   0.0000   0.2359
  19.700   0.5023   0.17889   0.17683  -0.0018  0.0119  1.0000  -1.6674   0.0000   0.0000   0.0000   0.2376
  19.800   0.5037   0.18028   0.17822  -0.0024  0.0118  1.0000  -1.6410   0.0000   0.0000   0.0000   0.2389
  19.900   0.5050   0.18166   0.17960  -0.0031  0.0118  1.0000  -1.6148   0.0000   0.0000   0.0000   0.2401
  20.000   0.5063   0.18303   0.18098  -0.0038  0.0118  1.0000  -1.5891   0.0000   0.0000   0.0000   0.2414
  20.100   0.5077   0.18439   0.18234  -0.0045  0.0118  1.0000  -1.5641   0.0000   0.0000   0.0000   0.2426
  20.200   0.5091   0.18574   0.18369  -0.0052  0.0118  1.0000  -1.5398   0.0000   0.0000   0.0000   0.2439
  20.300   0.5105   0.18707   0.18502  -0.0058  0.0118  1.0000  -1.5160   0.0000   0.0000   0.0000   0.2452
  20.400   0.5120   0.18839   0.18634  -0.0065  0.0117  1.0000  -1.4927   0.0000   0.0000   0.0000   0.2464
  20.500   0.5134   0.18969   0.18764  -0.0073  0.0117  1.0000  -1.4694   0.0000   0.0000   0.0000   0.2477
  20.600   0.5144   0.19103   0.18899  -0.0081  0.0116  1.0000  -1.4355   0.0000   0.0000   0.0000   0.2492
  20.700   0.5150   0.19242   0.19038  -0.0090  0.0115  1.0000  -1.3895   0.0000   0.0000   0.0000   0.2509
  20.800   0.5155   0.19388   0.19183  -0.0100  0.0113  1.0000  -1.3406   0.0000   0.0000   0.0000   0.2528
  20.900   0.5166   0.19536   0.19331  -0.0108  0.0110  1.0000  -1.3045   0.0000   0.0000   0.0000   0.2544
  21.000   0.5182   0.19676   0.19471  -0.0115  0.0107  1.0000  -1.2871   0.0000   0.0000   0.0000   0.2557
  21.100   0.5199   0.19811   0.19607  -0.0122  0.0105  1.0000  -1.2790   0.0000   0.0000   0.0000   0.2568
  21.200   0.5216   0.19941   0.19737  -0.0129  0.0102  1.0000  -1.2754   0.0000   0.0000   0.0000   0.2579
  21.300   0.5233   0.20072   0.19868  -0.0135  0.0100  1.0000  -1.2744   0.0000   0.0000   0.0000   0.2590
  21.400   0.5251   0.20201   0.19998  -0.0142  0.0099  1.0000  -1.2752   0.0000   0.0000   0.0000   0.2600
  21.500   0.5269   0.20329   0.20126  -0.0149  0.0097  1.0000  -1.2773   0.0000   0.0000   0.0000   0.2611
  21.600   0.5287   0.20456   0.20253  -0.0155  0.0095  1.0000  -1.2807   0.0000   0.0000   0.0000   0.2621
  21.700   0.5305   0.20582   0.20380  -0.0161  0.0094  1.0000  -1.2850   0.0000   0.0000   0.0000   0.2631
  21.800   0.5324   0.20708   0.20506  -0.0168  0.0093  1.0000  -1.2903   0.0000   0.0000   0.0000   0.2641
  21.900   0.5342   0.20833   0.20631  -0.0174  0.0091  1.0000  -1.2967   0.0000   0.0000   0.0000   0.2650
  22.000   0.5361   0.20957   0.20755  -0.0181  0.0090  1.0000  -1.3040   0.0000   0.0000   0.0000   0.2660
  22.100   0.5380   0.21080   0.20878  -0.0187  0.0089  1.0000  -1.3123   0.0000   0.0000   0.0000   0.2669
  22.200   0.5399   0.21202   0.21001  -0.0194  0.0088  1.0000  -1.3217   0.0000   0.0000   0.0000   0.2679
  22.300   0.5418   0.21324   0.21123  -0.0200  0.0087  1.0000  -1.3322   0.0000   0.0000   0.0000   0.2688
  22.400   0.5437   0.21444   0.21244  -0.0207  0.0086  1.0000  -1.3441   0.0000   0.0000   0.0000   0.2697
  22.500   0.5457   0.21564   0.21364  -0.0213  0.0085  1.0000  -1.3573   0.0000   0.0000   0.0000   0.2706
  22.600   0.5477   0.21683   0.21483  -0.0219  0.0084  1.0000  -1.3722   0.0000   0.0000   0.0000   0.2714
  22.700   0.5497   0.21802   0.21604  -0.0225  0.0083  1.0000  -1.3884   0.0000   0.0000   0.0000   0.2723
  22.800   0.5517   0.21918   0.21721  -0.0232  0.0083  1.0000  -1.4079   0.0000   0.0000   0.0000   0.2731
  22.900   0.5539   0.22032   0.21835  -0.0237  0.0082  1.0000  -1.4324   0.0000   0.0000   0.0000   0.2738
  23.000   0.5561   0.22143   0.21946  -0.0243  0.0081  1.0000  -1.4629   0.0000   0.0000   0.0000   0.2744
  23.100   0.5586   0.22254   0.22058  -0.0248  0.0080  1.0000  -1.5017   0.0000   0.0000   0.0000   0.2749
  23.200   0.5615   0.22370   0.22175  -0.0252  0.0079  1.0000  -1.5552   0.0000   0.0000   0.0000   0.2751
  23.300   0.8311   0.27901   0.27663  -0.0520  0.0075  1.0000  -2.2429   0.0000   0.0000   0.0000   0.2809
  23.400   0.8340   0.28066   0.27827  -0.0532  0.0074  1.0000  -2.1841   0.0000   0.0000   0.0000   0.2820
  23.500   0.8373   0.28241   0.28002  -0.0543  0.0071  1.0000  -2.1186   0.0000   0.0000   0.0000   0.2829
  23.600   0.8404   0.28395   0.28156  -0.0552  0.0069  1.0000  -2.0874   0.0000   0.0000   0.0000   0.2836
  23.700   0.8434   0.28537   0.28299  -0.0561  0.0066  1.0000  -2.0715   0.0000   0.0000   0.0000   0.2842
  23.800   0.8463   0.28670   0.28432  -0.0569  0.0064  1.0000  -2.0617   0.0000   0.0000   0.0000   0.2847
  23.900   0.8491   0.28807   0.28568  -0.0577  0.0063  1.0000  -2.0554   0.0000   0.0000   0.0000   0.2853
  24.000   0.8520   0.28939   0.28701  -0.0586  0.0061  1.0000  -2.0518   0.0000   0.0000   0.0000   0.2858
  24.100   0.8548   0.29069   0.28831  -0.0594  0.0060  1.0000  -2.0505   0.0000   0.0000   0.0000   0.2863
  24.200   0.8576   0.29197   0.28959  -0.0602  0.0058  1.0000  -2.0514   0.0000   0.0000   0.0000   0.2868
  24.300   0.8605   0.29323   0.29084  -0.0610  0.0057  1.0000  -2.0544   0.0000   0.0000   0.0000   0.2873
  24.400   0.8633   0.29446   0.29208  -0.0619  0.0056  1.0000  -2.0595   0.0000   0.0000   0.0000   0.2878
  24.500   0.8661   0.29568   0.29330  -0.0627  0.0055  1.0000  -2.0667   0.0000   0.0000   0.0000   0.2883
  24.600   0.8689   0.29687   0.29450  -0.0635  0.0054  1.0000  -2.0760   0.0000   0.0000   0.0000   0.2888
  24.700   0.8717   0.29805   0.29567  -0.0643  0.0054  1.0000  -2.0876   0.0000   0.0000   0.0000   0.2893
  24.800   0.8744   0.29921   0.29683  -0.0652  0.0053  1.0000  -2.1015   0.0000   0.0000   0.0000   0.2897
  24.900   0.8772   0.30034   0.29797  -0.0660  0.0052  1.0000  -2.1179   0.0000   0.0000   0.0000   0.2902
  25.000   0.8799   0.30151   0.29914  -0.0668  0.0052  1.0000  -2.1367   0.0000   0.0000   0.0000   0.2906
  25.100   0.8826   0.30262   0.30025  -0.0676  0.0051  1.0000  -2.1585   0.0000   0.0000   0.0000   0.2910
  25.300   0.5952   0.25452   0.25261  -0.0404  0.0058  1.0000  -1.1471   0.0000   0.0000   0.0000   0.2957
  25.400   0.5970   0.25585   0.25395  -0.0411  0.0057  1.0000  -1.1469   0.0000   0.0000   0.0000   0.2965
  25.500   0.5988   0.25719   0.25529  -0.0418  0.0056  1.0000  -1.1480   0.0000   0.0000   0.0000   0.2972
  25.600   0.6006   0.25851   0.25662  -0.0425  0.0055  1.0000  -1.1504   0.0000   0.0000   0.0000   0.2980
  25.700   0.6024   0.25983   0.25794  -0.0432  0.0054  1.0000  -1.1542   0.0000   0.0000   0.0000   0.2988
  25.800   0.6041   0.26114   0.25925  -0.0439  0.0053  1.0000  -1.1594   0.0000   0.0000   0.0000   0.2995
  25.900   0.6059   0.26244   0.26056  -0.0446  0.0053  1.0000  -1.1661   0.0000   0.0000   0.0000   0.3002
  26.000   0.6077   0.26376   0.26188  -0.0452  0.0052  1.0000  -1.1744   0.0000   0.0000   0.0000   0.3010
  26.100   0.6095   0.26505   0.26318  -0.0459  0.0051  1.0000  -1.1845   0.0000   0.0000   0.0000   0.3017
  26.200   0.6112   0.26633   0.26446  -0.0466  0.0051  1.0000  -1.1966   0.0000   0.0000   0.0000   0.3023
  26.300   0.6130   0.26761   0.26575  -0.0473  0.0050  1.0000  -1.2110   0.0000   0.0000   0.0000   0.3030
  26.400   0.6148   0.26889   0.26703  -0.0479  0.0050  1.0000  -1.2281   0.0000   0.0000   0.0000   0.3036
  26.500   0.6167   0.27019   0.26835  -0.0486  0.0050  1.0000  -1.2484   0.0000   0.0000   0.0000   0.3042
  26.600   0.6187   0.27152   0.26968  -0.0491  0.0049  1.0000  -1.2733   0.0000   0.0000   0.0000   0.3046
  26.700   0.6210   0.27303   0.27120  -0.0496  0.0049  1.0000  -1.3076   0.0000   0.0000   0.0000   0.3048
  27.300   0.9422   0.33094   0.32861  -0.0866  0.0047  1.0000  -2.0503   0.0000   0.0000   0.0000   0.3011
  27.400   0.9450   0.33221   0.32988  -0.0876  0.0047  1.0000  -2.0470   0.0000   0.0000   0.0000   0.3017
  27.500   0.9477   0.33349   0.33116  -0.0886  0.0047  1.0000  -2.0436   0.0000   0.0000   0.0000   0.3022
  27.600   0.9506   0.33475   0.33243  -0.0896  0.0047  1.0000  -2.0399   0.0000   0.0000   0.0000   0.3027
  27.700   0.9534   0.33603   0.33370  -0.0906  0.0046  1.0000  -2.0357   0.0000   0.0000   0.0000   0.3032
  27.800   0.9562   0.33730   0.33498  -0.0915  0.0046  1.0000  -2.0312   0.0000   0.0000   0.0000   0.3037
  27.900   0.9591   0.33859   0.33626  -0.0925  0.0046  1.0000  -2.0263   0.0000   0.0000   0.0000   0.3042
  28.000   0.9620   0.33987   0.33755  -0.0935  0.0046  1.0000  -2.0212   0.0000   0.0000   0.0000   0.3047
  28.100   0.9650   0.34115   0.33883  -0.0945  0.0045  1.0000  -2.0165   0.0000   0.0000   0.0000   0.3051
  28.200   0.9679   0.34241   0.34009  -0.0954  0.0045  1.0000  -2.0129   0.0000   0.0000   0.0000   0.3056
  28.300   0.9708   0.34364   0.34133  -0.0963  0.0044  1.0000  -2.0113   0.0000   0.0000   0.0000   0.3060
  28.400   0.9736   0.34485   0.34253  -0.0973  0.0043  1.0000  -2.0117   0.0000   0.0000   0.0000   0.3064
  28.500   0.9764   0.34602   0.34371  -0.0982  0.0043  1.0000  -2.0139   0.0000   0.0000   0.0000   0.3068
  28.600   0.9792   0.34717   0.34486  -0.0991  0.0042  1.0000  -2.0172   0.0000   0.0000   0.0000   0.3072
  28.700   0.9820   0.34829   0.34598  -0.1001  0.0041  1.0000  -2.0218   0.0000   0.0000   0.0000   0.3076
  28.800   0.9847   0.34939   0.34709  -0.1010  0.0040  1.0000  -2.0276   0.0000   0.0000   0.0000   0.3080
  28.900   0.9874   0.35047   0.34817  -0.1019  0.0039  1.0000  -2.0346   0.0000   0.0000   0.0000   0.3084
  29.000   0.9901   0.35153   0.34923  -0.1029  0.0038  1.0000  -2.0425   0.0000   0.0000   0.0000   0.3088
  29.100   0.9927   0.35257   0.35027  -0.1038  0.0037  1.0000  -2.0515   0.0000   0.0000   0.0000   0.3092
  29.200   0.9954   0.35359   0.35129  -0.1048  0.0036  1.0000  -2.0613   0.0000   0.0000   0.0000   0.3096
  29.300   0.9980   0.35459   0.35230  -0.1057  0.0036  1.0000  -2.0719   0.0000   0.0000   0.0000   0.3100
  29.400   1.0006   0.35558   0.35331  -0.1067  0.0035  1.0000  -2.0828   0.0000   0.0000   0.0000   0.3103
  29.500   1.0032   0.35657   0.35429  -0.1076  0.0034  1.0000  -2.0935   0.0000   0.0000   0.0000   0.3107
  29.600   1.0058   0.35754   0.35527  -0.1086  0.0034  1.0000  -2.1039   0.0000   0.0000   0.0000   0.3111
  29.700   1.0084   0.35851   0.35624  -0.1095  0.0033  1.0000  -2.1147   0.0000   0.0000   0.0000   0.3115
  29.800   1.0109   0.35946   0.35719  -0.1105  0.0033  1.0000  -2.1261   0.0000   0.0000   0.0000   0.3118
  29.900   1.0135   0.36040   0.35813  -0.1114  0.0032  1.0000  -2.1381   0.0000   0.0000   0.0000   0.3122
  30.000   1.0160   0.36132   0.35906  -0.1124  0.0032  1.0000  -2.1510   0.0000   0.0000   0.0000   0.3126


