xflr5 v6.61

 Calculated polar for: MH 17

 1 1 Reynolds number fixed          Mach number fixed         

 xtrf =   1.000 (top)        1.000 (bottom)
 Mach =   0.000     Re =     0.688 e 6     Ncrit =   9.000

  alpha     CL        CD       CDp       Cm    Top Xtr Bot Xtr   Cpmin    Chinge    XCp    
 ------- -------- --------- --------- -------- ------- ------- -------- --------- ---------
 -10.000  -0.4403   0.06878   0.06682  -0.0744  0.9556  0.0144  -2.9988   0.0000   0.0000   0.0000   0.0708
  -9.900  -0.4454   0.06637   0.06436  -0.0765  0.9506  0.0143  -3.0546   0.0000   0.0000   0.0000   0.0683
  -9.800  -0.4514   0.06438   0.06231  -0.0776  0.9455  0.0143  -3.1030   0.0000   0.0000   0.0000   0.0685
  -9.700  -0.4579   0.06270   0.06058  -0.0779  0.9409  0.0143  -3.1459   0.0000   0.0000   0.0000   0.0706
  -9.600  -0.4653   0.06131   0.05913  -0.0774  0.9369  0.0143  -3.1838   0.0000   0.0000   0.0000   0.0745
  -9.500  -0.4726   0.06003   0.05782  -0.0765  0.9330  0.0144  -3.2195   0.0000   0.0000   0.0000   0.0792
  -9.400  -0.4796   0.05883   0.05656  -0.0754  0.9294  0.0144  -3.2550   0.0000   0.0000   0.0000   0.0841
  -9.300  -0.4860   0.05766   0.05533  -0.0741  0.9260  0.0146  -3.2926   0.0000   0.0000   0.0000   0.0891
  -9.200  -0.4910   0.05648   0.05408  -0.0726  0.9229  0.0148  -3.3395   0.0000   0.0000   0.0000   0.0937
  -9.100  -0.4886   0.05574   0.05327  -0.0715  0.9207  0.0152  -3.3510   0.0000   0.0000   0.0000   0.0953
  -9.000  -0.4927   0.05493   0.05241  -0.0698  0.9180  0.0153  -3.3649   0.0000   0.0000   0.0000   0.1001
  -8.900  -0.4977   0.05413   0.05156  -0.0679  0.9153  0.0154  -3.3794   0.0000   0.0000   0.0000   0.1055
  -8.800  -0.5027   0.05334   0.05071  -0.0660  0.9129  0.0154  -3.3934   0.0000   0.0000   0.0000   0.1107
  -8.700  -0.5062   0.05240   0.04970  -0.0644  0.9107  0.0154  -3.4056   0.0000   0.0000   0.0000   0.1149
  -8.600  -0.5093   0.05143   0.04865  -0.0629  0.9086  0.0155  -3.4165   0.0000   0.0000   0.0000   0.1188
  -8.500  -0.5119   0.05041   0.04757  -0.0614  0.9067  0.0155  -3.4257   0.0000   0.0000   0.0000   0.1224
  -8.400  -0.5142   0.04936   0.04645  -0.0600  0.9049  0.0155  -3.4331   0.0000   0.0000   0.0000   0.1259
  -8.300  -0.5161   0.04831   0.04533  -0.0585  0.9030  0.0155  -3.4386   0.0000   0.0000   0.0000   0.1293
  -8.200  -0.5177   0.04725   0.04420  -0.0570  0.9011  0.0155  -3.4422   0.0000   0.0000   0.0000   0.1325
  -8.100  -0.5189   0.04621   0.04307  -0.0556  0.8993  0.0155  -3.4437   0.0000   0.0000   0.0000   0.1357
  -8.000  -0.5198   0.04516   0.04194  -0.0541  0.8975  0.0155  -3.4431   0.0000   0.0000   0.0000   0.1389
  -7.900  -0.5203   0.04412   0.04081  -0.0526  0.8959  0.0156  -3.4407   0.0000   0.0000   0.0000   0.1419
  -7.800  -0.5205   0.04308   0.03968  -0.0511  0.8943  0.0156  -3.4361   0.0000   0.0000   0.0000   0.1448
  -7.700  -0.5204   0.04206   0.03857  -0.0497  0.8928  0.0156  -3.4294   0.0000   0.0000   0.0000   0.1477
  -7.600  -0.5197   0.04103   0.03744  -0.0483  0.8913  0.0156  -3.4207   0.0000   0.0000   0.0000   0.1503
  -7.500  -0.5186   0.03997   0.03628  -0.0470  0.8899  0.0156  -3.4107   0.0000   0.0000   0.0000   0.1527
  -7.400  -0.5171   0.03891   0.03513  -0.0456  0.8883  0.0156  -3.3977   0.0000   0.0000   0.0000   0.1551
  -7.300  -0.5153   0.03787   0.03399  -0.0443  0.8868  0.0156  -3.3827   0.0000   0.0000   0.0000   0.1574
  -7.200  -0.5365   0.03255   0.02835  -0.0399  0.8843  0.0161  -3.6930   0.0000   0.0000   0.0000   0.1690
  -7.100  -0.5355   0.03107   0.02676  -0.0386  0.8828  0.0164  -3.6815   0.0000   0.0000   0.0000   0.1715
  -7.000  -0.5321   0.03003   0.02563  -0.0375  0.8814  0.0166  -3.6439   0.0000   0.0000   0.0000   0.1731
  -6.900  -0.5276   0.02916   0.02467  -0.0365  0.8802  0.0167  -3.6097   0.0000   0.0000   0.0000   0.1745
  -6.800  -0.5224   0.02838   0.02382  -0.0356  0.8790  0.0169  -3.5689   0.0000   0.0000   0.0000   0.1755
  -6.700  -0.5165   0.02767   0.02305  -0.0348  0.8779  0.0171  -3.5214   0.0000   0.0000   0.0000   0.1763
  -6.600  -0.5105   0.02698   0.02229  -0.0340  0.8767  0.0172  -3.4787   0.0000   0.0000   0.0000   0.1772
  -6.400  -0.5025   0.02159   0.01633  -0.0302  0.8743  0.0126  -4.0094   0.0000   0.0000   0.0000   0.1836
  -6.300  -0.4943   0.02052   0.01513  -0.0295  0.8731  0.0126  -4.0365   0.0000   0.0000   0.0000   0.1840
  -6.200  -0.4855   0.01979   0.01430  -0.0291  0.8720  0.0128  -4.0110   0.0000   0.0000   0.0000   0.1839
  -6.100  -0.4763   0.01914   0.01357  -0.0287  0.8708  0.0129  -3.9698   0.0000   0.0000   0.0000   0.1836
  -6.000  -0.4668   0.01854   0.01289  -0.0284  0.8697  0.0131  -3.9192   0.0000   0.0000   0.0000   0.1831
  -5.900  -0.4570   0.01798   0.01225  -0.0281  0.8685  0.0132  -3.8622   0.0000   0.0000   0.0000   0.1824
  -5.800  -0.4471   0.01744   0.01164  -0.0279  0.8674  0.0134  -3.8002   0.0000   0.0000   0.0000   0.1816
  -5.700  -0.4369   0.01692   0.01106  -0.0277  0.8663  0.0135  -3.7338   0.0000   0.0000   0.0000   0.1806
  -5.600  -0.4266   0.01643   0.01051  -0.0275  0.8653  0.0136  -3.6640   0.0000   0.0000   0.0000   0.1795
  -5.500  -0.4163   0.01597   0.00999  -0.0273  0.8643  0.0137  -3.5913   0.0000   0.0000   0.0000   0.1783
  -5.400  -0.4061   0.01554   0.00952  -0.0272  0.8633  0.0139  -3.5150   0.0000   0.0000   0.0000   0.1771
  -5.300  -0.3960   0.01525   0.00919  -0.0270  0.8624  0.0142  -3.4256   0.0000   0.0000   0.0000   0.1759
  -5.200  -0.3861   0.01503   0.00892  -0.0267  0.8614  0.0145  -3.3331   0.0000   0.0000   0.0000   0.1747
  -5.100  -0.3762   0.01483   0.00869  -0.0265  0.8604  0.0148  -3.2400   0.0000   0.0000   0.0000   0.1735
  -5.000  -0.3663   0.01463   0.00845  -0.0263  0.8593  0.0151  -3.1497   0.0000   0.0000   0.0000   0.1722
  -4.900  -0.3562   0.01437   0.00817  -0.0261  0.8582  0.0152  -3.0637   0.0000   0.0000   0.0000   0.1707
  -4.800  -0.3463   0.01406   0.00783  -0.0259  0.8571  0.0153  -2.9844   0.0000   0.0000   0.0000   0.1693
  -4.700  -0.3365   0.01380   0.00755  -0.0256  0.8558  0.0155  -2.9023   0.0000   0.0000   0.0000   0.1678
  -4.600  -0.3266   0.01363   0.00736  -0.0254  0.8546  0.0156  -2.8135   0.0000   0.0000   0.0000   0.1663
  -4.500  -0.3207   0.01271   0.00639  -0.0244  0.8532  0.0161  -2.8048   0.0000   0.0000   0.0000   0.1681
  -4.400  -0.3145   0.01221   0.00584  -0.0234  0.8518  0.0167  -2.7595   0.0000   0.0000   0.0000   0.1697
  -4.300  -0.3069   0.01191   0.00552  -0.0227  0.8505  0.0173  -2.6878   0.0000   0.0000   0.0000   0.1701
  -4.200  -0.2985   0.01171   0.00531  -0.0222  0.8492  0.0179  -2.6032   0.0000   0.0000   0.0000   0.1698
  -4.100  -0.2896   0.01155   0.00513  -0.0218  0.8480  0.0184  -2.5143   0.0000   0.0000   0.0000   0.1690
  -4.000  -0.2806   0.01140   0.00496  -0.0214  0.8469  0.0190  -2.4318   0.0000   0.0000   0.0000   0.1681
  -3.900  -0.2716   0.01126   0.00480  -0.0209  0.8458  0.0196  -2.3659   0.0000   0.0000   0.0000   0.1671
  -3.800  -0.2625   0.01112   0.00463  -0.0205  0.8447  0.0202  -2.3013   0.0000   0.0000   0.0000   0.1660
  -3.700  -0.2534   0.01101   0.00449  -0.0201  0.8436  0.0209  -2.2361   0.0000   0.0000   0.0000   0.1648
  -3.600  -0.2442   0.01089   0.00436  -0.0198  0.8424  0.0217  -2.1699   0.0000   0.0000   0.0000   0.1632
  -3.500  -0.2345   0.01080   0.00427  -0.0195  0.8412  0.0224  -2.0970   0.0000   0.0000   0.0000   0.1609
  -3.400  -0.2242   0.01075   0.00422  -0.0194  0.8398  0.0230  -2.0165   0.0000   0.0000   0.0000   0.1576
  -3.300  -0.2175   0.01042   0.00384  -0.0185  0.8383  0.0257  -1.9850   0.0000   0.0000   0.0000   0.1592
  -3.200  -0.2085   0.01027   0.00369  -0.0180  0.8368  0.0279  -1.9216   0.0000   0.0000   0.0000   0.1576
  -3.100  -0.1991   0.01016   0.00357  -0.0177  0.8354  0.0300  -1.8526   0.0000   0.0000   0.0000   0.1551
  -3.000  -0.1894   0.01006   0.00346  -0.0174  0.8341  0.0322  -1.7830   0.0000   0.0000   0.0000   0.1521
  -2.900  -0.1801   0.00993   0.00331  -0.0170  0.8328  0.0363  -1.7205   0.0000   0.0000   0.0000   0.1494
  -2.800  -0.1714   0.00976   0.00317  -0.0165  0.8316  0.0462  -1.6585   0.0000   0.0000   0.0000   0.1474
  -2.700  -0.1641   0.00949   0.00305  -0.0158  0.8303  0.0808  -1.5977   0.0000   0.0000   0.0000   0.1474
  -2.600  -0.1583   0.00913   0.00291  -0.0149  0.8291  0.1458  -1.5379   0.0000   0.0000   0.0000   0.1499
  -2.500  -0.1529   0.00876   0.00280  -0.0139  0.8278  0.2182  -1.4803   0.0000   0.0000   0.0000   0.1531
  -2.400  -0.1499   0.00825   0.00267  -0.0125  0.8263  0.3204  -1.4312   0.0000   0.0000   0.0000   0.1607
  -2.300  -0.1540   0.00740   0.00249  -0.0097  0.8243  0.4933  -1.4071   0.0000   0.0000   0.0000   0.1814
  -2.200  -0.1530   0.00701   0.00243  -0.0076  0.8224  0.5817  -1.3638   0.0000   0.0000   0.0000   0.1948
  -2.100  -0.1491   0.00679   0.00241  -0.0061  0.8206  0.6339  -1.3102   0.0000   0.0000   0.0000   0.2040
  -2.000  -0.1431   0.00665   0.00238  -0.0049  0.8189  0.6675  -1.2498   0.0000   0.0000   0.0000   0.2103
  -1.800  -0.1280   0.00645   0.00231  -0.0033  0.8160  0.7123  -1.1201   0.0000   0.0000   0.0000   0.2187
  -1.700  -0.1200   0.00636   0.00227  -0.0026  0.8147  0.7317  -1.0550   0.0000   0.0000   0.0000   0.2229
  -1.600  -0.1116   0.00627   0.00224  -0.0020  0.8134  0.7500  -0.9949   0.0000   0.0000   0.0000   0.2270
  -1.500  -0.1027   0.00618   0.00220  -0.0014  0.8122  0.7670  -0.9394   0.0000   0.0000   0.0000   0.2306
  -1.400  -0.0932   0.00612   0.00217  -0.0010  0.8110  0.7824  -0.8829   0.0000   0.0000   0.0000   0.2334
  -1.300  -0.0834   0.00605   0.00215  -0.0007  0.8096  0.7987  -0.8248   0.0000   0.0000   0.0000   0.2355
  -1.200  -0.0726   0.00596   0.00216  -0.0006  0.8082  0.8201  -0.7664   0.0000   0.0000   0.0000   0.2356
  -1.100  -0.0567   0.00588   0.00223  -0.0016  0.8069  0.8521  -0.6954   0.0000   0.0000   0.0000   0.2156
  -1.000  -0.0387   0.00590   0.00231  -0.0029  0.8057  0.8766  -0.6209   0.0000   0.0000   0.0000   0.1649
  -0.900  -0.0215   0.00594   0.00237  -0.0042  0.8044  0.8872  -0.5500   0.0000   0.0000   0.0000   0.0393
  -0.800  -0.0077   0.00596   0.00239  -0.0048  0.8030  0.8942  -0.4887   0.0000   0.0000   0.0000  -0.4112
  -0.700   0.0091   0.00601   0.00243  -0.0060  0.8017  0.8998  -0.4221   0.0000   0.0000   0.0000   0.9384
  -0.600   0.0161   0.00603   0.00245  -0.0050  0.8000  0.9083  -0.3859   0.0000   0.0000   0.0000   0.5743
  -0.500   0.0345   0.00608   0.00248  -0.0066  0.7989  0.9108  -0.3845   0.0000   0.0000   0.0000   0.4463
  -0.400   0.0500   0.00613   0.00250  -0.0076  0.7977  0.9134  -0.3913   0.0000   0.0000   0.0000   0.4037
  -0.300   0.0642   0.00616   0.00252  -0.0082  0.7964  0.9159  -0.3975   0.0000   0.0000   0.0000   0.3795
  -0.100   0.0812   0.00623   0.00255  -0.0070  0.7933  0.9244  -0.4054   0.0000   0.0000   0.0000   0.3362
   0.000   0.0970   0.00626   0.00258  -0.0081  0.7917  0.9254  -0.4122   0.0000   0.0000   0.0000   0.3330
   0.100   0.1130   0.00628   0.00260  -0.0092  0.7896  0.9262  -0.4192   0.0000   0.0000   0.0000   0.3307
   0.200   0.1286   0.00630   0.00260  -0.0102  0.7870  0.9271  -0.4262   0.0000   0.0000   0.0000   0.3284
   0.300   0.1439   0.00631   0.00259  -0.0111  0.7840  0.9280  -0.4379   0.0000   0.0000   0.0000   0.3261
   0.400   0.1586   0.00631   0.00257  -0.0119  0.7809  0.9290  -0.4501   0.0000   0.0000   0.0000   0.3235
   0.500   0.1728   0.00634   0.00255  -0.0125  0.7778  0.9301  -0.4622   0.0000   0.0000   0.0000   0.3209
   0.600   0.1864   0.00636   0.00258  -0.0131  0.7739  0.9314  -0.4738   0.0000   0.0000   0.0000   0.3185
   0.700   0.1996   0.00639   0.00260  -0.0135  0.7703  0.9330  -0.4857   0.0000   0.0000   0.0000   0.3159
   0.800   0.2111   0.00642   0.00262  -0.0136  0.7674  0.9352  -0.4970   0.0000   0.0000   0.0000   0.3125
   0.900   0.2140   0.00644   0.00263  -0.0117  0.7648  0.9406  -0.5033   0.0000   0.0000   0.0000   0.3025
   1.000   0.2295   0.00648   0.00264  -0.0127  0.7626  0.9410  -0.5169   0.0000   0.0000   0.0000   0.3030
   1.100   0.2447   0.00652   0.00267  -0.0136  0.7602  0.9414  -0.5304   0.0000   0.0000   0.0000   0.3034
   1.200   0.2599   0.00655   0.00271  -0.0146  0.7574  0.9418  -0.5447   0.0000   0.0000   0.0000   0.3037
   1.300   0.2749   0.00659   0.00275  -0.0155  0.7545  0.9423  -0.5590   0.0000   0.0000   0.0000   0.3038
   1.400   0.2897   0.00662   0.00278  -0.0163  0.7518  0.9428  -0.5732   0.0000   0.0000   0.0000   0.3039
   1.500   0.3045   0.00666   0.00280  -0.0172  0.7491  0.9434  -0.5875   0.0000   0.0000   0.0000   0.3038
   1.600   0.3192   0.00670   0.00282  -0.0180  0.7467  0.9440  -0.6018   0.0000   0.0000   0.0000   0.3037
   1.700   0.3338   0.00674   0.00285  -0.0188  0.7439  0.9446  -0.6165   0.0000   0.0000   0.0000   0.3036
   1.800   0.3481   0.00677   0.00290  -0.0195  0.7407  0.9454  -0.6316   0.0000   0.0000   0.0000   0.3034
   1.900   0.3623   0.00681   0.00294  -0.0203  0.7375  0.9463  -0.6467   0.0000   0.0000   0.0000   0.3031
   2.000   0.3761   0.00685   0.00297  -0.0209  0.7343  0.9473  -0.6615   0.0000   0.0000   0.0000   0.3026
   2.100   0.3894   0.00689   0.00299  -0.0214  0.7312  0.9484  -0.6761   0.0000   0.0000   0.0000   0.3020
   2.200   0.4021   0.00693   0.00302  -0.0218  0.7281  0.9498  -0.6904   0.0000   0.0000   0.0000   0.3011
   2.300   0.4135   0.00696   0.00308  -0.0219  0.7245  0.9517  -0.7038   0.0000   0.0000   0.0000   0.2998
   2.400   0.4153   0.00701   0.00312  -0.0198  0.7210  0.9565  -0.7115   0.0000   0.0000   0.0000   0.2944
   2.500   0.4303   0.00704   0.00315  -0.0207  0.7174  0.9568  -0.7285   0.0000   0.0000   0.0000   0.2948
   2.600   0.4452   0.00707   0.00316  -0.0216  0.7138  0.9572  -0.7455   0.0000   0.0000   0.0000   0.2951
   2.700   0.4600   0.00710   0.00320  -0.0225  0.7097  0.9577  -0.7626   0.0000   0.0000   0.0000   0.2955
   2.800   0.4748   0.00713   0.00324  -0.0233  0.7053  0.9582  -0.7797   0.0000   0.0000   0.0000   0.2957
   2.900   0.4893   0.00717   0.00327  -0.0242  0.7011  0.9587  -0.7967   0.0000   0.0000   0.0000   0.2958
   3.000   0.5036   0.00721   0.00329  -0.0249  0.6972  0.9593  -0.8136   0.0000   0.0000   0.0000   0.2959
   3.100   0.5179   0.00724   0.00334  -0.0257  0.6926  0.9599  -0.8556   0.0000   0.0000   0.0000   0.2959
   3.200   0.5319   0.00727   0.00337  -0.0264  0.6873  0.9606  -0.9157   0.0000   0.0000   0.0000   0.2958
   3.300   0.5454   0.00732   0.00342  -0.0270  0.6820  0.9614  -0.9755   0.0000   0.0000   0.0000   0.2956
   3.400   0.5589   0.00735   0.00346  -0.0276  0.6766  0.9623  -1.0438   0.0000   0.0000   0.0000   0.2954
   3.500   0.5723   0.00739   0.00350  -0.0281  0.6709  0.9632  -1.1155   0.0000   0.0000   0.0000   0.2952
   3.600   0.5850   0.00744   0.00353  -0.0285  0.6652  0.9643  -1.1867   0.0000   0.0000   0.0000   0.2948
   3.700   0.5972   0.00749   0.00358  -0.0288  0.6558  0.9656  -1.2572   0.0000   0.0000   0.0000   0.2942
   3.800   0.6076   0.00757   0.00362  -0.0287  0.6430  0.9674  -1.3236   0.0000   0.0000   0.0000   0.2931
   3.900   0.6101   0.00771   0.00371  -0.0268  0.6306  0.9711  -1.3668   0.0000   0.0000   0.0000   0.2897
   4.000   0.6236   0.00779   0.00373  -0.0275  0.6094  0.9716  -1.4441   0.0000   0.0000   0.0000   0.2897
   4.100   0.6366   0.00791   0.00376  -0.0280  0.5872  0.9722  -1.5212   0.0000   0.0000   0.0000   0.2896
   4.200   0.6493   0.00805   0.00381  -0.0285  0.5638  0.9728  -1.5979   0.0000   0.0000   0.0000   0.2894
   4.300   0.6610   0.00825   0.00389  -0.0289  0.5292  0.9735  -1.6718   0.0000   0.0000   0.0000   0.2890
   4.500   0.6812   0.00892   0.00414  -0.0291  0.4362  0.9756  -1.8129   0.0000   0.0000   0.0000   0.2878
   4.600   0.6911   0.00925   0.00429  -0.0291  0.3959  0.9768  -1.8915   0.0000   0.0000   0.0000   0.2873
   4.700   0.7006   0.00958   0.00444  -0.0291  0.3577  0.9783  -1.9728   0.0000   0.0000   0.0000   0.2866
   4.800   0.7095   0.00990   0.00460  -0.0290  0.3236  0.9799  -2.0529   0.0000   0.0000   0.0000   0.2858
   4.900   0.7175   0.01020   0.00476  -0.0286  0.2959  0.9817  -2.1301   0.0000   0.0000   0.0000   0.2847
   5.100   0.7362   0.01071   0.00504  -0.0285  0.2456  0.9843  -2.2976   0.0000   0.0000   0.0000   0.2833
   5.200   0.7480   0.01097   0.00516  -0.0290  0.2175  0.9849  -2.3921   0.0000   0.0000   0.0000   0.2833
   5.300   0.7594   0.01127   0.00530  -0.0294  0.1862  0.9857  -2.4851   0.0000   0.0000   0.0000   0.2832
   5.400   0.7697   0.01166   0.00550  -0.0297  0.1453  0.9866  -2.5717   0.0000   0.0000   0.0000   0.2830
   5.500   0.7762   0.01242   0.00586  -0.0295  0.0730  0.9879  -2.6397   0.0000   0.0000   0.0000   0.2823
   5.600   0.7845   0.01298   0.00621  -0.0294  0.0359  0.9892  -2.7121   0.0000   0.0000   0.0000   0.2817
   5.700   0.7951   0.01329   0.00647  -0.0295  0.0276  0.9904  -2.7879   0.0000   0.0000   0.0000   0.2812
   5.800   0.8066   0.01345   0.00666  -0.0298  0.0255  0.9914  -2.8749   0.0000   0.0000   0.0000   0.2809
   5.900   0.8178   0.01361   0.00684  -0.0300  0.0241  0.9924  -2.9651   0.0000   0.0000   0.0000   0.2806
   6.000   0.8285   0.01379   0.00703  -0.0301  0.0226  0.9934  -3.0540   0.0000   0.0000   0.0000   0.2801
   6.100   0.8397   0.01399   0.00723  -0.0303  0.0211  0.9943  -3.1451   0.0000   0.0000   0.0000   0.2798
   6.200   0.8516   0.01425   0.00752  -0.0307  0.0192  0.9949  -3.2279   0.0000   0.0000   0.0000   0.2797
   6.300   0.8622   0.01466   0.00799  -0.0309  0.0178  0.9957  -3.2918   0.0000   0.0000   0.0000   0.2794
   6.400   0.8748   0.01478   0.00812  -0.0315  0.0175  0.9964  -3.3974   0.0000   0.0000   0.0000   0.2794
   6.500   0.8870   0.01493   0.00830  -0.0319  0.0170  0.9972  -3.5149   0.0000   0.0000   0.0000   0.2793
   6.600   0.8989   0.01512   0.00852  -0.0323  0.0165  0.9980  -3.6283   0.0000   0.0000   0.0000   0.2792
   6.700   0.9106   0.01532   0.00875  -0.0327  0.0160  0.9987  -3.7423   0.0000   0.0000   0.0000   0.2790
   6.800   0.9223   0.01554   0.00900  -0.0331  0.0155  0.9994  -3.8572   0.0000   0.0000   0.0000   0.2788
   6.900   0.9336   0.01577   0.00925  -0.0334  0.0151  1.0000  -3.9716   0.0000   0.0000   0.0000   0.2786
   7.000   0.9391   0.01598   0.00948  -0.0324  0.0148  1.0000  -4.0572   0.0000   0.0000   0.0000   0.2773
   7.100   0.9443   0.01619   0.00971  -0.0314  0.0145  1.0000  -4.1428   0.0000   0.0000   0.0000   0.2759
   7.200   0.9494   0.01641   0.00995  -0.0304  0.0142  1.0000  -4.2282   0.0000   0.0000   0.0000   0.2746
   7.300   0.9542   0.01664   0.01020  -0.0294  0.0139  1.0000  -4.3125   0.0000   0.0000   0.0000   0.2732
   7.400   0.9586   0.01689   0.01046  -0.0282  0.0137  1.0000  -4.3947   0.0000   0.0000   0.0000   0.2718
   7.500   0.9626   0.01716   0.01075  -0.0270  0.0134  1.0000  -4.4728   0.0000   0.0000   0.0000   0.2703
   7.600   0.9658   0.01747   0.01108  -0.0257  0.0131  1.0000  -4.5441   0.0000   0.0000   0.0000   0.2687
   7.700   0.9680   0.01783   0.01147  -0.0242  0.0129  1.0000  -4.6055   0.0000   0.0000   0.0000   0.2669
   7.800   0.9689   0.01828   0.01195  -0.0224  0.0126  1.0000  -4.6541   0.0000   0.0000   0.0000   0.2650
   7.900   0.9681   0.01885   0.01257  -0.0204  0.0123  1.0000  -4.6837   0.0000   0.0000   0.0000   0.2628
   8.000   0.9651   0.01969   0.01347  -0.0180  0.0120  1.0000  -4.6827   0.0000   0.0000   0.0000   0.2602
   8.100   0.9671   0.02018   0.01399  -0.0165  0.0118  1.0000  -4.7331   0.0000   0.0000   0.0000   0.2585
   8.200   0.9724   0.02026   0.01409  -0.0155  0.0117  1.0000  -4.8309   0.0000   0.0000   0.0000   0.2573
   8.300   0.9769   0.02038   0.01423  -0.0144  0.0116  1.0000  -4.9227   0.0000   0.0000   0.0000   0.2559
   8.400   0.9801   0.02054   0.01441  -0.0130  0.0114  1.0000  -5.0043   0.0000   0.0000   0.0000   0.2544
   8.500   0.9822   0.02072   0.01464  -0.0114  0.0113  1.0000  -5.0778   0.0000   0.0000   0.0000   0.2526
   8.600   0.9835   0.02094   0.01488  -0.0097  0.0112  1.0000  -5.1439   0.0000   0.0000   0.0000   0.2507
   8.700   0.9848   0.02120   0.01517  -0.0080  0.0111  1.0000  -5.2054   0.0000   0.0000   0.0000   0.2488
   8.800   0.9862   0.02148   0.01548  -0.0063  0.0110  1.0000  -5.2671   0.0000   0.0000   0.0000   0.2470
   8.900   0.9880   0.02179   0.01581  -0.0047  0.0109  1.0000  -5.3298   0.0000   0.0000   0.0000   0.2453
   9.000   0.9902   0.02211   0.01616  -0.0033  0.0108  1.0000  -5.3938   0.0000   0.0000   0.0000   0.2437
   9.100   0.9927   0.02245   0.01654  -0.0019  0.0107  1.0000  -5.4591   0.0000   0.0000   0.0000   0.2421
   9.200   0.9955   0.02280   0.01692  -0.0005  0.0106  1.0000  -5.5256   0.0000   0.0000   0.0000   0.2407
   9.300   0.9986   0.02317   0.01733   0.0007  0.0104  1.0000  -5.5931   0.0000   0.0000   0.0000   0.2393
   9.400   1.0019   0.02355   0.01774   0.0020  0.0103  1.0000  -5.6614   0.0000   0.0000   0.0000   0.2379
   9.500   1.0055   0.02395   0.01817   0.0031  0.0102  1.0000  -5.7304   0.0000   0.0000   0.0000   0.2366
   9.600   1.0091   0.02435   0.01861   0.0043  0.0101  1.0000  -5.7999   0.0000   0.0000   0.0000   0.2354
   9.700   1.0128   0.02476   0.01906   0.0054  0.0100  1.0000  -5.8695   0.0000   0.0000   0.0000   0.2342
   9.800   1.0165   0.02518   0.01952   0.0065  0.0099  1.0000  -5.9392   0.0000   0.0000   0.0000   0.2330
   9.900   1.0202   0.02561   0.01998   0.0076  0.0098  1.0000  -6.0089   0.0000   0.0000   0.0000   0.2318
  10.000   1.0238   0.02604   0.02045   0.0087  0.0097  1.0000  -6.0785   0.0000   0.0000   0.0000   0.2306
  10.100   1.0273   0.02647   0.02092   0.0098  0.0096  1.0000  -6.1481   0.0000   0.0000   0.0000   0.2295
  10.200   1.0306   0.02690   0.02139   0.0109  0.0095  1.0000  -6.2177   0.0000   0.0000   0.0000   0.2283
  10.300   1.0337   0.02733   0.02186   0.0120  0.0094  1.0000  -6.2873   0.0000   0.0000   0.0000   0.2271
  10.400   1.0366   0.02776   0.02233   0.0131  0.0093  1.0000  -6.3573   0.0000   0.0000   0.0000   0.2259
  10.500   1.0393   0.02821   0.02281   0.0143  0.0092  1.0000  -6.4244   0.0000   0.0000   0.0000   0.2247
  10.600   1.0417   0.02865   0.02330   0.0155  0.0091  1.0000  -6.5066   0.0000   0.0000   0.0000   0.2234
  10.700   1.0438   0.02911   0.02380   0.0167  0.0090  1.0000  -6.5906   0.0000   0.0000   0.0000   0.2222
  10.800   1.0458   0.02957   0.02430   0.0178  0.0089  1.0000  -6.6740   0.0000   0.0000   0.0000   0.2209
  10.900   1.0477   0.03005   0.02482   0.0190  0.0088  1.0000  -6.7571   0.0000   0.0000   0.0000   0.2197
  11.000   1.0494   0.03054   0.02536   0.0202  0.0087  1.0000  -6.8392   0.0000   0.0000   0.0000   0.2185
  11.100   1.0510   0.03107   0.02594   0.0214  0.0086  1.0000  -6.9208   0.0000   0.0000   0.0000   0.2172
  11.200   1.0524   0.03163   0.02654   0.0225  0.0085  1.0000  -6.9992   0.0000   0.0000   0.0000   0.2160
  11.300   1.0537   0.03224   0.02720   0.0237  0.0085  1.0000  -7.0736   0.0000   0.0000   0.0000   0.2148
  11.400   1.0547   0.03291   0.02792   0.0248  0.0084  1.0000  -7.1418   0.0000   0.0000   0.0000   0.2136
  11.500   1.0554   0.03367   0.02873   0.0260  0.0083  1.0000  -7.2020   0.0000   0.0000   0.0000   0.2123
  11.600   1.0556   0.03450   0.02963   0.0272  0.0083  1.0000  -7.2530   0.0000   0.0000   0.0000   0.2111
  11.700   1.0553   0.03540   0.03060   0.0284  0.0082  1.0000  -7.2950   0.0000   0.0000   0.0000   0.2097
  11.800   1.0544   0.03634   0.03161   0.0297  0.0082  1.0000  -7.3290   0.0000   0.0000   0.0000   0.2084
  11.900   1.0529   0.03730   0.03266   0.0310  0.0082  1.0000  -7.3569   0.0000   0.0000   0.0000   0.2069
  12.000   1.0510   0.03828   0.03372   0.0323  0.0082  1.0000  -7.3805   0.0000   0.0000   0.0000   0.2055
  12.100   1.0486   0.03927   0.03479   0.0336  0.0082  1.0000  -7.3998   0.0000   0.0000   0.0000   0.2040
  12.200   1.0458   0.04028   0.03588   0.0349  0.0082  1.0000  -7.4145   0.0000   0.0000   0.0000   0.2025
  12.300   1.0426   0.04132   0.03700   0.0362  0.0082  1.0000  -7.4267   0.0000   0.0000   0.0000   0.2010
  12.400   1.0390   0.04238   0.03814   0.0374  0.0082  1.0000  -7.4374   0.0000   0.0000   0.0000   0.1995
  12.500   1.0351   0.04346   0.03931   0.0386  0.0082  1.0000  -7.4470   0.0000   0.0000   0.0000   0.1981
  12.600   1.0309   0.04458   0.04050   0.0398  0.0082  1.0000  -7.4550   0.0000   0.0000   0.0000   0.1966
  12.700   1.0264   0.04573   0.04172   0.0408  0.0082  1.0000  -7.4615   0.0000   0.0000   0.0000   0.1952
  12.800   1.0216   0.04690   0.04297   0.0419  0.0082  1.0000  -7.4659   0.0000   0.0000   0.0000   0.1938
  12.900   1.0164   0.04812   0.04426   0.0428  0.0082  1.0000  -7.4681   0.0000   0.0000   0.0000   0.1925
  13.000   1.0111   0.04937   0.04558   0.0437  0.0082  1.0000  -7.4681   0.0000   0.0000   0.0000   0.1912
  13.100   1.0055   0.05068   0.04696   0.0445  0.0082  1.0000  -7.4654   0.0000   0.0000   0.0000   0.1900
  13.200   0.9996   0.05202   0.04837   0.0453  0.0082  1.0000  -7.4600   0.0000   0.0000   0.0000   0.1888
  13.300   0.9935   0.05341   0.04983   0.0459  0.0082  1.0000  -7.4520   0.0000   0.0000   0.0000   0.1876
  13.400   0.9872   0.05486   0.05135   0.0465  0.0082  1.0000  -7.4410   0.0000   0.0000   0.0000   0.1866
  13.500   0.9807   0.05637   0.05293   0.0469  0.0082  1.0000  -7.4267   0.0000   0.0000   0.0000   0.1856
  13.600   0.9739   0.05795   0.05458   0.0472  0.0082  1.0000  -7.4087   0.0000   0.0000   0.0000   0.1847
  13.700   0.9669   0.05960   0.05630   0.0475  0.0082  1.0000  -7.3856   0.0000   0.0000   0.0000   0.1839
  13.800   0.9595   0.06134   0.05812   0.0476  0.0082  1.0000  -7.3547   0.0000   0.0000   0.0000   0.1831
  13.900   0.9511   0.06330   0.06015   0.0476  0.0083  1.0000  -7.3040   0.0000   0.0000   0.0000   0.1825
  14.000   0.7103   0.06368   0.06120   0.0523  0.0103  1.0000  -5.2330   0.0000   0.0000   0.0000   0.1607
  14.100   0.6983   0.06574   0.06330   0.0517  0.0102  1.0000  -5.1795   0.0000   0.0000   0.0000   0.1602
  14.200   0.6852   0.06752   0.06513   0.0512  0.0102  1.0000  -5.1231   0.0000   0.0000   0.0000   0.1595
  14.300   0.6738   0.06958   0.06723   0.0504  0.0102  1.0000  -5.0630   0.0000   0.0000   0.0000   0.1594
  14.400   0.6630   0.07178   0.06948   0.0493  0.0102  1.0000  -4.9998   0.0000   0.0000   0.0000   0.1597
  14.500   0.6525   0.07407   0.07181   0.0482  0.0103  1.0000  -4.9335   0.0000   0.0000   0.0000   0.1602
  14.600   0.6422   0.07645   0.07424   0.0469  0.0103  1.0000  -4.8635   0.0000   0.0000   0.0000   0.1610
  14.700   0.6321   0.07891   0.07674   0.0455  0.0103  1.0000  -4.7892   0.0000   0.0000   0.0000   0.1619
  14.800   0.6221   0.08146   0.07934   0.0440  0.0103  1.0000  -4.7100   0.0000   0.0000   0.0000   0.1631
  14.900   0.6121   0.08411   0.08202   0.0424  0.0104  1.0000  -4.6247   0.0000   0.0000   0.0000   0.1646
  15.000   0.6020   0.08686   0.08481   0.0407  0.0104  1.0000  -4.5321   0.0000   0.0000   0.0000   0.1662
  15.100   0.5917   0.08973   0.08772   0.0389  0.0105  1.0000  -4.4303   0.0000   0.0000   0.0000   0.1680
  15.200   0.5812   0.09275   0.09078   0.0370  0.0105  1.0000  -4.3163   0.0000   0.0000   0.0000   0.1700
  15.300   0.5701   0.09598   0.09404   0.0351  0.0106  1.0000  -4.1858   0.0000   0.0000   0.0000   0.1723
  15.400   0.5583   0.09948   0.09757   0.0330  0.0107  1.0000  -4.0315   0.0000   0.0000   0.0000   0.1749
  15.500   0.5450   0.10343   0.10155   0.0307  0.0109  1.0000  -3.8380   0.0000   0.0000   0.0000   0.1778
  15.600   0.5292   0.10809   0.10624   0.0282  0.0111  1.0000  -3.5775   0.0000   0.0000   0.0000   0.1811
  15.700   0.4704   0.12503   0.12315   0.0224  0.0178  1.0000  -2.1543   0.0000   0.0000   0.0000   0.1888
  15.800   0.4691   0.12677   0.12489   0.0217  0.0177  1.0000  -2.1117   0.0000   0.0000   0.0000   0.1902
  15.900   0.4681   0.12845   0.12657   0.0210  0.0177  1.0000  -2.0734   0.0000   0.0000   0.0000   0.1916
  16.000   0.4674   0.13007   0.12818   0.0203  0.0177  1.0000  -2.0388   0.0000   0.0000   0.0000   0.1930
  16.100   0.4669   0.13163   0.12975   0.0196  0.0176  1.0000  -2.0079   0.0000   0.0000   0.0000   0.1944
  16.200   0.4669   0.13313   0.13124   0.0189  0.0175  1.0000  -1.9814   0.0000   0.0000   0.0000   0.1958
  16.300   0.4680   0.13445   0.13256   0.0182  0.0172  1.0000  -1.9642   0.0000   0.0000   0.0000   0.1974
  16.400   0.4688   0.13598   0.13409   0.0174  0.0166  1.0000  -1.9295   0.0000   0.0000   0.0000   0.1992
  16.500   0.4684   0.13761   0.13572   0.0167  0.0162  1.0000  -1.8887   0.0000   0.0000   0.0000   0.2008
  16.600   0.4682   0.13913   0.13724   0.0160  0.0158  1.0000  -1.8579   0.0000   0.0000   0.0000   0.2023
  16.700   0.4681   0.14059   0.13869   0.0153  0.0156  1.0000  -1.8321   0.0000   0.0000   0.0000   0.2037
  16.800   0.4682   0.14200   0.14010   0.0147  0.0153  1.0000  -1.8113   0.0000   0.0000   0.0000   0.2050
  16.900   0.4684   0.14336   0.14146   0.0141  0.0150  1.0000  -1.7946   0.0000   0.0000   0.0000   0.2063
  17.000   0.4688   0.14468   0.14279   0.0135  0.0148  1.0000  -1.7809   0.0000   0.0000   0.0000   0.2076
  17.100   0.4693   0.14597   0.14408   0.0129  0.0146  1.0000  -1.7702   0.0000   0.0000   0.0000   0.2089
  17.200   0.4700   0.14722   0.14533   0.0123  0.0144  1.0000  -1.7632   0.0000   0.0000   0.0000   0.2101
  17.300   0.4708   0.14843   0.14653   0.0117  0.0142  1.0000  -1.7605   0.0000   0.0000   0.0000   0.2113
  17.400   0.4718   0.14958   0.14768   0.0112  0.0140  1.0000  -1.7629   0.0000   0.0000   0.0000   0.2124
  17.500   0.4730   0.15067   0.14878   0.0106  0.0137  1.0000  -1.7710   0.0000   0.0000   0.0000   0.2135
  17.600   0.4745   0.15169   0.14980   0.0101  0.0135  1.0000  -1.7862   0.0000   0.0000   0.0000   0.2145
  17.700   0.4763   0.15265   0.15076   0.0097  0.0133  1.0000  -1.8097   0.0000   0.0000   0.0000   0.2155
  17.800   0.4783   0.15351   0.15163   0.0093  0.0131  1.0000  -1.8414   0.0000   0.0000   0.0000   0.2163
  17.900   0.4805   0.15432   0.15244   0.0089  0.0129  1.0000  -1.8792   0.0000   0.0000   0.0000   0.2171
  18.000   0.4828   0.15506   0.15319   0.0085  0.0128  1.0000  -1.9236   0.0000   0.0000   0.0000   0.2178
  18.100   0.4850   0.15584   0.15397   0.0081  0.0126  1.0000  -1.9664   0.0000   0.0000   0.0000   0.2185
  18.200   0.4872   0.15664   0.15478   0.0077  0.0124  1.0000  -2.0095   0.0000   0.0000   0.0000   0.2192
  18.300   0.4887   0.15768   0.15582   0.0073  0.0123  1.0000  -2.0315   0.0000   0.0000   0.0000   0.2200
  19.600   0.7379   0.22468   0.22252  -0.0234  0.0084  1.0000  -2.3553   0.0000   0.0000   0.0000   0.2569
  19.700   0.7406   0.22584   0.22368  -0.0240  0.0083  1.0000  -2.3801   0.0000   0.0000   0.0000   0.2573
  19.800   0.7433   0.22697   0.22481  -0.0246  0.0082  1.0000  -2.4090   0.0000   0.0000   0.0000   0.2578
  19.900   0.7461   0.22806   0.22590  -0.0251  0.0082  1.0000  -2.4425   0.0000   0.0000   0.0000   0.2582
  20.000   0.7490   0.22912   0.22697  -0.0256  0.0081  1.0000  -2.4805   0.0000   0.0000   0.0000   0.2585
  20.100   0.7517   0.23028   0.22813  -0.0261  0.0080  1.0000  -2.5128   0.0000   0.0000   0.0000   0.2588
  20.200   0.7542   0.23146   0.22932  -0.0266  0.0079  1.0000  -2.5495   0.0000   0.0000   0.0000   0.2591
  20.300   0.7529   0.23470   0.23253  -0.0274  0.0077  1.0000  -2.4259   0.0000   0.0000   0.0000   0.2602
  20.400   0.7553   0.23629   0.23413  -0.0282  0.0077  1.0000  -2.4188   0.0000   0.0000   0.0000   0.2610
  20.500   0.7578   0.23788   0.23571  -0.0290  0.0077  1.0000  -2.4123   0.0000   0.0000   0.0000   0.2617
  20.600   0.7603   0.23944   0.23729  -0.0298  0.0077  1.0000  -2.4053   0.0000   0.0000   0.0000   0.2625
  20.700   0.7627   0.24102   0.23887  -0.0305  0.0077  1.0000  -2.3994   0.0000   0.0000   0.0000   0.2632
  20.800   0.7653   0.24257   0.24042  -0.0313  0.0077  1.0000  -2.3940   0.0000   0.0000   0.0000   0.2639
  20.900   0.7678   0.24412   0.24196  -0.0321  0.0077  1.0000  -2.3889   0.0000   0.0000   0.0000   0.2647
  21.000   0.7704   0.24565   0.24350  -0.0329  0.0077  1.0000  -2.3841   0.0000   0.0000   0.0000   0.2654
  21.100   0.7729   0.24718   0.24502  -0.0337  0.0077  1.0000  -2.3795   0.0000   0.0000   0.0000   0.2661
  21.200   0.7755   0.24870   0.24654  -0.0346  0.0077  1.0000  -2.3750   0.0000   0.0000   0.0000   0.2668
  21.300   0.7781   0.25020   0.24805  -0.0354  0.0077  1.0000  -2.3707   0.0000   0.0000   0.0000   0.2676
  21.400   0.7808   0.25170   0.24955  -0.0362  0.0077  1.0000  -2.3663   0.0000   0.0000   0.0000   0.2683
  21.500   0.7834   0.25319   0.25104  -0.0370  0.0076  1.0000  -2.3619   0.0000   0.0000   0.0000   0.2690
  21.600   0.7860   0.25467   0.25252  -0.0378  0.0076  1.0000  -2.3567   0.0000   0.0000   0.0000   0.2697
  21.700   0.7887   0.25615   0.25399  -0.0387  0.0076  1.0000  -2.3497   0.0000   0.0000   0.0000   0.2705
  21.800   0.7912   0.25769   0.25554  -0.0397  0.0076  1.0000  -2.3314   0.0000   0.0000   0.0000   0.2714
  21.900   0.7936   0.25930   0.25714  -0.0408  0.0075  1.0000  -2.3009   0.0000   0.0000   0.0000   0.2724
  22.000   0.7961   0.26100   0.25884  -0.0419  0.0075  1.0000  -2.2573   0.0000   0.0000   0.0000   0.2736
  22.100   0.7990   0.26292   0.26075  -0.0432  0.0072  1.0000  -2.1873   0.0000   0.0000   0.0000   0.2749
  22.200   0.8022   0.26462   0.26245  -0.0442  0.0069  1.0000  -2.1517   0.0000   0.0000   0.0000   0.2757
  22.300   0.8050   0.26610   0.26393  -0.0450  0.0067  1.0000  -2.1437   0.0000   0.0000   0.0000   0.2764
  22.400   0.8079   0.26749   0.26532  -0.0458  0.0065  1.0000  -2.1421   0.0000   0.0000   0.0000   0.2770
  22.500   0.8107   0.26889   0.26673  -0.0466  0.0064  1.0000  -2.1430   0.0000   0.0000   0.0000   0.2776
  22.600   0.8135   0.27026   0.26810  -0.0474  0.0062  1.0000  -2.1457   0.0000   0.0000   0.0000   0.2782
  22.700   0.8163   0.27162   0.26945  -0.0482  0.0061  1.0000  -2.1500   0.0000   0.0000   0.0000   0.2788
  22.800   0.8191   0.27295   0.27078  -0.0490  0.0060  1.0000  -2.1557   0.0000   0.0000   0.0000   0.2793
  22.900   0.8219   0.27426   0.27210  -0.0498  0.0059  1.0000  -2.1628   0.0000   0.0000   0.0000   0.2799
  23.000   0.8248   0.27555   0.27339  -0.0506  0.0058  1.0000  -2.1715   0.0000   0.0000   0.0000   0.2805
  23.100   0.8276   0.27682   0.27466  -0.0514  0.0057  1.0000  -2.1819   0.0000   0.0000   0.0000   0.2810
  23.200   0.8304   0.27807   0.27591  -0.0522  0.0056  1.0000  -2.1942   0.0000   0.0000   0.0000   0.2815
  23.300   0.8332   0.27929   0.27713  -0.0530  0.0055  1.0000  -2.2087   0.0000   0.0000   0.0000   0.2821
  23.400   0.8360   0.28049   0.27833  -0.0538  0.0054  1.0000  -2.2256   0.0000   0.0000   0.0000   0.2826
  23.500   0.8388   0.28166   0.27951  -0.0546  0.0053  1.0000  -2.2452   0.0000   0.0000   0.0000   0.2831
  23.600   0.8416   0.28280   0.28065  -0.0554  0.0053  1.0000  -2.2678   0.0000   0.0000   0.0000   0.2836
  23.700   0.8444   0.28396   0.28181  -0.0561  0.0052  1.0000  -2.2937   0.0000   0.0000   0.0000   0.2840
  23.800   0.8471   0.28506   0.28291  -0.0569  0.0051  1.0000  -2.3231   0.0000   0.0000   0.0000   0.2844
  23.900   0.8499   0.28613   0.28398  -0.0576  0.0051  1.0000  -2.3563   0.0000   0.0000   0.0000   0.2848
  24.000   0.8527   0.28717   0.28503  -0.0583  0.0050  1.0000  -2.3939   0.0000   0.0000   0.0000   0.2852
  24.100   0.8554   0.28820   0.28606  -0.0590  0.0050  1.0000  -2.4369   0.0000   0.0000   0.0000   0.2854
  24.200   0.8583   0.28922   0.28709  -0.0595  0.0049  1.0000  -2.4881   0.0000   0.0000   0.0000   0.2856
  25.000   0.8795   0.30137   0.29922  -0.0662  0.0047  1.0000  -2.2621   0.0000   0.0000   0.0000   0.2899
  25.100   0.8822   0.30280   0.30066  -0.0672  0.0047  1.0000  -2.2294   0.0000   0.0000   0.0000   0.2906
  25.200   0.8849   0.30423   0.30210  -0.0682  0.0047  1.0000  -2.1980   0.0000   0.0000   0.0000   0.2913
  25.300   0.8877   0.30565   0.30352  -0.0692  0.0047  1.0000  -2.1679   0.0000   0.0000   0.0000   0.2919
  25.400   0.8905   0.30707   0.30494  -0.0702  0.0047  1.0000  -2.1383   0.0000   0.0000   0.0000   0.2926
  25.500   0.8934   0.30848   0.30635  -0.0712  0.0047  1.0000  -2.1090   0.0000   0.0000   0.0000   0.2932
  25.600   0.8963   0.30989   0.30776  -0.0722  0.0047  1.0000  -2.0793   0.0000   0.0000   0.0000   0.2939
  25.700   0.8992   0.31132   0.30919  -0.0732  0.0046  1.0000  -2.0486   0.0000   0.0000   0.0000   0.2945
  25.800   0.9023   0.31277   0.31063  -0.0742  0.0046  1.0000  -2.0162   0.0000   0.0000   0.0000   0.2951
  25.900   0.9054   0.31423   0.31210  -0.0751  0.0045  1.0000  -1.9822   0.0000   0.0000   0.0000   0.2957
  26.000   0.9085   0.31567   0.31354  -0.0761  0.0045  1.0000  -1.9507   0.0000   0.0000   0.0000   0.2962
  26.100   0.9116   0.31707   0.31494  -0.0770  0.0044  1.0000  -1.9275   0.0000   0.0000   0.0000   0.2967
  26.200   0.9146   0.31842   0.31629  -0.0779  0.0043  1.0000  -1.9121   0.0000   0.0000   0.0000   0.2972
  26.300   0.9175   0.31973   0.31761  -0.0787  0.0042  1.0000  -1.9018   0.0000   0.0000   0.0000   0.2977
  26.400   0.9203   0.32098   0.31886  -0.0796  0.0041  1.0000  -1.8945   0.0000   0.0000   0.0000   0.2981
  26.500   0.9232   0.32227   0.32015  -0.0805  0.0040  1.0000  -1.8892   0.0000   0.0000   0.0000   0.2986
  26.600   0.9260   0.32354   0.32141  -0.0814  0.0039  1.0000  -1.8853   0.0000   0.0000   0.0000   0.2991
  26.700   0.9288   0.32479   0.32267  -0.0823  0.0039  1.0000  -1.8824   0.0000   0.0000   0.0000   0.2995
  26.800   0.9315   0.32603   0.32391  -0.0832  0.0038  1.0000  -1.8851   0.0000   0.0000   0.0000   0.3000
  26.900   0.9343   0.32726   0.32514  -0.0841  0.0037  1.0000  -1.8953   0.0000   0.0000   0.0000   0.3004
  27.000   0.9371   0.32847   0.32636  -0.0850  0.0037  1.0000  -1.9060   0.0000   0.0000   0.0000   0.3008
  27.100   0.9398   0.32969   0.32757  -0.0859  0.0036  1.0000  -1.9171   0.0000   0.0000   0.0000   0.3013
  27.200   0.9426   0.33089   0.32878  -0.0868  0.0036  1.0000  -1.9286   0.0000   0.0000   0.0000   0.3017
  27.300   0.9453   0.33209   0.32998  -0.0877  0.0035  1.0000  -1.9405   0.0000   0.0000   0.0000   0.3022
  27.400   0.9480   0.33328   0.33117  -0.0886  0.0035  1.0000  -1.9526   0.0000   0.0000   0.0000   0.3026
  27.500   0.9507   0.33446   0.33235  -0.0895  0.0034  1.0000  -1.9652   0.0000   0.0000   0.0000   0.3030
  27.600   0.9534   0.33563   0.33353  -0.0904  0.0034  1.0000  -1.9780   0.0000   0.0000   0.0000   0.3034
  27.700   0.9561   0.33680   0.33470  -0.0913  0.0033  1.0000  -1.9913   0.0000   0.0000   0.0000   0.3039
  27.800   0.9588   0.33796   0.33586  -0.0922  0.0033  1.0000  -2.0049   0.0000   0.0000   0.0000   0.3043
  27.900   0.9614   0.33912   0.33702  -0.0931  0.0033  1.0000  -2.0189   0.0000   0.0000   0.0000   0.3047
  28.000   0.9641   0.34026   0.33817  -0.0941  0.0032  1.0000  -2.0333   0.0000   0.0000   0.0000   0.3051
  28.100   0.9667   0.34139   0.33930  -0.0950  0.0032  1.0000  -2.0482   0.0000   0.0000   0.0000   0.3055
  28.200   0.9694   0.34249   0.34040  -0.0959  0.0031  1.0000  -2.0638   0.0000   0.0000   0.0000   0.3059
  28.300   0.9720   0.34358   0.34149  -0.0968  0.0031  1.0000  -2.0808   0.0000   0.0000   0.0000   0.3063
  28.400   0.9746   0.34468   0.34259  -0.0977  0.0031  1.0000  -2.0992   0.0000   0.0000   0.0000   0.3067
  28.500   0.9772   0.34571   0.34363  -0.0987  0.0030  1.0000  -2.1191   0.0000   0.0000   0.0000   0.3071
  28.600   0.9797   0.34672   0.34464  -0.0996  0.0030  1.0000  -2.1407   0.0000   0.0000   0.0000   0.3075
  28.700   0.9823   0.34769   0.34561  -0.1005  0.0030  1.0000  -2.1642   0.0000   0.0000   0.0000   0.3079
  28.800   0.9848   0.34864   0.34656  -0.1014  0.0029  1.0000  -2.1897   0.0000   0.0000   0.0000   0.3083
  28.900   0.9872   0.34956   0.34748  -0.1024  0.0029  1.0000  -2.2172   0.0000   0.0000   0.0000   0.3086
  29.000   0.9897   0.35045   0.34838  -0.1033  0.0029  1.0000  -2.2469   0.0000   0.0000   0.0000   0.3090
  29.100   0.9921   0.35132   0.34926  -0.1042  0.0028  1.0000  -2.2789   0.0000   0.0000   0.0000   0.3093
  29.200   0.9945   0.35224   0.35019  -0.1050  0.0028  1.0000  -2.3138   0.0000   0.0000   0.0000   0.3096
  29.300   0.9968   0.35304   0.35099  -0.1059  0.0028  1.0000  -2.3517   0.0000   0.0000   0.0000   0.3099
  29.400   0.9990   0.35393   0.35189  -0.1066  0.0028  1.0000  -2.3941   0.0000   0.0000   0.0000   0.3101
  29.600   0.6658   0.31598   0.31442  -0.0714  0.0029  1.0000  -1.2433   0.0000   0.0000   0.0000   0.3266
  29.700   0.6672   0.31732   0.31577  -0.0721  0.0029  1.0000  -1.2608   0.0000   0.0000   0.0000   0.3272
  29.800   0.6686   0.31867   0.31712  -0.0728  0.0028  1.0000  -1.2803   0.0000   0.0000   0.0000   0.3278
  29.900   0.6700   0.32002   0.31849  -0.0735  0.0028  1.0000  -1.3025   0.0000   0.0000   0.0000   0.3283
  30.000   0.6714   0.32142   0.31989  -0.0741  0.0028  1.0000  -1.3281   0.0000   0.0000   0.0000   0.3288


