xflr5 v6.61

 Calculated polar for: MH 18

 1 1 Reynolds number fixed          Mach number fixed         

 xtrf =   1.000 (top)        1.000 (bottom)
 Mach =   0.000     Re =     0.625 e 6     Ncrit =   9.000

  alpha     CL        CD       CDp       Cm    Top Xtr Bot Xtr   Cpmin    Chinge    XCp    
 ------- -------- --------- --------- -------- ------- ------- -------- --------- ---------
  -9.900  -0.4281   0.10785   0.10569  -0.0077  0.8411  0.0149  -1.9869   0.0000   0.0000   0.0000   0.2240
  -9.800  -0.4267   0.10622   0.10407  -0.0085  0.8394  0.0149  -2.0031   0.0000   0.0000   0.0000   0.2221
  -9.700  -0.4254   0.10460   0.10245  -0.0093  0.8376  0.0149  -2.0199   0.0000   0.0000   0.0000   0.2203
  -9.600  -0.4243   0.10298   0.10083  -0.0100  0.8355  0.0149  -2.0373   0.0000   0.0000   0.0000   0.2184
  -9.500  -0.4233   0.10136   0.09922  -0.0108  0.8331  0.0149  -2.0553   0.0000   0.0000   0.0000   0.2166
  -9.400  -0.4224   0.09975   0.09761  -0.0116  0.8306  0.0149  -2.0739   0.0000   0.0000   0.0000   0.2148
  -9.300  -0.4216   0.09813   0.09598  -0.0124  0.8280  0.0149  -2.0932   0.0000   0.0000   0.0000   0.2130
  -9.200  -0.4209   0.09649   0.09433  -0.0132  0.8252  0.0149  -2.1132   0.0000   0.0000   0.0000   0.2111
  -9.100  -0.4202   0.09484   0.09267  -0.0140  0.8224  0.0149  -2.1338   0.0000   0.0000   0.0000   0.2092
  -9.000  -0.4197   0.09318   0.09100  -0.0148  0.8195  0.0149  -2.1553   0.0000   0.0000   0.0000   0.2073
  -8.900  -0.4194   0.09151   0.08933  -0.0157  0.8165  0.0149  -2.1775   0.0000   0.0000   0.0000   0.2054
  -8.800  -0.4192   0.08984   0.08764  -0.0165  0.8133  0.0149  -2.2007   0.0000   0.0000   0.0000   0.2034
  -8.700  -0.4191   0.08816   0.08595  -0.0174  0.8097  0.0149  -2.2248   0.0000   0.0000   0.0000   0.2014
  -8.600  -0.4192   0.08647   0.08424  -0.0183  0.8057  0.0149  -2.2499   0.0000   0.0000   0.0000   0.1993
  -8.500  -0.4194   0.08476   0.08252  -0.0193  0.8014  0.0149  -2.2762   0.0000   0.0000   0.0000   0.1970
  -8.400  -0.4197   0.08297   0.08074  -0.0204  0.8001  0.0149  -2.3041   0.0000   0.0000   0.0000   0.1945
  -8.300  -0.4202   0.08113   0.07891  -0.0216  0.7988  0.0149  -2.3336   0.0000   0.0000   0.0000   0.1918
  -8.200  -0.4210   0.07926   0.07706  -0.0230  0.7972  0.0150  -2.3650   0.0000   0.0000   0.0000   0.1889
  -8.100  -0.4224   0.07735   0.07516  -0.0244  0.7954  0.0150  -2.3989   0.0000   0.0000   0.0000   0.1858
  -8.000  -0.4244   0.07536   0.07317  -0.0262  0.7932  0.0150  -2.4366   0.0000   0.0000   0.0000   0.1821
  -7.900  -0.4276   0.07327   0.07108  -0.0284  0.7907  0.0150  -2.4795   0.0000   0.0000   0.0000   0.1776
  -7.800  -0.4307   0.07125   0.06906  -0.0299  0.7881  0.0150  -2.5220   0.0000   0.0000   0.0000   0.1747
  -7.700  -0.4334   0.06935   0.06713  -0.0309  0.7855  0.0150  -2.5631   0.0000   0.0000   0.0000   0.1729
  -7.600  -0.4352   0.06737   0.06512  -0.0319  0.7831  0.0150  -2.6053   0.0000   0.0000   0.0000   0.1710
  -7.500  -0.4357   0.06525   0.06296  -0.0330  0.7807  0.0150  -2.6486   0.0000   0.0000   0.0000   0.1686
  -7.400  -0.4359   0.06315   0.06082  -0.0340  0.7783  0.0150  -2.6916   0.0000   0.0000   0.0000   0.1666
  -7.300  -0.4359   0.06107   0.05869  -0.0347  0.7759  0.0150  -2.7340   0.0000   0.0000   0.0000   0.1649
  -7.200  -0.4356   0.05903   0.05659  -0.0353  0.7734  0.0150  -2.7755   0.0000   0.0000   0.0000   0.1635
  -7.100  -0.4350   0.05703   0.05452  -0.0357  0.7708  0.0150  -2.8157   0.0000   0.0000   0.0000   0.1625
  -7.000  -0.4341   0.05508   0.05249  -0.0360  0.7680  0.0150  -2.8541   0.0000   0.0000   0.0000   0.1616
  -6.900  -0.4329   0.05318   0.05051  -0.0362  0.7649  0.0150  -2.8902   0.0000   0.0000   0.0000   0.1609
  -6.300  -0.4469   0.03545   0.03199  -0.0347  0.7546  0.0125  -3.6000   0.0000   0.0000   0.0000   0.1671
  -6.200  -0.4481   0.03209   0.02838  -0.0335  0.7536  0.0111  -3.8105   0.0000   0.0000   0.0000   0.1698
  -6.100  -0.4475   0.02889   0.02490  -0.0322  0.7525  0.0099  -4.0469   0.0000   0.0000   0.0000   0.1727
  -6.000  -0.4470   0.02522   0.02086  -0.0303  0.7513  0.0086  -4.3932   0.0000   0.0000   0.0000   0.1766
  -5.900  -0.4438   0.02232   0.01760  -0.0287  0.7500  0.0079  -4.6803   0.0000   0.0000   0.0000   0.1797
  -5.800  -0.4374   0.02050   0.01554  -0.0277  0.7485  0.0076  -4.8165   0.0000   0.0000   0.0000   0.1811
  -5.700  -0.4296   0.01923   0.01408  -0.0270  0.7471  0.0074  -4.8691   0.0000   0.0000   0.0000   0.1817
  -5.600  -0.4211   0.01824   0.01295  -0.0264  0.7455  0.0074  -4.8756   0.0000   0.0000   0.0000   0.1818
  -5.500  -0.4120   0.01742   0.01200  -0.0259  0.7441  0.0074  -4.8553   0.0000   0.0000   0.0000   0.1816
  -5.400  -0.4027   0.01670   0.01117  -0.0255  0.7426  0.0074  -4.8174   0.0000   0.0000   0.0000   0.1812
  -5.300  -0.3932   0.01605   0.01042  -0.0251  0.7411  0.0075  -4.7667   0.0000   0.0000   0.0000   0.1807
  -5.200  -0.3835   0.01547   0.00975  -0.0247  0.7396  0.0076  -4.7065   0.0000   0.0000   0.0000   0.1801
  -5.100  -0.3738   0.01494   0.00913  -0.0243  0.7380  0.0077  -4.6388   0.0000   0.0000   0.0000   0.1793
  -5.000  -0.3640   0.01445   0.00855  -0.0240  0.7364  0.0078  -4.5650   0.0000   0.0000   0.0000   0.1785
  -4.900  -0.3541   0.01402   0.00806  -0.0237  0.7348  0.0080  -4.4788   0.0000   0.0000   0.0000   0.1776
  -4.800  -0.3439   0.01373   0.00763  -0.0235  0.7332  0.0083  -4.3636   0.0000   0.0000   0.0000   0.1762
  -4.700  -0.3337   0.01347   0.00733  -0.0233  0.7315  0.0087  -4.2437   0.0000   0.0000   0.0000   0.1747
  -4.600  -0.3234   0.01320   0.00701  -0.0230  0.7298  0.0091  -4.1305   0.0000   0.0000   0.0000   0.1732
  -4.500  -0.3133   0.01289   0.00665  -0.0228  0.7281  0.0094  -4.0292   0.0000   0.0000   0.0000   0.1717
  -4.400  -0.3034   0.01256   0.00625  -0.0225  0.7262  0.0097  -3.9403   0.0000   0.0000   0.0000   0.1703
  -4.300  -0.2935   0.01221   0.00583  -0.0221  0.7243  0.0099  -3.8613   0.0000   0.0000   0.0000   0.1690
  -4.200  -0.2836   0.01190   0.00544  -0.0218  0.7221  0.0102  -3.7817   0.0000   0.0000   0.0000   0.1676
  -4.100  -0.2736   0.01162   0.00510  -0.0215  0.7199  0.0106  -3.6992   0.0000   0.0000   0.0000   0.1659
  -4.000  -0.2634   0.01137   0.00479  -0.0212  0.7176  0.0112  -3.6146   0.0000   0.0000   0.0000   0.1639
  -3.900  -0.2532   0.01116   0.00452  -0.0209  0.7153  0.0120  -3.5269   0.0000   0.0000   0.0000   0.1615
  -3.800  -0.2427   0.01099   0.00430  -0.0208  0.7129  0.0130  -3.4322   0.0000   0.0000   0.0000   0.1587
  -3.700  -0.2320   0.01085   0.00413  -0.0206  0.7119  0.0141  -3.3213   0.0000   0.0000   0.0000   0.1552
  -3.600  -0.2210   0.01077   0.00403  -0.0206  0.7115  0.0149  -3.1878   0.0000   0.0000   0.0000   0.1508
  -3.500  -0.2119   0.01025   0.00352  -0.0200  0.7111  0.0294  -3.1700   0.0000   0.0000   0.0000   0.1496
  -3.400  -0.2018   0.01002   0.00339  -0.0198  0.7106  0.0461  -3.0481   0.0000   0.0000   0.0000   0.1456
  -3.300  -0.1911   0.00991   0.00329  -0.0198  0.7100  0.0552  -2.9114   0.0000   0.0000   0.0000   0.1403
  -3.200  -0.1807   0.00974   0.00320  -0.0197  0.7094  0.0685  -2.7952   0.0000   0.0000   0.0000   0.1347
  -3.100  -0.1699   0.00964   0.00312  -0.0196  0.7086  0.0762  -2.6746   0.0000   0.0000   0.0000   0.1279
  -3.000  -0.1596   0.00946   0.00303  -0.0195  0.7078  0.0956  -2.5592   0.0000   0.0000   0.0000   0.1210
  -2.900  -0.1490   0.00934   0.00296  -0.0195  0.7068  0.1101  -2.4409   0.0000   0.0000   0.0000   0.1124
  -2.800  -0.1388   0.00916   0.00289  -0.0194  0.7058  0.1316  -2.3271   0.0000   0.0000   0.0000   0.1034
  -2.700  -0.1280   0.00908   0.00282  -0.0193  0.7048  0.1428  -2.2106   0.0000   0.0000   0.0000   0.0917
  -2.600  -0.1176   0.00893   0.00276  -0.0192  0.7037  0.1633  -2.0983   0.0000   0.0000   0.0000   0.0788
  -2.500  -0.1069   0.00883   0.00269  -0.0192  0.7026  0.1774  -1.9853   0.0000   0.0000   0.0000   0.0625
  -2.400  -0.0963   0.00872   0.00264  -0.0191  0.7014  0.1975  -1.8748   0.0000   0.0000   0.0000   0.0431
  -2.300  -0.0859   0.00859   0.00258  -0.0190  0.7002  0.2182  -1.7665   0.0000   0.0000   0.0000   0.0195
  -2.200  -0.0757   0.00843   0.00252  -0.0189  0.6988  0.2474  -1.6612   0.0000   0.0000   0.0000  -0.0093
  -2.100  -0.0654   0.00830   0.00247  -0.0188  0.6974  0.2745  -1.5567   0.0000   0.0000   0.0000  -0.0478
  -2.000  -0.0556   0.00812   0.00242  -0.0186  0.6960  0.3095  -1.4564   0.0000   0.0000   0.0000  -0.0967
  -1.900  -0.0456   0.00795   0.00236  -0.0184  0.6946  0.3444  -1.3575   0.0000   0.0000   0.0000  -0.1674
  -1.800  -0.0356   0.00781   0.00231  -0.0182  0.6932  0.3791  -1.2599   0.0000   0.0000   0.0000  -0.2786
  -1.700  -0.0264   0.00760   0.00227  -0.0179  0.6919  0.4288  -1.1678   0.0000   0.0000   0.0000  -0.4499
  -1.600  -0.0180   0.00734   0.00222  -0.0175  0.6904  0.4902  -1.0811   0.0000   0.0000   0.0000  -0.7463
  -1.500  -0.0101   0.00708   0.00218  -0.0169  0.6889  0.5538  -0.9979   0.0000   0.0000   0.0000  -1.4640
  -1.400  -0.0022   0.00685   0.00214  -0.0162  0.6872  0.6130  -0.9170   0.0000   0.0000   0.0000  -7.1594
  -1.300   0.0057   0.00665   0.00208  -0.0155  0.6855  0.6665  -0.8401   0.0000   0.0000   0.0000   3.0611
  -1.200   0.0134   0.00645   0.00205  -0.0147  0.6837  0.7205  -0.7615   0.0000   0.0000   0.0000   1.3734
  -1.100   0.0216   0.00626   0.00204  -0.0140  0.6819  0.7748  -0.6828   0.0000   0.0000   0.0000   0.9124
  -1.000   0.0319   0.00609   0.00204  -0.0136  0.6801  0.8300  -0.6017   0.0000   0.0000   0.0000   0.6869
  -0.900   0.0566   0.00599   0.00211  -0.0164  0.6782  0.8941  -0.5482   0.0000   0.0000   0.0000   0.5439
  -0.800   0.1011   0.00609   0.00221  -0.0235  0.6758  0.9285  -0.4918   0.0000   0.0000   0.0000   0.4842
  -0.700   0.1223   0.00620   0.00228  -0.0256  0.6730  0.9372  -0.5041   0.0000   0.0000   0.0000   0.4602
  -0.600   0.1347   0.00630   0.00235  -0.0257  0.6701  0.9457  -0.5121   0.0000   0.0000   0.0000   0.4419
  -0.500   0.1461   0.00641   0.00242  -0.0257  0.6671  0.9536  -0.5196   0.0000   0.0000   0.0000   0.4267
  -0.400   0.1636   0.00651   0.00250  -0.0270  0.6652  0.9591  -0.5300   0.0000   0.0000   0.0000   0.4156
  -0.300   0.1782   0.00656   0.00253  -0.0277  0.6648  0.9643  -0.5392   0.0000   0.0000   0.0000   0.4056
  -0.200   0.1896   0.00660   0.00256  -0.0277  0.6644  0.9689  -0.5474   0.0000   0.0000   0.0000   0.3960
  -0.100   0.2015   0.00664   0.00259  -0.0279  0.6639  0.9722  -0.5563   0.0000   0.0000   0.0000   0.3878
   0.000   0.2203   0.00666   0.00259  -0.0295  0.6633  0.9744  -0.5688   0.0000   0.0000   0.0000   0.3832
   0.100   0.2387   0.00669   0.00259  -0.0310  0.6625  0.9770  -0.5811   0.0000   0.0000   0.0000   0.3792
   0.200   0.2556   0.00670   0.00259  -0.0323  0.6616  0.9798  -0.5927   0.0000   0.0000   0.0000   0.3752
   0.300   0.2706   0.00672   0.00259  -0.0331  0.6606  0.9823  -0.6034   0.0000   0.0000   0.0000   0.3712
   0.400   0.2848   0.00675   0.00260  -0.0337  0.6595  0.9848  -0.6135   0.0000   0.0000   0.0000   0.3672
   0.500   0.2997   0.00678   0.00262  -0.0345  0.6583  0.9871  -0.6242   0.0000   0.0000   0.0000   0.3639
   0.600   0.3186   0.00677   0.00260  -0.0362  0.6572  0.9886  -0.6369   0.0000   0.0000   0.0000   0.3623
   0.700   0.3360   0.00676   0.00258  -0.0376  0.6561  0.9902  -0.6500   0.0000   0.0000   0.0000   0.3604
   0.800   0.3527   0.00675   0.00256  -0.0389  0.6548  0.9919  -0.6629   0.0000   0.0000   0.0000   0.3586
   0.900   0.3694   0.00674   0.00254  -0.0401  0.6534  0.9937  -0.6759   0.0000   0.0000   0.0000   0.3568
   1.000   0.3860   0.00673   0.00251  -0.0413  0.6517  0.9956  -0.6888   0.0000   0.0000   0.0000   0.3552
   1.100   0.4032   0.00670   0.00247  -0.0427  0.6499  0.9972  -0.7023   0.0000   0.0000   0.0000   0.3539
   1.200   0.4212   0.00666   0.00241  -0.0442  0.6479  0.9988  -0.7161   0.0000   0.0000   0.0000   0.3529
   1.300   0.4372   0.00662   0.00237  -0.0453  0.6460  1.0000  -0.7289   0.0000   0.0000   0.0000   0.3515
   1.400   0.4476   0.00661   0.00235  -0.0452  0.6442  1.0000  -0.7385   0.0000   0.0000   0.0000   0.3488
   1.500   0.4580   0.00661   0.00234  -0.0451  0.6424  1.0000  -0.7480   0.0000   0.0000   0.0000   0.3462
   1.600   0.4684   0.00661   0.00233  -0.0450  0.6407  1.0000  -0.7581   0.0000   0.0000   0.0000   0.3437
   1.700   0.4788   0.00661   0.00232  -0.0449  0.6388  1.0000  -0.7690   0.0000   0.0000   0.0000   0.3413
   1.800   0.4892   0.00662   0.00231  -0.0448  0.6368  1.0000  -0.7800   0.0000   0.0000   0.0000   0.3390
   1.900   0.4997   0.00662   0.00230  -0.0447  0.6345  1.0000  -0.7910   0.0000   0.0000   0.0000   0.3368
   2.000   0.5101   0.00664   0.00229  -0.0446  0.6318  1.0000  -0.8020   0.0000   0.0000   0.0000   0.3347
   2.100   0.5205   0.00666   0.00229  -0.0445  0.6286  1.0000  -0.8130   0.0000   0.0000   0.0000   0.3327
   2.200   0.5310   0.00669   0.00231  -0.0444  0.6248  1.0000  -0.8241   0.0000   0.0000   0.0000   0.3308
   2.300   0.5415   0.00674   0.00234  -0.0444  0.6207  1.0000  -0.8352   0.0000   0.0000   0.0000   0.3290
   2.400   0.5521   0.00679   0.00238  -0.0443  0.6175  1.0000  -0.8463   0.0000   0.0000   0.0000   0.3272
   2.500   0.5627   0.00677   0.00237  -0.0442  0.6169  1.0000  -0.8583   0.0000   0.0000   0.0000   0.3255
   2.600   0.5733   0.00676   0.00237  -0.0442  0.6161  1.0000  -0.8712   0.0000   0.0000   0.0000   0.3239
   2.700   0.5839   0.00675   0.00238  -0.0441  0.6152  1.0000  -0.8842   0.0000   0.0000   0.0000   0.3223
   2.800   0.5945   0.00674   0.00239  -0.0440  0.6141  1.0000  -0.8972   0.0000   0.0000   0.0000   0.3207
   2.900   0.6052   0.00673   0.00239  -0.0440  0.6127  1.0000  -0.9102   0.0000   0.0000   0.0000   0.3192
   3.000   0.6158   0.00672   0.00239  -0.0439  0.6108  1.0000  -0.9233   0.0000   0.0000   0.0000   0.3178
   3.100   0.6264   0.00671   0.00239  -0.0438  0.6086  1.0000  -0.9374   0.0000   0.0000   0.0000   0.3164
   3.200   0.6370   0.00670   0.00239  -0.0438  0.6060  1.0000  -0.9526   0.0000   0.0000   0.0000   0.3150
   3.300   0.6476   0.00670   0.00239  -0.0437  0.6032  1.0000  -0.9678   0.0000   0.0000   0.0000   0.3137
   3.400   0.6582   0.00670   0.00239  -0.0436  0.6002  1.0000  -0.9831   0.0000   0.0000   0.0000   0.3124
   3.500   0.6689   0.00670   0.00240  -0.0435  0.5972  1.0000  -0.9985   0.0000   0.0000   0.0000   0.3111
   3.600   0.6794   0.00671   0.00240  -0.0435  0.5937  1.0000  -1.0164   0.0000   0.0000   0.0000   0.3099
   3.700   0.6900   0.00672   0.00241  -0.0434  0.5896  1.0000  -1.0343   0.0000   0.0000   0.0000   0.3087
   3.800   0.7004   0.00674   0.00241  -0.0433  0.5849  1.0000  -1.0523   0.0000   0.0000   0.0000   0.3075
   3.900   0.7109   0.00677   0.00242  -0.0432  0.5793  1.0000  -1.0703   0.0000   0.0000   0.0000   0.3064
   4.000   0.7214   0.00682   0.00244  -0.0431  0.5729  1.0000  -1.0883   0.0000   0.0000   0.0000   0.3053
   4.100   0.7320   0.00685   0.00247  -0.0430  0.5691  1.0000  -1.1073   0.0000   0.0000   0.0000   0.3043
   4.200   0.7428   0.00684   0.00250  -0.0430  0.5670  1.0000  -1.1292   0.0000   0.0000   0.0000   0.3033
   4.300   0.7535   0.00684   0.00252  -0.0430  0.5640  1.0000  -1.1511   0.0000   0.0000   0.0000   0.3023
   4.400   0.7642   0.00685   0.00255  -0.0429  0.5595  1.0000  -1.1732   0.0000   0.0000   0.0000   0.3013
   4.500   0.7748   0.00687   0.00256  -0.0428  0.5537  1.0000  -1.1967   0.0000   0.0000   0.0000   0.3004
   4.600   0.7853   0.00689   0.00258  -0.0428  0.5470  1.0000  -1.2234   0.0000   0.0000   0.0000   0.2994
   4.700   0.7957   0.00693   0.00260  -0.0427  0.5398  1.0000  -1.2502   0.0000   0.0000   0.0000   0.2985
   4.800   0.8060   0.00700   0.00266  -0.0426  0.5305  1.0000  -1.2784   0.0000   0.0000   0.0000   0.2976
   4.900   0.8164   0.00707   0.00269  -0.0425  0.5209  1.0000  -1.3229   0.0000   0.0000   0.0000   0.2967
   5.000   0.8269   0.00710   0.00274  -0.0424  0.5145  1.0000  -1.3683   0.0000   0.0000   0.0000   0.2959
   5.100   0.8373   0.00716   0.00278  -0.0423  0.5048  1.0000  -1.4138   0.0000   0.0000   0.0000   0.2951
   5.200   0.8474   0.00725   0.00282  -0.0422  0.4935  1.0000  -1.4916   0.0000   0.0000   0.0000   0.2942
   5.300   0.8573   0.00738   0.00288  -0.0421  0.4799  1.0000  -1.5991   0.0000   0.0000   0.0000   0.2934
   5.400   0.8675   0.00747   0.00295  -0.0420  0.4700  1.0000  -1.7102   0.0000   0.0000   0.0000   0.2926
   5.500   0.8777   0.00756   0.00302  -0.0419  0.4598  1.0000  -1.8235   0.0000   0.0000   0.0000   0.2919
   5.600   0.8875   0.00769   0.00310  -0.0418  0.4472  1.0000  -1.9369   0.0000   0.0000   0.0000   0.2911
   5.700   0.8970   0.00788   0.00321  -0.0417  0.4317  1.0000  -2.0505   0.0000   0.0000   0.0000   0.2903
   5.800   0.9070   0.00798   0.00330  -0.0416  0.4224  1.0000  -2.1693   0.0000   0.0000   0.0000   0.2896
   5.900   0.9169   0.00809   0.00339  -0.0414  0.4120  1.0000  -2.2896   0.0000   0.0000   0.0000   0.2888
   6.000   0.9261   0.00829   0.00352  -0.0412  0.3964  1.0000  -2.4076   0.0000   0.0000   0.0000   0.2881
   6.100   0.9351   0.00851   0.00366  -0.0410  0.3785  1.0000  -2.5264   0.0000   0.0000   0.0000   0.2873
   6.200   0.9447   0.00865   0.00376  -0.0409  0.3655  1.0000  -2.6505   0.0000   0.0000   0.0000   0.2866
   6.300   0.9530   0.00894   0.00393  -0.0406  0.3452  1.0000  -2.7688   0.0000   0.0000   0.0000   0.2858
   6.400   0.9620   0.00913   0.00407  -0.0404  0.3296  1.0000  -2.8930   0.0000   0.0000   0.0000   0.2850
   6.500   0.9713   0.00929   0.00419  -0.0402  0.3181  1.0000  -3.0208   0.0000   0.0000   0.0000   0.2843
   6.600   0.9799   0.00951   0.00435  -0.0399  0.3048  1.0000  -3.1461   0.0000   0.0000   0.0000   0.2836
   6.700   0.9884   0.00974   0.00451  -0.0396  0.2896  1.0000  -3.2719   0.0000   0.0000   0.0000   0.2828
   6.800   0.9977   0.00986   0.00463  -0.0394  0.2818  1.0000  -3.4054   0.0000   0.0000   0.0000   0.2821
   6.900   1.0063   0.01006   0.00478  -0.0391  0.2693  1.0000  -3.5357   0.0000   0.0000   0.0000   0.2813
   7.000   1.0140   0.01035   0.00499  -0.0387  0.2529  1.0000  -3.6604   0.0000   0.0000   0.0000   0.2805
   7.100   1.0227   0.01053   0.00514  -0.0384  0.2420  1.0000  -3.7940   0.0000   0.0000   0.0000   0.2798
   7.200   1.0307   0.01076   0.00531  -0.0380  0.2285  1.0000  -3.9245   0.0000   0.0000   0.0000   0.2790
   7.300   1.0373   0.01111   0.00555  -0.0375  0.2084  1.0000  -4.0460   0.0000   0.0000   0.0000   0.2782
   7.400   1.0448   0.01137   0.00574  -0.0371  0.1939  1.0000  -4.1754   0.0000   0.0000   0.0000   0.2773
   7.500   1.0502   0.01180   0.00603  -0.0363  0.1700  1.0000  -4.2898   0.0000   0.0000   0.0000   0.2764
   7.600   1.0557   0.01219   0.00630  -0.0357  0.1504  1.0000  -4.4068   0.0000   0.0000   0.0000   0.2754
   7.700   1.0608   0.01261   0.00659  -0.0349  0.1288  1.0000  -4.5204   0.0000   0.0000   0.0000   0.2744
   7.800   1.0646   0.01310   0.00691  -0.0339  0.1069  1.0000  -4.6256   0.0000   0.0000   0.0000   0.2733
   7.900   1.0700   0.01344   0.00719  -0.0332  0.0931  1.0000  -4.7436   0.0000   0.0000   0.0000   0.2723
   8.000   1.0743   0.01386   0.00750  -0.0323  0.0773  1.0000  -4.8525   0.0000   0.0000   0.0000   0.2712
   8.100   1.0792   0.01421   0.00778  -0.0314  0.0662  1.0000  -4.9674   0.0000   0.0000   0.0000   0.2701
   8.200   1.0831   0.01462   0.00810  -0.0304  0.0534  1.0000  -5.0737   0.0000   0.0000   0.0000   0.2690
   8.300   1.0873   0.01499   0.00840  -0.0295  0.0442  1.0000  -5.1828   0.0000   0.0000   0.0000   0.2679
   8.400   1.0910   0.01538   0.00873  -0.0284  0.0342  1.0000  -5.2855   0.0000   0.0000   0.0000   0.2667
   8.500   1.0947   0.01574   0.00905  -0.0274  0.0282  1.0000  -5.3883   0.0000   0.0000   0.0000   0.2655
   8.600   1.0973   0.01618   0.00954  -0.0261  0.0197  1.0000  -5.4686   0.0000   0.0000   0.0000   0.2642
   8.700   1.1018   0.01646   0.00984  -0.0252  0.0171  1.0000  -5.5753   0.0000   0.0000   0.0000   0.2631
   8.800   1.1035   0.01692   0.01024  -0.0238  0.0136  1.0000  -5.6428   0.0000   0.0000   0.0000   0.2617
   8.900   1.0955   0.01788   0.01135  -0.0207  0.0088  1.0000  -5.5371   0.0000   0.0000   0.0000   0.2589
   9.000   1.0997   0.01804   0.01152  -0.0197  0.0087  1.0000  -5.6690   0.0000   0.0000   0.0000   0.2578
   9.100   1.1028   0.01822   0.01171  -0.0185  0.0085  1.0000  -5.7902   0.0000   0.0000   0.0000   0.2565
   9.200   1.1054   0.01843   0.01194  -0.0172  0.0083  1.0000  -5.9033   0.0000   0.0000   0.0000   0.2552
   9.300   1.1077   0.01869   0.01222  -0.0160  0.0080  1.0000  -6.0101   0.0000   0.0000   0.0000   0.2538
   9.400   1.1099   0.01899   0.01255  -0.0147  0.0076  1.0000  -6.1100   0.0000   0.0000   0.0000   0.2526
   9.500   1.1117   0.01933   0.01293  -0.0135  0.0073  1.0000  -6.2013   0.0000   0.0000   0.0000   0.2513
   9.600   1.1133   0.01972   0.01336  -0.0123  0.0069  1.0000  -6.2870   0.0000   0.0000   0.0000   0.2500
   9.700   1.1150   0.02014   0.01381  -0.0111  0.0066  1.0000  -6.3695   0.0000   0.0000   0.0000   0.2488
   9.800   1.1166   0.02058   0.01431  -0.0099  0.0063  1.0000  -6.4488   0.0000   0.0000   0.0000   0.2476
   9.900   1.1178   0.02107   0.01484  -0.0088  0.0061  1.0000  -6.5246   0.0000   0.0000   0.0000   0.2464
  10.000   1.1192   0.02158   0.01539  -0.0077  0.0058  1.0000  -6.5997   0.0000   0.0000   0.0000   0.2453
  10.100   1.1206   0.02211   0.01597  -0.0067  0.0056  1.0000  -6.6749   0.0000   0.0000   0.0000   0.2442
  10.200   1.1220   0.02265   0.01656  -0.0057  0.0054  1.0000  -6.7492   0.0000   0.0000   0.0000   0.2432
  10.300   1.1229   0.02324   0.01720  -0.0047  0.0053  1.0000  -6.8191   0.0000   0.0000   0.0000   0.2421
  10.400   1.1236   0.02386   0.01786  -0.0038  0.0052  1.0000  -6.8877   0.0000   0.0000   0.0000   0.2411
  10.500   1.1245   0.02449   0.01854  -0.0028  0.0050  1.0000  -6.9568   0.0000   0.0000   0.0000   0.2401
  10.600   1.1255   0.02513   0.01923  -0.0019  0.0049  1.0000  -7.0261   0.0000   0.0000   0.0000   0.2391
  10.700   1.1265   0.02579   0.01995  -0.0011  0.0048  1.0000  -7.0946   0.0000   0.0000   0.0000   0.2382
  10.800   1.1270   0.02650   0.02071  -0.0002  0.0048  1.0000  -7.1588   0.0000   0.0000   0.0000   0.2373
  10.900   1.1274   0.02723   0.02149   0.0006  0.0047  1.0000  -7.2239   0.0000   0.0000   0.0000   0.2364
  11.000   1.1282   0.02794   0.02225   0.0014  0.0046  1.0000  -7.2938   0.0000   0.0000   0.0000   0.2355
  11.100   1.1293   0.02865   0.02300   0.0021  0.0045  1.0000  -7.3681   0.0000   0.0000   0.0000   0.2347
  11.200   1.1306   0.02933   0.02373   0.0029  0.0044  1.0000  -7.4458   0.0000   0.0000   0.0000   0.2339
  11.300   1.1319   0.03001   0.02445   0.0036  0.0044  1.0000  -7.5272   0.0000   0.0000   0.0000   0.2331
  11.400   1.1333   0.03071   0.02519   0.0042  0.0043  1.0000  -7.6108   0.0000   0.0000   0.0000   0.2324
  11.500   1.1343   0.03145   0.02597   0.0048  0.0042  1.0000  -7.6931   0.0000   0.0000   0.0000   0.2316
  11.600   1.1354   0.03219   0.02675   0.0054  0.0041  1.0000  -7.7780   0.0000   0.0000   0.0000   0.2310
  11.700   1.1368   0.03292   0.02752   0.0060  0.0040  1.0000  -7.8677   0.0000   0.0000   0.0000   0.2303
  11.800   1.1384   0.03364   0.02828   0.0065  0.0039  1.0000  -7.9603   0.0000   0.0000   0.0000   0.2297
  11.900   1.1401   0.03437   0.02905   0.0070  0.0038  1.0000  -8.0539   0.0000   0.0000   0.0000   0.2290
  12.000   1.1416   0.03511   0.02983   0.0075  0.0038  1.0000  -8.1465   0.0000   0.0000   0.0000   0.2284
  12.100   1.1431   0.03587   0.03063   0.0081  0.0037  1.0000  -8.2362   0.0000   0.0000   0.0000   0.2278
  12.200   1.1442   0.03667   0.03147   0.0086  0.0036  1.0000  -8.3214   0.0000   0.0000   0.0000   0.2272
  12.300   1.1446   0.03755   0.03240   0.0090  0.0035  1.0000  -8.3958   0.0000   0.0000   0.0000   0.2266
  12.400   1.1445   0.03848   0.03338   0.0095  0.0035  1.0000  -8.4618   0.0000   0.0000   0.0000   0.2260
  12.500   1.1444   0.03943   0.03438   0.0100  0.0034  1.0000  -8.5234   0.0000   0.0000   0.0000   0.2254
  12.600   1.1443   0.04038   0.03539   0.0105  0.0034  1.0000  -8.5812   0.0000   0.0000   0.0000   0.2248
  12.700   1.1443   0.04134   0.03640   0.0110  0.0034  1.0000  -8.6380   0.0000   0.0000   0.0000   0.2242
  12.800   1.1441   0.04229   0.03741   0.0115  0.0034  1.0000  -8.6924   0.0000   0.0000   0.0000   0.2235
  12.900   1.1437   0.04327   0.03845   0.0120  0.0033  1.0000  -8.7451   0.0000   0.0000   0.0000   0.2229
  13.000   1.1433   0.04429   0.03952   0.0125  0.0033  1.0000  -8.7960   0.0000   0.0000   0.0000   0.2223
  13.100   1.1428   0.04534   0.04063   0.0129  0.0033  1.0000  -8.8445   0.0000   0.0000   0.0000   0.2218
  13.200   1.1416   0.04648   0.04183   0.0133  0.0033  1.0000  -8.8864   0.0000   0.0000   0.0000   0.2213
  13.300   1.1398   0.04771   0.04313   0.0136  0.0033  1.0000  -8.9217   0.0000   0.0000   0.0000   0.2208
  13.400   1.1382   0.04895   0.04443   0.0139  0.0033  1.0000  -8.9574   0.0000   0.0000   0.0000   0.2204
  13.500   1.1368   0.05020   0.04574   0.0141  0.0032  1.0000  -8.9932   0.0000   0.0000   0.0000   0.2199
  13.600   1.1353   0.05146   0.04707   0.0144  0.0032  1.0000  -9.0276   0.0000   0.0000   0.0000   0.2195
  13.700   1.1338   0.05276   0.04843   0.0146  0.0032  1.0000  -9.0597   0.0000   0.0000   0.0000   0.2191
  13.800   1.1320   0.05410   0.04984   0.0148  0.0032  1.0000  -9.0884   0.0000   0.0000   0.0000   0.2188
  13.900   1.1300   0.05548   0.05129   0.0149  0.0032  1.0000  -9.1134   0.0000   0.0000   0.0000   0.2184
  14.000   1.1272   0.05697   0.05285   0.0149  0.0032  1.0000  -9.1310   0.0000   0.0000   0.0000   0.2182
  14.100   1.1235   0.05861   0.05455   0.0148  0.0032  1.0000  -9.1394   0.0000   0.0000   0.0000   0.2181
  14.200   1.1201   0.06021   0.05622   0.0147  0.0032  1.0000  -9.1490   0.0000   0.0000   0.0000   0.2179
  14.300   1.1169   0.06182   0.05790   0.0146  0.0031  1.0000  -9.1586   0.0000   0.0000   0.0000   0.2178
  14.400   1.1137   0.06346   0.05961   0.0144  0.0031  1.0000  -9.1659   0.0000   0.0000   0.0000   0.2177
  14.500   1.1103   0.06515   0.06136   0.0142  0.0031  1.0000  -9.1697   0.0000   0.0000   0.0000   0.2176
  14.600   1.1062   0.06693   0.06321   0.0139  0.0031  1.0000  -9.1673   0.0000   0.0000   0.0000   0.2177
  14.700   1.1009   0.06891   0.06525   0.0134  0.0031  1.0000  -9.1532   0.0000   0.0000   0.0000   0.2178
  14.800   1.0960   0.07081   0.06722   0.0130  0.0031  1.0000  -9.1405   0.0000   0.0000   0.0000   0.2180
  14.900   1.0913   0.07272   0.06920   0.0125  0.0031  1.0000  -9.1277   0.0000   0.0000   0.0000   0.2182
  15.000   1.0866   0.07468   0.07123   0.0120  0.0031  1.0000  -9.1125   0.0000   0.0000   0.0000   0.2184
  15.100   1.0814   0.07683   0.07345   0.0113  0.0031  1.0000  -9.0903   0.0000   0.0000   0.0000   0.2188
  15.200   1.0753   0.07920   0.07588   0.0104  0.0031  1.0000  -9.0589   0.0000   0.0000   0.0000   0.2194
  15.300   1.0698   0.08149   0.07824   0.0096  0.0031  1.0000  -9.0300   0.0000   0.0000   0.0000   0.2199
  15.400   1.0645   0.08381   0.08062   0.0087  0.0032  1.0000  -8.9995   0.0000   0.0000   0.0000   0.2205
  15.500   1.0588   0.08628   0.08316   0.0077  0.0032  1.0000  -8.9626   0.0000   0.0000   0.0000   0.2212
  15.600   1.0521   0.08901   0.08595   0.0064  0.0032  1.0000  -8.9142   0.0000   0.0000   0.0000   0.2222
  15.700   1.0461   0.09163   0.08864   0.0053  0.0032  1.0000  -8.8683   0.0000   0.0000   0.0000   0.2231
  15.800   1.0401   0.09426   0.09134   0.0041  0.0032  1.0000  -8.8199   0.0000   0.0000   0.0000   0.2240
  15.900   1.0333   0.09717   0.09431   0.0026  0.0032  1.0000  -8.7598   0.0000   0.0000   0.0000   0.2252
  16.000   1.0263   0.10018   0.09738   0.0011  0.0032  1.0000  -8.6937   0.0000   0.0000   0.0000   0.2265
  16.100   1.0197   0.10308   0.10035  -0.0003  0.0032  1.0000  -8.6280   0.0000   0.0000   0.0000   0.2277
  16.200   1.0129   0.10612   0.10345  -0.0019  0.0033  1.0000  -8.5546   0.0000   0.0000   0.0000   0.2291
  16.300   1.0050   0.10950   0.10689  -0.0038  0.0033  1.0000  -8.4649   0.0000   0.0000   0.0000   0.2309
  16.400   0.9978   0.11271   0.11016  -0.0055  0.0033  1.0000  -8.3771   0.0000   0.0000   0.0000   0.2325
  16.500   0.9904   0.11601   0.11352  -0.0072  0.0033  1.0000  -8.2812   0.0000   0.0000   0.0000   0.2341
  16.600   0.9818   0.11976   0.11733  -0.0094  0.0034  1.0000  -8.1631   0.0000   0.0000   0.0000   0.2363
  16.700   0.9738   0.12332   0.12095  -0.0113  0.0034  1.0000  -8.0455   0.0000   0.0000   0.0000   0.2383
  16.800   0.9651   0.12716   0.12485  -0.0135  0.0034  1.0000  -7.9090   0.0000   0.0000   0.0000   0.2405
  16.900   0.9558   0.13130   0.12905  -0.0158  0.0035  1.0000  -7.7517   0.0000   0.0000   0.0000   0.2430
  17.000   0.9466   0.13539   0.13319  -0.0181  0.0035  1.0000  -7.5845   0.0000   0.0000   0.0000   0.2455
  17.100   0.9355   0.14026   0.13812  -0.0208  0.0036  1.0000  -7.3673   0.0000   0.0000   0.0000   0.2487
  17.200   0.9242   0.14524   0.14315  -0.0235  0.0036  1.0000  -7.1226   0.0000   0.0000   0.0000   0.2519
  17.300   0.9105   0.15101   0.14898  -0.0266  0.0037  1.0000  -6.7944   0.0000   0.0000   0.0000   0.2558
  17.400   0.8936   0.15778   0.15579  -0.0300  0.0039  1.0000  -6.3287   0.0000   0.0000   0.0000   0.2604
  17.500   0.8601   0.17148   0.16950  -0.0352  0.0044  1.0000  -5.1205   0.0000   0.0000   0.0000   0.2687
  17.600   0.8489   0.17815   0.17615  -0.0376  0.0046  1.0000  -4.6188   0.0000   0.0000   0.0000   0.2723
  17.700   0.8437   0.18260   0.18058  -0.0393  0.0048  1.0000  -4.3489   0.0000   0.0000   0.0000   0.2747
  17.800   0.8403   0.18640   0.18436  -0.0408  0.0049  1.0000  -4.1450   0.0000   0.0000   0.0000   0.2766
  17.900   0.8380   0.18983   0.18778  -0.0421  0.0051  1.0000  -3.9769   0.0000   0.0000   0.0000   0.2783
  18.000   0.8364   0.19303   0.19097  -0.0433  0.0052  1.0000  -3.8321   0.0000   0.0000   0.0000   0.2798
  18.100   0.8353   0.19606   0.19399  -0.0445  0.0053  1.0000  -3.7038   0.0000   0.0000   0.0000   0.2812
  18.200   0.8346   0.19896   0.19688  -0.0456  0.0055  1.0000  -3.5881   0.0000   0.0000   0.0000   0.2825
  18.300   0.8341   0.20176   0.19968  -0.0466  0.0056  1.0000  -3.4821   0.0000   0.0000   0.0000   0.2837
  18.400   0.8339   0.20448   0.20239  -0.0476  0.0058  1.0000  -3.3842   0.0000   0.0000   0.0000   0.2849
  18.500   0.8339   0.20713   0.20503  -0.0486  0.0059  1.0000  -3.2930   0.0000   0.0000   0.0000   0.2860
  18.600   0.8341   0.20972   0.20762  -0.0495  0.0061  1.0000  -3.2075   0.0000   0.0000   0.0000   0.2870
  18.700   0.8343   0.21228   0.21017  -0.0504  0.0064  1.0000  -3.1266   0.0000   0.0000   0.0000   0.2880
  18.800   0.8345   0.21481   0.21270  -0.0514  0.0066  1.0000  -3.0488   0.0000   0.0000   0.0000   0.2890
  18.900   0.8347   0.21736   0.21524  -0.0523  0.0069  1.0000  -2.9708   0.0000   0.0000   0.0000   0.2899
  19.000   0.8341   0.22012   0.21800  -0.0532  0.0074  1.0000  -2.8764   0.0000   0.0000   0.0000   0.2910
  19.100   0.8262   0.22579   0.22364  -0.0543  0.0087  1.0000  -2.5513   0.0000   0.0000   0.0000   0.2930
  19.200   0.8276   0.22797   0.22583  -0.0551  0.0087  1.0000  -2.5207   0.0000   0.0000   0.0000   0.2937
  19.300   0.8290   0.23014   0.22800  -0.0559  0.0087  1.0000  -2.4922   0.0000   0.0000   0.0000   0.2944
  19.400   0.8305   0.23230   0.23016  -0.0566  0.0087  1.0000  -2.4654   0.0000   0.0000   0.0000   0.2950
  19.500   0.8320   0.23445   0.23231  -0.0573  0.0087  1.0000  -2.4400   0.0000   0.0000   0.0000   0.2957
  19.600   0.8335   0.23660   0.23445  -0.0581  0.0087  1.0000  -2.4157   0.0000   0.0000   0.0000   0.2963
  19.700   0.8350   0.23874   0.23659  -0.0588  0.0087  1.0000  -2.3925   0.0000   0.0000   0.0000   0.2969
  19.800   0.8366   0.24088   0.23873  -0.0596  0.0087  1.0000  -2.3703   0.0000   0.0000   0.0000   0.2975
  19.900   0.8382   0.24301   0.24086  -0.0603  0.0087  1.0000  -2.3489   0.0000   0.0000   0.0000   0.2981
  20.000   0.8398   0.24515   0.24300  -0.0610  0.0087  1.0000  -2.3283   0.0000   0.0000   0.0000   0.2987
  20.100   0.8414   0.24728   0.24513  -0.0617  0.0087  1.0000  -2.3084   0.0000   0.0000   0.0000   0.2993
  20.200   0.8430   0.24941   0.24726  -0.0625  0.0087  1.0000  -2.2892   0.0000   0.0000   0.0000   0.2999
  20.300   0.8446   0.25154   0.24939  -0.0632  0.0087  1.0000  -2.2707   0.0000   0.0000   0.0000   0.3005
  20.400   0.8462   0.25367   0.25152  -0.0639  0.0087  1.0000  -2.2527   0.0000   0.0000   0.0000   0.3011
  20.500   0.8478   0.25580   0.25365  -0.0646  0.0087  1.0000  -2.2354   0.0000   0.0000   0.0000   0.3016
  20.600   0.8494   0.25793   0.25578  -0.0654  0.0087  1.0000  -2.2186   0.0000   0.0000   0.0000   0.3022
  20.700   0.8510   0.26006   0.25791  -0.0661  0.0087  1.0000  -2.2022   0.0000   0.0000   0.0000   0.3028
  20.800   0.8526   0.26219   0.26004  -0.0668  0.0086  1.0000  -2.1864   0.0000   0.0000   0.0000   0.3033
  20.900   0.8542   0.26432   0.26217  -0.0675  0.0086  1.0000  -2.1710   0.0000   0.0000   0.0000   0.3039
  21.000   0.8557   0.26645   0.26430  -0.0682  0.0086  1.0000  -2.1560   0.0000   0.0000   0.0000   0.3044
  21.100   0.8573   0.26858   0.26643  -0.0689  0.0086  1.0000  -2.1415   0.0000   0.0000   0.0000   0.3049
  21.200   0.8589   0.27072   0.26857  -0.0696  0.0086  1.0000  -2.1274   0.0000   0.0000   0.0000   0.3055
  21.300   0.8604   0.27285   0.27070  -0.0703  0.0086  1.0000  -2.1136   0.0000   0.0000   0.0000   0.3060
  21.400   0.8619   0.27498   0.27283  -0.0710  0.0086  1.0000  -2.1002   0.0000   0.0000   0.0000   0.3065
  21.500   0.8635   0.27711   0.27497  -0.0717  0.0086  1.0000  -2.0872   0.0000   0.0000   0.0000   0.3070
  21.600   0.8650   0.27925   0.27710  -0.0724  0.0086  1.0000  -2.0746   0.0000   0.0000   0.0000   0.3076
  21.700   0.8665   0.28138   0.27924  -0.0731  0.0086  1.0000  -2.0623   0.0000   0.0000   0.0000   0.3081
  21.800   0.8679   0.28351   0.28137  -0.0738  0.0086  1.0000  -2.0502   0.0000   0.0000   0.0000   0.3086
  21.900   0.8694   0.28565   0.28350  -0.0745  0.0086  1.0000  -2.0385   0.0000   0.0000   0.0000   0.3091
  22.000   0.8708   0.28778   0.28564  -0.0752  0.0086  1.0000  -2.0270   0.0000   0.0000   0.0000   0.3096
  22.100   0.8722   0.28991   0.28777  -0.0759  0.0086  1.0000  -2.0159   0.0000   0.0000   0.0000   0.3101
  22.200   0.8736   0.29203   0.28990  -0.0766  0.0085  1.0000  -2.0051   0.0000   0.0000   0.0000   0.3106
  22.300   0.8750   0.29416   0.29202  -0.0773  0.0085  1.0000  -1.9946   0.0000   0.0000   0.0000   0.3111
  22.400   0.8763   0.29628   0.29415  -0.0780  0.0085  1.0000  -1.9845   0.0000   0.0000   0.0000   0.3116
  22.500   0.8776   0.29839   0.29626  -0.0787  0.0085  1.0000  -1.9747   0.0000   0.0000   0.0000   0.3121
  22.600   0.8789   0.30051   0.29838  -0.0793  0.0085  1.0000  -1.9652   0.0000   0.0000   0.0000   0.3126
  22.700   0.8802   0.30261   0.30049  -0.0800  0.0085  1.0000  -1.9560   0.0000   0.0000   0.0000   0.3131
  22.800   0.8814   0.30471   0.30259  -0.0807  0.0084  1.0000  -1.9471   0.0000   0.0000   0.0000   0.3135
  22.900   0.8826   0.30680   0.30468  -0.0814  0.0084  1.0000  -1.9385   0.0000   0.0000   0.0000   0.3140
  23.000   0.8838   0.30888   0.30676  -0.0821  0.0084  1.0000  -1.9305   0.0000   0.0000   0.0000   0.3145
  23.100   0.8850   0.31094   0.30883  -0.0827  0.0084  1.0000  -1.9230   0.0000   0.0000   0.0000   0.3150
  23.200   0.8862   0.31299   0.31087  -0.0834  0.0083  1.0000  -1.9161   0.0000   0.0000   0.0000   0.3155
  23.300   0.8874   0.31501   0.31290  -0.0841  0.0083  1.0000  -1.9098   0.0000   0.0000   0.0000   0.3160
  23.400   0.8885   0.31702   0.31491  -0.0848  0.0082  1.0000  -1.9036   0.0000   0.0000   0.0000   0.3165
  23.500   0.8897   0.31899   0.31688  -0.0855  0.0081  1.0000  -1.8982   0.0000   0.0000   0.0000   0.3170
  23.600   0.8908   0.32097   0.31887  -0.0862  0.0080  1.0000  -1.8897   0.0000   0.0000   0.0000   0.3175
  23.700   0.8920   0.32295   0.32086  -0.0869  0.0079  1.0000  -1.8801   0.0000   0.0000   0.0000   0.3181
  23.800   0.8932   0.32494   0.32285  -0.0877  0.0077  1.0000  -1.8694   0.0000   0.0000   0.0000   0.3186
  23.900   0.8944   0.32697   0.32488  -0.0884  0.0075  1.0000  -1.8569   0.0000   0.0000   0.0000   0.3192
  24.000   0.8954   0.32904   0.32695  -0.0891  0.0073  1.0000  -1.8433   0.0000   0.0000   0.0000   0.3197
  24.100   0.8961   0.33114   0.32905  -0.0897  0.0071  1.0000  -1.8295   0.0000   0.0000   0.0000   0.3202
  24.200   0.8967   0.33324   0.33116  -0.0904  0.0069  1.0000  -1.8161   0.0000   0.0000   0.0000   0.3207
  24.300   0.8972   0.33535   0.33327  -0.0910  0.0067  1.0000  -1.8034   0.0000   0.0000   0.0000   0.3212
  24.400   0.8974   0.33743   0.33536  -0.0916  0.0066  1.0000  -1.7911   0.0000   0.0000   0.0000   0.3216
  24.500   0.8974   0.33950   0.33743  -0.0921  0.0064  1.0000  -1.7792   0.0000   0.0000   0.0000   0.3221
  24.600   0.8973   0.34154   0.33948  -0.0927  0.0063  1.0000  -1.7675   0.0000   0.0000   0.0000   0.3226
  24.700   0.8970   0.34355   0.34149  -0.0932  0.0061  1.0000  -1.7559   0.0000   0.0000   0.0000   0.3231
  24.800   0.8964   0.34552   0.34347  -0.0937  0.0060  1.0000  -1.7442   0.0000   0.0000   0.0000   0.3236
  24.900   0.8956   0.34744   0.34540  -0.0942  0.0059  1.0000  -1.7321   0.0000   0.0000   0.0000   0.3242
  25.000   0.8944   0.34929   0.34726  -0.0946  0.0058  1.0000  -1.7195   0.0000   0.0000   0.0000   0.3247
  25.100   0.8928   0.35106   0.34903  -0.0950  0.0057  1.0000  -1.7060   0.0000   0.0000   0.0000   0.3252
  25.200   0.8906   0.35270   0.35068  -0.0954  0.0056  1.0000  -1.6910   0.0000   0.0000   0.0000   0.3258
  25.300   0.8874   0.35413   0.35212  -0.0957  0.0055  1.0000  -1.6737   0.0000   0.0000   0.0000   0.3264


