xflr5 v6.61

 Calculated polar for: MH 18

 1 1 Reynolds number fixed          Mach number fixed         

 xtrf =   1.000 (top)        1.000 (bottom)
 Mach =   0.000     Re =     0.200 e 6     Ncrit =   9.000

  alpha     CL        CD       CDp       Cm    Top Xtr Bot Xtr   Cpmin    Chinge    XCp    
 ------- -------- --------- --------- -------- ------- ------- -------- --------- ---------
 -10.000  -0.4145   0.10519   0.10229  -0.0208  1.0000  0.0345  -2.0863   0.0000   0.0000   0.0000   0.1914
  -9.900  -0.4102   0.10391   0.10102  -0.0214  1.0000  0.0352  -2.0582   0.0000   0.0000   0.0000   0.1895
  -9.800  -0.4063   0.10255   0.09967  -0.0222  1.0000  0.0358  -2.0399   0.0000   0.0000   0.0000   0.1870
  -9.700  -0.4027   0.10114   0.09827  -0.0232  1.0000  0.0364  -2.0292   0.0000   0.0000   0.0000   0.1842
  -9.600  -0.3994   0.09968   0.09683  -0.0243  1.0000  0.0370  -2.0241   0.0000   0.0000   0.0000   0.1810
  -9.500  -0.3963   0.09819   0.09534  -0.0255  1.0000  0.0376  -2.0232   0.0000   0.0000   0.0000   0.1775
  -9.400  -0.3933   0.09665   0.09381  -0.0268  1.0000  0.0382  -2.0258   0.0000   0.0000   0.0000   0.1737
  -9.300  -0.3902   0.09506   0.09224  -0.0283  1.0000  0.0387  -2.0312   0.0000   0.0000   0.0000   0.1695
  -9.200  -0.3867   0.09339   0.09057  -0.0301  0.9818  0.0393  -2.0398   0.0000   0.0000   0.0000   0.1643
  -9.100  -0.3821   0.09155   0.08873  -0.0322  0.9733  0.0400  -2.0499   0.0000   0.0000   0.0000   0.1578
  -9.000  -0.3779   0.08970   0.08687  -0.0343  0.9663  0.0407  -2.0624   0.0000   0.0000   0.0000   0.1514
  -8.900  -0.3754   0.08800   0.08517  -0.0359  0.9589  0.0413  -2.0774   0.0000   0.0000   0.0000   0.1465
  -8.800  -0.3739   0.08639   0.08355  -0.0373  0.9516  0.0418  -2.0946   0.0000   0.0000   0.0000   0.1424
  -8.600  -0.3739   0.08338   0.08053  -0.0394  0.9385  0.0428  -2.1348   0.0000   0.0000   0.0000   0.1369
  -8.500  -0.3749   0.08190   0.07906  -0.0404  0.9320  0.0433  -2.1571   0.0000   0.0000   0.0000   0.1348
  -8.400  -0.3766   0.08047   0.07762  -0.0412  0.9257  0.0437  -2.1808   0.0000   0.0000   0.0000   0.1334
  -8.300  -0.3795   0.07912   0.07626  -0.0417  0.9196  0.0440  -2.2060   0.0000   0.0000   0.0000   0.1329
  -8.200  -0.3826   0.07773   0.07487  -0.0425  0.9138  0.0443  -2.2333   0.0000   0.0000   0.0000   0.1319
  -8.100  -0.3844   0.07594   0.07309  -0.0444  0.9092  0.0446  -2.2653   0.0000   0.0000   0.0000   0.1278
  -8.000  -0.3871   0.07415   0.07129  -0.0462  0.9040  0.0448  -2.3001   0.0000   0.0000   0.0000   0.1240
  -7.900  -0.3904   0.07250   0.06964  -0.0474  0.8988  0.0451  -2.3339   0.0000   0.0000   0.0000   0.1221
  -7.800  -0.3941   0.07103   0.06814  -0.0481  0.8941  0.0453  -2.3668   0.0000   0.0000   0.0000   0.1217
  -7.700  -0.3967   0.06946   0.06654  -0.0489  0.8900  0.0457  -2.4006   0.0000   0.0000   0.0000   0.1206
  -7.600  -0.3988   0.06789   0.06492  -0.0496  0.8861  0.0461  -2.4350   0.0000   0.0000   0.0000   0.1196
  -7.500  -0.4004   0.06637   0.06335  -0.0502  0.8822  0.0466  -2.4699   0.0000   0.0000   0.0000   0.1187
  -7.400  -0.3900   0.06729   0.06410  -0.0518  0.8785  0.0502  -2.4807   0.0000   0.0000   0.0000   0.1113
  -7.300  -0.3878   0.06612   0.06287  -0.0524  0.8758  0.0504  -2.4982   0.0000   0.0000   0.0000   0.1089
  -7.200  -0.3859   0.06477   0.06145  -0.0528  0.8731  0.0506  -2.5154   0.0000   0.0000   0.0000   0.1072
  -7.100  -0.3840   0.06337   0.05998  -0.0531  0.8702  0.0506  -2.5317   0.0000   0.0000   0.0000   0.1058
  -6.300  -0.3849   0.04128   0.03694  -0.0513  0.8503  0.0286  -3.2516   0.0000   0.0000   0.0000   0.1106
  -6.200  -0.3841   0.03922   0.03473  -0.0505  0.8481  0.0278  -3.3051   0.0000   0.0000   0.0000   0.1124
  -6.100  -0.3818   0.03748   0.03282  -0.0497  0.8457  0.0271  -3.3463   0.0000   0.0000   0.0000   0.1139
  -6.000  -0.3786   0.03592   0.03109  -0.0488  0.8430  0.0265  -3.3824   0.0000   0.0000   0.0000   0.1150
  -5.900  -0.3737   0.03428   0.02927  -0.0482  0.8411  0.0259  -3.4165   0.0000   0.0000   0.0000   0.1149
  -5.800  -0.3679   0.03267   0.02748  -0.0476  0.8393  0.0253  -3.4472   0.0000   0.0000   0.0000   0.1144
  -5.700  -0.3616   0.03117   0.02579  -0.0470  0.8373  0.0249  -3.4730   0.0000   0.0000   0.0000   0.1138
  -5.600  -0.3549   0.02977   0.02420  -0.0464  0.8352  0.0245  -3.4933   0.0000   0.0000   0.0000   0.1131
  -5.500  -0.3477   0.02847   0.02271  -0.0457  0.8330  0.0242  -3.5078   0.0000   0.0000   0.0000   0.1123
  -5.400  -0.3401   0.02726   0.02115  -0.0450  0.8308  0.0240  -3.5150   0.0000   0.0000   0.0000   0.1112
  -5.300  -0.3320   0.02615   0.01987  -0.0444  0.8288  0.0238  -3.5144   0.0000   0.0000   0.0000   0.1097
  -5.200  -0.3235   0.02513   0.01868  -0.0439  0.8269  0.0238  -3.5063   0.0000   0.0000   0.0000   0.1079
  -5.100  -0.3146   0.02419   0.01759  -0.0434  0.8250  0.0239  -3.4911   0.0000   0.0000   0.0000   0.1057
  -5.000  -0.3055   0.02333   0.01657  -0.0428  0.8232  0.0241  -3.4697   0.0000   0.0000   0.0000   0.1032
  -4.900  -0.2962   0.02253   0.01564  -0.0424  0.8214  0.0244  -3.4420   0.0000   0.0000   0.0000   0.1003
  -4.800  -0.2866   0.02193   0.01492  -0.0419  0.8197  0.0252  -3.3932   0.0000   0.0000   0.0000   0.0969
  -4.700  -0.2768   0.02146   0.01437  -0.0416  0.8180  0.0264  -3.3292   0.0000   0.0000   0.0000   0.0930
  -4.600  -0.2670   0.02106   0.01389  -0.0412  0.8163  0.0277  -3.2620   0.0000   0.0000   0.0000   0.0888
  -4.500  -0.2570   0.02067   0.01341  -0.0408  0.8147  0.0288  -3.1982   0.0000   0.0000   0.0000   0.0842
  -4.400  -0.2471   0.02025   0.01291  -0.0404  0.8132  0.0296  -3.1406   0.0000   0.0000   0.0000   0.0794
  -4.300  -0.2370   0.01988   0.01245  -0.0400  0.8117  0.0303  -3.0816   0.0000   0.0000   0.0000   0.0741
  -4.200  -0.2286   0.01866   0.01111  -0.0392  0.8102  0.0319  -3.0955   0.0000   0.0000   0.0000   0.0711
  -4.100  -0.2214   0.01760   0.00999  -0.0383  0.8088  0.0353  -3.1072   0.0000   0.0000   0.0000   0.0695
  -4.000  -0.2127   0.01720   0.00959  -0.0378  0.8072  0.0399  -3.0503   0.0000   0.0000   0.0000   0.0650
  -3.900  -0.2030   0.01709   0.00946  -0.0374  0.8056  0.0466  -2.9768   0.0000   0.0000   0.0000   0.0580
  -3.800  -0.1945   0.01670   0.00901  -0.0368  0.8038  0.0545  -2.9637   0.0000   0.0000   0.0000   0.0531
  -3.700  -0.1860   0.01649   0.00890  -0.0364  0.8017  0.0730  -2.9159   0.0000   0.0000   0.0000   0.0463
  -3.600  -0.1775   0.01604   0.00856  -0.0360  0.8005  0.0946  -2.8677   0.0000   0.0000   0.0000   0.0392
  -3.500  -0.1672   0.01583   0.00832  -0.0359  0.7995  0.1103  -2.7831   0.0000   0.0000   0.0000   0.0273
  -3.400  -0.1582   0.01547   0.00811  -0.0356  0.7983  0.1325  -2.6967   0.0000   0.0000   0.0000   0.0165
  -3.300  -0.1485   0.01525   0.00794  -0.0355  0.7971  0.1545  -2.5995   0.0000   0.0000   0.0000   0.0026
  -3.200  -0.1387   0.01507   0.00785  -0.0354  0.7957  0.1786  -2.4950   0.0000   0.0000   0.0000  -0.0141
  -3.100  -0.1299   0.01479   0.00774  -0.0351  0.7940  0.2115  -2.3985   0.0000   0.0000   0.0000  -0.0294
  -3.000  -0.1210   0.01455   0.00763  -0.0348  0.7922  0.2446  -2.2998   0.0000   0.0000   0.0000  -0.0474
  -2.900  -0.1121   0.01433   0.00753  -0.0345  0.7902  0.2802  -2.2010   0.0000   0.0000   0.0000  -0.0679
  -2.800  -0.1036   0.01410   0.00744  -0.0341  0.7881  0.3206  -2.1043   0.0000   0.0000   0.0000  -0.0895
  -2.700  -0.0962   0.01382   0.00737  -0.0335  0.7860  0.3726  -2.0127   0.0000   0.0000   0.0000  -0.1093
  -2.600  -0.0900   0.01349   0.00732  -0.0326  0.7840  0.4388  -1.9275   0.0000   0.0000   0.0000  -0.1238
  -2.500  -0.0847   0.01314   0.00729  -0.0315  0.7822  0.5183  -1.8464   0.0000   0.0000   0.0000  -0.1342
  -2.400  -0.0799   0.01277   0.00730  -0.0302  0.7805  0.6053  -1.7684   0.0000   0.0000   0.0000  -0.1392
  -2.300  -0.0728   0.01241   0.00732  -0.0290  0.7790  0.7028  -1.6787   0.0000   0.0000   0.0000  -0.1614
  -2.200  -0.0268   0.01208   0.00739  -0.0353  0.7790  0.8539  -1.4074   0.0000   0.0000   0.0000  -1.0978
  -2.100   0.0224   0.01220   0.00746  -0.0423  0.7790  0.9072  -1.1352   0.0000   0.0000   0.0000   2.1737
  -2.000   0.0384   0.01233   0.00753  -0.0429  0.7777  0.9275  -1.0174   0.0000   0.0000   0.0000   1.3867
  -1.900   0.0610   0.01245   0.00757  -0.0449  0.7764  0.9401  -0.8768   0.0000   0.0000   0.0000   0.9980
  -1.800   0.0750   0.01256   0.00756  -0.0452  0.7748  0.9526  -0.7768   0.0000   0.0000   0.0000   0.8619
  -1.700   0.0999   0.01263   0.00754  -0.0477  0.7734  0.9625  -0.6341   0.0000   0.0000   0.0000   0.7342
  -1.600   0.1174   0.01271   0.00755  -0.0488  0.7718  0.9723  -0.5725   0.0000   0.0000   0.0000   0.6708
  -1.500   0.1419   0.01269   0.00744  -0.0514  0.7704  0.9788  -0.5200   0.0000   0.0000   0.0000   0.6162
  -1.400   0.1622   0.01271   0.00739  -0.0532  0.7690  0.9861  -0.4976   0.0000   0.0000   0.0000   0.5811
  -1.300   0.1878   0.01264   0.00724  -0.0562  0.7677  0.9920  -0.5121   0.0000   0.0000   0.0000   0.5514
  -1.200   0.2115   0.01257   0.00711  -0.0588  0.7666  0.9975  -0.5258   0.0000   0.0000   0.0000   0.5299
  -1.100   0.2278   0.01253   0.00699  -0.0600  0.7651  1.0000  -0.5358   0.0000   0.0000   0.0000   0.5148
  -1.000   0.2366   0.01256   0.00697  -0.0596  0.7631  1.0000  -0.5420   0.0000   0.0000   0.0000   0.5034
  -0.900   0.2455   0.01265   0.00701  -0.0593  0.7609  1.0000  -0.5482   0.0000   0.0000   0.0000   0.4928
  -0.800   0.2547   0.01289   0.00721  -0.0592  0.7579  1.0000  -0.5543   0.0000   0.0000   0.0000   0.4834
  -0.700   0.2646   0.01288   0.00718  -0.0592  0.7565  1.0000  -0.5614   0.0000   0.0000   0.0000   0.4743
  -0.600   0.2746   0.01286   0.00713  -0.0591  0.7552  1.0000  -0.5691   0.0000   0.0000   0.0000   0.4658
  -0.500   0.2845   0.01285   0.00709  -0.0591  0.7536  1.0000  -0.5769   0.0000   0.0000   0.0000   0.4579
  -0.400   0.2946   0.01285   0.00708  -0.0590  0.7520  1.0000  -0.5846   0.0000   0.0000   0.0000   0.4505
  -0.300   0.3046   0.01287   0.00707  -0.0590  0.7504  1.0000  -0.5923   0.0000   0.0000   0.0000   0.4437
  -0.200   0.3146   0.01288   0.00707  -0.0589  0.7485  1.0000  -0.6001   0.0000   0.0000   0.0000   0.4372
  -0.100   0.3245   0.01290   0.00706  -0.0589  0.7465  1.0000  -0.6078   0.0000   0.0000   0.0000   0.4311
   0.000   0.3344   0.01291   0.00705  -0.0587  0.7443  1.0000  -0.6155   0.0000   0.0000   0.0000   0.4252
   0.100   0.3441   0.01291   0.00703  -0.0585  0.7420  1.0000  -0.6233   0.0000   0.0000   0.0000   0.4196
   0.200   0.3537   0.01291   0.00701  -0.0583  0.7396  1.0000  -0.6310   0.0000   0.0000   0.0000   0.4143
   0.300   0.3632   0.01290   0.00698  -0.0581  0.7373  1.0000  -0.6387   0.0000   0.0000   0.0000   0.4091
   0.400   0.3727   0.01290   0.00695  -0.0578  0.7351  1.0000  -0.6475   0.0000   0.0000   0.0000   0.4041
   0.500   0.3822   0.01289   0.00693  -0.0575  0.7330  1.0000  -0.6563   0.0000   0.0000   0.0000   0.3994
   0.600   0.3917   0.01290   0.00691  -0.0572  0.7311  1.0000  -0.6652   0.0000   0.0000   0.0000   0.3949
   0.700   0.4013   0.01290   0.00690  -0.0569  0.7292  1.0000  -0.6740   0.0000   0.0000   0.0000   0.3907
   0.800   0.4107   0.01290   0.00688  -0.0566  0.7274  1.0000  -0.6829   0.0000   0.0000   0.0000   0.3865
   0.900   0.4201   0.01290   0.00685  -0.0562  0.7255  1.0000  -0.6918   0.0000   0.0000   0.0000   0.3824
   1.000   0.4294   0.01289   0.00681  -0.0558  0.7235  1.0000  -0.7007   0.0000   0.0000   0.0000   0.3785
   1.100   0.4386   0.01288   0.00678  -0.0554  0.7215  1.0000  -0.7096   0.0000   0.0000   0.0000   0.3746
   1.200   0.4478   0.01289   0.00677  -0.0549  0.7193  1.0000  -0.7185   0.0000   0.0000   0.0000   0.3709
   1.300   0.4569   0.01296   0.00681  -0.0545  0.7168  1.0000  -0.7273   0.0000   0.0000   0.0000   0.3674
   1.400   0.4660   0.01317   0.00700  -0.0542  0.7136  1.0000  -0.7358   0.0000   0.0000   0.0000   0.3643
   1.500   0.4758   0.01330   0.00713  -0.0541  0.7112  1.0000  -0.7454   0.0000   0.0000   0.0000   0.3616
   1.600   0.4859   0.01328   0.00712  -0.0540  0.7097  1.0000  -0.7560   0.0000   0.0000   0.0000   0.3589
   1.700   0.4961   0.01329   0.00713  -0.0539  0.7080  1.0000  -0.7666   0.0000   0.0000   0.0000   0.3564
   1.800   0.5062   0.01331   0.00717  -0.0538  0.7061  1.0000  -0.7772   0.0000   0.0000   0.0000   0.3540
   1.900   0.5163   0.01334   0.00720  -0.0537  0.7039  1.0000  -0.7877   0.0000   0.0000   0.0000   0.3516
   2.000   0.5262   0.01335   0.00723  -0.0535  0.7014  1.0000  -0.7983   0.0000   0.0000   0.0000   0.3493
   2.100   0.5361   0.01336   0.00725  -0.0533  0.6987  1.0000  -0.8088   0.0000   0.0000   0.0000   0.3469
   2.200   0.5459   0.01336   0.00725  -0.0531  0.6959  1.0000  -0.8194   0.0000   0.0000   0.0000   0.3446
   2.300   0.5556   0.01334   0.00723  -0.0528  0.6931  1.0000  -0.8301   0.0000   0.0000   0.0000   0.3423
   2.400   0.5653   0.01331   0.00720  -0.0524  0.6902  1.0000  -0.8414   0.0000   0.0000   0.0000   0.3400
   2.500   0.5749   0.01327   0.00715  -0.0521  0.6874  1.0000  -0.8537   0.0000   0.0000   0.0000   0.3377
   2.600   0.5846   0.01323   0.00711  -0.0517  0.6848  1.0000  -0.8661   0.0000   0.0000   0.0000   0.3354
   2.700   0.5943   0.01319   0.00708  -0.0513  0.6823  1.0000  -0.8785   0.0000   0.0000   0.0000   0.3333
   2.800   0.6041   0.01316   0.00704  -0.0510  0.6800  1.0000  -0.8910   0.0000   0.0000   0.0000   0.3312
   2.900   0.6138   0.01313   0.00701  -0.0506  0.6778  1.0000  -0.9035   0.0000   0.0000   0.0000   0.3291
   3.000   0.6235   0.01312   0.00698  -0.0502  0.6755  1.0000  -0.9160   0.0000   0.0000   0.0000   0.3271
   3.100   0.6332   0.01311   0.00696  -0.0498  0.6729  1.0000  -0.9304   0.0000   0.0000   0.0000   0.3252
   3.200   0.6427   0.01316   0.00700  -0.0494  0.6699  1.0000  -0.9447   0.0000   0.0000   0.0000   0.3233
   3.300   0.6519   0.01343   0.00726  -0.0491  0.6654  1.0000  -0.9585   0.0000   0.0000   0.0000   0.3216
   3.400   0.6620   0.01338   0.00724  -0.0489  0.6635  1.0000  -0.9733   0.0000   0.0000   0.0000   0.3201
   3.500   0.6720   0.01334   0.00723  -0.0487  0.6610  1.0000  -0.9881   0.0000   0.0000   0.0000   0.3187
   3.600   0.6820   0.01331   0.00723  -0.0485  0.6580  1.0000  -1.0051   0.0000   0.0000   0.0000   0.3172
   3.700   0.6919   0.01330   0.00727  -0.0483  0.6547  1.0000  -1.0224   0.0000   0.0000   0.0000   0.3158
   3.800   0.7019   0.01329   0.00729  -0.0481  0.6514  1.0000  -1.0397   0.0000   0.0000   0.0000   0.3144
   3.900   0.7118   0.01327   0.00730  -0.0478  0.6480  1.0000  -1.0572   0.0000   0.0000   0.0000   0.3130
   4.000   0.7217   0.01324   0.00728  -0.0475  0.6445  1.0000  -1.0748   0.0000   0.0000   0.0000   0.3115
   4.100   0.7317   0.01318   0.00724  -0.0472  0.6410  1.0000  -1.0926   0.0000   0.0000   0.0000   0.3101
   4.200   0.7417   0.01310   0.00716  -0.0468  0.6374  1.0000  -1.1139   0.0000   0.0000   0.0000   0.3086
   4.300   0.7517   0.01301   0.00707  -0.0464  0.6339  1.0000  -1.1354   0.0000   0.0000   0.0000   0.3071
   4.400   0.7617   0.01292   0.00698  -0.0460  0.6304  1.0000  -1.1570   0.0000   0.0000   0.0000   0.3057
   4.500   0.7716   0.01286   0.00690  -0.0456  0.6267  1.0000  -1.1786   0.0000   0.0000   0.0000   0.3043
   4.600   0.7815   0.01285   0.00688  -0.0452  0.6226  1.0000  -1.2037   0.0000   0.0000   0.0000   0.3029
   4.700   0.7913   0.01299   0.00700  -0.0448  0.6174  1.0000  -1.2294   0.0000   0.0000   0.0000   0.3017
   4.800   0.8012   0.01294   0.00701  -0.0446  0.6145  1.0000  -1.2556   0.0000   0.0000   0.0000   0.3007
   4.900   0.8111   0.01290   0.00709  -0.0444  0.6106  1.0000  -1.2908   0.0000   0.0000   0.0000   0.2996
   5.000   0.8210   0.01286   0.00710  -0.0442  0.6058  1.0000  -1.3347   0.0000   0.0000   0.0000   0.2985
   5.100   0.8309   0.01282   0.00709  -0.0439  0.6006  1.0000  -1.3791   0.0000   0.0000   0.0000   0.2974
   5.200   0.8409   0.01275   0.00705  -0.0435  0.5952  1.0000  -1.4241   0.0000   0.0000   0.0000   0.2963
   5.300   0.8509   0.01267   0.00698  -0.0432  0.5899  1.0000  -1.4905   0.0000   0.0000   0.0000   0.2952
   5.400   0.8609   0.01259   0.00689  -0.0428  0.5846  1.0000  -1.5983   0.0000   0.0000   0.0000   0.2940
   5.500   0.8709   0.01252   0.00679  -0.0424  0.5790  1.0000  -1.7083   0.0000   0.0000   0.0000   0.2929
   5.600   0.8809   0.01250   0.00673  -0.0420  0.5727  1.0000  -1.8198   0.0000   0.0000   0.0000   0.2918
   5.700   0.8906   0.01253   0.00680  -0.0417  0.5671  1.0000  -1.9312   0.0000   0.0000   0.0000   0.2908
   5.800   0.9003   0.01254   0.00688  -0.0415  0.5611  1.0000  -2.0438   0.0000   0.0000   0.0000   0.2900
   5.900   0.9100   0.01254   0.00694  -0.0412  0.5538  1.0000  -2.1587   0.0000   0.0000   0.0000   0.2891
   6.000   0.9197   0.01252   0.00693  -0.0409  0.5455  1.0000  -2.2762   0.0000   0.0000   0.0000   0.2881
   6.100   0.9294   0.01248   0.00688  -0.0405  0.5371  1.0000  -2.3961   0.0000   0.0000   0.0000   0.2871
   6.200   0.9389   0.01246   0.00680  -0.0400  0.5283  1.0000  -2.5171   0.0000   0.0000   0.0000   0.2860
   6.300   0.9482   0.01252   0.00684  -0.0396  0.5195  1.0000  -2.6379   0.0000   0.0000   0.0000   0.2851
   6.400   0.9575   0.01257   0.00696  -0.0394  0.5106  1.0000  -2.7596   0.0000   0.0000   0.0000   0.2843
   6.500   0.9667   0.01262   0.00702  -0.0390  0.4997  1.0000  -2.8826   0.0000   0.0000   0.0000   0.2834
   6.600   0.9754   0.01269   0.00702  -0.0385  0.4878  1.0000  -3.0058   0.0000   0.0000   0.0000   0.2824
   6.700   0.9837   0.01281   0.00703  -0.0379  0.4745  1.0000  -3.1279   0.0000   0.0000   0.0000   0.2813
   6.800   0.9926   0.01292   0.00720  -0.0376  0.4643  1.0000  -3.2532   0.0000   0.0000   0.0000   0.2805
   6.900   1.0008   0.01305   0.00731  -0.0371  0.4508  1.0000  -3.3769   0.0000   0.0000   0.0000   0.2796
   7.000   1.0081   0.01325   0.00740  -0.0364  0.4357  1.0000  -3.4967   0.0000   0.0000   0.0000   0.2786
   7.100   1.0158   0.01345   0.00756  -0.0359  0.4222  1.0000  -3.6191   0.0000   0.0000   0.0000   0.2776
   7.200   1.0237   0.01362   0.00774  -0.0354  0.4088  1.0000  -3.7442   0.0000   0.0000   0.0000   0.2768
   7.300   1.0305   0.01386   0.00791  -0.0348  0.3937  1.0000  -3.8636   0.0000   0.0000   0.0000   0.2758
   7.400   1.0366   0.01416   0.00811  -0.0340  0.3785  1.0000  -3.9792   0.0000   0.0000   0.0000   0.2747
   7.500   1.0443   0.01434   0.00832  -0.0335  0.3657  1.0000  -4.1060   0.0000   0.0000   0.0000   0.2739
   7.600   1.0503   0.01463   0.00854  -0.0328  0.3492  1.0000  -4.2220   0.0000   0.0000   0.0000   0.2729
   7.700   1.0549   0.01499   0.00879  -0.0319  0.3322  1.0000  -4.3300   0.0000   0.0000   0.0000   0.2717
   7.800   1.0614   0.01523   0.00902  -0.0312  0.3155  1.0000  -4.4505   0.0000   0.0000   0.0000   0.2708
   7.900   1.0651   0.01563   0.00930  -0.0302  0.2969  1.0000  -4.5529   0.0000   0.0000   0.0000   0.2696
   8.000   1.0703   0.01594   0.00957  -0.0294  0.2812  1.0000  -4.6650   0.0000   0.0000   0.0000   0.2686
   8.100   1.0750   0.01628   0.00986  -0.0285  0.2645  1.0000  -4.7734   0.0000   0.0000   0.0000   0.2675
   8.200   1.0770   0.01675   0.01020  -0.0273  0.2475  1.0000  -4.8634   0.0000   0.0000   0.0000   0.2662
   8.300   1.0820   0.01706   0.01049  -0.0264  0.2305  1.0000  -4.9731   0.0000   0.0000   0.0000   0.2652
   8.400   1.0827   0.01758   0.01088  -0.0251  0.2117  1.0000  -5.0528   0.0000   0.0000   0.0000   0.2637
   8.500   1.0852   0.01800   0.01124  -0.0239  0.1925  1.0000  -5.1429   0.0000   0.0000   0.0000   0.2625
   8.700   1.0835   0.01917   0.01213  -0.0208  0.1495  1.0000  -5.2715   0.0000   0.0000   0.0000   0.2594
   8.800   1.0805   0.01986   0.01265  -0.0190  0.1267  1.0000  -5.3159   0.0000   0.0000   0.0000   0.2576
   8.900   1.0744   0.02063   0.01343  -0.0167  0.1054  1.0000  -5.3392   0.0000   0.0000   0.0000   0.2555
   9.000   1.0683   0.02132   0.01399  -0.0144  0.0879  1.0000  -5.3562   0.0000   0.0000   0.0000   0.2533
   9.100   1.0620   0.02212   0.01466  -0.0122  0.0714  1.0000  -5.3621   0.0000   0.0000   0.0000   0.2511
   9.200   1.0547   0.02307   0.01543  -0.0101  0.0589  1.0000  -5.3555   0.0000   0.0000   0.0000   0.2491
   9.300   1.0519   0.02383   0.01618  -0.0085  0.0492  1.0000  -5.3687   0.0000   0.0000   0.0000   0.2474
   9.400   1.0487   0.02465   0.01692  -0.0070  0.0425  1.0000  -5.3857   0.0000   0.0000   0.0000   0.2459
   9.500   1.0414   0.02579   0.01806  -0.0052  0.0374  1.0000  -5.3466   0.0000   0.0000   0.0000   0.2440
   9.600   1.0383   0.02669   0.01901  -0.0038  0.0347  1.0000  -5.3436   0.0000   0.0000   0.0000   0.2425
   9.700   1.0412   0.02720   0.01957  -0.0030  0.0323  1.0000  -5.4027   0.0000   0.0000   0.0000   0.2416
   9.800   1.0429   0.02779   0.02020  -0.0022  0.0297  1.0000  -5.4536   0.0000   0.0000   0.0000   0.2406
   9.900   1.0441   0.02844   0.02088  -0.0013  0.0275  1.0000  -5.5036   0.0000   0.0000   0.0000   0.2397
  10.000   1.0442   0.02920   0.02164  -0.0005  0.0256  1.0000  -5.5401   0.0000   0.0000   0.0000   0.2387
  10.100   1.0426   0.03010   0.02257   0.0006  0.0242  1.0000  -5.5524   0.0000   0.0000   0.0000   0.2375
  10.200   1.0398   0.03114   0.02364   0.0017  0.0230  1.0000  -5.5472   0.0000   0.0000   0.0000   0.2363
  10.300   1.0365   0.03227   0.02481   0.0028  0.0219  1.0000  -5.5258   0.0000   0.0000   0.0000   0.2350
  10.400   1.0332   0.03352   0.02613   0.0042  0.0209  1.0000  -5.4874   0.0000   0.0000   0.0000   0.2335
  10.500   1.0313   0.03496   0.02762   0.0057  0.0200  1.0000  -5.4460   0.0000   0.0000   0.0000   0.2319
  10.600   1.0356   0.03551   0.02823   0.0063  0.0197  1.0000  -5.5214   0.0000   0.0000   0.0000   0.2312
  10.700   1.0398   0.03614   0.02891   0.0069  0.0193  1.0000  -5.5891   0.0000   0.0000   0.0000   0.2305
  10.800   1.0439   0.03683   0.02966   0.0076  0.0189  1.0000  -5.6500   0.0000   0.0000   0.0000   0.2297
  10.900   1.0480   0.03756   0.03045   0.0082  0.0185  1.0000  -5.7091   0.0000   0.0000   0.0000   0.2290
  11.000   1.0522   0.03829   0.03124   0.0089  0.0181  1.0000  -5.7706   0.0000   0.0000   0.0000   0.2283
  11.100   1.0562   0.03902   0.03204   0.0095  0.0176  1.0000  -5.8349   0.0000   0.0000   0.0000   0.2276
  11.200   1.0600   0.03976   0.03284   0.0101  0.0170  1.0000  -5.9013   0.0000   0.0000   0.0000   0.2269
  11.300   1.0635   0.04052   0.03366   0.0106  0.0165  1.0000  -5.9690   0.0000   0.0000   0.0000   0.2263
  11.400   1.0667   0.04129   0.03449   0.0111  0.0159  1.0000  -6.0369   0.0000   0.0000   0.0000   0.2257
  11.500   1.0696   0.04209   0.03536   0.0117  0.0154  1.0000  -6.1029   0.0000   0.0000   0.0000   0.2250
  11.600   1.0723   0.04294   0.03627   0.0122  0.0150  1.0000  -6.1647   0.0000   0.0000   0.0000   0.2244
  11.700   1.0747   0.04385   0.03725   0.0127  0.0146  1.0000  -6.2186   0.0000   0.0000   0.0000   0.2238
  11.800   1.0771   0.04485   0.03834   0.0133  0.0144  1.0000  -6.2620   0.0000   0.0000   0.0000   0.2232
  11.900   1.0791   0.04592   0.03949   0.0139  0.0142  1.0000  -6.2983   0.0000   0.0000   0.0000   0.2225
  12.000   1.0806   0.04703   0.04069   0.0144  0.0141  1.0000  -6.3304   0.0000   0.0000   0.0000   0.2218
  12.100   1.0816   0.04817   0.04193   0.0150  0.0140  1.0000  -6.3583   0.0000   0.0000   0.0000   0.2212
  12.200   1.0821   0.04937   0.04322   0.0155  0.0139  1.0000  -6.3822   0.0000   0.0000   0.0000   0.2205
  12.300   1.0820   0.05061   0.04456   0.0160  0.0138  1.0000  -6.4020   0.0000   0.0000   0.0000   0.2199
  12.400   1.0815   0.05190   0.04594   0.0165  0.0138  1.0000  -6.4176   0.0000   0.0000   0.0000   0.2193
  12.500   1.0804   0.05324   0.04739   0.0169  0.0137  1.0000  -6.4291   0.0000   0.0000   0.0000   0.2187
  12.600   1.0786   0.05464   0.04889   0.0173  0.0137  1.0000  -6.4351   0.0000   0.0000   0.0000   0.2182
  12.700   1.0760   0.05611   0.05046   0.0176  0.0137  1.0000  -6.4358   0.0000   0.0000   0.0000   0.2177
  12.800   1.0728   0.05763   0.05207   0.0179  0.0137  1.0000  -6.4324   0.0000   0.0000   0.0000   0.2172
  12.900   1.0693   0.05920   0.05374   0.0181  0.0137  1.0000  -6.4260   0.0000   0.0000   0.0000   0.2168
  13.000   1.0655   0.06081   0.05546   0.0183  0.0137  1.0000  -6.4166   0.0000   0.0000   0.0000   0.2164
  13.100   1.0614   0.06248   0.05722   0.0184  0.0137  1.0000  -6.4041   0.0000   0.0000   0.0000   0.2161
  13.200   1.0567   0.06420   0.05904   0.0184  0.0138  1.0000  -6.3880   0.0000   0.0000   0.0000   0.2158
  13.300   1.0513   0.06599   0.06092   0.0183  0.0138  1.0000  -6.3680   0.0000   0.0000   0.0000   0.2156
  13.400   1.0458   0.06782   0.06284   0.0181  0.0138  1.0000  -6.3461   0.0000   0.0000   0.0000   0.2155
  13.500   1.0403   0.06970   0.06481   0.0179  0.0139  1.0000  -6.3222   0.0000   0.0000   0.0000   0.2154
  13.600   1.0344   0.07162   0.06681   0.0176  0.0139  1.0000  -6.2957   0.0000   0.0000   0.0000   0.2154
  13.700   1.0277   0.07358   0.06886   0.0172  0.0140  1.0000  -6.2651   0.0000   0.0000   0.0000   0.2155
  13.800   1.0207   0.07563   0.07099   0.0167  0.0140  1.0000  -6.2322   0.0000   0.0000   0.0000   0.2157
  13.900   1.0140   0.07775   0.07319   0.0162  0.0141  1.0000  -6.1978   0.0000   0.0000   0.0000   0.2160
  14.000   1.0072   0.07996   0.07549   0.0155  0.0141  1.0000  -6.1612   0.0000   0.0000   0.0000   0.2164
  14.100   0.9998   0.08232   0.07792   0.0146  0.0142  1.0000  -6.1206   0.0000   0.0000   0.0000   0.2170
  14.200   0.9925   0.08476   0.08044   0.0136  0.0143  1.0000  -6.0777   0.0000   0.0000   0.0000   0.2177
  14.300   0.9852   0.08727   0.08303   0.0125  0.0143  1.0000  -6.0329   0.0000   0.0000   0.0000   0.2185
  14.400   0.9776   0.08992   0.08575   0.0113  0.0144  1.0000  -5.9841   0.0000   0.0000   0.0000   0.2195
  14.500   0.9698   0.09269   0.08858   0.0099  0.0144  1.0000  -5.9320   0.0000   0.0000   0.0000   0.2207
  14.600   0.9622   0.09552   0.09149   0.0084  0.0145  1.0000  -5.8773   0.0000   0.0000   0.0000   0.2220
  14.700   0.9542   0.09851   0.09455   0.0068  0.0146  1.0000  -5.8177   0.0000   0.0000   0.0000   0.2235
  14.800   0.9462   0.10161   0.09771   0.0050  0.0147  1.0000  -5.7541   0.0000   0.0000   0.0000   0.2251
  14.900   0.9383   0.10479   0.10096   0.0032  0.0147  1.0000  -5.6866   0.0000   0.0000   0.0000   0.2269
  15.000   0.9299   0.10819   0.10441   0.0011  0.0148  1.0000  -5.6116   0.0000   0.0000   0.0000   0.2289
  15.100   0.9217   0.11165   0.10793  -0.0009  0.0149  1.0000  -5.5324   0.0000   0.0000   0.0000   0.2311
  15.200   0.9130   0.11533   0.11166  -0.0032  0.0150  1.0000  -5.4436   0.0000   0.0000   0.0000   0.2335
  15.300   0.9045   0.11913   0.11551  -0.0056  0.0151  1.0000  -5.3475   0.0000   0.0000   0.0000   0.2360
  15.400   0.8955   0.12318   0.11960  -0.0081  0.0153  1.0000  -5.2389   0.0000   0.0000   0.0000   0.2388
  15.500   0.8866   0.12737   0.12384  -0.0106  0.0154  1.0000  -5.1191   0.0000   0.0000   0.0000   0.2418
  15.600   0.8771   0.13191   0.12841  -0.0134  0.0156  1.0000  -4.9799   0.0000   0.0000   0.0000   0.2450
  15.700   0.8678   0.13658   0.13311  -0.0161  0.0158  1.0000  -4.8256   0.0000   0.0000   0.0000   0.2483
  15.800   0.8586   0.14146   0.13800  -0.0187  0.0161  1.0000  -4.6532   0.0000   0.0000   0.0000   0.2516
  15.900   0.8502   0.14632   0.14286  -0.0212  0.0164  1.0000  -4.4709   0.0000   0.0000   0.0000   0.2548
  16.000   0.8430   0.15082   0.14735  -0.0234  0.0167  1.0000  -4.2934   0.0000   0.0000   0.0000   0.2577
  16.100   0.8373   0.15484   0.15135  -0.0252  0.0170  1.0000  -4.1320   0.0000   0.0000   0.0000   0.2601
  16.200   0.8330   0.15835   0.15485  -0.0268  0.0173  1.0000  -3.9997   0.0000   0.0000   0.0000   0.2622
  16.300   0.8296   0.16157   0.15805  -0.0283  0.0175  1.0000  -3.8872   0.0000   0.0000   0.0000   0.2641
  16.400   0.8268   0.16459   0.16106  -0.0296  0.0177  1.0000  -3.7877   0.0000   0.0000   0.0000   0.2658
  16.500   0.8245   0.16749   0.16395  -0.0309  0.0179  1.0000  -3.6977   0.0000   0.0000   0.0000   0.2674
  16.600   0.8225   0.17029   0.16673  -0.0322  0.0182  1.0000  -3.6150   0.0000   0.0000   0.0000   0.2690
  16.700   0.8209   0.17302   0.16945  -0.0333  0.0184  1.0000  -3.5374   0.0000   0.0000   0.0000   0.2704
  16.800   0.8193   0.17572   0.17213  -0.0344  0.0186  1.0000  -3.4629   0.0000   0.0000   0.0000   0.2718
  16.900   0.8177   0.17843   0.17483  -0.0355  0.0190  1.0000  -3.3875   0.0000   0.0000   0.0000   0.2731
  17.100   0.8252   0.18041   0.17686  -0.0355  0.0209  1.0000  -3.4390   0.0000   0.0000   0.0000   0.2723
  17.600   0.8134   0.20357   0.19992  -0.0412  0.0353  1.0000  -2.6008   0.0000   0.0000   0.0000   0.2802
  17.700   0.8147   0.20572   0.20206  -0.0421  0.0353  1.0000  -2.5803   0.0000   0.0000   0.0000   0.2811
  17.800   0.8160   0.20785   0.20419  -0.0429  0.0353  1.0000  -2.5604   0.0000   0.0000   0.0000   0.2819
  17.900   0.8173   0.20997   0.20630  -0.0437  0.0353  1.0000  -2.5411   0.0000   0.0000   0.0000   0.2827
  18.000   0.8187   0.21206   0.20839  -0.0446  0.0352  1.0000  -2.5224   0.0000   0.0000   0.0000   0.2835
  18.100   0.8201   0.21414   0.21047  -0.0454  0.0352  1.0000  -2.5042   0.0000   0.0000   0.0000   0.2844
  18.200   0.8216   0.21619   0.21252  -0.0463  0.0352  1.0000  -2.4865   0.0000   0.0000   0.0000   0.2852
  18.300   0.8230   0.21821   0.21454  -0.0471  0.0351  1.0000  -2.4693   0.0000   0.0000   0.0000   0.2860
  18.400   0.8245   0.22020   0.21652  -0.0480  0.0350  1.0000  -2.4526   0.0000   0.0000   0.0000   0.2868
  18.500   0.8261   0.22214   0.21845  -0.0489  0.0350  1.0000  -2.4365   0.0000   0.0000   0.0000   0.2876
  18.600   0.8277   0.22400   0.22031  -0.0498  0.0348  1.0000  -2.4208   0.0000   0.0000   0.0000   0.2885
  18.700   0.8294   0.22573   0.22204  -0.0507  0.0347  1.0000  -2.4058   0.0000   0.0000   0.0000   0.2894
  18.800   0.8315   0.22710   0.22341  -0.0518  0.0342  1.0000  -2.3906   0.0000   0.0000   0.0000   0.2904
  18.900   0.8324   0.22842   0.22472  -0.0536  0.0331  1.0000  -2.3477   0.0000   0.0000   0.0000   0.2924
  19.000   0.8328   0.23030   0.22659  -0.0550  0.0321  1.0000  -2.3070   0.0000   0.0000   0.0000   0.2940
  19.100   0.8338   0.23229   0.22858  -0.0562  0.0313  1.0000  -2.2792   0.0000   0.0000   0.0000   0.2951
  19.200   0.8350   0.23428   0.23057  -0.0571  0.0306  1.0000  -2.2587   0.0000   0.0000   0.0000   0.2960
  19.300   0.8365   0.23626   0.23255  -0.0580  0.0299  1.0000  -2.2427   0.0000   0.0000   0.0000   0.2969
  19.400   0.8380   0.23823   0.23451  -0.0589  0.0293  1.0000  -2.2301   0.0000   0.0000   0.0000   0.2976
  19.500   0.8395   0.24017   0.23645  -0.0596  0.0287  1.0000  -2.2199   0.0000   0.0000   0.0000   0.2983
  19.600   0.8411   0.24210   0.23838  -0.0604  0.0282  1.0000  -2.2119   0.0000   0.0000   0.0000   0.2989
  19.700   0.8428   0.24402   0.24030  -0.0612  0.0276  1.0000  -2.2056   0.0000   0.0000   0.0000   0.2995
  19.800   0.8445   0.24591   0.24220  -0.0619  0.0271  1.0000  -2.2011   0.0000   0.0000   0.0000   0.3001
  19.900   0.8462   0.24779   0.24408  -0.0626  0.0266  1.0000  -2.1981   0.0000   0.0000   0.0000   0.3006
  20.000   0.8480   0.24966   0.24595  -0.0633  0.0261  1.0000  -2.1967   0.0000   0.0000   0.0000   0.3011
  20.100   0.8498   0.25151   0.24780  -0.0639  0.0257  1.0000  -2.1968   0.0000   0.0000   0.0000   0.3016
  20.200   0.8516   0.25335   0.24964  -0.0646  0.0253  1.0000  -2.1986   0.0000   0.0000   0.0000   0.3020
  20.300   0.8534   0.25516   0.25146  -0.0652  0.0249  1.0000  -2.2021   0.0000   0.0000   0.0000   0.3024
  20.400   0.8553   0.25696   0.25326  -0.0658  0.0245  1.0000  -2.2074   0.0000   0.0000   0.0000   0.3028
  20.500   0.8572   0.25875   0.25504  -0.0664  0.0241  1.0000  -2.2147   0.0000   0.0000   0.0000   0.3031
  20.600   0.8592   0.26051   0.25681  -0.0669  0.0237  1.0000  -2.2243   0.0000   0.0000   0.0000   0.3034
  20.700   0.8612   0.26225   0.25856  -0.0675  0.0234  1.0000  -2.2362   0.0000   0.0000   0.0000   0.3037
  20.800   0.8633   0.26398   0.26029  -0.0679  0.0231  1.0000  -2.2508   0.0000   0.0000   0.0000   0.3039
  20.900   0.8655   0.26569   0.26201  -0.0684  0.0227  1.0000  -2.2688   0.0000   0.0000   0.0000   0.3040
  21.000   0.8678   0.26739   0.26371  -0.0688  0.0224  1.0000  -2.2905   0.0000   0.0000   0.0000   0.3040
  21.100   0.8702   0.26909   0.26542  -0.0691  0.0221  1.0000  -2.3165   0.0000   0.0000   0.0000   0.3040
  21.200   0.8729   0.27081   0.26715  -0.0693  0.0218  1.0000  -2.3476   0.0000   0.0000   0.0000   0.3038
  21.300   0.8758   0.27261   0.26896  -0.0694  0.0215  1.0000  -2.3851   0.0000   0.0000   0.0000   0.3034
  21.400   0.8784   0.27463   0.27099  -0.0695  0.0212  1.0000  -2.4189   0.0000   0.0000   0.0000   0.3031
  21.500   0.8792   0.27739   0.27376  -0.0698  0.0208  1.0000  -2.4192   0.0000   0.0000   0.0000   0.3033
  21.600   0.8727   0.28519   0.28150  -0.0706  0.0200  1.0000  -2.2457   0.0000   0.0000   0.0000   0.3048
  21.700   0.8740   0.28736   0.28367  -0.0713  0.0200  1.0000  -2.2301   0.0000   0.0000   0.0000   0.3054
  21.800   0.8752   0.28953   0.28584  -0.0720  0.0200  1.0000  -2.2145   0.0000   0.0000   0.0000   0.3059
  21.900   0.8764   0.29170   0.28801  -0.0727  0.0200  1.0000  -2.1990   0.0000   0.0000   0.0000   0.3065
  22.000   0.8775   0.29385   0.29017  -0.0734  0.0200  1.0000  -2.1836   0.0000   0.0000   0.0000   0.3070
  22.100   0.8786   0.29600   0.29232  -0.0741  0.0199  1.0000  -2.1683   0.0000   0.0000   0.0000   0.3076
  22.200   0.8797   0.29814   0.29446  -0.0748  0.0199  1.0000  -2.1530   0.0000   0.0000   0.0000   0.3081
  22.300   0.8807   0.30026   0.29659  -0.0755  0.0199  1.0000  -2.1378   0.0000   0.0000   0.0000   0.3087
  22.400   0.8817   0.30238   0.29871  -0.0762  0.0199  1.0000  -2.1227   0.0000   0.0000   0.0000   0.3092
  22.500   0.8826   0.30449   0.30082  -0.0768  0.0199  1.0000  -2.1077   0.0000   0.0000   0.0000   0.3098
  22.600   0.8835   0.30658   0.30291  -0.0775  0.0199  1.0000  -2.0928   0.0000   0.0000   0.0000   0.3103
  22.700   0.8843   0.30867   0.30500  -0.0782  0.0198  1.0000  -2.0780   0.0000   0.0000   0.0000   0.3108
  22.800   0.8851   0.31074   0.30708  -0.0789  0.0198  1.0000  -2.0633   0.0000   0.0000   0.0000   0.3114
  22.900   0.8858   0.31279   0.30913  -0.0796  0.0198  1.0000  -2.0486   0.0000   0.0000   0.0000   0.3119
  23.000   0.8865   0.31483   0.31118  -0.0802  0.0198  1.0000  -2.0339   0.0000   0.0000   0.0000   0.3125
  23.100   0.8871   0.31685   0.31321  -0.0809  0.0197  1.0000  -2.0194   0.0000   0.0000   0.0000   0.3130
  23.200   0.8877   0.31886   0.31522  -0.0815  0.0197  1.0000  -2.0050   0.0000   0.0000   0.0000   0.3135
  23.300   0.8882   0.32085   0.31721  -0.0822  0.0197  1.0000  -1.9905   0.0000   0.0000   0.0000   0.3141
  23.400   0.8885   0.32281   0.31918  -0.0829  0.0196  1.0000  -1.9759   0.0000   0.0000   0.0000   0.3146
  23.500   0.8888   0.32476   0.32113  -0.0835  0.0196  1.0000  -1.9613   0.0000   0.0000   0.0000   0.3152
  23.600   0.8891   0.32668   0.32306  -0.0841  0.0196  1.0000  -1.9467   0.0000   0.0000   0.0000   0.3157
  23.700   0.8891   0.32857   0.32495  -0.0848  0.0195  1.0000  -1.9318   0.0000   0.0000   0.0000   0.3163
  23.800   0.8891   0.33042   0.32681  -0.0854  0.0195  1.0000  -1.9165   0.0000   0.0000   0.0000   0.3169
  23.900   0.8889   0.33223   0.32862  -0.0860  0.0194  1.0000  -1.9000   0.0000   0.0000   0.0000   0.3175
  24.000   0.8882   0.33399   0.33039  -0.0867  0.0193  1.0000  -1.8786   0.0000   0.0000   0.0000   0.3182
  24.100   0.8874   0.33570   0.33211  -0.0874  0.0193  1.0000  -1.8565   0.0000   0.0000   0.0000   0.3189
  24.200   0.8864   0.33736   0.33377  -0.0881  0.0192  1.0000  -1.8337   0.0000   0.0000   0.0000   0.3197
  24.300   0.8853   0.33897   0.33539  -0.0888  0.0190  1.0000  -1.8098   0.0000   0.0000   0.0000   0.3205
  24.400   0.8841   0.34053   0.33696  -0.0894  0.0189  1.0000  -1.7846   0.0000   0.0000   0.0000   0.3212
  24.500   0.8828   0.34206   0.33850  -0.0901  0.0187  1.0000  -1.7581   0.0000   0.0000   0.0000   0.3220
  24.600   0.8812   0.34356   0.34000  -0.0907  0.0184  1.0000  -1.7308   0.0000   0.0000   0.0000   0.3228
  24.700   0.8791   0.34499   0.34145  -0.0912  0.0181  1.0000  -1.7033   0.0000   0.0000   0.0000   0.3235
  24.800   0.8186   0.33191   0.32853  -0.0845  0.0187  1.0000  -1.5624   0.0000   0.0000   0.0000   0.3247
  24.900   0.8131   0.33150   0.32814  -0.0846  0.0186  1.0000  -1.5293   0.0000   0.0000   0.0000   0.3256
  25.000   0.8090   0.33141   0.32806  -0.0848  0.0183  1.0000  -1.4987   0.0000   0.0000   0.0000   0.3264
  25.100   0.8055   0.33148   0.32815  -0.0851  0.0181  1.0000  -1.4705   0.0000   0.0000   0.0000   0.3272
  25.200   0.8024   0.33164   0.32833  -0.0854  0.0178  1.0000  -1.4446   0.0000   0.0000   0.0000   0.3280
  25.300   0.7995   0.33185   0.32856  -0.0856  0.0175  1.0000  -1.4211   0.0000   0.0000   0.0000   0.3287
  25.400   0.7969   0.33209   0.32881  -0.0859  0.0172  1.0000  -1.3997   0.0000   0.0000   0.0000   0.3293
  25.500   0.7944   0.33234   0.32907  -0.0861  0.0169  1.0000  -1.3801   0.0000   0.0000   0.0000   0.3300
  25.600   0.7920   0.33261   0.32936  -0.0864  0.0166  1.0000  -1.3622   0.0000   0.0000   0.0000   0.3306
  25.700   0.7899   0.33290   0.32966  -0.0867  0.0164  1.0000  -1.3455   0.0000   0.0000   0.0000   0.3312
  25.800   0.7878   0.33321   0.32998  -0.0869  0.0161  1.0000  -1.3300   0.0000   0.0000   0.0000   0.3318
  25.900   0.7859   0.33353   0.33032  -0.0872  0.0159  1.0000  -1.3155   0.0000   0.0000   0.0000   0.3323
  26.000   0.7842   0.33387   0.33068  -0.0875  0.0156  1.0000  -1.3020   0.0000   0.0000   0.0000   0.3329
  26.100   0.7825   0.33422   0.33111  -0.0878  0.0154  1.0000  -1.2883   0.0000   0.0000   0.0000   0.3335
  26.200   0.7809   0.33459   0.33149  -0.0881  0.0152  1.0000  -1.2762   0.0000   0.0000   0.0000   0.3340
  26.300   0.7795   0.33497   0.33188  -0.0885  0.0150  1.0000  -1.2647   0.0000   0.0000   0.0000   0.3346
  26.400   0.7781   0.33536   0.33228  -0.0888  0.0147  1.0000  -1.2538   0.0000   0.0000   0.0000   0.3351
  26.500   0.7768   0.33576   0.33270  -0.0891  0.0145  1.0000  -1.2435   0.0000   0.0000   0.0000   0.3356
  26.600   0.7756   0.33617   0.33312  -0.0895  0.0143  1.0000  -1.2337   0.0000   0.0000   0.0000   0.3362
  26.700   0.7745   0.33659   0.33355  -0.0898  0.0141  1.0000  -1.2244   0.0000   0.0000   0.0000   0.3367
  26.800   0.7734   0.33702   0.33399  -0.0902  0.0139  1.0000  -1.2156   0.0000   0.0000   0.0000   0.3372
  26.900   0.7724   0.33745   0.33443  -0.0905  0.0137  1.0000  -1.2072   0.0000   0.0000   0.0000   0.3378
  27.000   0.7715   0.33789   0.33488  -0.0909  0.0135  1.0000  -1.1992   0.0000   0.0000   0.0000   0.3383
  27.100   0.7706   0.33833   0.33534  -0.0913  0.0134  1.0000  -1.1917   0.0000   0.0000   0.0000   0.3388
  27.200   0.7698   0.33878   0.33580  -0.0917  0.0132  1.0000  -1.1846   0.0000   0.0000   0.0000   0.3393
  27.300   0.7690   0.33924   0.33627  -0.0920  0.0130  1.0000  -1.1783   0.0000   0.0000   0.0000   0.3398
  27.400   0.7682   0.33970   0.33674  -0.0924  0.0129  1.0000  -1.1779   0.0000   0.0000   0.0000   0.3403
  27.500   0.7675   0.34016   0.33721  -0.0928  0.0127  1.0000  -1.1777   0.0000   0.0000   0.0000   0.3408
  27.600   0.7668   0.34063   0.33769  -0.0932  0.0125  1.0000  -1.1777   0.0000   0.0000   0.0000   0.3413
  27.700   0.7662   0.34109   0.33817  -0.0936  0.0124  1.0000  -1.1781   0.0000   0.0000   0.0000   0.3418
  27.800   0.7656   0.34157   0.33865  -0.0940  0.0122  1.0000  -1.1786   0.0000   0.0000   0.0000   0.3423
  27.900   0.7651   0.34204   0.33914  -0.0944  0.0121  1.0000  -1.1795   0.0000   0.0000   0.0000   0.3427
  28.000   0.7645   0.34251   0.33963  -0.0948  0.0119  1.0000  -1.1806   0.0000   0.0000   0.0000   0.3432
  28.100   0.7640   0.34299   0.34011  -0.0952  0.0118  1.0000  -1.1819   0.0000   0.0000   0.0000   0.3437
  28.200   0.7635   0.34347   0.34060  -0.0956  0.0117  1.0000  -1.1835   0.0000   0.0000   0.0000   0.3442
  28.300   0.7631   0.34394   0.34109  -0.0960  0.0115  1.0000  -1.1855   0.0000   0.0000   0.0000   0.3446
  28.400   0.7627   0.34442   0.34157  -0.0964  0.0114  1.0000  -1.1876   0.0000   0.0000   0.0000   0.3451
  28.500   0.7623   0.34489   0.34206  -0.0968  0.0113  1.0000  -1.1901   0.0000   0.0000   0.0000   0.3456
  28.600   0.7619   0.34537   0.34255  -0.0973  0.0112  1.0000  -1.1929   0.0000   0.0000   0.0000   0.3460
  28.700   0.7615   0.34584   0.34303  -0.0977  0.0110  1.0000  -1.1960   0.0000   0.0000   0.0000   0.3465
  28.800   0.7612   0.34631   0.34351  -0.0981  0.0109  1.0000  -1.1994   0.0000   0.0000   0.0000   0.3469
  28.900   0.7608   0.34678   0.34399  -0.0985  0.0108  1.0000  -1.2032   0.0000   0.0000   0.0000   0.3473
  29.000   0.7605   0.34725   0.34447  -0.0989  0.0107  1.0000  -1.2073   0.0000   0.0000   0.0000   0.3478
  29.100   0.7602   0.34771   0.34494  -0.0993  0.0106  1.0000  -1.2118   0.0000   0.0000   0.0000   0.3482
  29.200   0.7599   0.34816   0.34541  -0.0997  0.0105  1.0000  -1.2167   0.0000   0.0000   0.0000   0.3486
  29.300   0.7597   0.34862   0.34587  -0.1001  0.0104  1.0000  -1.2220   0.0000   0.0000   0.0000   0.3490
  29.400   0.7594   0.34907   0.34633  -0.1005  0.0103  1.0000  -1.2278   0.0000   0.0000   0.0000   0.3494
  29.500   0.7592   0.34951   0.34679  -0.1009  0.0102  1.0000  -1.2340   0.0000   0.0000   0.0000   0.3498
  29.600   0.7589   0.34995   0.34724  -0.1013  0.0101  1.0000  -1.2407   0.0000   0.0000   0.0000   0.3502
  29.700   0.7587   0.35038   0.34768  -0.1017  0.0100  1.0000  -1.2480   0.0000   0.0000   0.0000   0.3505
  29.800   0.7584   0.35081   0.34812  -0.1020  0.0099  1.0000  -1.2559   0.0000   0.0000   0.0000   0.3509
  29.900   0.7582   0.35124   0.34856  -0.1024  0.0098  1.0000  -1.2642   0.0000   0.0000   0.0000   0.3512
  30.000   0.7580   0.35167   0.34900  -0.1027  0.0097  1.0000  -1.2731   0.0000   0.0000   0.0000   0.3515


