xflr5 v6.61

 Calculated polar for: MH 16

 1 1 Reynolds number fixed          Mach number fixed         

 xtrf =   1.000 (top)        1.000 (bottom)
 Mach =   0.000     Re =     0.130 e 6     Ncrit =   9.000

  alpha     CL        CD       CDp       Cm    Top Xtr Bot Xtr   Cpmin    Chinge    XCp    
 ------- -------- --------- --------- -------- ------- ------- -------- --------- ---------
 -10.000  -0.4791   0.10792   0.10406  -0.0323  1.0000  0.1029  -1.8350   0.0000   0.0000   0.0000   0.1732
  -9.900  -0.4798   0.10685   0.10300  -0.0319  1.0000  0.1045  -1.8304   0.0000   0.0000   0.0000   0.1742
  -9.800  -0.4834   0.10552   0.10169  -0.0320  1.0000  0.1061  -1.8433   0.0000   0.0000   0.0000   0.1748
  -9.700  -0.4905   0.10391   0.10010  -0.0325  1.0000  0.1076  -1.8757   0.0000   0.0000   0.0000   0.1748
  -9.600  -0.5033   0.10189   0.09812  -0.0339  1.0000  0.1090  -1.9381   0.0000   0.0000   0.0000   0.1740
  -9.500  -0.5240   0.09935   0.09563  -0.0365  1.0000  0.1099  -2.0398   0.0000   0.0000   0.0000   0.1721
  -9.400  -0.5434   0.09670   0.09302  -0.0390  1.0000  0.1102  -2.1403   0.0000   0.0000   0.0000   0.1703
  -9.300  -0.5600   0.09433   0.09066  -0.0407  1.0000  0.1102  -2.2160   0.0000   0.0000   0.0000   0.1696
  -9.200  -0.5755   0.09255   0.08889  -0.0412  1.0000  0.1103  -2.2751   0.0000   0.0000   0.0000   0.1708
  -9.100  -0.5382   0.09281   0.08916  -0.0357  1.0000  0.1128  -2.0725   0.0000   0.0000   0.0000   0.1760
  -9.000  -0.5222   0.09338   0.08972  -0.0325  1.0000  0.1154  -1.9753   0.0000   0.0000   0.0000   0.1800
  -8.900  -0.5250   0.09218   0.08853  -0.0322  1.0000  0.1169  -1.9767   0.0000   0.0000   0.0000   0.1811
  -8.800  -0.5321   0.09057   0.08694  -0.0325  1.0000  0.1181  -1.9989   0.0000   0.0000   0.0000   0.1816
  -8.700  -0.5417   0.08870   0.08509  -0.0331  1.0000  0.1189  -2.0329   0.0000   0.0000   0.0000   0.1817
  -6.300  -0.8014   0.04398   0.03756   0.0061  1.0000  0.0561  -3.5118   0.0000   0.0000   0.0000   0.2521
  -6.200  -0.7974   0.04251   0.03609   0.0069  1.0000  0.0549  -3.4932   0.0000   0.0000   0.0000   0.2533
  -6.100  -0.8047   0.04007   0.03285   0.0113  1.0000  0.0491  -3.7100   0.0000   0.0000   0.0000   0.2587
  -6.000  -0.8004   0.04004   0.03261   0.0129  1.0000  0.0486  -3.6955   0.0000   0.0000   0.0000   0.2608
  -5.900  -0.7960   0.03892   0.03138   0.0140  1.0000  0.0484  -3.6782   0.0000   0.0000   0.0000   0.2623
  -5.800  -0.7921   0.03786   0.03021   0.0152  1.0000  0.0483  -3.6629   0.0000   0.0000   0.0000   0.2640
  -5.700  -0.7880   0.03688   0.02911   0.0164  1.0000  0.0482  -3.6464   0.0000   0.0000   0.0000   0.2657
  -5.600  -0.7835   0.03591   0.02802   0.0175  1.0000  0.0481  -3.6283   0.0000   0.0000   0.0000   0.2673
  -5.500  -0.7785   0.03493   0.02693   0.0186  1.0000  0.0480  -3.6085   0.0000   0.0000   0.0000   0.2690
  -5.400  -0.7732   0.03397   0.02586   0.0197  1.0000  0.0477  -3.5873   0.0000   0.0000   0.0000   0.2705
  -5.300  -0.7675   0.03303   0.02482   0.0207  1.0000  0.0474  -3.5648   0.0000   0.0000   0.0000   0.2721
  -5.200  -0.7616   0.03216   0.02382   0.0217  1.0000  0.0472  -3.5412   0.0000   0.0000   0.0000   0.2736
  -5.100  -0.7553   0.03136   0.02291   0.0226  1.0000  0.0469  -3.5158   0.0000   0.0000   0.0000   0.2752
  -5.000  -0.7489   0.03062   0.02205   0.0236  1.0000  0.0468  -3.4881   0.0000   0.0000   0.0000   0.2768
  -4.900  -0.7421   0.02993   0.02125   0.0245  1.0000  0.0467  -3.4580   0.0000   0.0000   0.0000   0.2783
  -4.800  -0.7351   0.02929   0.02049   0.0253  1.0000  0.0467  -3.4250   0.0000   0.0000   0.0000   0.2799
  -4.700  -0.7280   0.02869   0.01979   0.0261  1.0000  0.0468  -3.3893   0.0000   0.0000   0.0000   0.2814
  -4.600  -0.7206   0.02813   0.01913   0.0269  1.0000  0.0470  -3.3509   0.0000   0.0000   0.0000   0.2829
  -4.500  -0.7131   0.02761   0.01853   0.0276  1.0000  0.0473  -3.3101   0.0000   0.0000   0.0000   0.2844
  -4.400  -0.7056   0.02715   0.01798   0.0284  1.0000  0.0477  -3.2669   0.0000   0.0000   0.0000   0.2859
  -4.300  -0.6986   0.02685   0.01756   0.0292  1.0000  0.0483  -3.2204   0.0000   0.0000   0.0000   0.2876
  -4.200  -0.6908   0.02610   0.01685   0.0297  1.0000  0.0494  -3.1691   0.0000   0.0000   0.0000   0.2888
  -4.100  -0.6838   0.02558   0.01639   0.0302  1.0000  0.0507  -3.1067   0.0000   0.0000   0.0000   0.2901
  -4.000  -0.6771   0.02522   0.01604   0.0309  1.0000  0.0520  -3.0473   0.0000   0.0000   0.0000   0.2916
  -3.900  -0.6702   0.02488   0.01568   0.0316  1.0000  0.0531  -2.9929   0.0000   0.0000   0.0000   0.2932
  -3.800  -0.6634   0.02454   0.01530   0.0324  1.0000  0.0541  -2.9541   0.0000   0.0000   0.0000   0.2950
  -3.700  -0.6567   0.02420   0.01494   0.0332  1.0000  0.0551  -2.9178   0.0000   0.0000   0.0000   0.2968
  -3.600  -0.6503   0.02390   0.01460   0.0341  1.0000  0.0561  -2.8816   0.0000   0.0000   0.0000   0.2986
  -3.500  -0.6439   0.02365   0.01430   0.0350  1.0000  0.0571  -2.8451   0.0000   0.0000   0.0000   0.3006
  -3.400  -0.6393   0.02315   0.01387   0.0360  1.0000  0.0585  -2.8103   0.0000   0.0000   0.0000   0.3027
  -3.300  -0.6346   0.02283   0.01359   0.0371  1.0000  0.0601  -2.7692   0.0000   0.0000   0.0000   0.3049
  -3.200  -0.6296   0.02258   0.01335   0.0381  1.0000  0.0622  -2.7271   0.0000   0.0000   0.0000   0.3070
  -3.100  -0.6242   0.02238   0.01313   0.0391  1.0000  0.0651  -2.6854   0.0000   0.0000   0.0000   0.3092
  -3.000  -0.6198   0.02210   0.01286   0.0402  1.0000  0.0682  -2.6471   0.0000   0.0000   0.0000   0.3115
  -2.900  -0.5914   0.02219   0.01302   0.0368  0.9906  0.0792  -2.5465   0.0000   0.0000   0.0000   0.3089
  -2.800  -0.5779   0.02200   0.01293   0.0362  0.9857  0.0932  -2.4950   0.0000   0.0000   0.0000   0.3094
  -2.700  -0.5716   0.02126   0.01285   0.0369  0.9819  0.1745  -2.4822   0.0000   0.0000   0.0000   0.3114
  -2.600  -0.5671   0.02060   0.01298   0.0378  0.9781  0.3104  -2.4511   0.0000   0.0000   0.0000   0.3135
  -2.500  -0.5601   0.02031   0.01320   0.0383  0.9743  0.4050  -2.3901   0.0000   0.0000   0.0000   0.3153
  -2.400  -0.4370   0.02094   0.01589   0.0180  0.9779  0.8633  -1.9019   0.0000   0.0000   0.0000   0.2878
  -2.300  -0.3942   0.02259   0.01743   0.0134  0.9763  0.9016  -1.7161   0.0000   0.0000   0.0000   0.2804
  -2.200  -0.3647   0.02347   0.01817   0.0102  0.9740  0.9121  -1.5811   0.0000   0.0000   0.0000   0.2743
  -2.100  -0.3507   0.02412   0.01873   0.0098  0.9708  0.9240  -1.4996   0.0000   0.0000   0.0000   0.2742
  -2.000  -0.3168   0.02485   0.01931   0.0054  0.9691  0.9283  -1.3552   0.0000   0.0000   0.0000   0.2632
  -1.900  -0.2833   0.02552   0.01986   0.0011  0.9676  0.9324  -1.2158   0.0000   0.0000   0.0000   0.2498
  -1.800  -0.2525   0.02616   0.02037  -0.0028  0.9661  0.9368  -1.0904   0.0000   0.0000   0.0000   0.2347
  -1.700  -0.2238   0.02680   0.02092  -0.0063  0.9647  0.9417  -0.9849   0.0000   0.0000   0.0000   0.2173
  -1.600  -0.1973   0.02750   0.02153  -0.0095  0.9633  0.9469  -0.8875   0.0000   0.0000   0.0000   0.1974
  -1.500  -0.1726   0.02837   0.02231  -0.0122  0.9617  0.9524  -0.7969   0.0000   0.0000   0.0000   0.1740
  -1.300  -0.1374   0.02864   0.02246  -0.0151  0.9557  0.9627  -0.6567   0.0000   0.0000   0.0000   0.1344
  -1.200  -0.1132   0.02841   0.02216  -0.0180  0.9535  0.9665  -0.5797   0.0000   0.0000   0.0000   0.0848
  -1.100  -0.0891   0.02832   0.02202  -0.0209  0.9513  0.9708  -0.5075   0.0000   0.0000   0.0000   0.0085
  -1.000  -0.0656   0.02832   0.02197  -0.0236  0.9492  0.9754  -0.4517   0.0000   0.0000   0.0000  -0.1194
  -0.900  -0.0422   0.02838   0.02196  -0.0264  0.9471  0.9804  -0.4282   0.0000   0.0000   0.0000  -0.3891
  -0.800  -0.0186   0.02848   0.02202  -0.0292  0.9453  0.9854  -0.4056   0.0000   0.0000   0.0000  -1.3468
  -0.700   0.0062   0.02864   0.02214  -0.0322  0.9437  0.9905  -0.3822   0.0000   0.0000   0.0000   5.5380
  -0.600   0.0344   0.02889   0.02235  -0.0359  0.9425  0.9957  -0.3578   0.0000   0.0000   0.0000   1.3044
  -0.500   0.0649   0.02920   0.02262  -0.0400  0.9415  1.0000  -0.3421   0.0000   0.0000   0.0000   0.8701
  -0.400   0.0754   0.02908   0.02247  -0.0404  0.9384  1.0000  -0.3469   0.0000   0.0000   0.0000   0.7885
  -0.300   0.0879   0.02901   0.02237  -0.0411  0.9355  1.0000  -0.3527   0.0000   0.0000   0.0000   0.7200
  -0.200   0.1020   0.02898   0.02232  -0.0421  0.9331  1.0000  -0.3593   0.0000   0.0000   0.0000   0.6646
  -0.100   0.1174   0.02900   0.02232  -0.0434  0.9309  1.0000  -0.3665   0.0000   0.0000   0.0000   0.6204
   0.000   0.1338   0.02909   0.02238  -0.0448  0.9290  1.0000  -0.3742   0.0000   0.0000   0.0000   0.5852
   0.100   0.1511   0.02924   0.02251  -0.0464  0.9274  1.0000  -0.3824   0.0000   0.0000   0.0000   0.5569
   0.200   0.1691   0.02949   0.02273  -0.0481  0.9260  1.0000  -0.3912   0.0000   0.0000   0.0000   0.5339
   0.300   0.1881   0.02988   0.02311  -0.0499  0.9247  1.0000  -0.4004   0.0000   0.0000   0.0000   0.5149
   0.400   0.1570   0.02869   0.02192  -0.0425  0.9135  1.0000  -0.3855   0.0000   0.0000   0.0000   0.5200
   0.500   0.1640   0.02857   0.02179  -0.0421  0.9094  1.0000  -0.3927   0.0000   0.0000   0.0000   0.5057
   0.600   0.1745   0.02851   0.02171  -0.0423  0.9061  1.0000  -0.4028   0.0000   0.0000   0.0000   0.4913
   0.700   0.1871   0.02847   0.02167  -0.0429  0.9034  1.0000  -0.4142   0.0000   0.0000   0.0000   0.4779
   0.800   0.2013   0.02847   0.02165  -0.0438  0.9012  1.0000  -0.4271   0.0000   0.0000   0.0000   0.4658
   0.900   0.2168   0.02849   0.02166  -0.0449  0.8992  1.0000  -0.4410   0.0000   0.0000   0.0000   0.4552
   1.000   0.2333   0.02852   0.02169  -0.0461  0.8976  1.0000  -0.4557   0.0000   0.0000   0.0000   0.4458
   1.100   0.2509   0.02858   0.02175  -0.0476  0.8961  1.0000  -0.4712   0.0000   0.0000   0.0000   0.4376
   1.200   0.2695   0.02868   0.02185  -0.0492  0.8949  1.0000  -0.4878   0.0000   0.0000   0.0000   0.4304
   1.300   0.2890   0.02885   0.02202  -0.0510  0.8938  1.0000  -0.5055   0.0000   0.0000   0.0000   0.4242
   1.400   0.2543   0.02832   0.02148  -0.0429  0.8805  1.0000  -0.4867   0.0000   0.0000   0.0000   0.4163
   1.500   0.2644   0.02827   0.02143  -0.0430  0.8771  1.0000  -0.4982   0.0000   0.0000   0.0000   0.4099
   1.600   0.2773   0.02823   0.02140  -0.0435  0.8744  1.0000  -0.5116   0.0000   0.0000   0.0000   0.4041
   1.700   0.2921   0.02820   0.02137  -0.0443  0.8723  1.0000  -0.5264   0.0000   0.0000   0.0000   0.3989
   1.800   0.3085   0.02816   0.02134  -0.0455  0.8704  1.0000  -0.5424   0.0000   0.0000   0.0000   0.3944
   1.900   0.3259   0.02812   0.02132  -0.0467  0.8688  1.0000  -0.5602   0.0000   0.0000   0.0000   0.3903
   2.000   0.3445   0.02809   0.02130  -0.0482  0.8675  1.0000  -0.5788   0.0000   0.0000   0.0000   0.3868
   2.100   0.3646   0.02807   0.02131  -0.0499  0.8663  1.0000  -0.5987   0.0000   0.0000   0.0000   0.3838
   2.300   0.3508   0.02787   0.02110  -0.0437  0.8501  1.0000  -0.5991   0.0000   0.0000   0.0000   0.3711
   2.400   0.3703   0.02758   0.02083  -0.0450  0.8469  1.0000  -0.6192   0.0000   0.0000   0.0000   0.3682
   2.500   0.3947   0.02717   0.02045  -0.0471  0.8442  1.0000  -0.6445   0.0000   0.0000   0.0000   0.3659
   2.600   0.4231   0.02667   0.01998  -0.0498  0.8421  1.0000  -0.6731   0.0000   0.0000   0.0000   0.3643
   2.700   0.4522   0.02616   0.01953  -0.0527  0.8406  1.0000  -0.7025   0.0000   0.0000   0.0000   0.3630
   2.800   0.4777   0.02575   0.01916  -0.0550  0.8392  1.0000  -0.7301   0.0000   0.0000   0.0000   0.3616
   3.000   0.4598   0.02587   0.01928  -0.0480  0.8223  1.0000  -0.7283   0.0000   0.0000   0.0000   0.3505
   3.100   0.4775   0.02559   0.01903  -0.0490  0.8200  1.0000  -0.7499   0.0000   0.0000   0.0000   0.3487
   3.200   0.4969   0.02528   0.01876  -0.0503  0.8182  1.0000  -0.8038   0.0000   0.0000   0.0000   0.3473
   3.300   0.5168   0.02494   0.01847  -0.0516  0.8166  1.0000  -0.8714   0.0000   0.0000   0.0000   0.3459
   3.400   0.5376   0.02457   0.01818  -0.0532  0.8152  1.0000  -0.9509   0.0000   0.0000   0.0000   0.3448
   3.500   0.5593   0.02418   0.01784  -0.0548  0.8140  1.0000  -1.0342   0.0000   0.0000   0.0000   0.3439
   3.600   0.5801   0.02378   0.01751  -0.0563  0.8127  1.0000  -1.1169   0.0000   0.0000   0.0000   0.3429
   3.800   0.5632   0.02406   0.01779  -0.0493  0.7952  1.0000  -1.1282   0.0000   0.0000   0.0000   0.3332
   3.900   0.5823   0.02364   0.01743  -0.0504  0.7932  1.0000  -1.2082   0.0000   0.0000   0.0000   0.3321
   4.000   0.6027   0.02317   0.01703  -0.0517  0.7915  1.0000  -1.2932   0.0000   0.0000   0.0000   0.3313
   4.100   0.6247   0.02263   0.01657  -0.0532  0.7901  1.0000  -1.3936   0.0000   0.0000   0.0000   0.3307
   4.200   0.6476   0.02204   0.01608  -0.0549  0.7889  1.0000  -1.4998   0.0000   0.0000   0.0000   0.3301
   4.300   0.6711   0.02141   0.01553  -0.0566  0.7879  1.0000  -1.6099   0.0000   0.0000   0.0000   0.3297
   4.500   0.6559   0.02175   0.01589  -0.0497  0.7696  1.0000  -1.6302   0.0000   0.0000   0.0000   0.3209
   4.600   0.6763   0.02110   0.01533  -0.0508  0.7674  1.0000  -1.7328   0.0000   0.0000   0.0000   0.3202
   4.700   0.6983   0.02041   0.01473  -0.0521  0.7655  1.0000  -1.8424   0.0000   0.0000   0.0000   0.3196
   4.800   0.7239   0.01964   0.01406  -0.0540  0.7634  1.0000  -1.9654   0.0000   0.0000   0.0000   0.3196
   4.900   0.7109   0.01996   0.01439  -0.0497  0.7531  1.0000  -1.9583   0.0000   0.0000   0.0000   0.3147
   5.000   0.7216   0.01953   0.01403  -0.0490  0.7462  1.0000  -2.0323   0.0000   0.0000   0.0000   0.3126
   5.100   0.7647   0.01769   0.01230  -0.0529  0.7341  1.0000  -2.2338   0.0000   0.0000   0.0000   0.3139
   5.200   0.7578   0.01775   0.01237  -0.0493  0.7212  1.0000  -2.2505   0.0000   0.0000   0.0000   0.3096
   5.300   0.8459   0.01550   0.00982  -0.0610  0.6233  1.0000  -2.6446   0.0000   0.0000   0.0000   0.3167
   5.400   0.8622   0.01554   0.00958  -0.0616  0.5680  1.0000  -2.7529   0.0000   0.0000   0.0000   0.3158
   5.500   0.8652   0.01575   0.00960  -0.0598  0.5275  1.0000  -2.8084   0.0000   0.0000   0.0000   0.3134
   5.600   0.8637   0.01602   0.00967  -0.0572  0.4895  1.0000  -2.8462   0.0000   0.0000   0.0000   0.3105
   5.700   0.8597   0.01631   0.00976  -0.0542  0.4540  1.0000  -2.8737   0.0000   0.0000   0.0000   0.3072
   5.800   0.8536   0.01661   0.00987  -0.0508  0.4229  1.0000  -2.8930   0.0000   0.0000   0.0000   0.3035
   5.900   0.8469   0.01691   0.01000  -0.0474  0.3944  1.0000  -2.9098   0.0000   0.0000   0.0000   0.2998
   6.000   0.8406   0.01723   0.01014  -0.0441  0.3657  1.0000  -2.9270   0.0000   0.0000   0.0000   0.2962
   6.100   0.8344   0.01759   0.01032  -0.0408  0.3381  1.0000  -2.9444   0.0000   0.0000   0.0000   0.2926
   6.200   0.8286   0.01797   0.01052  -0.0378  0.3111  1.0000  -2.9620   0.0000   0.0000   0.0000   0.2891
   6.300   0.8235   0.01837   0.01074  -0.0348  0.2818  1.0000  -2.9803   0.0000   0.0000   0.0000   0.2857
   6.400   0.8178   0.01882   0.01099  -0.0318  0.2517  1.0000  -2.9948   0.0000   0.0000   0.0000   0.2822
   6.500   0.8119   0.01934   0.01128  -0.0289  0.2140  1.0000  -3.0044   0.0000   0.0000   0.0000   0.2787
   6.600   0.8046   0.01999   0.01160  -0.0258  0.1656  1.0000  -3.0038   0.0000   0.0000   0.0000   0.2751
   6.700   0.7973   0.02073   0.01198  -0.0227  0.1193  1.0000  -2.9982   0.0000   0.0000   0.0000   0.2714
   6.800   0.7928   0.02140   0.01239  -0.0201  0.0975  1.0000  -3.0014   0.0000   0.0000   0.0000   0.2681
   6.900   0.7908   0.02194   0.01279  -0.0178  0.0869  1.0000  -3.0153   0.0000   0.0000   0.0000   0.2652
   7.000   0.7910   0.02236   0.01318  -0.0159  0.0796  1.0000  -3.0377   0.0000   0.0000   0.0000   0.2627
   7.100   0.7907   0.02281   0.01358  -0.0140  0.0748  1.0000  -3.0647   0.0000   0.0000   0.0000   0.2602
   7.200   0.7922   0.02317   0.01395  -0.0124  0.0704  1.0000  -3.1028   0.0000   0.0000   0.0000   0.2580
   7.300   0.7921   0.02362   0.01436  -0.0106  0.0674  1.0000  -3.1385   0.0000   0.0000   0.0000   0.2556
   7.400   0.7930   0.02403   0.01478  -0.0089  0.0649  1.0000  -3.1727   0.0000   0.0000   0.0000   0.2533
   7.500   0.7950   0.02441   0.01518  -0.0073  0.0627  1.0000  -3.2106   0.0000   0.0000   0.0000   0.2512
   7.600   0.7969   0.02480   0.01558  -0.0058  0.0608  1.0000  -3.2503   0.0000   0.0000   0.0000   0.2492
   7.700   0.7988   0.02524   0.01600  -0.0043  0.0592  1.0000  -3.2914   0.0000   0.0000   0.0000   0.2472
   7.800   0.8006   0.02579   0.01650  -0.0029  0.0578  1.0000  -3.3309   0.0000   0.0000   0.0000   0.2453
   7.900   0.8051   0.02633   0.01702  -0.0018  0.0565  1.0000  -3.3740   0.0000   0.0000   0.0000   0.2438
   8.000   0.8113   0.02674   0.01747  -0.0010  0.0551  1.0000  -3.4238   0.0000   0.0000   0.0000   0.2426
   8.100   0.8179   0.02716   0.01794  -0.0002  0.0535  1.0000  -3.4779   0.0000   0.0000   0.0000   0.2416
   8.200   0.8248   0.02761   0.01838   0.0005  0.0517  1.0000  -3.5378   0.0000   0.0000   0.0000   0.2407
   8.300   0.8333   0.02816   0.01887   0.0008  0.0500  1.0000  -3.6079   0.0000   0.0000   0.0000   0.2402
   8.400   0.8534   0.02920   0.01983  -0.0008  0.0480  1.0000  -3.7027   0.0000   0.0000   0.0000   0.2420
   8.500   0.8677   0.02982   0.02052  -0.0012  0.0471  1.0000  -3.7703   0.0000   0.0000   0.0000   0.2423
   8.600   0.8870   0.03065   0.02142  -0.0024  0.0462  1.0000  -3.8486   0.0000   0.0000   0.0000   0.2436
   8.700   0.9102   0.03170   0.02256  -0.0044  0.0453  1.0000  -3.9335   0.0000   0.0000   0.0000   0.2456
   8.800   0.9367   0.03302   0.02399  -0.0070  0.0446  1.0000  -4.0339   0.0000   0.0000   0.0000   0.2482
   8.900   0.9587   0.03424   0.02531  -0.0090  0.0436  1.0000  -4.1401   0.0000   0.0000   0.0000   0.2501
   9.000   0.9778   0.03534   0.02646  -0.0107  0.0425  1.0000  -4.2537   0.0000   0.0000   0.0000   0.2515
   9.100   0.9963   0.03675   0.02788  -0.0124  0.0413  1.0000  -4.3662   0.0000   0.0000   0.0000   0.2529
   9.200   1.0196   0.03919   0.03042  -0.0150  0.0406  1.0000  -4.4552   0.0000   0.0000   0.0000   0.2551
   9.300   1.0267   0.04025   0.03161  -0.0143  0.0406  1.0000  -4.4961   0.0000   0.0000   0.0000   0.2543
   9.400   1.0316   0.04112   0.03262  -0.0132  0.0407  1.0000  -4.5311   0.0000   0.0000   0.0000   0.2530
   9.500   1.0350   0.04186   0.03349  -0.0118  0.0408  1.0000  -4.5611   0.0000   0.0000   0.0000   0.2515
   9.600   1.0370   0.04250   0.03427  -0.0102  0.0410  1.0000  -4.5841   0.0000   0.0000   0.0000   0.2498
   9.700   1.0372   0.04310   0.03504  -0.0081  0.0413  1.0000  -4.5945   0.0000   0.0000   0.0000   0.2477
   9.800   1.0328   0.04371   0.03587  -0.0053  0.0418  1.0000  -4.5747   0.0000   0.0000   0.0000   0.2449
   9.900   1.0245   0.04454   0.03699  -0.0019  0.0426  1.0000  -4.5217   0.0000   0.0000   0.0000   0.2415
  10.000   1.0194   0.04576   0.03845   0.0009  0.0434  1.0000  -4.4767   0.0000   0.0000   0.0000   0.2387
  10.100   1.0158   0.04703   0.03992   0.0032  0.0442  1.0000  -4.4481   0.0000   0.0000   0.0000   0.2363
  10.200   1.0130   0.04829   0.04133   0.0053  0.0450  1.0000  -4.4306   0.0000   0.0000   0.0000   0.2341
  10.300   1.0108   0.04956   0.04272   0.0073  0.0457  1.0000  -4.4211   0.0000   0.0000   0.0000   0.2321
  10.400   1.0096   0.05091   0.04417   0.0089  0.0463  1.0000  -4.4184   0.0000   0.0000   0.0000   0.2303
  10.500   1.0110   0.05254   0.04588   0.0100  0.0471  1.0000  -4.4254   0.0000   0.0000   0.0000   0.2292
  10.600   0.9938   0.05493   0.04842   0.0117  0.0482  1.0000  -4.3605   0.0000   0.0000   0.0000   0.2276
  10.700   1.0073   0.05473   0.04832   0.0140  0.0498  1.0000  -4.3958   0.0000   0.0000   0.0000   0.2250
  10.800   0.9798   0.05509   0.04895   0.0200  0.0511  1.0000  -4.2622   0.0000   0.0000   0.0000   0.2184
  10.900   0.9642   0.05644   0.05049   0.0234  0.0527  1.0000  -4.1774   0.0000   0.0000   0.0000   0.2143
  11.000   0.9556   0.05789   0.05205   0.0257  0.0540  1.0000  -4.1369   0.0000   0.0000   0.0000   0.2117
  11.100   0.9468   0.06030   0.05470   0.0281  0.0598  1.0000  -4.0144   0.0000   0.0000   0.0000   0.2087
  11.200   0.9258   0.06169   0.05628   0.0315  0.0614  1.0000  -3.9152   0.0000   0.0000   0.0000   0.2043
  11.400   0.8809   0.06341   0.05820   0.0367  0.0605  1.0000  -3.8245   0.0000   0.0000   0.0000   0.1967
  11.500   0.8650   0.06505   0.05995   0.0386  0.0614  1.0000  -3.7600   0.0000   0.0000   0.0000   0.1935
  11.600   0.8523   0.06685   0.06184   0.0401  0.0626  1.0000  -3.7085   0.0000   0.0000   0.0000   0.1910
  11.700   0.8278   0.07053   0.06576   0.0418  0.0703  1.0000  -3.5183   0.0000   0.0000   0.0000   0.1874
  11.800   0.8134   0.07234   0.06764   0.0428  0.0708  1.0000  -3.4688   0.0000   0.0000   0.0000   0.1852
  11.900   0.7998   0.07423   0.06960   0.0435  0.0712  1.0000  -3.4221   0.0000   0.0000   0.0000   0.1833
  12.000   0.7866   0.07621   0.07164   0.0439  0.0716  1.0000  -3.3771   0.0000   0.0000   0.0000   0.1817
  12.100   0.7739   0.07827   0.07375   0.0440  0.0719  1.0000  -3.3336   0.0000   0.0000   0.0000   0.1804
  12.200   0.7613   0.08039   0.07591   0.0439  0.0719  1.0000  -3.2911   0.0000   0.0000   0.0000   0.1793
  12.300   0.7487   0.08260   0.07817   0.0436  0.0718  1.0000  -3.2482   0.0000   0.0000   0.0000   0.1786
  12.400   0.7361   0.08496   0.08056   0.0430  0.0715  1.0000  -3.2035   0.0000   0.0000   0.0000   0.1783
  12.500   0.7235   0.08751   0.08313   0.0421  0.0713  1.0000  -3.1550   0.0000   0.0000   0.0000   0.1783
  12.600   0.7107   0.09032   0.08597   0.0409  0.0710  1.0000  -3.1006   0.0000   0.0000   0.0000   0.1788
  12.700   0.6973   0.09349   0.08916   0.0392  0.0708  1.0000  -3.0362   0.0000   0.0000   0.0000   0.1798
  12.800   0.6824   0.09732   0.09301   0.0370  0.0707  1.0000  -2.9513   0.0000   0.0000   0.0000   0.1817
  12.900   0.6631   0.10280   0.09850   0.0335  0.0712  1.0000  -2.8102   0.0000   0.0000   0.0000   0.1853
  13.400   0.5768   0.13474   0.13026   0.0158  0.1161  1.0000  -1.8546   0.0000   0.0000   0.0000   0.2088
  13.500   0.5794   0.13586   0.13139   0.0161  0.1143  1.0000  -1.8750   0.0000   0.0000   0.0000   0.2084
  13.600   0.5887   0.13631   0.13187   0.0174  0.1127  1.0000  -1.9397   0.0000   0.0000   0.0000   0.2066
  13.700   0.5995   0.13695   0.13254   0.0189  0.1118  1.0000  -2.0095   0.0000   0.0000   0.0000   0.2045
  13.800   0.6137   0.13781   0.13344   0.0209  0.1111  1.0000  -2.0962   0.0000   0.0000   0.0000   0.2019
  13.900   0.6095   0.14040   0.13600   0.0203  0.1105  1.0000  -2.0667   0.0000   0.0000   0.0000   0.2027
  14.000   0.5691   0.14462   0.14011   0.0142  0.1080  1.0000  -1.8158   0.0000   0.0000   0.0000   0.2108
  14.100   0.5629   0.14652   0.14200   0.0132  0.1059  1.0000  -1.7772   0.0000   0.0000   0.0000   0.2122
  14.200   0.5613   0.14801   0.14348   0.0129  0.1042  1.0000  -1.7685   0.0000   0.0000   0.0000   0.2127
  14.300   0.5618   0.14928   0.14477   0.0128  0.1027  1.0000  -1.7742   0.0000   0.0000   0.0000   0.2127
  14.400   0.5641   0.15044   0.14593   0.0131  0.1016  1.0000  -1.7910   0.0000   0.0000   0.0000   0.2123
  14.500   0.5688   0.15144   0.14695   0.0136  0.1006  1.0000  -1.8237   0.0000   0.0000   0.0000   0.2114
  14.600   0.5776   0.15231   0.14784   0.0148  0.0997  1.0000  -1.8819   0.0000   0.0000   0.0000   0.2097
  14.700   0.6015   0.15326   0.14885   0.0181  0.0987  1.0000  -2.0335   0.0000   0.0000   0.0000   0.2050
  14.800   0.5872   0.15567   0.15121   0.0161  0.0984  1.0000  -1.9388   0.0000   0.0000   0.0000   0.2078
  14.900   0.5645   0.15801   0.15350   0.0129  0.0977  1.0000  -1.7906   0.0000   0.0000   0.0000   0.2123
  15.000   0.5487   0.15985   0.15531   0.0107  0.0956  1.0000  -1.6890   0.0000   0.0000   0.0000   0.2155
  15.100   0.5444   0.16121   0.15666   0.0102  0.0939  1.0000  -1.6620   0.0000   0.0000   0.0000   0.2164
  15.200   0.5428   0.16240   0.15785   0.0099  0.0925  1.0000  -1.6530   0.0000   0.0000   0.0000   0.2167
  15.300   0.5430   0.16348   0.15894   0.0099  0.0912  1.0000  -1.6560   0.0000   0.0000   0.0000   0.2167
  15.400   0.5453   0.16449   0.15995   0.0101  0.0900  1.0000  -1.6726   0.0000   0.0000   0.0000   0.2163
  15.500   0.5507   0.16544   0.16092   0.0107  0.0890  1.0000  -1.7094   0.0000   0.0000   0.0000   0.2153
  15.600   0.5626   0.16646   0.16197   0.0122  0.0880  1.0000  -1.7886   0.0000   0.0000   0.0000   0.2131
  15.700   0.5776   0.16846   0.16398   0.0141  0.0872  1.0000  -1.8815   0.0000   0.0000   0.0000   0.2102
  15.800   0.5640   0.16982   0.16531   0.0123  0.0870  1.0000  -1.7885   0.0000   0.0000   0.0000   0.2128
  15.900   0.5480   0.17087   0.16634   0.0103  0.0865  1.0000  -1.6813   0.0000   0.0000   0.0000   0.2158
  16.000   0.5338   0.17153   0.16697   0.0087  0.0853  1.0000  -1.5903   0.0000   0.0000   0.0000   0.2184
  16.100   0.5277   0.17233   0.16777   0.0079  0.0838  1.0000  -1.5493   0.0000   0.0000   0.0000   0.2196
  16.200   0.5252   0.17314   0.16858   0.0076  0.0824  1.0000  -1.5317   0.0000   0.0000   0.0000   0.2202
  16.300   0.5244   0.17393   0.16938   0.0074  0.0811  1.0000  -1.5255   0.0000   0.0000   0.0000   0.2205
  16.400   0.5251   0.17471   0.17016   0.0073  0.0799  1.0000  -1.5292   0.0000   0.0000   0.0000   0.2206
  16.500   0.5276   0.17550   0.17095   0.0074  0.0789  1.0000  -1.5458   0.0000   0.0000   0.0000   0.2204
  16.600   0.5375   0.17683   0.17231   0.0083  0.0776  1.0000  -1.6110   0.0000   0.0000   0.0000   0.2188
  16.700   0.5564   0.17973   0.17522   0.0103  0.0764  1.0000  -1.7392   0.0000   0.0000   0.0000   0.2156
  16.800   0.5464   0.18017   0.17565   0.0088  0.0762  1.0000  -1.6603   0.0000   0.0000   0.0000   0.2181
  16.900   0.5357   0.17987   0.17534   0.0071  0.0759  1.0000  -1.5768   0.0000   0.0000   0.0000   0.2211
  17.000   0.5259   0.17956   0.17501   0.0053  0.0752  1.0000  -1.4971   0.0000   0.0000   0.0000   0.2243
  17.100   0.5212   0.17997   0.17542   0.0039  0.0737  1.0000  -1.4505   0.0000   0.0000   0.0000   0.2268
  17.200   0.5205   0.18071   0.17617   0.0031  0.0721  1.0000  -1.4371   0.0000   0.0000   0.0000   0.2283
  17.300   0.5216   0.18150   0.17697   0.0026  0.0706  1.0000  -1.4408   0.0000   0.0000   0.0000   0.2292
  17.400   0.5246   0.18232   0.17780   0.0023  0.0692  1.0000  -1.4624   0.0000   0.0000   0.0000   0.2297
  17.500   0.5315   0.18340   0.17889   0.0027  0.0678  1.0000  -1.5205   0.0000   0.0000   0.0000   0.2289
  17.600   0.5577   0.18794   0.18347   0.0059  0.0665  1.0000  -1.7260   0.0000   0.0000   0.0000   0.2232
  17.700   0.5508   0.18817   0.18370   0.0040  0.0664  1.0000  -1.6526   0.0000   0.0000   0.0000   0.2266
  17.800   0.5427   0.18812   0.18363   0.0019  0.0661  1.0000  -1.5723   0.0000   0.0000   0.0000   0.2304
  17.900   0.5346   0.18807   0.18357  -0.0003  0.0657  1.0000  -1.4898   0.0000   0.0000   0.0000   0.2344
  18.000   0.5299   0.18863   0.18413  -0.0021  0.0646  1.0000  -1.4295   0.0000   0.0000   0.0000   0.2379
  18.100   0.5295   0.18959   0.18509  -0.0032  0.0633  1.0000  -1.4065   0.0000   0.0000   0.0000   0.2400
  18.200   0.5305   0.19061   0.18612  -0.0041  0.0621  1.0000  -1.3990   0.0000   0.0000   0.0000   0.2415
  18.300   0.5323   0.19164   0.18716  -0.0049  0.0610  1.0000  -1.3999   0.0000   0.0000   0.0000   0.2428
  18.400   0.5347   0.19268   0.18820  -0.0055  0.0601  1.0000  -1.4085   0.0000   0.0000   0.0000   0.2439
  18.500   0.5380   0.19374   0.18929  -0.0059  0.0592  1.0000  -1.4270   0.0000   0.0000   0.0000   0.2446
  18.600   0.5430   0.19495   0.19052  -0.0061  0.0584  1.0000  -1.4625   0.0000   0.0000   0.0000   0.2447
  18.700   0.5554   0.19741   0.19301  -0.0051  0.0575  1.0000  -1.5616   0.0000   0.0000   0.0000   0.2424
  18.800   0.6803   0.20155   0.19670  -0.0145  0.0545  1.0000  -1.8510   0.0000   0.0000   0.0000   0.2485
  18.900   0.6819   0.20268   0.19784  -0.0152  0.0535  1.0000  -1.8426   0.0000   0.0000   0.0000   0.2493
  19.000   0.6839   0.20379   0.19895  -0.0158  0.0527  1.0000  -1.8419   0.0000   0.0000   0.0000   0.2499
  19.100   0.6863   0.20487   0.20002  -0.0162  0.0519  1.0000  -1.8471   0.0000   0.0000   0.0000   0.2504
  19.200   0.6890   0.20591   0.20107  -0.0166  0.0511  1.0000  -1.8591   0.0000   0.0000   0.0000   0.2507
  19.300   0.6924   0.20692   0.20209  -0.0168  0.0504  1.0000  -1.8811   0.0000   0.0000   0.0000   0.2507
  19.400   0.6970   0.20799   0.20316  -0.0167  0.0497  1.0000  -1.9214   0.0000   0.0000   0.0000   0.2502
  19.500   0.7196   0.21206   0.20730  -0.0129  0.0485  1.0000  -2.1587   0.0000   0.0000   0.0000   0.2443
  19.600   0.7169   0.21279   0.20801  -0.0145  0.0484  1.0000  -2.0970   0.0000   0.0000   0.0000   0.2463
  19.700   0.7133   0.21324   0.20843  -0.0162  0.0483  1.0000  -2.0309   0.0000   0.0000   0.0000   0.2485
  19.800   0.7094   0.21361   0.20878  -0.0179  0.0481  1.0000  -1.9617   0.0000   0.0000   0.0000   0.2509
  19.900   0.7065   0.21420   0.20935  -0.0197  0.0477  1.0000  -1.8919   0.0000   0.0000   0.0000   0.2533
  20.000   0.7058   0.21514   0.21027  -0.0211  0.0469  1.0000  -1.8427   0.0000   0.0000   0.0000   0.2551
  20.100   0.7070   0.21623   0.21135  -0.0220  0.0459  1.0000  -1.8223   0.0000   0.0000   0.0000   0.2562
  20.200   0.7089   0.21730   0.21243  -0.0227  0.0450  1.0000  -1.8152   0.0000   0.0000   0.0000   0.2569
  20.300   0.7112   0.21835   0.21348  -0.0233  0.0442  1.0000  -1.8148   0.0000   0.0000   0.0000   0.2574
  20.400   0.7136   0.21938   0.21452  -0.0238  0.0435  1.0000  -1.8224   0.0000   0.0000   0.0000   0.2578
  20.500   0.7163   0.22039   0.21553  -0.0242  0.0429  1.0000  -1.8372   0.0000   0.0000   0.0000   0.2582
  20.600   0.7192   0.22139   0.21654  -0.0246  0.0424  1.0000  -1.8573   0.0000   0.0000   0.0000   0.2583
  20.700   0.7225   0.22241   0.21757  -0.0248  0.0419  1.0000  -1.8853   0.0000   0.0000   0.0000   0.2583
  20.800   0.7267   0.22353   0.21869  -0.0249  0.0414  1.0000  -1.9264   0.0000   0.0000   0.0000   0.2580
  20.900   0.7331   0.22513   0.22031  -0.0243  0.0410  1.0000  -1.9989   0.0000   0.0000   0.0000   0.2568
  21.000   0.7470   0.22930   0.22451  -0.0225  0.0405  1.0000  -2.1381   0.0000   0.0000   0.0000   0.2538
  21.100   0.7450   0.22963   0.22482  -0.0239  0.0405  1.0000  -2.0878   0.0000   0.0000   0.0000   0.2555
  21.200   0.7428   0.22987   0.22504  -0.0254  0.0404  1.0000  -2.0345   0.0000   0.0000   0.0000   0.2574
  21.300   0.7409   0.23020   0.22536  -0.0269  0.0403  1.0000  -1.9797   0.0000   0.0000   0.0000   0.2592
  21.400   0.7396   0.23071   0.22585  -0.0284  0.0400  1.0000  -1.9250   0.0000   0.0000   0.0000   0.2611
  21.500   0.7394   0.23147   0.22661  -0.0298  0.0396  1.0000  -1.8790   0.0000   0.0000   0.0000   0.2628
  21.600   0.7406   0.23245   0.22758  -0.0308  0.0390  1.0000  -1.8527   0.0000   0.0000   0.0000   0.2639
  21.700   0.7424   0.23349   0.22862  -0.0316  0.0384  1.0000  -1.8410   0.0000   0.0000   0.0000   0.2647
  21.800   0.7445   0.23453   0.22966  -0.0323  0.0378  1.0000  -1.8365   0.0000   0.0000   0.0000   0.2653
  21.900   0.7467   0.23554   0.23067  -0.0329  0.0373  1.0000  -1.8361   0.0000   0.0000   0.0000   0.2659
  22.000   0.7490   0.23656   0.23169  -0.0335  0.0367  1.0000  -1.8387   0.0000   0.0000   0.0000   0.2664
  22.100   0.7514   0.23755   0.23268  -0.0341  0.0363  1.0000  -1.8439   0.0000   0.0000   0.0000   0.2668
  22.200   0.7539   0.23853   0.23366  -0.0346  0.0358  1.0000  -1.8519   0.0000   0.0000   0.0000   0.2672
  22.300   0.7565   0.23951   0.23465  -0.0351  0.0354  1.0000  -1.8632   0.0000   0.0000   0.0000   0.2675
  22.400   0.7592   0.24048   0.23562  -0.0356  0.0349  1.0000  -1.8784   0.0000   0.0000   0.0000   0.2677
  22.500   0.7621   0.24145   0.23660  -0.0359  0.0346  1.0000  -1.8991   0.0000   0.0000   0.0000   0.2678
  22.600   0.7654   0.24249   0.23765  -0.0362  0.0342  1.0000  -1.9276   0.0000   0.0000   0.0000   0.2677
  22.700   0.7695   0.24375   0.23892  -0.0362  0.0339  1.0000  -1.9715   0.0000   0.0000   0.0000   0.2673
  22.800   0.7778   0.24644   0.24164  -0.0352  0.0335  1.0000  -2.0732   0.0000   0.0000   0.0000   0.2654
  22.900   0.7836   0.24910   0.24430  -0.0350  0.0333  1.0000  -2.1111   0.0000   0.0000   0.0000   0.2648
  23.000   0.7823   0.24915   0.24434  -0.0364  0.0333  1.0000  -2.0610   0.0000   0.0000   0.0000   0.2664
  23.100   0.7812   0.24929   0.24446  -0.0378  0.0332  1.0000  -2.0092   0.0000   0.0000   0.0000   0.2679
  23.200   0.7806   0.24957   0.24473  -0.0392  0.0331  1.0000  -1.9560   0.0000   0.0000   0.0000   0.2696
  23.300   0.7806   0.25008   0.24523  -0.0406  0.0328  1.0000  -1.9045   0.0000   0.0000   0.0000   0.2711
  23.400   0.7816   0.25088   0.24602  -0.0418  0.0324  1.0000  -1.8649   0.0000   0.0000   0.0000   0.2723
  23.500   0.7834   0.25183   0.24697  -0.0427  0.0318  1.0000  -1.8435   0.0000   0.0000   0.0000   0.2732
  23.600   0.7855   0.25280   0.24795  -0.0434  0.0313  1.0000  -1.8332   0.0000   0.0000   0.0000   0.2738
  23.700   0.7877   0.25378   0.24892  -0.0441  0.0308  1.0000  -1.8287   0.0000   0.0000   0.0000   0.2743
  23.800   0.7900   0.25472   0.24986  -0.0448  0.0303  1.0000  -1.8275   0.0000   0.0000   0.0000   0.2748
  23.900   0.7924   0.25566   0.25082  -0.0454  0.0298  1.0000  -1.8289   0.0000   0.0000   0.0000   0.2752
  24.000   0.7947   0.25660   0.25175  -0.0460  0.0294  1.0000  -1.8324   0.0000   0.0000   0.0000   0.2755
  24.100   0.7971   0.25752   0.25268  -0.0466  0.0290  1.0000  -1.8376   0.0000   0.0000   0.0000   0.2759
  24.200   0.7996   0.25845   0.25361  -0.0471  0.0287  1.0000  -1.8450   0.0000   0.0000   0.0000   0.2762
  24.300   0.8021   0.25936   0.25453  -0.0477  0.0284  1.0000  -1.8552   0.0000   0.0000   0.0000   0.2764
  24.400   0.8046   0.26028   0.25545  -0.0481  0.0281  1.0000  -1.8689   0.0000   0.0000   0.0000   0.2766
  24.500   0.8073   0.26122   0.25639  -0.0486  0.0278  1.0000  -1.8876   0.0000   0.0000   0.0000   0.2767
  24.600   0.8103   0.26224   0.25742  -0.0489  0.0276  1.0000  -1.9133   0.0000   0.0000   0.0000   0.2767
  24.700   0.8138   0.26349   0.25868  -0.0490  0.0273  1.0000  -1.9511   0.0000   0.0000   0.0000   0.2764
  24.800   0.8192   0.26561   0.26082  -0.0486  0.0271  1.0000  -2.0177   0.0000   0.0000   0.0000   0.2754
  24.900   0.8258   0.26887   0.26408  -0.0481  0.0269  1.0000  -2.0856   0.0000   0.0000   0.0000   0.2742
  25.000   0.8258   0.26900   0.26421  -0.0493  0.0269  1.0000  -2.0520   0.0000   0.0000   0.0000   0.2754
  25.100   0.8260   0.26921   0.26441  -0.0505  0.0269  1.0000  -2.0183   0.0000   0.0000   0.0000   0.2765
  25.200   0.8263   0.26950   0.26469  -0.0516  0.0268  1.0000  -1.9845   0.0000   0.0000   0.0000   0.2776
  25.300   0.8270   0.26990   0.26508  -0.0528  0.0267  1.0000  -1.9511   0.0000   0.0000   0.0000   0.2788
  25.400   0.8280   0.27043   0.26561  -0.0539  0.0266  1.0000  -1.9191   0.0000   0.0000   0.0000   0.2798
  25.500   0.8293   0.27109   0.26627  -0.0550  0.0264  1.0000  -1.8906   0.0000   0.0000   0.0000   0.2808
  25.600   0.8310   0.27192   0.26709  -0.0560  0.0262  1.0000  -1.8686   0.0000   0.0000   0.0000   0.2816
  25.700   0.8330   0.27280   0.26799  -0.0568  0.0259  1.0000  -1.8544   0.0000   0.0000   0.0000   0.2822
  25.800   0.8351   0.27372   0.26891  -0.0576  0.0256  1.0000  -1.8464   0.0000   0.0000   0.0000   0.2828
  25.900   0.8373   0.27463   0.26983  -0.0583  0.0253  1.0000  -1.8423   0.0000   0.0000   0.0000   0.2832
  26.000   0.8395   0.27552   0.27072  -0.0590  0.0250  1.0000  -1.8407   0.0000   0.0000   0.0000   0.2836
  26.100   0.8417   0.27643   0.27163  -0.0597  0.0246  1.0000  -1.8409   0.0000   0.0000   0.0000   0.2840
  26.200   0.8439   0.27733   0.27254  -0.0604  0.0244  1.0000  -1.8424   0.0000   0.0000   0.0000   0.2844
  26.300   0.8461   0.27822   0.27343  -0.0610  0.0241  1.0000  -1.8449   0.0000   0.0000   0.0000   0.2848
  26.400   0.8483   0.27910   0.27431  -0.0617  0.0238  1.0000  -1.8486   0.0000   0.0000   0.0000   0.2851
  26.500   0.8505   0.27997   0.27518  -0.0623  0.0235  1.0000  -1.8533   0.0000   0.0000   0.0000   0.2855
  26.600   0.8528   0.28082   0.27604  -0.0630  0.0233  1.0000  -1.8593   0.0000   0.0000   0.0000   0.2858
  26.700   0.8550   0.28166   0.27689  -0.0636  0.0230  1.0000  -1.8670   0.0000   0.0000   0.0000   0.2861
  26.800   0.8572   0.28252   0.27775  -0.0642  0.0227  1.0000  -1.8767   0.0000   0.0000   0.0000   0.2864
  26.900   0.8595   0.28336   0.27859  -0.0648  0.0225  1.0000  -1.8890   0.0000   0.0000   0.0000   0.2866
  27.000   0.8617   0.28419   0.27943  -0.0653  0.0223  1.0000  -1.9046   0.0000   0.0000   0.0000   0.2868
  27.100   0.8641   0.28505   0.28029  -0.0658  0.0220  1.0000  -1.9249   0.0000   0.0000   0.0000   0.2869
  27.200   0.8666   0.28598   0.28123  -0.0662  0.0218  1.0000  -1.9519   0.0000   0.0000   0.0000   0.2869
  27.300   0.8694   0.28713   0.28239  -0.0665  0.0216  1.0000  -1.9899   0.0000   0.0000   0.0000   0.2867
  27.400   0.8734   0.28903   0.28431  -0.0663  0.0215  1.0000  -2.0511   0.0000   0.0000   0.0000   0.2860


