xflr5 v6.61

 Calculated polar for: MH 17

 1 1 Reynolds number fixed          Mach number fixed         

 xtrf =   1.000 (top)        1.000 (bottom)
 Mach =   0.000     Re =     0.719 e 6     Ncrit =   9.000

  alpha     CL        CD       CDp       Cm    Top Xtr Bot Xtr   Cpmin    Chinge    XCp    
 ------- -------- --------- --------- -------- ------- ------- -------- --------- ---------
  -9.700  -0.4628   0.06277   0.06068  -0.0774  0.9362  0.0132  -3.1422   0.0000   0.0000   0.0000   0.0735
  -9.600  -0.4708   0.06140   0.05927  -0.0768  0.9322  0.0131  -3.1810   0.0000   0.0000   0.0000   0.0780
  -9.500  -0.4787   0.06015   0.05797  -0.0758  0.9285  0.0132  -3.2152   0.0000   0.0000   0.0000   0.0828
  -9.400  -0.4863   0.05899   0.05676  -0.0747  0.9250  0.0132  -3.2457   0.0000   0.0000   0.0000   0.0879
  -9.300  -0.4937   0.05790   0.05562  -0.0733  0.9220  0.0132  -3.2729   0.0000   0.0000   0.0000   0.0933
  -9.200  -0.5010   0.05686   0.05455  -0.0716  0.9191  0.0133  -3.2976   0.0000   0.0000   0.0000   0.0989
  -9.100  -0.5082   0.05588   0.05352  -0.0698  0.9161  0.0133  -3.3202   0.0000   0.0000   0.0000   0.1047
  -9.000  -0.5150   0.05493   0.05253  -0.0679  0.9134  0.0134  -3.3411   0.0000   0.0000   0.0000   0.1104
  -8.900  -0.5211   0.05399   0.05153  -0.0660  0.9110  0.0135  -3.3609   0.0000   0.0000   0.0000   0.1157
  -8.800  -0.5250   0.05286   0.05034  -0.0645  0.9088  0.0137  -3.3785   0.0000   0.0000   0.0000   0.1195
  -8.700  -0.5280   0.05167   0.04908  -0.0632  0.9068  0.0139  -3.3970   0.0000   0.0000   0.0000   0.1229
  -8.600  -0.5300   0.05041   0.04776  -0.0618  0.9050  0.0141  -3.4194   0.0000   0.0000   0.0000   0.1261
  -8.500  -0.5302   0.04910   0.04637  -0.0604  0.9032  0.0146  -3.4539   0.0000   0.0000   0.0000   0.1287
  -8.400  -0.5201   0.04863   0.04580  -0.0597  0.9019  0.0153  -3.4427   0.0000   0.0000   0.0000   0.1279
  -8.300  -0.5193   0.04781   0.04491  -0.0583  0.9001  0.0154  -3.4380   0.0000   0.0000   0.0000   0.1304
  -8.200  -0.5199   0.04686   0.04388  -0.0569  0.8983  0.0154  -3.4376   0.0000   0.0000   0.0000   0.1334
  -8.100  -0.5205   0.04588   0.04282  -0.0554  0.8966  0.0155  -3.4371   0.0000   0.0000   0.0000   0.1364
  -8.000  -0.5210   0.04489   0.04173  -0.0539  0.8950  0.0155  -3.4355   0.0000   0.0000   0.0000   0.1394
  -7.900  -0.5214   0.04390   0.04066  -0.0524  0.8934  0.0155  -3.4321   0.0000   0.0000   0.0000   0.1424
  -7.800  -0.5213   0.04291   0.03957  -0.0510  0.8917  0.0155  -3.4272   0.0000   0.0000   0.0000   0.1453
  -7.700  -0.5208   0.04186   0.03844  -0.0496  0.8904  0.0155  -3.4202   0.0000   0.0000   0.0000   0.1478
  -7.600  -0.5200   0.04082   0.03731  -0.0483  0.8889  0.0155  -3.4113   0.0000   0.0000   0.0000   0.1504
  -7.500  -0.5189   0.03979   0.03617  -0.0469  0.8873  0.0156  -3.4013   0.0000   0.0000   0.0000   0.1529
  -7.400  -0.5175   0.03876   0.03505  -0.0455  0.8858  0.0156  -3.3882   0.0000   0.0000   0.0000   0.1554
  -7.300  -0.5157   0.03773   0.03393  -0.0442  0.8842  0.0156  -3.3734   0.0000   0.0000   0.0000   0.1577
  -7.200  -0.5137   0.03671   0.03281  -0.0429  0.8827  0.0156  -3.3568   0.0000   0.0000   0.0000   0.1601
  -7.100  -0.5113   0.03570   0.03169  -0.0415  0.8813  0.0156  -3.3383   0.0000   0.0000   0.0000   0.1623
  -7.000  -0.5086   0.03470   0.03058  -0.0402  0.8800  0.0156  -3.3222   0.0000   0.0000   0.0000   0.1645
  -6.700  -0.5300   0.02125   0.01598  -0.0304  0.8753  0.0114  -4.4948   0.0000   0.0000   0.0000   0.1862
  -6.600  -0.5220   0.02057   0.01521  -0.0299  0.8742  0.0115  -4.4494   0.0000   0.0000   0.0000   0.1863
  -6.500  -0.5137   0.02006   0.01464  -0.0295  0.8731  0.0117  -4.3804   0.0000   0.0000   0.0000   0.1863
  -6.400  -0.5050   0.01960   0.01413  -0.0291  0.8720  0.0119  -4.3060   0.0000   0.0000   0.0000   0.1861
  -6.300  -0.4961   0.01918   0.01367  -0.0288  0.8708  0.0121  -4.2264   0.0000   0.0000   0.0000   0.1858
  -6.200  -0.4869   0.01876   0.01320  -0.0284  0.8696  0.0123  -4.1481   0.0000   0.0000   0.0000   0.1854
  -6.100  -0.4776   0.01831   0.01269  -0.0281  0.8685  0.0124  -4.0744   0.0000   0.0000   0.0000   0.1849
  -6.000  -0.4680   0.01784   0.01216  -0.0279  0.8674  0.0126  -4.0029   0.0000   0.0000   0.0000   0.1843
  -5.900  -0.4582   0.01736   0.01162  -0.0276  0.8663  0.0128  -3.9318   0.0000   0.0000   0.0000   0.1836
  -5.800  -0.4482   0.01688   0.01109  -0.0274  0.8652  0.0129  -3.8597   0.0000   0.0000   0.0000   0.1827
  -5.700  -0.4381   0.01642   0.01056  -0.0272  0.8642  0.0131  -3.7860   0.0000   0.0000   0.0000   0.1818
  -5.600  -0.4279   0.01597   0.01006  -0.0270  0.8633  0.0132  -3.7106   0.0000   0.0000   0.0000   0.1807
  -5.500  -0.4177   0.01554   0.00959  -0.0269  0.8623  0.0133  -3.6337   0.0000   0.0000   0.0000   0.1796
  -5.400  -0.4076   0.01514   0.00914  -0.0267  0.8614  0.0135  -3.5554   0.0000   0.0000   0.0000   0.1785
  -5.300  -0.3977   0.01486   0.00882  -0.0265  0.8604  0.0137  -3.4661   0.0000   0.0000   0.0000   0.1775
  -5.200  -0.3879   0.01464   0.00857  -0.0263  0.8593  0.0140  -3.3718   0.0000   0.0000   0.0000   0.1763
  -5.100  -0.3779   0.01441   0.00831  -0.0261  0.8583  0.0144  -3.2784   0.0000   0.0000   0.0000   0.1750
  -5.000  -0.3679   0.01416   0.00804  -0.0259  0.8572  0.0147  -3.1878   0.0000   0.0000   0.0000   0.1737
  -4.900  -0.3581   0.01390   0.00775  -0.0256  0.8560  0.0149  -3.1022   0.0000   0.0000   0.0000   0.1725
  -4.800  -0.3485   0.01359   0.00742  -0.0254  0.8548  0.0151  -3.0232   0.0000   0.0000   0.0000   0.1713
  -4.700  -0.3391   0.01332   0.00712  -0.0250  0.8535  0.0152  -2.9441   0.0000   0.0000   0.0000   0.1703
  -4.600  -0.3296   0.01310   0.00688  -0.0247  0.8523  0.0154  -2.8601   0.0000   0.0000   0.0000   0.1691
  -4.500  -0.3198   0.01296   0.00671  -0.0244  0.8511  0.0156  -2.7696   0.0000   0.0000   0.0000   0.1677
  -4.400  -0.3139   0.01228   0.00599  -0.0234  0.8498  0.0161  -2.7416   0.0000   0.0000   0.0000   0.1696
  -4.300  -0.3080   0.01180   0.00545  -0.0223  0.8485  0.0167  -2.6967   0.0000   0.0000   0.0000   0.1716
  -4.200  -0.3003   0.01152   0.00515  -0.0217  0.8473  0.0173  -2.6235   0.0000   0.0000   0.0000   0.1721
  -4.100  -0.2918   0.01134   0.00495  -0.0212  0.8462  0.0179  -2.5376   0.0000   0.0000   0.0000   0.1717
  -4.000  -0.2828   0.01119   0.00478  -0.0207  0.8451  0.0185  -2.4543   0.0000   0.0000   0.0000   0.1709
  -3.900  -0.2738   0.01107   0.00464  -0.0203  0.8440  0.0191  -2.3861   0.0000   0.0000   0.0000   0.1700
  -3.800  -0.2646   0.01095   0.00450  -0.0200  0.8428  0.0197  -2.3194   0.0000   0.0000   0.0000   0.1688
  -3.700  -0.2554   0.01082   0.00436  -0.0196  0.8416  0.0204  -2.2522   0.0000   0.0000   0.0000   0.1675
  -3.600  -0.2461   0.01069   0.00422  -0.0193  0.8403  0.0212  -2.1850   0.0000   0.0000   0.0000   0.1659
  -3.500  -0.2365   0.01059   0.00411  -0.0190  0.8389  0.0220  -2.1147   0.0000   0.0000   0.0000   0.1640
  -3.400  -0.2265   0.01052   0.00404  -0.0188  0.8376  0.0227  -2.0365   0.0000   0.0000   0.0000   0.1612
  -3.300  -0.2182   0.01031   0.00379  -0.0182  0.8361  0.0243  -1.9839   0.0000   0.0000   0.0000   0.1607
  -3.200  -0.2098   0.01012   0.00358  -0.0176  0.8347  0.0270  -1.9300   0.0000   0.0000   0.0000   0.1600
  -3.100  -0.2004   0.00999   0.00346  -0.0173  0.8334  0.0293  -1.8613   0.0000   0.0000   0.0000   0.1578
  -3.000  -0.1907   0.00989   0.00334  -0.0170  0.8322  0.0316  -1.7910   0.0000   0.0000   0.0000   0.1549
  -2.900  -0.1808   0.00982   0.00324  -0.0168  0.8310  0.0334  -1.7178   0.0000   0.0000   0.0000   0.1511
  -2.800  -0.1724   0.00961   0.00307  -0.0162  0.8299  0.0445  -1.6631   0.0000   0.0000   0.0000   0.1500
  -2.700  -0.1645   0.00939   0.00295  -0.0156  0.8287  0.0721  -1.6000   0.0000   0.0000   0.0000   0.1492
  -2.600  -0.1584   0.00906   0.00283  -0.0147  0.8274  0.1309  -1.5388   0.0000   0.0000   0.0000   0.1512
  -2.500  -0.1526   0.00873   0.00274  -0.0138  0.8260  0.1972  -1.4797   0.0000   0.0000   0.0000   0.1536
  -2.400  -0.1484   0.00827   0.00262  -0.0126  0.8244  0.2850  -1.4265   0.0000   0.0000   0.0000   0.1591
  -2.300  -0.1504   0.00748   0.00243  -0.0103  0.8224  0.4434  -1.3951   0.0000   0.0000   0.0000   0.1760
  -2.200  -0.1509   0.00695   0.00234  -0.0079  0.8204  0.5585  -1.3575   0.0000   0.0000   0.0000   0.1919
  -2.100  -0.1478   0.00669   0.00230  -0.0063  0.8186  0.6198  -1.3065   0.0000   0.0000   0.0000   0.2024
  -2.000  -0.1420   0.00654   0.00227  -0.0051  0.8171  0.6574  -1.2469   0.0000   0.0000   0.0000   0.2090
  -1.900  -0.1352   0.00642   0.00223  -0.0041  0.8157  0.6836  -1.1840   0.0000   0.0000   0.0000   0.2143
  -1.800  -0.1273   0.00633   0.00220  -0.0034  0.8144  0.7046  -1.1185   0.0000   0.0000   0.0000   0.2182
  -1.700  -0.1192   0.00624   0.00216  -0.0027  0.8131  0.7239  -1.0530   0.0000   0.0000   0.0000   0.2221
  -1.600  -0.1109   0.00617   0.00213  -0.0020  0.8118  0.7422  -0.9934   0.0000   0.0000   0.0000   0.2263
  -1.500  -0.1023   0.00610   0.00210  -0.0015  0.8105  0.7592  -0.9386   0.0000   0.0000   0.0000   0.2304
  -1.400  -0.0934   0.00602   0.00209  -0.0010  0.8091  0.7748  -0.8836   0.0000   0.0000   0.0000   0.2343
  -1.300  -0.0840   0.00594   0.00206  -0.0005  0.8075  0.7901  -0.8269   0.0000   0.0000   0.0000   0.2379
  -1.200  -0.0742   0.00586   0.00205  -0.0002  0.8059  0.8085  -0.7710   0.0000   0.0000   0.0000   0.2411
  -1.100  -0.0616   0.00575   0.00208  -0.0005  0.8045  0.8371  -0.7085   0.0000   0.0000   0.0000   0.2361
  -1.000  -0.0425   0.00572   0.00217  -0.0021  0.8034  0.8681  -0.6307   0.0000   0.0000   0.0000   0.1925
  -0.900  -0.0250   0.00575   0.00223  -0.0034  0.8022  0.8828  -0.5586   0.0000   0.0000   0.0000   0.0997
  -0.800  -0.0139   0.00577   0.00224  -0.0034  0.8007  0.8921  -0.5039   0.0000   0.0000   0.0000  -0.0119
  -0.700   0.0047   0.00581   0.00227  -0.0050  0.7996  0.8972  -0.4323   0.0000   0.0000   0.0000   1.3655
  -0.600   0.0161   0.00584   0.00230  -0.0050  0.7982  0.9046  -0.3858   0.0000   0.0000   0.0000   0.5734
  -0.500   0.0295   0.00588   0.00232  -0.0055  0.7969  0.9098  -0.3828   0.0000   0.0000   0.0000   0.4408
  -0.400   0.0460   0.00593   0.00235  -0.0067  0.7958  0.9125  -0.3899   0.0000   0.0000   0.0000   0.3971
  -0.300   0.0603   0.00597   0.00237  -0.0074  0.7945  0.9152  -0.3962   0.0000   0.0000   0.0000   0.3730
  -0.100   0.0769   0.00603   0.00242  -0.0061  0.7908  0.9243  -0.4037   0.0000   0.0000   0.0000   0.3286
   0.000   0.0925   0.00606   0.00245  -0.0071  0.7891  0.9252  -0.4106   0.0000   0.0000   0.0000   0.3261
   0.100   0.1083   0.00608   0.00246  -0.0082  0.7869  0.9262  -0.4175   0.0000   0.0000   0.0000   0.3244
   0.200   0.1240   0.00610   0.00245  -0.0092  0.7843  0.9271  -0.4246   0.0000   0.0000   0.0000   0.3229
   0.300   0.1394   0.00610   0.00243  -0.0101  0.7814  0.9280  -0.4355   0.0000   0.0000   0.0000   0.3211
   0.400   0.1543   0.00612   0.00241  -0.0109  0.7783  0.9290  -0.4479   0.0000   0.0000   0.0000   0.3192
   0.500   0.1683   0.00614   0.00243  -0.0115  0.7746  0.9302  -0.4597   0.0000   0.0000   0.0000   0.3169
   0.600   0.1818   0.00617   0.00245  -0.0121  0.7707  0.9316  -0.4713   0.0000   0.0000   0.0000   0.3146
   0.700   0.1948   0.00619   0.00246  -0.0125  0.7674  0.9332  -0.4830   0.0000   0.0000   0.0000   0.3121
   0.800   0.2058   0.00622   0.00247  -0.0124  0.7648  0.9356  -0.4940   0.0000   0.0000   0.0000   0.3084
   0.900   0.2092   0.00626   0.00248  -0.0106  0.7624  0.9406  -0.5007   0.0000   0.0000   0.0000   0.2987
   1.000   0.2247   0.00629   0.00251  -0.0117  0.7599  0.9410  -0.5142   0.0000   0.0000   0.0000   0.2996
   1.100   0.2400   0.00633   0.00255  -0.0126  0.7571  0.9415  -0.5277   0.0000   0.0000   0.0000   0.3003
   1.200   0.2551   0.00637   0.00259  -0.0136  0.7543  0.9419  -0.5419   0.0000   0.0000   0.0000   0.3007
   1.300   0.2701   0.00640   0.00261  -0.0144  0.7516  0.9423  -0.5561   0.0000   0.0000   0.0000   0.3010
   1.400   0.2850   0.00644   0.00264  -0.0153  0.7490  0.9428  -0.5703   0.0000   0.0000   0.0000   0.3011
   1.500   0.2997   0.00648   0.00266  -0.0161  0.7466  0.9433  -0.5846   0.0000   0.0000   0.0000   0.3012
   1.600   0.3143   0.00652   0.00270  -0.0169  0.7439  0.9439  -0.5988   0.0000   0.0000   0.0000   0.3012
   1.700   0.3289   0.00656   0.00274  -0.0177  0.7407  0.9446  -0.6134   0.0000   0.0000   0.0000   0.3012
   1.800   0.3433   0.00660   0.00278  -0.0185  0.7375  0.9453  -0.6285   0.0000   0.0000   0.0000   0.3011
   1.900   0.3574   0.00663   0.00281  -0.0192  0.7344  0.9461  -0.6435   0.0000   0.0000   0.0000   0.3009
   2.000   0.3712   0.00668   0.00283  -0.0198  0.7314  0.9471  -0.6584   0.0000   0.0000   0.0000   0.3005
   2.100   0.3846   0.00672   0.00286  -0.0204  0.7283  0.9481  -0.6730   0.0000   0.0000   0.0000   0.3000
   2.200   0.3976   0.00675   0.00291  -0.0208  0.7248  0.9494  -0.6874   0.0000   0.0000   0.0000   0.2993
   2.300   0.4095   0.00679   0.00296  -0.0210  0.7212  0.9510  -0.7011   0.0000   0.0000   0.0000   0.2982
   2.400   0.4096   0.00684   0.00300  -0.0185  0.7178  0.9564  -0.7075   0.0000   0.0000   0.0000   0.2920
   2.500   0.4244   0.00687   0.00302  -0.0194  0.7144  0.9567  -0.7244   0.0000   0.0000   0.0000   0.2925
   2.600   0.4393   0.00691   0.00305  -0.0203  0.7106  0.9571  -0.7414   0.0000   0.0000   0.0000   0.2929
   2.700   0.4542   0.00694   0.00309  -0.0212  0.7062  0.9575  -0.7585   0.0000   0.0000   0.0000   0.2933
   2.800   0.4689   0.00697   0.00312  -0.0221  0.7019  0.9580  -0.7755   0.0000   0.0000   0.0000   0.2936
   2.900   0.4834   0.00701   0.00315  -0.0229  0.6980  0.9585  -0.7925   0.0000   0.0000   0.0000   0.2938
   3.000   0.4979   0.00705   0.00319  -0.0237  0.6939  0.9590  -0.8095   0.0000   0.0000   0.0000   0.2940
   3.100   0.5122   0.00708   0.00323  -0.0245  0.6889  0.9596  -0.8424   0.0000   0.0000   0.0000   0.2941
   3.200   0.5261   0.00712   0.00326  -0.0251  0.6837  0.9602  -0.9023   0.0000   0.0000   0.0000   0.2940
   3.300   0.5398   0.00717   0.00331  -0.0258  0.6786  0.9609  -0.9622   0.0000   0.0000   0.0000   0.2939
   3.400   0.5534   0.00720   0.00335  -0.0264  0.6728  0.9617  -1.0286   0.0000   0.0000   0.0000   0.2938
   3.500   0.5666   0.00725   0.00339  -0.0269  0.6672  0.9626  -1.0999   0.0000   0.0000   0.0000   0.2935
   3.600   0.5797   0.00729   0.00343  -0.0274  0.6616  0.9635  -1.1717   0.0000   0.0000   0.0000   0.2933
   3.700   0.5921   0.00735   0.00347  -0.0278  0.6514  0.9647  -1.2427   0.0000   0.0000   0.0000   0.2928
   3.800   0.6033   0.00743   0.00351  -0.0278  0.6375  0.9662  -1.3113   0.0000   0.0000   0.0000   0.2919
   3.900   0.6124   0.00754   0.00356  -0.0275  0.6205  0.9682  -1.3745   0.0000   0.0000   0.0000   0.2906
   4.000   0.6162   0.00768   0.00364  -0.0259  0.6051  0.9713  -1.4222   0.0000   0.0000   0.0000   0.2876
   4.100   0.6292   0.00780   0.00368  -0.0264  0.5827  0.9718  -1.4987   0.0000   0.0000   0.0000   0.2876
   4.200   0.6421   0.00794   0.00373  -0.0270  0.5583  0.9723  -1.5758   0.0000   0.0000   0.0000   0.2875
   4.300   0.6537   0.00815   0.00382  -0.0273  0.5229  0.9730  -1.6492   0.0000   0.0000   0.0000   0.2871
   4.400   0.6642   0.00847   0.00393  -0.0275  0.4764  0.9739  -1.7202   0.0000   0.0000   0.0000   0.2866
   4.500   0.6742   0.00883   0.00407  -0.0276  0.4299  0.9748  -1.7904   0.0000   0.0000   0.0000   0.2861
   4.600   0.6845   0.00915   0.00422  -0.0278  0.3901  0.9759  -1.8669   0.0000   0.0000   0.0000   0.2856
   4.700   0.6943   0.00949   0.00437  -0.0278  0.3528  0.9772  -1.9495   0.0000   0.0000   0.0000   0.2851
   4.800   0.7039   0.00980   0.00453  -0.0279  0.3189  0.9785  -2.0318   0.0000   0.0000   0.0000   0.2845
   4.900   0.7132   0.01008   0.00467  -0.0278  0.2901  0.9801  -2.1142   0.0000   0.0000   0.0000   0.2838
   5.000   0.7212   0.01034   0.00483  -0.0274  0.2666  0.9819  -2.1920   0.0000   0.0000   0.0000   0.2827
   5.100   0.7279   0.01059   0.00498  -0.0267  0.2456  0.9838  -2.2656   0.0000   0.0000   0.0000   0.2812
   5.200   0.7399   0.01085   0.00510  -0.0272  0.2181  0.9843  -2.3608   0.0000   0.0000   0.0000   0.2813
   5.300   0.7516   0.01112   0.00523  -0.0277  0.1881  0.9849  -2.4551   0.0000   0.0000   0.0000   0.2813
   5.400   0.7624   0.01148   0.00541  -0.0281  0.1509  0.9857  -2.5440   0.0000   0.0000   0.0000   0.2812
   5.500   0.7700   0.01216   0.00573  -0.0280  0.0843  0.9868  -2.6174   0.0000   0.0000   0.0000   0.2807
   5.600   0.7777   0.01281   0.00611  -0.0279  0.0370  0.9880  -2.6881   0.0000   0.0000   0.0000   0.2800
   5.700   0.7886   0.01311   0.00635  -0.0281  0.0281  0.9890  -2.7679   0.0000   0.0000   0.0000   0.2797
   5.800   0.8004   0.01328   0.00654  -0.0284  0.0255  0.9899  -2.8551   0.0000   0.0000   0.0000   0.2795
   5.900   0.8120   0.01342   0.00671  -0.0287  0.0239  0.9909  -2.9475   0.0000   0.0000   0.0000   0.2792
   6.000   0.8231   0.01360   0.00689  -0.0289  0.0224  0.9919  -3.0386   0.0000   0.0000   0.0000   0.2789
   6.100   0.8335   0.01381   0.00711  -0.0290  0.0208  0.9929  -3.1256   0.0000   0.0000   0.0000   0.2784
   6.200   0.8427   0.01412   0.00744  -0.0288  0.0190  0.9940  -3.1960   0.0000   0.0000   0.0000   0.2777
   6.300   0.8542   0.01443   0.00781  -0.0291  0.0177  0.9947  -3.2709   0.0000   0.0000   0.0000   0.2776
   6.400   0.8670   0.01455   0.00794  -0.0297  0.0174  0.9952  -3.3736   0.0000   0.0000   0.0000   0.2777
   6.500   0.8794   0.01470   0.00812  -0.0302  0.0169  0.9959  -3.4883   0.0000   0.0000   0.0000   0.2776
   6.600   0.8914   0.01488   0.00833  -0.0306  0.0163  0.9966  -3.6028   0.0000   0.0000   0.0000   0.2775
   6.700   0.9031   0.01508   0.00855  -0.0310  0.0158  0.9974  -3.7176   0.0000   0.0000   0.0000   0.2774
   6.800   0.9147   0.01528   0.00878  -0.0313  0.0153  0.9981  -3.8328   0.0000   0.0000   0.0000   0.2772
   6.900   0.9262   0.01550   0.00901  -0.0317  0.0149  0.9988  -3.9495   0.0000   0.0000   0.0000   0.2771
   7.000   0.9377   0.01572   0.00926  -0.0321  0.0144  0.9995  -4.0683   0.0000   0.0000   0.0000   0.2769
   7.100   0.9483   0.01595   0.00951  -0.0322  0.0141  1.0000  -4.1830   0.0000   0.0000   0.0000   0.2766
   7.200   0.9534   0.01618   0.00975  -0.0312  0.0138  1.0000  -4.2693   0.0000   0.0000   0.0000   0.2753
   7.300   0.9580   0.01642   0.01001  -0.0301  0.0135  1.0000  -4.3524   0.0000   0.0000   0.0000   0.2739
   7.400   0.9620   0.01670   0.01032  -0.0289  0.0132  1.0000  -4.4293   0.0000   0.0000   0.0000   0.2724
   7.500   0.9649   0.01704   0.01068  -0.0275  0.0129  1.0000  -4.4965   0.0000   0.0000   0.0000   0.2707
   7.600   0.9666   0.01745   0.01113  -0.0259  0.0126  1.0000  -4.5509   0.0000   0.0000   0.0000   0.2689
   7.700   0.9667   0.01797   0.01169  -0.0240  0.0124  1.0000  -4.5885   0.0000   0.0000   0.0000   0.2668
   7.800   0.9645   0.01868   0.01245  -0.0217  0.0121  1.0000  -4.5999   0.0000   0.0000   0.0000   0.2643
   7.900   0.9641   0.01932   0.01314  -0.0197  0.0118  1.0000  -4.6258   0.0000   0.0000   0.0000   0.2622
   8.000   0.9699   0.01940   0.01323  -0.0188  0.0117  1.0000  -4.7263   0.0000   0.0000   0.0000   0.2610
   8.100   0.9752   0.01951   0.01337  -0.0179  0.0116  1.0000  -4.8222   0.0000   0.0000   0.0000   0.2598
   8.200   0.9799   0.01966   0.01354  -0.0168  0.0114  1.0000  -4.9136   0.0000   0.0000   0.0000   0.2585
   8.300   0.9841   0.01984   0.01374  -0.0156  0.0113  1.0000  -5.0003   0.0000   0.0000   0.0000   0.2571
   8.400   0.9873   0.02005   0.01399  -0.0143  0.0111  1.0000  -5.0803   0.0000   0.0000   0.0000   0.2556
   8.500   0.9890   0.02027   0.01424  -0.0126  0.0110  1.0000  -5.1488   0.0000   0.0000   0.0000   0.2538
   8.600   0.9898   0.02052   0.01451  -0.0108  0.0109  1.0000  -5.2094   0.0000   0.0000   0.0000   0.2518
   8.700   0.9905   0.02078   0.01480  -0.0090  0.0108  1.0000  -5.2684   0.0000   0.0000   0.0000   0.2498
   8.800   0.9914   0.02106   0.01510  -0.0072  0.0107  1.0000  -5.3282   0.0000   0.0000   0.0000   0.2479
   8.900   0.9927   0.02135   0.01542  -0.0056  0.0105  1.0000  -5.3895   0.0000   0.0000   0.0000   0.2461
   9.000   0.9944   0.02166   0.01576  -0.0040  0.0104  1.0000  -5.4524   0.0000   0.0000   0.0000   0.2444
   9.100   0.9964   0.02198   0.01611  -0.0025  0.0103  1.0000  -5.5170   0.0000   0.0000   0.0000   0.2427
   9.200   0.9987   0.02232   0.01648  -0.0011  0.0102  1.0000  -5.5833   0.0000   0.0000   0.0000   0.2412
   9.300   1.0013   0.02266   0.01686   0.0003  0.0101  1.0000  -5.6508   0.0000   0.0000   0.0000   0.2397
   9.400   1.0042   0.02302   0.01725   0.0016  0.0100  1.0000  -5.7198   0.0000   0.0000   0.0000   0.2383
   9.500   1.0072   0.02339   0.01765   0.0028  0.0099  1.0000  -5.7900   0.0000   0.0000   0.0000   0.2369
   9.600   1.0104   0.02376   0.01805   0.0040  0.0098  1.0000  -5.8610   0.0000   0.0000   0.0000   0.2356
   9.700   1.0136   0.02414   0.01846   0.0052  0.0097  1.0000  -5.9330   0.0000   0.0000   0.0000   0.2343
   9.800   1.0169   0.02452   0.01887   0.0064  0.0096  1.0000  -6.0059   0.0000   0.0000   0.0000   0.2331
   9.900   1.0202   0.02490   0.01929   0.0075  0.0095  1.0000  -6.0797   0.0000   0.0000   0.0000   0.2318
  10.000   1.0234   0.02529   0.01971   0.0087  0.0094  1.0000  -6.1534   0.0000   0.0000   0.0000   0.2306
  10.100   1.0265   0.02568   0.02013   0.0098  0.0093  1.0000  -6.2268   0.0000   0.0000   0.0000   0.2294
  10.200   1.0295   0.02607   0.02056   0.0110  0.0092  1.0000  -6.3009   0.0000   0.0000   0.0000   0.2282
  10.300   1.0325   0.02646   0.02098   0.0121  0.0091  1.0000  -6.3756   0.0000   0.0000   0.0000   0.2269
  10.400   1.0352   0.02685   0.02141   0.0133  0.0090  1.0000  -6.4506   0.0000   0.0000   0.0000   0.2257
  10.500   1.0378   0.02725   0.02184   0.0144  0.0089  1.0000  -6.5257   0.0000   0.0000   0.0000   0.2245
  10.600   1.0404   0.02766   0.02228   0.0155  0.0088  1.0000  -6.6010   0.0000   0.0000   0.0000   0.2233
  10.700   1.0428   0.02808   0.02274   0.0167  0.0087  1.0000  -6.6809   0.0000   0.0000   0.0000   0.2221
  10.800   1.0451   0.02853   0.02322   0.0178  0.0086  1.0000  -6.7714   0.0000   0.0000   0.0000   0.2209
  10.900   1.0474   0.02902   0.02374   0.0189  0.0085  1.0000  -6.8599   0.0000   0.0000   0.0000   0.2198
  11.000   1.0496   0.02956   0.02434   0.0200  0.0084  1.0000  -6.9460   0.0000   0.0000   0.0000   0.2186
  11.100   1.0518   0.03019   0.02501   0.0211  0.0083  1.0000  -7.0259   0.0000   0.0000   0.0000   0.2175
  11.200   1.0538   0.03094   0.02581   0.0221  0.0082  1.0000  -7.0956   0.0000   0.0000   0.0000   0.2164
  11.300   1.0555   0.03188   0.02682   0.0232  0.0081  1.0000  -7.1492   0.0000   0.0000   0.0000   0.2153
  11.400   1.0564   0.03302   0.02804   0.0244  0.0081  1.0000  -7.1824   0.0000   0.0000   0.0000   0.2141
  11.500   1.0562   0.03425   0.02938   0.0256  0.0080  1.0000  -7.1994   0.0000   0.0000   0.0000   0.2128
  11.600   1.0550   0.03546   0.03068   0.0270  0.0080  1.0000  -7.2112   0.0000   0.0000   0.0000   0.2113
  11.700   1.0532   0.03658   0.03189   0.0284  0.0079  1.0000  -7.2245   0.0000   0.0000   0.0000   0.2098
  11.800   1.0510   0.03763   0.03304   0.0298  0.0079  1.0000  -7.2402   0.0000   0.0000   0.0000   0.2083
  11.900   1.0486   0.03863   0.03412   0.0312  0.0079  1.0000  -7.2586   0.0000   0.0000   0.0000   0.2067
  12.000   1.0459   0.03959   0.03515   0.0325  0.0079  1.0000  -7.2797   0.0000   0.0000   0.0000   0.2052
  12.100   1.0431   0.04054   0.03618   0.0338  0.0079  1.0000  -7.3012   0.0000   0.0000   0.0000   0.2036
  12.200   1.0398   0.04154   0.03725   0.0352  0.0079  1.0000  -7.3177   0.0000   0.0000   0.0000   0.2021
  12.300   1.0360   0.04257   0.03836   0.0365  0.0079  1.0000  -7.3300   0.0000   0.0000   0.0000   0.2006
  12.400   1.0317   0.04365   0.03952   0.0377  0.0079  1.0000  -7.3383   0.0000   0.0000   0.0000   0.1990
  12.500   1.0270   0.04477   0.04071   0.0389  0.0079  1.0000  -7.3434   0.0000   0.0000   0.0000   0.1975
  12.600   1.0220   0.04593   0.04195   0.0401  0.0079  1.0000  -7.3456   0.0000   0.0000   0.0000   0.1960
  12.700   1.0167   0.04712   0.04321   0.0412  0.0079  1.0000  -7.3451   0.0000   0.0000   0.0000   0.1945
  12.800   1.0111   0.04835   0.04452   0.0422  0.0079  1.0000  -7.3424   0.0000   0.0000   0.0000   0.1931
  12.900   1.0052   0.04962   0.04586   0.0432  0.0079  1.0000  -7.3378   0.0000   0.0000   0.0000   0.1917
  13.000   0.9992   0.05093   0.04724   0.0440  0.0079  1.0000  -7.3315   0.0000   0.0000   0.0000   0.1904
  13.100   0.9931   0.05228   0.04866   0.0448  0.0079  1.0000  -7.3237   0.0000   0.0000   0.0000   0.1891
  13.200   0.9868   0.05366   0.05011   0.0455  0.0079  1.0000  -7.3147   0.0000   0.0000   0.0000   0.1879
  13.300   0.9804   0.05508   0.05160   0.0461  0.0079  1.0000  -7.3045   0.0000   0.0000   0.0000   0.1868
  13.400   0.9739   0.05656   0.05314   0.0465  0.0079  1.0000  -7.2933   0.0000   0.0000   0.0000   0.1858
  13.500   0.9674   0.05807   0.05472   0.0469  0.0079  1.0000  -7.2812   0.0000   0.0000   0.0000   0.1849
  13.600   0.9608   0.05964   0.05635   0.0472  0.0079  1.0000  -7.2682   0.0000   0.0000   0.0000   0.1841
  13.700   0.9542   0.06124   0.05801   0.0473  0.0079  1.0000  -7.2543   0.0000   0.0000   0.0000   0.1833
  13.800   0.9476   0.06290   0.05973   0.0474  0.0079  1.0000  -7.2394   0.0000   0.0000   0.0000   0.1827
  13.900   0.9409   0.06461   0.06151   0.0473  0.0079  1.0000  -7.2235   0.0000   0.0000   0.0000   0.1822
  14.000   0.9343   0.06639   0.06334   0.0471  0.0079  1.0000  -7.2066   0.0000   0.0000   0.0000   0.1818
  14.100   0.9277   0.06823   0.06524   0.0468  0.0079  1.0000  -7.1885   0.0000   0.0000   0.0000   0.1816
  14.200   0.9211   0.07013   0.06720   0.0463  0.0080  1.0000  -7.1690   0.0000   0.0000   0.0000   0.1815
  14.300   0.9146   0.07211   0.06923   0.0458  0.0080  1.0000  -7.1480   0.0000   0.0000   0.0000   0.1815
  14.400   0.9080   0.07416   0.07133   0.0451  0.0080  1.0000  -7.1251   0.0000   0.0000   0.0000   0.1816
  14.500   0.9016   0.07630   0.07353   0.0443  0.0080  1.0000  -7.1000   0.0000   0.0000   0.0000   0.1819
  14.600   0.8951   0.07854   0.07582   0.0434  0.0080  1.0000  -7.0723   0.0000   0.0000   0.0000   0.1824
  14.700   0.8886   0.08088   0.07821   0.0423  0.0080  1.0000  -7.0411   0.0000   0.0000   0.0000   0.1830
  14.800   0.8821   0.08334   0.08073   0.0411  0.0080  1.0000  -7.0053   0.0000   0.0000   0.0000   0.1838
  14.900   0.8754   0.08594   0.08339   0.0397  0.0081  1.0000  -6.9626   0.0000   0.0000   0.0000   0.1848
  15.000   0.8684   0.08876   0.08626   0.0381  0.0081  1.0000  -6.9075   0.0000   0.0000   0.0000   0.1860
  15.500   0.5497   0.10254   0.10070   0.0312  0.0105  1.0000  -3.9123   0.0000   0.0000   0.0000   0.1774
  15.600   0.5323   0.10760   0.10580   0.0284  0.0107  1.0000  -3.6204   0.0000   0.0000   0.0000   0.1810
  15.700   0.5117   0.11362   0.11182   0.0256  0.0112  1.0000  -3.2236   0.0000   0.0000   0.0000   0.1849
  16.100   0.4706   0.13151   0.12967   0.0192  0.0161  1.0000  -2.0045   0.0000   0.0000   0.0000   0.1956
  16.200   0.4698   0.13311   0.13126   0.0185  0.0158  1.0000  -1.9683   0.0000   0.0000   0.0000   0.1971
  16.300   0.4693   0.13464   0.13279   0.0179  0.0155  1.0000  -1.9384   0.0000   0.0000   0.0000   0.1984
  16.400   0.4689   0.13611   0.13426   0.0172  0.0153  1.0000  -1.9135   0.0000   0.0000   0.0000   0.1998
  16.500   0.4688   0.13753   0.13568   0.0166  0.0150  1.0000  -1.8924   0.0000   0.0000   0.0000   0.2010
  16.600   0.4687   0.13891   0.13706   0.0160  0.0148  1.0000  -1.8745   0.0000   0.0000   0.0000   0.2023
  16.700   0.4689   0.14025   0.13840   0.0154  0.0146  1.0000  -1.8602   0.0000   0.0000   0.0000   0.2036
  16.800   0.4692   0.14156   0.13970   0.0148  0.0144  1.0000  -1.8489   0.0000   0.0000   0.0000   0.2048
  16.900   0.4696   0.14283   0.14098   0.0142  0.0142  1.0000  -1.8403   0.0000   0.0000   0.0000   0.2060
  17.000   0.4702   0.14407   0.14222   0.0137  0.0141  1.0000  -1.8345   0.0000   0.0000   0.0000   0.2072
  17.100   0.4710   0.14527   0.14341   0.0131  0.0139  1.0000  -1.8330   0.0000   0.0000   0.0000   0.2083
  17.200   0.4719   0.14641   0.14456   0.0126  0.0137  1.0000  -1.8366   0.0000   0.0000   0.0000   0.2095
  17.300   0.4731   0.14749   0.14564   0.0121  0.0135  1.0000  -1.8461   0.0000   0.0000   0.0000   0.2105
  17.400   0.4745   0.14850   0.14665   0.0116  0.0134  1.0000  -1.8625   0.0000   0.0000   0.0000   0.2115
  17.500   0.4761   0.14944   0.14759   0.0111  0.0132  1.0000  -1.8863   0.0000   0.0000   0.0000   0.2124
  17.600   0.4780   0.15032   0.14847   0.0107  0.0130  1.0000  -1.9176   0.0000   0.0000   0.0000   0.2133
  18.400   0.4829   0.16113   0.15930   0.0062  0.0118  1.0000  -1.8492   0.0000   0.0000   0.0000   0.2222
  18.500   0.4840   0.16252   0.16069   0.0056  0.0118  1.0000  -1.8288   0.0000   0.0000   0.0000   0.2235
  18.600   0.4851   0.16391   0.16207   0.0049  0.0118  1.0000  -1.8080   0.0000   0.0000   0.0000   0.2248
  18.700   0.4862   0.16529   0.16345   0.0043  0.0118  1.0000  -1.7867   0.0000   0.0000   0.0000   0.2261
  18.800   0.4874   0.16666   0.16482   0.0036  0.0118  1.0000  -1.7648   0.0000   0.0000   0.0000   0.2274
  18.900   0.4886   0.16802   0.16619   0.0030  0.0118  1.0000  -1.7422   0.0000   0.0000   0.0000   0.2288
  19.000   0.4899   0.16938   0.16755   0.0023  0.0117  1.0000  -1.7186   0.0000   0.0000   0.0000   0.2301
  19.100   0.4911   0.17072   0.16889   0.0016  0.0117  1.0000  -1.6941   0.0000   0.0000   0.0000   0.2315
  19.200   0.4925   0.17205   0.17022   0.0009  0.0116  1.0000  -1.6682   0.0000   0.0000   0.0000   0.2328
  19.300   0.4935   0.17342   0.17159   0.0001  0.0115  1.0000  -1.6271   0.0000   0.0000   0.0000   0.2345
  19.400   0.4932   0.17521   0.17337  -0.0011  0.0110  1.0000  -1.5300   0.0000   0.0000   0.0000   0.2369
  19.500   0.4943   0.17672   0.17489  -0.0019  0.0105  1.0000  -1.4825   0.0000   0.0000   0.0000   0.2385
  19.600   0.4957   0.17807   0.17624  -0.0025  0.0101  1.0000  -1.4594   0.0000   0.0000   0.0000   0.2398
  19.700   0.4972   0.17933   0.17751  -0.0032  0.0098  1.0000  -1.4446   0.0000   0.0000   0.0000   0.2410
  19.800   0.4989   0.18059   0.17876  -0.0038  0.0096  1.0000  -1.4345   0.0000   0.0000   0.0000   0.2421
  19.900   0.5005   0.18181   0.17999  -0.0044  0.0094  1.0000  -1.4279   0.0000   0.0000   0.0000   0.2433
  20.000   0.5023   0.18302   0.18119  -0.0051  0.0092  1.0000  -1.4240   0.0000   0.0000   0.0000   0.2444
  20.100   0.5040   0.18420   0.18238  -0.0057  0.0090  1.0000  -1.4228   0.0000   0.0000   0.0000   0.2454
  20.200   0.5059   0.18536   0.18354  -0.0063  0.0089  1.0000  -1.4241   0.0000   0.0000   0.0000   0.2465
  20.300   0.5077   0.18651   0.18469  -0.0069  0.0088  1.0000  -1.4277   0.0000   0.0000   0.0000   0.2475
  20.400   0.5096   0.18764   0.18583  -0.0075  0.0086  1.0000  -1.4338   0.0000   0.0000   0.0000   0.2485
  20.500   0.5116   0.18875   0.18694  -0.0081  0.0085  1.0000  -1.4425   0.0000   0.0000   0.0000   0.2495
  20.600   0.5136   0.18985   0.18804  -0.0087  0.0084  1.0000  -1.4539   0.0000   0.0000   0.0000   0.2505
  20.700   0.5157   0.19092   0.18912  -0.0093  0.0083  1.0000  -1.4681   0.0000   0.0000   0.0000   0.2514
  20.800   0.5178   0.19200   0.19020  -0.0098  0.0083  1.0000  -1.4853   0.0000   0.0000   0.0000   0.2522
  20.900   0.5200   0.19304   0.19124  -0.0104  0.0082  1.0000  -1.5114   0.0000   0.0000   0.0000   0.2530
  21.000   0.5224   0.19407   0.19227  -0.0109  0.0081  1.0000  -1.5446   0.0000   0.0000   0.0000   0.2538
  21.100   0.5249   0.19508   0.19329  -0.0114  0.0080  1.0000  -1.5831   0.0000   0.0000   0.0000   0.2544
  21.200   0.5275   0.19614   0.19436  -0.0118  0.0080  1.0000  -1.6241   0.0000   0.0000   0.0000   0.2549
  21.300   0.5275   0.19874   0.19694  -0.0124  0.0077  1.0000  -1.5678   0.0000   0.0000   0.0000   0.2559
  21.400   0.5292   0.20013   0.19833  -0.0130  0.0077  1.0000  -1.5615   0.0000   0.0000   0.0000   0.2571
  21.500   0.5308   0.20150   0.19971  -0.0137  0.0077  1.0000  -1.5555   0.0000   0.0000   0.0000   0.2582
  21.600   0.5325   0.20288   0.20109  -0.0144  0.0077  1.0000  -1.5496   0.0000   0.0000   0.0000   0.2593
  21.700   0.5342   0.20425   0.20246  -0.0151  0.0077  1.0000  -1.5439   0.0000   0.0000   0.0000   0.2604
  21.800   0.5358   0.20562   0.20383  -0.0158  0.0077  1.0000  -1.5384   0.0000   0.0000   0.0000   0.2615
  21.900   0.5375   0.20698   0.20520  -0.0165  0.0077  1.0000  -1.5330   0.0000   0.0000   0.0000   0.2625
  22.000   0.5392   0.20835   0.20657  -0.0172  0.0077  1.0000  -1.5275   0.0000   0.0000   0.0000   0.2636
  22.100   0.5409   0.20971   0.20793  -0.0178  0.0077  1.0000  -1.5220   0.0000   0.0000   0.0000   0.2647
  22.200   0.5426   0.21107   0.20929  -0.0185  0.0077  1.0000  -1.5164   0.0000   0.0000   0.0000   0.2658
  22.300   0.5443   0.21243   0.21065  -0.0192  0.0077  1.0000  -1.5108   0.0000   0.0000   0.0000   0.2669
  22.400   0.5459   0.21378   0.21201  -0.0200  0.0077  1.0000  -1.5042   0.0000   0.0000   0.0000   0.2679
  22.500   0.5476   0.21514   0.21338  -0.0207  0.0076  1.0000  -1.4946   0.0000   0.0000   0.0000   0.2691
  22.600   0.5489   0.21654   0.21478  -0.0215  0.0076  1.0000  -1.4769   0.0000   0.0000   0.0000   0.2703
  22.700   0.5501   0.21796   0.21621  -0.0223  0.0076  1.0000  -1.4518   0.0000   0.0000   0.0000   0.2717
  22.800   0.5513   0.21941   0.21766  -0.0232  0.0075  1.0000  -1.4200   0.0000   0.0000   0.0000   0.2731
  22.900   0.5525   0.22094   0.21919  -0.0241  0.0074  1.0000  -1.3730   0.0000   0.0000   0.0000   0.2746
  23.000   0.5542   0.22252   0.22077  -0.0249  0.0071  1.0000  -1.3298   0.0000   0.0000   0.0000   0.2759
  23.100   0.5560   0.22394   0.22219  -0.0256  0.0068  1.0000  -1.3154   0.0000   0.0000   0.0000   0.2769
  23.200   0.5579   0.22532   0.22358  -0.0263  0.0066  1.0000  -1.3079   0.0000   0.0000   0.0000   0.2779
  23.300   0.5598   0.22665   0.22491  -0.0270  0.0065  1.0000  -1.3035   0.0000   0.0000   0.0000   0.2788
  23.400   0.5616   0.22800   0.22626  -0.0277  0.0063  1.0000  -1.3010   0.0000   0.0000   0.0000   0.2798
  23.500   0.5635   0.22934   0.22760  -0.0283  0.0061  1.0000  -1.2999   0.0000   0.0000   0.0000   0.2807
  23.600   0.5654   0.23066   0.22892  -0.0290  0.0060  1.0000  -1.3000   0.0000   0.0000   0.0000   0.2816
  23.700   0.5673   0.23196   0.23023  -0.0297  0.0059  1.0000  -1.3015   0.0000   0.0000   0.0000   0.2825
  23.800   0.5692   0.23325   0.23152  -0.0304  0.0057  1.0000  -1.3045   0.0000   0.0000   0.0000   0.2833
  23.900   0.5710   0.23452   0.23280  -0.0311  0.0056  1.0000  -1.3093   0.0000   0.0000   0.0000   0.2842
  24.000   0.5729   0.23578   0.23406  -0.0318  0.0055  1.0000  -1.3161   0.0000   0.0000   0.0000   0.2850
  24.100   0.5749   0.23704   0.23533  -0.0324  0.0054  1.0000  -1.3251   0.0000   0.0000   0.0000   0.2859
  24.200   0.5768   0.23827   0.23655  -0.0331  0.0053  1.0000  -1.3367   0.0000   0.0000   0.0000   0.2867
  24.300   0.5787   0.23947   0.23776  -0.0338  0.0052  1.0000  -1.3511   0.0000   0.0000   0.0000   0.2875
  24.400   0.5807   0.24066   0.23895  -0.0345  0.0052  1.0000  -1.3687   0.0000   0.0000   0.0000   0.2882
  24.500   0.5827   0.24183   0.24013  -0.0351  0.0051  1.0000  -1.3896   0.0000   0.0000   0.0000   0.2890
  24.600   0.5847   0.24299   0.24129  -0.0357  0.0050  1.0000  -1.4143   0.0000   0.0000   0.0000   0.2896
  24.700   0.5868   0.24414   0.24245  -0.0364  0.0050  1.0000  -1.4436   0.0000   0.0000   0.0000   0.2902
  24.800   0.5890   0.24534   0.24365  -0.0369  0.0049  1.0000  -1.4799   0.0000   0.0000   0.0000   0.2907
  24.900   0.5913   0.24747   0.24578  -0.0372  0.0048  1.0000  -1.4752   0.0000   0.0000   0.0000   0.2908
  25.000   0.5929   0.24895   0.24727  -0.0380  0.0048  1.0000  -1.4517   0.0000   0.0000   0.0000   0.2917
  25.100   0.5945   0.25044   0.24875  -0.0387  0.0048  1.0000  -1.4294   0.0000   0.0000   0.0000   0.2926
  25.200   0.5961   0.25192   0.25024  -0.0394  0.0048  1.0000  -1.4076   0.0000   0.0000   0.0000   0.2936
  25.300   0.5977   0.25340   0.25172  -0.0402  0.0048  1.0000  -1.3866   0.0000   0.0000   0.0000   0.2945
  25.400   0.5992   0.25489   0.25321  -0.0409  0.0048  1.0000  -1.3629   0.0000   0.0000   0.0000   0.2954
  25.500   0.6007   0.25640   0.25472  -0.0417  0.0048  1.0000  -1.3363   0.0000   0.0000   0.0000   0.2964
  25.600   0.6021   0.25790   0.25623  -0.0424  0.0048  1.0000  -1.3111   0.0000   0.0000   0.0000   0.2974
  25.700   0.6037   0.25941   0.25774  -0.0432  0.0047  1.0000  -1.2870   0.0000   0.0000   0.0000   0.2983
  25.800   0.6052   0.26091   0.25924  -0.0440  0.0047  1.0000  -1.2639   0.0000   0.0000   0.0000   0.2993
  25.900   0.6067   0.26241   0.26074  -0.0447  0.0047  1.0000  -1.2415   0.0000   0.0000   0.0000   0.3002
  26.000   0.6083   0.26391   0.26224  -0.0455  0.0047  1.0000  -1.2197   0.0000   0.0000   0.0000   0.3011
  26.100   0.6099   0.26541   0.26375  -0.0462  0.0047  1.0000  -1.1982   0.0000   0.0000   0.0000   0.3020
  26.200   0.6115   0.26691   0.26525  -0.0470  0.0047  1.0000  -1.1768   0.0000   0.0000   0.0000   0.3029
  26.300   0.6131   0.26841   0.26676  -0.0477  0.0047  1.0000  -1.1553   0.0000   0.0000   0.0000   0.3038
  26.400   0.6148   0.26992   0.26827  -0.0485  0.0046  1.0000  -1.1335   0.0000   0.0000   0.0000   0.3047
  26.500   0.6165   0.27144   0.26980  -0.0492  0.0046  1.0000  -1.1113   0.0000   0.0000   0.0000   0.3055
  26.600   0.6182   0.27297   0.27132  -0.0500  0.0045  1.0000  -1.0893   0.0000   0.0000   0.0000   0.3063
  26.700   0.6200   0.27448   0.27285  -0.0507  0.0045  1.0000  -1.0692   0.0000   0.0000   0.0000   0.3071
  26.800   0.6218   0.27600   0.27437  -0.0514  0.0044  1.0000  -1.0527   0.0000   0.0000   0.0000   0.3078
  26.900   0.6236   0.27749   0.27587  -0.0521  0.0043  1.0000  -1.0493   0.0000   0.0000   0.0000   0.3086
  27.000   0.6253   0.27896   0.27734  -0.0528  0.0042  1.0000  -1.0507   0.0000   0.0000   0.0000   0.3093
  27.100   0.6270   0.28041   0.27879  -0.0535  0.0041  1.0000  -1.0535   0.0000   0.0000   0.0000   0.3100
  27.200   0.6287   0.28187   0.28026  -0.0542  0.0040  1.0000  -1.0571   0.0000   0.0000   0.0000   0.3108
  27.300   0.6304   0.28333   0.28172  -0.0549  0.0040  1.0000  -1.0614   0.0000   0.0000   0.0000   0.3115
  27.400   0.6320   0.28479   0.28318  -0.0556  0.0039  1.0000  -1.0662   0.0000   0.0000   0.0000   0.3122
  27.500   0.6337   0.28624   0.28463  -0.0563  0.0038  1.0000  -1.0713   0.0000   0.0000   0.0000   0.3129
  27.600   0.6353   0.28768   0.28609  -0.0571  0.0038  1.0000  -1.0767   0.0000   0.0000   0.0000   0.3136
  27.700   0.6370   0.28913   0.28754  -0.0578  0.0037  1.0000  -1.0823   0.0000   0.0000   0.0000   0.3143
  27.800   0.6386   0.29058   0.28898  -0.0585  0.0037  1.0000  -1.0881   0.0000   0.0000   0.0000   0.3150
  27.900   0.6402   0.29202   0.29043  -0.0592  0.0036  1.0000  -1.0940   0.0000   0.0000   0.0000   0.3157
  28.000   0.6418   0.29346   0.29188  -0.0599  0.0035  1.0000  -1.1002   0.0000   0.0000   0.0000   0.3164
  28.100   0.6434   0.29489   0.29331  -0.0606  0.0035  1.0000  -1.1065   0.0000   0.0000   0.0000   0.3170
  28.200   0.6450   0.29632   0.29474  -0.0614  0.0034  1.0000  -1.1135   0.0000   0.0000   0.0000   0.3177
  28.300   0.6466   0.29774   0.29617  -0.0621  0.0034  1.0000  -1.1213   0.0000   0.0000   0.0000   0.3184
  28.400   0.6482   0.29915   0.29758  -0.0628  0.0033  1.0000  -1.1299   0.0000   0.0000   0.0000   0.3191
  28.500   0.6497   0.30055   0.29898  -0.0635  0.0033  1.0000  -1.1396   0.0000   0.0000   0.0000   0.3197
  28.600   0.6513   0.30193   0.30037  -0.0642  0.0032  1.0000  -1.1505   0.0000   0.0000   0.0000   0.3204
  28.700   0.6528   0.30333   0.30178  -0.0650  0.0031  1.0000  -1.1628   0.0000   0.0000   0.0000   0.3210
  28.800   0.6543   0.30469   0.30314  -0.0657  0.0031  1.0000  -1.1763   0.0000   0.0000   0.0000   0.3217
  28.900   0.6558   0.30604   0.30450  -0.0664  0.0030  1.0000  -1.1911   0.0000   0.0000   0.0000   0.3223
  29.000   0.6573   0.30738   0.30584  -0.0672  0.0030  1.0000  -1.2071   0.0000   0.0000   0.0000   0.3230
  29.100   0.6588   0.30872   0.30718  -0.0679  0.0029  1.0000  -1.2240   0.0000   0.0000   0.0000   0.3236
  29.200   0.6603   0.31006   0.30852  -0.0686  0.0029  1.0000  -1.2415   0.0000   0.0000   0.0000   0.3242
  29.300   0.6617   0.31140   0.30987  -0.0693  0.0029  1.0000  -1.2590   0.0000   0.0000   0.0000   0.3248
  29.400   0.6632   0.31274   0.31122  -0.0700  0.0028  1.0000  -1.2780   0.0000   0.0000   0.0000   0.3254
  29.500   0.6646   0.31409   0.31257  -0.0707  0.0028  1.0000  -1.2991   0.0000   0.0000   0.0000   0.3260
  29.600   0.6661   0.31546   0.31394  -0.0714  0.0028  1.0000  -1.3229   0.0000   0.0000   0.0000   0.3265
  29.700   0.6676   0.31690   0.31539  -0.0720  0.0028  1.0000  -1.3510   0.0000   0.0000   0.0000   0.3269


