xflr5 v6.61

 Calculated polar for: MH 17

 1 1 Reynolds number fixed          Mach number fixed         

 xtrf =   1.000 (top)        1.000 (bottom)
 Mach =   0.000     Re =     0.100 e 6     Ncrit =   9.000

  alpha     CL        CD       CDp       Cm    Top Xtr Bot Xtr   Cpmin    Chinge    XCp    
 ------- -------- --------- --------- -------- ------- ------- -------- --------- ---------
 -10.000  -0.3392   0.08774   0.08358  -0.0397  1.0000  0.1202  -1.3613   0.0000   0.0000   0.0000   0.1265
  -9.900  -0.3469   0.08668   0.08255  -0.0397  1.0000  0.1217  -1.3871   0.0000   0.0000   0.0000   0.1292
  -9.800  -0.3571   0.08558   0.08148  -0.0400  1.0000  0.1228  -1.4226   0.0000   0.0000   0.0000   0.1318
  -9.700  -0.3692   0.08445   0.08038  -0.0405  1.0000  0.1236  -1.4649   0.0000   0.0000   0.0000   0.1345
  -9.600  -0.3819   0.08327   0.07923  -0.0410  1.0000  0.1241  -1.5085   0.0000   0.0000   0.0000   0.1369
  -9.500  -0.3941   0.08200   0.07800  -0.0414  1.0000  0.1243  -1.5492   0.0000   0.0000   0.0000   0.1393
  -9.400  -0.4057   0.08066   0.07669  -0.0418  1.0000  0.1245  -1.5903   0.0000   0.0000   0.0000   0.1415
  -9.300  -0.4170   0.07925   0.07530  -0.0422  1.0000  0.1246  -1.6315   0.0000   0.0000   0.0000   0.1435
  -9.200  -0.4279   0.07780   0.07387  -0.0425  1.0000  0.1246  -1.6696   0.0000   0.0000   0.0000   0.1456
  -9.100  -0.4126   0.07604   0.07213  -0.0395  1.0000  0.1274  -1.5933   0.0000   0.0000   0.0000   0.1490
  -9.000  -0.4284   0.07438   0.07050  -0.0404  1.0000  0.1271  -1.6449   0.0000   0.0000   0.0000   0.1506
  -8.900  -0.4406   0.07285   0.06899  -0.0407  1.0000  0.1270  -1.6823   0.0000   0.0000   0.0000   0.1527
  -8.800  -0.4521   0.07147   0.06763  -0.0406  1.0000  0.1270  -1.7171   0.0000   0.0000   0.0000   0.1554
  -8.700  -0.4632   0.07020   0.06637  -0.0403  1.0000  0.1270  -1.7473   0.0000   0.0000   0.0000   0.1585
  -8.600  -0.4741   0.06902   0.06519  -0.0396  1.0000  0.1271  -1.7742   0.0000   0.0000   0.0000   0.1619
  -8.500  -0.4848   0.06791   0.06409  -0.0388  1.0000  0.1271  -1.7986   0.0000   0.0000   0.0000   0.1656
  -8.400  -0.4954   0.06687   0.06306  -0.0377  1.0000  0.1271  -1.8208   0.0000   0.0000   0.0000   0.1696
  -8.300  -0.5060   0.06589   0.06209  -0.0364  1.0000  0.1272  -1.8411   0.0000   0.0000   0.0000   0.1738
  -8.200  -0.5165   0.06497   0.06118  -0.0350  1.0000  0.1273  -1.8598   0.0000   0.0000   0.0000   0.1782
  -8.100  -0.5270   0.06411   0.06032  -0.0334  1.0000  0.1273  -1.8769   0.0000   0.0000   0.0000   0.1827
  -8.000  -0.5374   0.06330   0.05952  -0.0316  1.0000  0.1274  -1.8929   0.0000   0.0000   0.0000   0.1872
  -7.900  -0.5479   0.06252   0.05874  -0.0297  1.0000  0.1275  -1.9085   0.0000   0.0000   0.0000   0.1919
  -7.800  -0.5588   0.06173   0.05795  -0.0278  1.0000  0.1275  -1.9264   0.0000   0.0000   0.0000   0.1964
  -7.700  -0.5707   0.06089   0.05709  -0.0261  1.0000  0.1275  -1.9517   0.0000   0.0000   0.0000   0.2005
  -7.600  -0.5834   0.06009   0.05627  -0.0243  1.0000  0.1273  -1.9814   0.0000   0.0000   0.0000   0.2047
  -7.500  -0.5972   0.05941   0.05555  -0.0224  1.0000  0.1270  -2.0173   0.0000   0.0000   0.0000   0.2090
  -7.400  -0.6118   0.05892   0.05499  -0.0202  1.0000  0.1266  -2.0577   0.0000   0.0000   0.0000   0.2134
  -5.300  -0.7087   0.05240   0.04734   0.0108  1.0000  0.1965  -2.0639   0.0000   0.0000   0.0000   0.2615
  -5.200  -0.7058   0.05158   0.04652   0.0119  1.0000  0.2019  -2.0446   0.0000   0.0000   0.0000   0.2632
  -5.100  -0.7083   0.05065   0.04553   0.0135  1.0000  0.2126  -2.0324   0.0000   0.0000   0.0000   0.2655
  -5.000  -0.7044   0.04974   0.04465   0.0146  1.0000  0.2181  -2.0106   0.0000   0.0000   0.0000   0.2672
  -4.600  -0.7045   0.04651   0.04126   0.0206  1.0000  0.2609  -1.9462   0.0000   0.0000   0.0000   0.2758
  -4.500  -0.6988   0.04524   0.04010   0.0215  1.0000  0.2673  -1.9178   0.0000   0.0000   0.0000   0.2774
  -4.300  -0.6417   0.03704   0.02904   0.0240  0.9992  0.0740  -2.5986   0.0000   0.0000   0.0000   0.2836
  -4.200  -0.6306   0.03550   0.02736   0.0240  0.9979  0.0707  -2.5970   0.0000   0.0000   0.0000   0.2844
  -4.100  -0.6182   0.03396   0.02541   0.0248  0.9965  0.0653  -2.6566   0.0000   0.0000   0.0000   0.2863
  -4.000  -0.6036   0.03402   0.02506   0.0252  0.9948  0.0622  -2.6709   0.0000   0.0000   0.0000   0.2880
  -3.900  -0.5900   0.03367   0.02456   0.0249  0.9932  0.0614  -2.6309   0.0000   0.0000   0.0000   0.2886
  -3.800  -0.5782   0.03261   0.02334   0.0249  0.9916  0.0612  -2.6059   0.0000   0.0000   0.0000   0.2894
  -3.700  -0.5665   0.03178   0.02235   0.0248  0.9899  0.0619  -2.5760   0.0000   0.0000   0.0000   0.2902
  -3.600  -0.5537   0.03029   0.02078   0.0244  0.9886  0.0632  -2.5445   0.0000   0.0000   0.0000   0.2904
  -3.500  -0.5402   0.02941   0.01985   0.0238  0.9870  0.0646  -2.4916   0.0000   0.0000   0.0000   0.2905
  -3.400  -0.5255   0.02875   0.01912   0.0232  0.9855  0.0652  -2.4429   0.0000   0.0000   0.0000   0.2906
  -3.300  -0.5096   0.02812   0.01840   0.0225  0.9842  0.0654  -2.3972   0.0000   0.0000   0.0000   0.2905
  -3.200  -0.4950   0.02755   0.01777   0.0219  0.9828  0.0659  -2.3477   0.0000   0.0000   0.0000   0.2907
  -3.100  -0.4833   0.02702   0.01721   0.0219  0.9812  0.0667  -2.3001   0.0000   0.0000   0.0000   0.2917
  -3.000  -0.4712   0.02654   0.01670   0.0217  0.9795  0.0678  -2.2489   0.0000   0.0000   0.0000   0.2926
  -2.900  -0.4588   0.02611   0.01625   0.0215  0.9778  0.0693  -2.1948   0.0000   0.0000   0.0000   0.2934
  -2.800  -0.4459   0.02573   0.01585   0.0212  0.9760  0.0711  -2.1385   0.0000   0.0000   0.0000   0.2940
  -2.700  -0.4327   0.02548   0.01556   0.0208  0.9742  0.0745  -2.0945   0.0000   0.0000   0.0000   0.2946
  -2.600  -0.4195   0.02513   0.01517   0.0203  0.9726  0.0785  -2.0569   0.0000   0.0000   0.0000   0.2950
  -2.500  -0.4072   0.02473   0.01487   0.0199  0.9710  0.0834  -2.0124   0.0000   0.0000   0.0000   0.2955
  -2.400  -0.1081   0.02590   0.01918  -0.0234  0.9996  1.0000  -1.1958   0.0000   0.0000   0.0000   0.0236
  -2.300  -0.0933   0.02577   0.01897  -0.0248  0.9972  1.0000  -1.1143   0.0000   0.0000   0.0000  -0.0275
  -2.200  -0.0793   0.02571   0.01882  -0.0262  0.9949  1.0000  -1.0456   0.0000   0.0000   0.0000  -0.0929
  -2.100  -0.0663   0.02563   0.01867  -0.0273  0.9927  1.0000  -0.9835   0.0000   0.0000   0.0000  -0.1762
  -2.000  -0.0544   0.02553   0.01850  -0.0282  0.9902  1.0000  -0.9246   0.0000   0.0000   0.0000  -0.2860
  -1.900  -0.0417   0.02546   0.01837  -0.0293  0.9877  1.0000  -0.8644   0.0000   0.0000   0.0000  -0.4728
  -1.800  -0.0280   0.02544   0.01825  -0.0305  0.9854  1.0000  -0.8016   0.0000   0.0000   0.0000  -0.8679
  -1.700  -0.0132   0.02545   0.01819  -0.0320  0.9835  1.0000  -0.7374   0.0000   0.0000   0.0000  -2.2235
  -1.600  -0.0044   0.02535   0.01805  -0.0322  0.9807  1.0000  -0.6892   0.0000   0.0000   0.0000  -7.2120
  -1.500   0.0057   0.02530   0.01795  -0.0327  0.9779  1.0000  -0.6385   0.0000   0.0000   0.0000   6.1524
  -1.400   0.0173   0.02528   0.01788  -0.0335  0.9754  1.0000  -0.5844   0.0000   0.0000   0.0000   2.2244
  -1.300   0.0307   0.02528   0.01783  -0.0347  0.9732  1.0000  -0.5268   0.0000   0.0000   0.0000   1.3970
  -1.200   0.0458   0.02532   0.01782  -0.0361  0.9712  1.0000  -0.4659   0.0000   0.0000   0.0000   1.0490
  -1.100   0.0527   0.02528   0.01774  -0.0359  0.9682  1.0000  -0.4320   0.0000   0.0000   0.0000   0.9414
  -1.000   0.0600   0.02525   0.01768  -0.0359  0.9651  1.0000  -0.3975   0.0000   0.0000   0.0000   0.8553
  -0.900   0.0700   0.02525   0.01764  -0.0363  0.9623  1.0000  -0.3579   0.0000   0.0000   0.0000   0.7740
  -0.800   0.0822   0.02528   0.01763  -0.0371  0.9599  1.0000  -0.3595   0.0000   0.0000   0.0000   0.7057
  -0.700   0.0966   0.02533   0.01764  -0.0383  0.9578  1.0000  -0.3658   0.0000   0.0000   0.0000   0.6500
  -0.600   0.1128   0.02542   0.01769  -0.0399  0.9560  1.0000  -0.3733   0.0000   0.0000   0.0000   0.6056
  -0.500   0.1125   0.02538   0.01763  -0.0383  0.9519  1.0000  -0.3728   0.0000   0.0000   0.0000   0.5926
  -0.400   0.1191   0.02539   0.01762  -0.0381  0.9486  1.0000  -0.3775   0.0000   0.0000   0.0000   0.5708
  -0.300   0.1294   0.02544   0.01763  -0.0385  0.9458  1.0000  -0.3852   0.0000   0.0000   0.0000   0.5480
  -0.200   0.1425   0.02550   0.01767  -0.0394  0.9434  1.0000  -0.3947   0.0000   0.0000   0.0000   0.5266
  -0.100   0.1581   0.02559   0.01773  -0.0407  0.9414  1.0000  -0.4059   0.0000   0.0000   0.0000   0.5075
   0.000   0.1735   0.02570   0.01782  -0.0420  0.9394  1.0000  -0.4174   0.0000   0.0000   0.0000   0.4918
   0.100   0.1688   0.02570   0.01781  -0.0396  0.9345  1.0000  -0.4175   0.0000   0.0000   0.0000   0.4840
   0.200   0.1760   0.02576   0.01785  -0.0393  0.9312  1.0000  -0.4246   0.0000   0.0000   0.0000   0.4727
   0.300   0.1879   0.02583   0.01791  -0.0399  0.9285  1.0000  -0.4348   0.0000   0.0000   0.0000   0.4616
   0.400   0.2033   0.02593   0.01798  -0.0411  0.9262  1.0000  -0.4470   0.0000   0.0000   0.0000   0.4513
   0.500   0.2213   0.02604   0.01809  -0.0428  0.9244  1.0000  -0.4609   0.0000   0.0000   0.0000   0.4423
   0.600   0.2187   0.02612   0.01815  -0.0408  0.9198  1.0000  -0.4627   0.0000   0.0000   0.0000   0.4348
   0.700   0.2234   0.02619   0.01822  -0.0400  0.9159  1.0000  -0.4691   0.0000   0.0000   0.0000   0.4272
   0.800   0.2355   0.02628   0.01829  -0.0405  0.9129  1.0000  -0.4802   0.0000   0.0000   0.0000   0.4203
   0.900   0.2517   0.02637   0.01838  -0.0418  0.9105  1.0000  -0.4939   0.0000   0.0000   0.0000   0.4142
   1.000   0.2710   0.02648   0.01849  -0.0437  0.9086  1.0000  -0.5096   0.0000   0.0000   0.0000   0.4090
   1.100   0.2665   0.02659   0.01859  -0.0411  0.9033  1.0000  -0.5103   0.0000   0.0000   0.0000   0.4022
   1.200   0.2730   0.02668   0.01868  -0.0406  0.8992  1.0000  -0.5186   0.0000   0.0000   0.0000   0.3964
   1.300   0.2879   0.02676   0.01875  -0.0416  0.8962  1.0000  -0.5325   0.0000   0.0000   0.0000   0.3920
   1.400   0.3078   0.02682   0.01884  -0.0434  0.8938  1.0000  -0.5499   0.0000   0.0000   0.0000   0.3886
   1.500   0.3330   0.02687   0.01891  -0.0462  0.8920  1.0000  -0.5708   0.0000   0.0000   0.0000   0.3862
   1.600   0.3181   0.02701   0.01903  -0.0418  0.8843  1.0000  -0.5650   0.0000   0.0000   0.0000   0.3785
   1.700   0.3349   0.02702   0.01906  -0.0429  0.8806  1.0000  -0.5805   0.0000   0.0000   0.0000   0.3754
   1.800   0.3602   0.02698   0.01903  -0.0456  0.8779  1.0000  -0.6030   0.0000   0.0000   0.0000   0.3737
   1.900   0.3933   0.02686   0.01895  -0.0496  0.8759  1.0000  -0.6314   0.0000   0.0000   0.0000   0.3732
   2.000   0.3739   0.02709   0.01916  -0.0443  0.8673  1.0000  -0.6222   0.0000   0.0000   0.0000   0.3654
   2.100   0.3959   0.02699   0.01909  -0.0463  0.8637  1.0000  -0.6430   0.0000   0.0000   0.0000   0.3638
   2.200   0.4268   0.02680   0.01895  -0.0498  0.8613  1.0000  -0.6703   0.0000   0.0000   0.0000   0.3635
   2.300   0.4563   0.02662   0.01884  -0.0531  0.8589  1.0000  -0.6974   0.0000   0.0000   0.0000   0.3632
   2.400   0.4347   0.02695   0.01914  -0.0474  0.8502  1.0000  -0.6862   0.0000   0.0000   0.0000   0.3556
   2.500   0.4588   0.02679   0.01903  -0.0497  0.8472  1.0000  -0.7103   0.0000   0.0000   0.0000   0.3549
   2.600   0.4904   0.02652   0.01883  -0.0533  0.8452  1.0000  -0.7404   0.0000   0.0000   0.0000   0.3552
   2.700   0.5217   0.02622   0.01860  -0.0568  0.8436  1.0000  -0.7706   0.0000   0.0000   0.0000   0.3554
   2.800   0.4958   0.02671   0.01905  -0.0503  0.8342  1.0000  -0.7557   0.0000   0.0000   0.0000   0.3479
   2.900   0.5201   0.02649   0.01889  -0.0526  0.8313  1.0000  -0.7804   0.0000   0.0000   0.0000   0.3475
   3.000   0.5463   0.02618   0.01865  -0.0551  0.8290  1.0000  -0.8107   0.0000   0.0000   0.0000   0.3472
   3.100   0.5727   0.02581   0.01836  -0.0575  0.8272  1.0000  -0.9013   0.0000   0.0000   0.0000   0.3467
   3.200   0.5563   0.02628   0.01881  -0.0528  0.8183  1.0000  -0.8861   0.0000   0.0000   0.0000   0.3412
   3.300   0.5751   0.02603   0.01865  -0.0539  0.8149  1.0000  -0.9592   0.0000   0.0000   0.0000   0.3399
   3.400   0.5983   0.02565   0.01835  -0.0557  0.8125  1.0000  -1.0453   0.0000   0.0000   0.0000   0.3392
   3.500   0.6228   0.02520   0.01798  -0.0576  0.8107  1.0000  -1.1462   0.0000   0.0000   0.0000   0.3385
   3.600   0.6092   0.02567   0.01845  -0.0535  0.8015  1.0000  -1.1361   0.0000   0.0000   0.0000   0.3337
   3.700   0.6276   0.02533   0.01818  -0.0544  0.7981  1.0000  -1.2246   0.0000   0.0000   0.0000   0.3325
   3.800   0.6500   0.02483   0.01776  -0.0558  0.7958  1.0000  -1.3278   0.0000   0.0000   0.0000   0.3316
   4.000   0.6609   0.02477   0.01779  -0.0534  0.7839  1.0000  -1.4293   0.0000   0.0000   0.0000   0.3265
   4.100   0.6800   0.02428   0.01739  -0.0542  0.7809  1.0000  -1.5261   0.0000   0.0000   0.0000   0.3253
   4.200   0.7009   0.02368   0.01691  -0.0552  0.7785  1.0000  -1.6305   0.0000   0.0000   0.0000   0.3242
   4.300   0.6967   0.02396   0.01722  -0.0526  0.7697  1.0000  -1.6510   0.0000   0.0000   0.0000   0.3208
   4.400   0.7128   0.02348   0.01682  -0.0528  0.7657  1.0000  -1.7411   0.0000   0.0000   0.0000   0.3194
   4.500   0.7321   0.02284   0.01628  -0.0534  0.7629  1.0000  -1.8442   0.0000   0.0000   0.0000   0.3182
   4.600   0.7330   0.02294   0.01642  -0.0515  0.7548  1.0000  -1.8831   0.0000   0.0000   0.0000   0.3154
   4.700   0.7469   0.02247   0.01603  -0.0513  0.7499  1.0000  -1.9748   0.0000   0.0000   0.0000   0.3137
   4.800   0.7658   0.02175   0.01542  -0.0517  0.7465  1.0000  -2.0956   0.0000   0.0000   0.0000   0.3125
   4.900   0.7677   0.02179   0.01551  -0.0499  0.7379  1.0000  -2.1465   0.0000   0.0000   0.0000   0.3099
   5.000   0.7840   0.02107   0.01488  -0.0497  0.7322  1.0000  -2.2593   0.0000   0.0000   0.0000   0.3083
   5.100   0.7933   0.02050   0.01438  -0.0484  0.7222  1.0000  -2.3451   0.0000   0.0000   0.0000   0.3058
   5.200   0.8085   0.01936   0.01332  -0.0474  0.7089  1.0000  -2.4594   0.0000   0.0000   0.0000   0.3033
   5.300   0.8182   0.01855   0.01252  -0.0457  0.6914  1.0000  -2.5510   0.0000   0.0000   0.0000   0.3005
   5.400   0.8262   0.01795   0.01193  -0.0440  0.6710  1.0000  -2.6344   0.0000   0.0000   0.0000   0.2978
   5.500   0.8362   0.01739   0.01132  -0.0427  0.6478  1.0000  -2.7257   0.0000   0.0000   0.0000   0.2954
   5.600   0.8409   0.01721   0.01110  -0.0409  0.6208  1.0000  -2.7929   0.0000   0.0000   0.0000   0.2929
   5.700   0.8468   0.01703   0.01082  -0.0392  0.5870  1.0000  -2.8645   0.0000   0.0000   0.0000   0.2904
   5.800   0.8520   0.01699   0.01060  -0.0375  0.5470  1.0000  -2.9319   0.0000   0.0000   0.0000   0.2880
   5.900   0.8559   0.01712   0.01052  -0.0357  0.5036  1.0000  -2.9912   0.0000   0.0000   0.0000   0.2857
   6.000   0.8577   0.01741   0.01053  -0.0337  0.4558  1.0000  -3.0396   0.0000   0.0000   0.0000   0.2831
   6.100   0.8568   0.01788   0.01067  -0.0314  0.4063  1.0000  -3.0745   0.0000   0.0000   0.0000   0.2803
   6.200   0.8539   0.01849   0.01093  -0.0289  0.3561  1.0000  -3.0976   0.0000   0.0000   0.0000   0.2774
   6.300   0.8491   0.01922   0.01128  -0.0262  0.3027  1.0000  -3.1088   0.0000   0.0000   0.0000   0.2742
   6.400   0.8427   0.02007   0.01169  -0.0233  0.2379  1.0000  -3.1076   0.0000   0.0000   0.0000   0.2709
   6.500   0.8351   0.02111   0.01216  -0.0204  0.1607  1.0000  -3.0969   0.0000   0.0000   0.0000   0.2675
   6.600   0.8298   0.02210   0.01267  -0.0178  0.1138  1.0000  -3.0918   0.0000   0.0000   0.0000   0.2644
   6.700   0.8284   0.02285   0.01319  -0.0157  0.0970  1.0000  -3.0993   0.0000   0.0000   0.0000   0.2618
   6.800   0.8288   0.02344   0.01371  -0.0138  0.0886  1.0000  -3.1140   0.0000   0.0000   0.0000   0.2595
   6.900   0.8299   0.02396   0.01420  -0.0121  0.0830  1.0000  -3.1356   0.0000   0.0000   0.0000   0.2572
   7.000   0.8291   0.02457   0.01475  -0.0102  0.0792  1.0000  -3.1529   0.0000   0.0000   0.0000   0.2548
   7.100   0.8312   0.02502   0.01523  -0.0085  0.0763  1.0000  -3.1747   0.0000   0.0000   0.0000   0.2526
   7.200   0.8333   0.02546   0.01571  -0.0069  0.0735  1.0000  -3.2127   0.0000   0.0000   0.0000   0.2506
   7.300   0.8354   0.02591   0.01620  -0.0054  0.0708  1.0000  -3.2532   0.0000   0.0000   0.0000   0.2486
   7.400   0.8370   0.02640   0.01668  -0.0038  0.0683  1.0000  -3.2956   0.0000   0.0000   0.0000   0.2466
   7.500   0.8376   0.02702   0.01726  -0.0022  0.0660  1.0000  -3.3338   0.0000   0.0000   0.0000   0.2446
   7.600   0.8403   0.02771   0.01791  -0.0009  0.0638  1.0000  -3.3733   0.0000   0.0000   0.0000   0.2429
   7.700   0.8454   0.02811   0.01837   0.0002  0.0619  1.0000  -3.4259   0.0000   0.0000   0.0000   0.2415
   7.800   0.8514   0.02861   0.01890   0.0011  0.0601  1.0000  -3.4787   0.0000   0.0000   0.0000   0.2403
   7.900   0.8594   0.02921   0.01952   0.0017  0.0587  1.0000  -3.5352   0.0000   0.0000   0.0000   0.2395
   8.000   0.8691   0.02986   0.02019   0.0020  0.0573  1.0000  -3.5967   0.0000   0.0000   0.0000   0.2391
   8.100   0.8803   0.03059   0.02093   0.0021  0.0561  1.0000  -3.6627   0.0000   0.0000   0.0000   0.2389
   8.200   0.8933   0.03140   0.02176   0.0019  0.0549  1.0000  -3.7328   0.0000   0.0000   0.0000   0.2391
   8.300   0.9079   0.03234   0.02271   0.0013  0.0540  1.0000  -3.8053   0.0000   0.0000   0.0000   0.2397
   8.400   0.9239   0.03343   0.02383   0.0006  0.0532  1.0000  -3.8767   0.0000   0.0000   0.0000   0.2404
   8.500   0.9404   0.03476   0.02518  -0.0002  0.0523  1.0000  -3.9460   0.0000   0.0000   0.0000   0.2412
   8.600   0.9597   0.03702   0.02751  -0.0017  0.0510  1.0000  -4.0058   0.0000   0.0000   0.0000   0.2427
   8.700   0.9673   0.03820   0.02881  -0.0012  0.0503  1.0000  -4.0408   0.0000   0.0000   0.0000   0.2421
   8.800   0.9712   0.03867   0.02941   0.0001  0.0498  1.0000  -4.0790   0.0000   0.0000   0.0000   0.2406
   8.900   0.9758   0.03931   0.03020   0.0012  0.0492  1.0000  -4.1141   0.0000   0.0000   0.0000   0.2393
   9.000   0.9811   0.04016   0.03120   0.0022  0.0489  1.0000  -4.1448   0.0000   0.0000   0.0000   0.2382
   9.100   0.9869   0.04127   0.03249   0.0031  0.0488  1.0000  -4.1692   0.0000   0.0000   0.0000   0.2373
   9.200   0.9920   0.04246   0.03382   0.0040  0.0489  1.0000  -4.1888   0.0000   0.0000   0.0000   0.2362
   9.300   0.9964   0.04370   0.03520   0.0051  0.0491  1.0000  -4.2047   0.0000   0.0000   0.0000   0.2351
   9.400   1.0001   0.04501   0.03665   0.0061  0.0493  1.0000  -4.2171   0.0000   0.0000   0.0000   0.2340
   9.500   1.0033   0.04642   0.03820   0.0072  0.0495  1.0000  -4.2261   0.0000   0.0000   0.0000   0.2328
   9.600   1.0062   0.04798   0.03989   0.0083  0.0498  1.0000  -4.2316   0.0000   0.0000   0.0000   0.2317
   9.700   1.0093   0.04992   0.04194   0.0091  0.0502  1.0000  -4.2319   0.0000   0.0000   0.0000   0.2308
   9.800   1.0150   0.05191   0.04404   0.0097  0.0508  1.0000  -4.2402   0.0000   0.0000   0.0000   0.2302
   9.900   1.0173   0.05212   0.04437   0.0112  0.0512  1.0000  -4.2667   0.0000   0.0000   0.0000   0.2286
  10.000   1.0180   0.05228   0.04468   0.0131  0.0518  1.0000  -4.2792   0.0000   0.0000   0.0000   0.2266
  10.100   1.0157   0.05265   0.04527   0.0155  0.0529  1.0000  -4.2634   0.0000   0.0000   0.0000   0.2241
  10.200   1.0047   0.05354   0.04647   0.0187  0.0541  1.0000  -4.1971   0.0000   0.0000   0.0000   0.2206
  10.300   0.9942   0.05487   0.04805   0.0216  0.0555  1.0000  -4.1309   0.0000   0.0000   0.0000   0.2174
  10.400   0.9860   0.05632   0.04968   0.0240  0.0567  1.0000  -4.0849   0.0000   0.0000   0.0000   0.2147
  10.500   0.9789   0.05778   0.05128   0.0261  0.0578  1.0000  -4.0521   0.0000   0.0000   0.0000   0.2122
  10.600   0.9722   0.05917   0.05279   0.0281  0.0587  1.0000  -4.0278   0.0000   0.0000   0.0000   0.2099
  10.700   0.9654   0.06047   0.05417   0.0301  0.0596  1.0000  -4.0089   0.0000   0.0000   0.0000   0.2075
  10.800   0.9588   0.06177   0.05555   0.0320  0.0603  1.0000  -3.9935   0.0000   0.0000   0.0000   0.2052
  10.900   0.9528   0.06318   0.05701   0.0336  0.0611  1.0000  -3.9811   0.0000   0.0000   0.0000   0.2031
  11.000   0.9482   0.06483   0.05871   0.0349  0.0620  1.0000  -3.9729   0.0000   0.0000   0.0000   0.2014
  11.100   0.9536   0.06655   0.06057   0.0357  0.0668  1.0000  -3.9566   0.0000   0.0000   0.0000   0.2007
  11.200   0.9379   0.06733   0.06146   0.0383  0.0672  1.0000  -3.9055   0.0000   0.0000   0.0000   0.1972
  11.300   0.9221   0.06838   0.06262   0.0404  0.0677  1.0000  -3.8479   0.0000   0.0000   0.0000   0.1940
  11.400   0.9067   0.06969   0.06403   0.0421  0.0683  1.0000  -3.7883   0.0000   0.0000   0.0000   0.1912
  11.500   0.8919   0.07119   0.06562   0.0433  0.0688  1.0000  -3.7309   0.0000   0.0000   0.0000   0.1888
  11.600   0.8779   0.07284   0.06736   0.0443  0.0693  1.0000  -3.6761   0.0000   0.0000   0.0000   0.1868
  11.700   0.8644   0.07463   0.06922   0.0449  0.0699  1.0000  -3.6224   0.0000   0.0000   0.0000   0.1851
  11.800   0.8513   0.07653   0.07119   0.0453  0.0703  1.0000  -3.5705   0.0000   0.0000   0.0000   0.1837
  11.900   0.8386   0.07854   0.07326   0.0453  0.0707  1.0000  -3.5194   0.0000   0.0000   0.0000   0.1826
  12.000   0.8259   0.08065   0.07542   0.0451  0.0710  1.0000  -3.4684   0.0000   0.0000   0.0000   0.1818
  12.100   0.8130   0.08290   0.07771   0.0447  0.0711  1.0000  -3.4154   0.0000   0.0000   0.0000   0.1813
  12.200   0.8001   0.08535   0.08020   0.0439  0.0712  1.0000  -3.3583   0.0000   0.0000   0.0000   0.1811
  12.300   0.7869   0.08803   0.08291   0.0428  0.0713  1.0000  -3.3007   0.0000   0.0000   0.0000   0.1814
  12.400   0.7733   0.09102   0.08588   0.0412  0.0714  1.0000  -3.2384   0.0000   0.0000   0.0000   0.1822
  12.500   0.7592   0.09445   0.08934   0.0393  0.0716  1.0000  -3.1644   0.0000   0.0000   0.0000   0.1837
  12.600   0.7443   0.09851   0.09340   0.0367  0.0720  1.0000  -3.0730   0.0000   0.0000   0.0000   0.1859
  12.700   0.7297   0.10324   0.09813   0.0337  0.0730  1.0000  -2.9632   0.0000   0.0000   0.0000   0.1889
  12.800   0.7234   0.10671   0.10159   0.0322  0.0752  1.0000  -2.9007   0.0000   0.0000   0.0000   0.1904
  12.900   0.6497   0.13322   0.12791   0.0132  0.1471  1.0000  -1.9624   0.0000   0.0000   0.0000   0.2153
  13.000   0.6505   0.13475   0.12944   0.0130  0.1452  1.0000  -1.9616   0.0000   0.0000   0.0000   0.2155
  13.100   0.6551   0.13596   0.13066   0.0134  0.1431  1.0000  -1.9821   0.0000   0.0000   0.0000   0.2150
  13.200   0.6632   0.13708   0.13180   0.0143  0.1415  1.0000  -2.0199   0.0000   0.0000   0.0000   0.2137
  13.300   0.6700   0.13859   0.13333   0.0150  0.1407  1.0000  -2.0462   0.0000   0.0000   0.0000   0.2129
  13.400   0.6778   0.14030   0.13506   0.0158  0.1401  1.0000  -2.0758   0.0000   0.0000   0.0000   0.2119
  13.500   0.6920   0.14241   0.13722   0.0177  0.1394  1.0000  -2.1338   0.0000   0.0000   0.0000   0.2097
  13.600   0.6792   0.14497   0.13971   0.0154  0.1386  1.0000  -2.0626   0.0000   0.0000   0.0000   0.2124
  13.700   0.6462   0.14674   0.14135   0.0097  0.1329  1.0000  -1.8957   0.0000   0.0000   0.0000   0.2195
  13.800   0.6460   0.14830   0.14291   0.0092  0.1310  1.0000  -1.8875   0.0000   0.0000   0.0000   0.2202
  13.900   0.6475   0.14979   0.14439   0.0090  0.1294  1.0000  -1.8880   0.0000   0.0000   0.0000   0.2204
  14.000   0.6505   0.15123   0.14583   0.0090  0.1280  1.0000  -1.8962   0.0000   0.0000   0.0000   0.2204
  14.100   0.6552   0.15262   0.14724   0.0093  0.1268  1.0000  -1.9136   0.0000   0.0000   0.0000   0.2200
  14.200   0.6624   0.15404   0.14868   0.0100  0.1256  1.0000  -1.9447   0.0000   0.0000   0.0000   0.2190
  14.300   0.6748   0.15569   0.15037   0.0115  0.1246  1.0000  -2.0020   0.0000   0.0000   0.0000   0.2169
  14.400   0.6925   0.15874   0.15346   0.0141  0.1235  1.0000  -2.0974   0.0000   0.0000   0.0000   0.2138
  14.500   0.6753   0.16027   0.15491   0.0107  0.1231  1.0000  -1.9794   0.0000   0.0000   0.0000   0.2180
  14.600   0.6521   0.16141   0.15596   0.0062  0.1204  1.0000  -1.8446   0.0000   0.0000   0.0000   0.2240
  14.700   0.6486   0.16286   0.15739   0.0050  0.1178  1.0000  -1.8160   0.0000   0.0000   0.0000   0.2255
  14.800   0.6491   0.16428   0.15881   0.0045  0.1157  1.0000  -1.8093   0.0000   0.0000   0.0000   0.2262
  14.900   0.6514   0.16566   0.16019   0.0043  0.1140  1.0000  -1.8129   0.0000   0.0000   0.0000   0.2264
  15.000   0.6554   0.16702   0.16156   0.0044  0.1124  1.0000  -1.8323   0.0000   0.0000   0.0000   0.2262
  15.100   0.6619   0.16841   0.16297   0.0048  0.1110  1.0000  -1.8760   0.0000   0.0000   0.0000   0.2255
  15.200   0.6730   0.17004   0.16463   0.0062  0.1098  1.0000  -1.9526   0.0000   0.0000   0.0000   0.2236
  15.300   0.6960   0.17385   0.16850   0.0098  0.1084  1.0000  -2.1090   0.0000   0.0000   0.0000   0.2188
  15.400   0.6862   0.17511   0.16972   0.0074  0.1081  1.0000  -2.0302   0.0000   0.0000   0.0000   0.2219
  15.500   0.6736   0.17604   0.17059   0.0044  0.1075  1.0000  -1.9292   0.0000   0.0000   0.0000   0.2259
  15.600   0.6609   0.17677   0.17126   0.0014  0.1056  1.0000  -1.8299   0.0000   0.0000   0.0000   0.2299
  15.700   0.6579   0.17798   0.17245   0.0002  0.1033  1.0000  -1.8002   0.0000   0.0000   0.0000   0.2316
  15.800   0.6584   0.17932   0.17379  -0.0005  0.1014  1.0000  -1.7967   0.0000   0.0000   0.0000   0.2325
  15.900   0.6604   0.18066   0.17512  -0.0009  0.0996  1.0000  -1.8054   0.0000   0.0000   0.0000   0.2329
  16.000   0.6638   0.18199   0.17646  -0.0010  0.0980  1.0000  -1.8254   0.0000   0.0000   0.0000   0.2329
  16.100   0.6692   0.18339   0.17787  -0.0008  0.0966  1.0000  -1.8607   0.0000   0.0000   0.0000   0.2325
  16.200   0.6790   0.18520   0.17971   0.0002  0.0952  1.0000  -1.9288   0.0000   0.0000   0.0000   0.2310
  16.300   0.7022   0.18983   0.18444   0.0040  0.0934  1.0000  -2.0993   0.0000   0.0000   0.0000   0.2257
  16.400   0.6964   0.19092   0.18546   0.0021  0.0932  1.0000  -2.0403   0.0000   0.0000   0.0000   0.2282
  16.500   0.6898   0.19177   0.18627  -0.0000  0.0928  1.0000  -1.9733   0.0000   0.0000   0.0000   0.2310
  16.600   0.6821   0.19231   0.18678  -0.0024  0.0922  1.0000  -1.8995   0.0000   0.0000   0.0000   0.2342
  16.700   0.6755   0.19283   0.18726  -0.0044  0.0909  1.0000  -1.8360   0.0000   0.0000   0.0000   0.2370
  16.800   0.6738   0.19394   0.18836  -0.0057  0.0889  1.0000  -1.8078   0.0000   0.0000   0.0000   0.2387
  16.900   0.6748   0.19522   0.18963  -0.0064  0.0869  1.0000  -1.8024   0.0000   0.0000   0.0000   0.2396
  17.000   0.6771   0.19649   0.19090  -0.0069  0.0850  1.0000  -1.8106   0.0000   0.0000   0.0000   0.2401
  17.100   0.6809   0.19772   0.19214  -0.0070  0.0831  1.0000  -1.8354   0.0000   0.0000   0.0000   0.2400
  17.200   0.6888   0.19914   0.19362  -0.0062  0.0811  1.0000  -1.9020   0.0000   0.0000   0.0000   0.2387
  17.300   0.7143   0.20499   0.19954  -0.0017  0.0787  1.0000  -2.1091   0.0000   0.0000   0.0000   0.2323
  17.400   0.7109   0.20592   0.20045  -0.0034  0.0785  1.0000  -2.0594   0.0000   0.0000   0.0000   0.2345
  17.500   0.7067   0.20663   0.20113  -0.0053  0.0783  1.0000  -2.0027   0.0000   0.0000   0.0000   0.2370
  17.600   0.7013   0.20695   0.20141  -0.0073  0.0779  1.0000  -1.9391   0.0000   0.0000   0.0000   0.2397
  17.700   0.6960   0.20719   0.20162  -0.0094  0.0771  1.0000  -1.8756   0.0000   0.0000   0.0000   0.2425
  17.800   0.6938   0.20800   0.20241  -0.0110  0.0756  1.0000  -1.8324   0.0000   0.0000   0.0000   0.2446
  17.900   0.6944   0.20922   0.20362  -0.0121  0.0741  1.0000  -1.8158   0.0000   0.0000   0.0000   0.2459
  18.000   0.6960   0.21053   0.20492  -0.0128  0.0727  1.0000  -1.8110   0.0000   0.0000   0.0000   0.2468
  18.100   0.6982   0.21184   0.20624  -0.0134  0.0714  1.0000  -1.8126   0.0000   0.0000   0.0000   0.2474
  18.200   0.7008   0.21315   0.20754  -0.0139  0.0702  1.0000  -1.8194   0.0000   0.0000   0.0000   0.2479
  18.300   0.7039   0.21445   0.20885  -0.0143  0.0691  1.0000  -1.8317   0.0000   0.0000   0.0000   0.2482
  18.400   0.7074   0.21578   0.21019  -0.0145  0.0680  1.0000  -1.8512   0.0000   0.0000   0.0000   0.2483
  18.500   0.7119   0.21722   0.21164  -0.0145  0.0671  1.0000  -1.8812   0.0000   0.0000   0.0000   0.2480
  18.600   0.7185   0.21908   0.21352  -0.0141  0.0661  1.0000  -1.9323   0.0000   0.0000   0.0000   0.2471
  18.700   0.7414   0.22728   0.22179  -0.0100  0.0645  1.0000  -2.1240   0.0000   0.0000   0.0000   0.2412
  18.800   0.7408   0.22823   0.22272  -0.0113  0.0644  1.0000  -2.0907   0.0000   0.0000   0.0000   0.2428
  18.900   0.7396   0.22898   0.22346  -0.0127  0.0643  1.0000  -2.0530   0.0000   0.0000   0.0000   0.2445
  19.000   0.7380   0.22951   0.22396  -0.0142  0.0641  1.0000  -2.0111   0.0000   0.0000   0.0000   0.2464
  19.100   0.7354   0.22964   0.22407  -0.0159  0.0639  1.0000  -1.9636   0.0000   0.0000   0.0000   0.2484
  19.200   0.7324   0.22956   0.22396  -0.0176  0.0636  1.0000  -1.9126   0.0000   0.0000   0.0000   0.2507
  19.300   0.7300   0.22965   0.22403  -0.0194  0.0631  1.0000  -1.8608   0.0000   0.0000   0.0000   0.2530
  19.400   0.7294   0.23024   0.22460  -0.0210  0.0621  1.0000  -1.8202   0.0000   0.0000   0.0000   0.2549
  19.500   0.7305   0.23131   0.22566  -0.0222  0.0610  1.0000  -1.7982   0.0000   0.0000   0.0000   0.2562
  19.600   0.7324   0.23254   0.22689  -0.0230  0.0599  1.0000  -1.7870   0.0000   0.0000   0.0000   0.2572
  19.700   0.7346   0.23381   0.22816  -0.0238  0.0588  1.0000  -1.7813   0.0000   0.0000   0.0000   0.2580
  19.800   0.7371   0.23507   0.22942  -0.0245  0.0578  1.0000  -1.7792   0.0000   0.0000   0.0000   0.2586
  19.900   0.7397   0.23635   0.23071  -0.0251  0.0569  1.0000  -1.7801   0.0000   0.0000   0.0000   0.2592
  20.000   0.7425   0.23763   0.23198  -0.0257  0.0560  1.0000  -1.7838   0.0000   0.0000   0.0000   0.2597
  20.100   0.7454   0.23893   0.23329  -0.0262  0.0552  1.0000  -1.7908   0.0000   0.0000   0.0000   0.2601
  20.200   0.7486   0.24023   0.23459  -0.0267  0.0544  1.0000  -1.8017   0.0000   0.0000   0.0000   0.2603
  20.300   0.7520   0.24157   0.23594  -0.0270  0.0536  1.0000  -1.8177   0.0000   0.0000   0.0000   0.2604
  20.400   0.7560   0.24305   0.23743  -0.0272  0.0529  1.0000  -1.8411   0.0000   0.0000   0.0000   0.2603
  20.500   0.7610   0.24489   0.23928  -0.0271  0.0522  1.0000  -1.8774   0.0000   0.0000   0.0000   0.2598
  20.600   0.7698   0.24849   0.24292  -0.0260  0.0514  1.0000  -1.9531   0.0000   0.0000   0.0000   0.2579
  20.700   0.7833   0.25723   0.25172  -0.0241  0.0506  1.0000  -2.0530   0.0000   0.0000   0.0000   0.2551
  20.800   0.7840   0.25792   0.25240  -0.0252  0.0506  1.0000  -2.0333   0.0000   0.0000   0.0000   0.2563
  20.900   0.7841   0.25838   0.25284  -0.0265  0.0505  1.0000  -2.0095   0.0000   0.0000   0.0000   0.2577
  21.000   0.7839   0.25856   0.25301  -0.0278  0.0504  1.0000  -1.9819   0.0000   0.0000   0.0000   0.2591
  21.100   0.7829   0.25840   0.25283  -0.0292  0.0503  1.0000  -1.9492   0.0000   0.0000   0.0000   0.2607
  21.200   0.7820   0.25819   0.25260  -0.0308  0.0501  1.0000  -1.9143   0.0000   0.0000   0.0000   0.2625
  21.300   0.7814   0.25800   0.25240  -0.0324  0.0499  1.0000  -1.8773   0.0000   0.0000   0.0000   0.2643
  21.400   0.7812   0.25799   0.25237  -0.0340  0.0494  1.0000  -1.8396   0.0000   0.0000   0.0000   0.2661
  21.500   0.7820   0.25841   0.25277  -0.0355  0.0488  1.0000  -1.8082   0.0000   0.0000   0.0000   0.2678
  21.600   0.7838   0.25930   0.25366  -0.0368  0.0479  1.0000  -1.7903   0.0000   0.0000   0.0000   0.2690
  21.700   0.7860   0.26043   0.25479  -0.0377  0.0469  1.0000  -1.7834   0.0000   0.0000   0.0000   0.2699
  21.800   0.7886   0.26163   0.25599  -0.0386  0.0459  1.0000  -1.7828   0.0000   0.0000   0.0000   0.2707
  21.900   0.7912   0.26286   0.25722  -0.0394  0.0450  1.0000  -1.7862   0.0000   0.0000   0.0000   0.2713
  22.000   0.7939   0.26405   0.25841  -0.0401  0.0441  1.0000  -1.7929   0.0000   0.0000   0.0000   0.2719
  22.100   0.7967   0.26527   0.25964  -0.0408  0.0432  1.0000  -1.8026   0.0000   0.0000   0.0000   0.2724
  22.200   0.7996   0.26653   0.26090  -0.0415  0.0424  1.0000  -1.8151   0.0000   0.0000   0.0000   0.2728
  22.300   0.8026   0.26775   0.26212  -0.0421  0.0417  1.0000  -1.8309   0.0000   0.0000   0.0000   0.2732
  22.400   0.8057   0.26899   0.26337  -0.0426  0.0410  1.0000  -1.8502   0.0000   0.0000   0.0000   0.2734
  22.500   0.8089   0.27028   0.26467  -0.0431  0.0404  1.0000  -1.8734   0.0000   0.0000   0.0000   0.2736
  22.600   0.8123   0.27167   0.26607  -0.0435  0.0398  1.0000  -1.9007   0.0000   0.0000   0.0000   0.2737
  22.700   0.8160   0.27325   0.26765  -0.0437  0.0394  1.0000  -1.9331   0.0000   0.0000   0.0000   0.2736
  22.800   0.8203   0.27525   0.26967  -0.0438  0.0389  1.0000  -1.9763   0.0000   0.0000   0.0000   0.2732
  22.900   0.8265   0.27880   0.27325  -0.0432  0.0384  1.0000  -2.0468   0.0000   0.0000   0.0000   0.2720
  23.000   0.8391   0.28997   0.28444  -0.0412  0.0377  1.0000  -2.1609   0.0000   0.0000   0.0000   0.2690
  23.100   0.8406   0.29062   0.28508  -0.0422  0.0376  1.0000  -2.1459   0.0000   0.0000   0.0000   0.2699
  23.200   0.8419   0.29110   0.28556  -0.0433  0.0376  1.0000  -2.1291   0.0000   0.0000   0.0000   0.2709
  23.300   0.8430   0.29140   0.28584  -0.0445  0.0376  1.0000  -2.1100   0.0000   0.0000   0.0000   0.2720
  23.400   0.8437   0.29144   0.28588  -0.0457  0.0375  1.0000  -2.0877   0.0000   0.0000   0.0000   0.2732
  23.500   0.8445   0.29145   0.28588  -0.0470  0.0374  1.0000  -2.0647   0.0000   0.0000   0.0000   0.2743
  23.600   0.8454   0.29143   0.28585  -0.0483  0.0374  1.0000  -2.0409   0.0000   0.0000   0.0000   0.2755
  23.700   0.8463   0.29140   0.28581  -0.0496  0.0373  1.0000  -2.0161   0.0000   0.0000   0.0000   0.2768
  23.800   0.8474   0.29138   0.28578  -0.0510  0.0371  1.0000  -1.9901   0.0000   0.0000   0.0000   0.2780
  23.900   0.8486   0.29141   0.28580  -0.0523  0.0370  1.0000  -1.9635   0.0000   0.0000   0.0000   0.2793
  24.000   0.8502   0.29158   0.28597  -0.0537  0.0367  1.0000  -1.9368   0.0000   0.0000   0.0000   0.2806
  24.100   0.8520   0.29199   0.28637  -0.0551  0.0364  1.0000  -1.9120   0.0000   0.0000   0.0000   0.2817
  24.200   0.8543   0.29269   0.28707  -0.0563  0.0360  1.0000  -1.8920   0.0000   0.0000   0.0000   0.2828
  24.300   0.8568   0.29363   0.28801  -0.0574  0.0355  1.0000  -1.8780   0.0000   0.0000   0.0000   0.2836
  24.400   0.8594   0.29471   0.28908  -0.0584  0.0350  1.0000  -1.8688   0.0000   0.0000   0.0000   0.2843
  24.500   0.8621   0.29585   0.29023  -0.0593  0.0345  1.0000  -1.8630   0.0000   0.0000   0.0000   0.2850
  24.600   0.8649   0.29698   0.29136  -0.0602  0.0341  1.0000  -1.8593   0.0000   0.0000   0.0000   0.2856
  24.700   0.8676   0.29818   0.29256  -0.0611  0.0336  1.0000  -1.8571   0.0000   0.0000   0.0000   0.2861
  24.800   0.8704   0.29939   0.29377  -0.0619  0.0331  1.0000  -1.8560   0.0000   0.0000   0.0000   0.2866
  24.900   0.8731   0.30059   0.29497  -0.0627  0.0327  1.0000  -1.8558   0.0000   0.0000   0.0000   0.2871
  25.000   0.8759   0.30178   0.29617  -0.0635  0.0322  1.0000  -1.8564   0.0000   0.0000   0.0000   0.2876
  25.100   0.8787   0.30297   0.29737  -0.0644  0.0318  1.0000  -1.8576   0.0000   0.0000   0.0000   0.2881
  25.200   0.8814   0.30416   0.29856  -0.0652  0.0314  1.0000  -1.8596   0.0000   0.0000   0.0000   0.2885
  25.300   0.8842   0.30534   0.29974  -0.0660  0.0310  1.0000  -1.8623   0.0000   0.0000   0.0000   0.2890
  25.400   0.8870   0.30652   0.30093  -0.0667  0.0306  1.0000  -1.8657   0.0000   0.0000   0.0000   0.2894
  25.500   0.8898   0.30769   0.30211  -0.0675  0.0303  1.0000  -1.8700   0.0000   0.0000   0.0000   0.2898


