xflr5 v6.61

 Calculated polar for: MH 17

 1 1 Reynolds number fixed          Mach number fixed         

 xtrf =   1.000 (top)        1.000 (bottom)
 Mach =   0.000     Re =     0.500 e 6     Ncrit =   9.000

  alpha     CL        CD       CDp       Cm    Top Xtr Bot Xtr   Cpmin    Chinge    XCp    
 ------- -------- --------- --------- -------- ------- ------- -------- --------- ---------
 -10.000  -0.3275   0.06060   0.05854  -0.0632  0.9499  0.0201  -2.1478   0.0000   0.0000   0.0000   0.0490
  -9.900  -0.3329   0.05801   0.05595  -0.0647  0.9485  0.0200  -2.2026   0.0000   0.0000   0.0000   0.0476
  -9.800  -0.3405   0.05501   0.05294  -0.0669  0.9471  0.0199  -2.2771   0.0000   0.0000   0.0000   0.0458
  -9.700  -0.3507   0.05188   0.04980  -0.0693  0.9454  0.0197  -2.3655   0.0000   0.0000   0.0000   0.0448
  -9.600  -0.3612   0.04929   0.04718  -0.0709  0.9436  0.0195  -2.4409   0.0000   0.0000   0.0000   0.0464
  -9.500  -0.3720   0.04704   0.04489  -0.0719  0.9416  0.0193  -2.5077   0.0000   0.0000   0.0000   0.0495
  -9.400  -0.3827   0.04507   0.04288  -0.0725  0.9395  0.0192  -2.5671   0.0000   0.0000   0.0000   0.0535
  -9.300  -0.3929   0.04328   0.04105  -0.0728  0.9375  0.0191  -2.6186   0.0000   0.0000   0.0000   0.0580
  -8.700  -0.5082   0.05233   0.04954  -0.0686  0.9371  0.0180  -3.1947   0.0000   0.0000   0.0000   0.1073
  -8.600  -0.5108   0.05133   0.04848  -0.0673  0.9343  0.0181  -3.1920   0.0000   0.0000   0.0000   0.1107
  -8.500  -0.5129   0.05032   0.04741  -0.0660  0.9316  0.0183  -3.1876   0.0000   0.0000   0.0000   0.1140
  -8.400  -0.5147   0.04931   0.04634  -0.0646  0.9291  0.0184  -3.1820   0.0000   0.0000   0.0000   0.1171
  -8.300  -0.5161   0.04831   0.04527  -0.0633  0.9268  0.0186  -3.1753   0.0000   0.0000   0.0000   0.1202
  -8.200  -0.5170   0.04732   0.04420  -0.0619  0.9247  0.0187  -3.1677   0.0000   0.0000   0.0000   0.1231
  -8.100  -0.5173   0.04629   0.04310  -0.0606  0.9227  0.0189  -3.1592   0.0000   0.0000   0.0000   0.1258
  -8.000  -0.5172   0.04524   0.04198  -0.0594  0.9207  0.0192  -3.1504   0.0000   0.0000   0.0000   0.1283
  -7.900  -0.5168   0.04419   0.04084  -0.0581  0.9186  0.0194  -3.1426   0.0000   0.0000   0.0000   0.1307
  -7.800  -0.5160   0.04315   0.03972  -0.0567  0.9165  0.0197  -3.1339   0.0000   0.0000   0.0000   0.1332
  -7.700  -0.5147   0.04212   0.03860  -0.0554  0.9145  0.0201  -3.1259   0.0000   0.0000   0.0000   0.1356
  -7.600  -0.5129   0.04112   0.03751  -0.0540  0.9127  0.0205  -3.1190   0.0000   0.0000   0.0000   0.1379
  -7.500  -0.5102   0.04020   0.03648  -0.0526  0.9110  0.0211  -3.1141   0.0000   0.0000   0.0000   0.1401
  -7.400  -0.5028   0.03996   0.03613  -0.0515  0.9096  0.0220  -3.0807   0.0000   0.0000   0.0000   0.1408
  -7.300  -0.4929   0.04086   0.03690  -0.0505  0.9081  0.0227  -3.0010   0.0000   0.0000   0.0000   0.1408
  -7.200  -0.4899   0.04028   0.03622  -0.0492  0.9065  0.0228  -2.9735   0.0000   0.0000   0.0000   0.1429
  -7.100  -0.4872   0.03953   0.03537  -0.0480  0.9048  0.0229  -2.9504   0.0000   0.0000   0.0000   0.1450
  -7.000  -0.4845   0.03870   0.03444  -0.0467  0.9029  0.0229  -2.9446   0.0000   0.0000   0.0000   0.1472
  -6.900  -0.4816   0.03784   0.03348  -0.0454  0.9012  0.0229  -2.9425   0.0000   0.0000   0.0000   0.1493
  -6.600  -0.4913   0.03077   0.02585  -0.0391  0.8955  0.0239  -3.1862   0.0000   0.0000   0.0000   0.1641
  -6.500  -0.4878   0.02943   0.02442  -0.0381  0.8942  0.0244  -3.1728   0.0000   0.0000   0.0000   0.1657
  -6.400  -0.4828   0.02853   0.02345  -0.0372  0.8929  0.0248  -3.1399   0.0000   0.0000   0.0000   0.1669
  -6.200  -0.4714   0.02238   0.01659  -0.0334  0.8904  0.0168  -3.7325   0.0000   0.0000   0.0000   0.1729
  -6.100  -0.4621   0.02151   0.01559  -0.0329  0.8891  0.0165  -3.7386   0.0000   0.0000   0.0000   0.1726
  -6.000  -0.4528   0.02078   0.01477  -0.0325  0.8878  0.0165  -3.7059   0.0000   0.0000   0.0000   0.1720
  -5.900  -0.4432   0.02009   0.01399  -0.0322  0.8865  0.0165  -3.6628   0.0000   0.0000   0.0000   0.1711
  -5.800  -0.4332   0.01942   0.01324  -0.0319  0.8852  0.0165  -3.6125   0.0000   0.0000   0.0000   0.1700
  -5.700  -0.4231   0.01878   0.01253  -0.0318  0.8840  0.0166  -3.5561   0.0000   0.0000   0.0000   0.1687
  -5.600  -0.4132   0.01822   0.01193  -0.0316  0.8828  0.0169  -3.4762   0.0000   0.0000   0.0000   0.1672
  -5.500  -0.4039   0.01791   0.01162  -0.0314  0.8816  0.0174  -3.3742   0.0000   0.0000   0.0000   0.1661
  -5.400  -0.3947   0.01769   0.01138  -0.0311  0.8804  0.0180  -3.2722   0.0000   0.0000   0.0000   0.1650
  -5.300  -0.3852   0.01744   0.01110  -0.0308  0.8792  0.0184  -3.1791   0.0000   0.0000   0.0000   0.1638
  -5.200  -0.3750   0.01706   0.01067  -0.0307  0.8782  0.0187  -3.1013   0.0000   0.0000   0.0000   0.1621
  -5.100  -0.3642   0.01655   0.01010  -0.0305  0.8773  0.0188  -3.0404   0.0000   0.0000   0.0000   0.1600
  -5.000  -0.3535   0.01602   0.00952  -0.0304  0.8764  0.0188  -2.9843   0.0000   0.0000   0.0000   0.1579
  -4.900  -0.3433   0.01558   0.00904  -0.0302  0.8753  0.0190  -2.9213   0.0000   0.0000   0.0000   0.1559
  -4.800  -0.3333   0.01518   0.00861  -0.0300  0.8741  0.0192  -2.8538   0.0000   0.0000   0.0000   0.1538
  -4.700  -0.3237   0.01483   0.00824  -0.0297  0.8727  0.0195  -2.7844   0.0000   0.0000   0.0000   0.1520
  -4.600  -0.3144   0.01452   0.00790  -0.0294  0.8712  0.0200  -2.7140   0.0000   0.0000   0.0000   0.1504
  -4.500  -0.3054   0.01423   0.00759  -0.0289  0.8697  0.0204  -2.6426   0.0000   0.0000   0.0000   0.1490
  -4.400  -0.2966   0.01397   0.00731  -0.0285  0.8682  0.0209  -2.5702   0.0000   0.0000   0.0000   0.1477
  -4.300  -0.2879   0.01374   0.00705  -0.0280  0.8669  0.0214  -2.4961   0.0000   0.0000   0.0000   0.1465
  -4.200  -0.2792   0.01353   0.00682  -0.0275  0.8655  0.0219  -2.4199   0.0000   0.0000   0.0000   0.1453
  -4.100  -0.2703   0.01335   0.00661  -0.0270  0.8643  0.0223  -2.3410   0.0000   0.0000   0.0000   0.1438
  -4.000  -0.2613   0.01320   0.00643  -0.0266  0.8631  0.0227  -2.2740   0.0000   0.0000   0.0000   0.1421
  -3.900  -0.2521   0.01308   0.00628  -0.0262  0.8620  0.0230  -2.2111   0.0000   0.0000   0.0000   0.1399
  -3.800  -0.2476   0.01256   0.00569  -0.0248  0.8608  0.0241  -2.2008   0.0000   0.0000   0.0000   0.1436
  -3.700  -0.2409   0.01228   0.00539  -0.0239  0.8596  0.0259  -2.1574   0.0000   0.0000   0.0000   0.1446
  -3.600  -0.2323   0.01212   0.00524  -0.0235  0.8580  0.0274  -2.0926   0.0000   0.0000   0.0000   0.1428
  -3.500  -0.2234   0.01199   0.00511  -0.0231  0.8564  0.0289  -2.0285   0.0000   0.0000   0.0000   0.1405
  -3.400  -0.2146   0.01185   0.00496  -0.0226  0.8548  0.0304  -1.9687   0.0000   0.0000   0.0000   0.1383
  -3.300  -0.2056   0.01173   0.00481  -0.0222  0.8532  0.0319  -1.9087   0.0000   0.0000   0.0000   0.1358
  -3.200  -0.1963   0.01163   0.00469  -0.0218  0.8518  0.0332  -1.8442   0.0000   0.0000   0.0000   0.1324
  -3.100  -0.1887   0.01139   0.00442  -0.0211  0.8503  0.0372  -1.8019   0.0000   0.0000   0.0000   0.1320
  -3.000  -0.1802   0.01121   0.00426  -0.0205  0.8489  0.0426  -1.7439   0.0000   0.0000   0.0000   0.1299
  -2.900  -0.1719   0.01103   0.00410  -0.0199  0.8476  0.0540  -1.6877   0.0000   0.0000   0.0000   0.1278
  -2.800  -0.1667   0.01063   0.00393  -0.0188  0.8462  0.1091  -1.6388   0.0000   0.0000   0.0000   0.1308
  -2.700  -0.1635   0.01011   0.00378  -0.0174  0.8449  0.2045  -1.5917   0.0000   0.0000   0.0000   0.1372
  -2.600  -0.1623   0.00949   0.00360  -0.0157  0.8436  0.3225  -1.5482   0.0000   0.0000   0.0000   0.1473
  -2.500  -0.1689   0.00862   0.00344  -0.0124  0.8413  0.5002  -1.5327   0.0000   0.0000   0.0000   0.1708
  -2.400  -0.1698   0.00824   0.00342  -0.0099  0.8390  0.5925  -1.4961   0.0000   0.0000   0.0000   0.1862
  -2.300  -0.1671   0.00802   0.00341  -0.0081  0.8370  0.6459  -1.4462   0.0000   0.0000   0.0000   0.1963
  -2.200  -0.1618   0.00788   0.00339  -0.0068  0.8352  0.6813  -1.3875   0.0000   0.0000   0.0000   0.2029
  -2.100  -0.1550   0.00777   0.00335  -0.0058  0.8336  0.7083  -1.3239   0.0000   0.0000   0.0000   0.2076
  -2.000  -0.1476   0.00766   0.00332  -0.0049  0.8322  0.7318  -1.2588   0.0000   0.0000   0.0000   0.2118
  -1.900  -0.1395   0.00755   0.00328  -0.0041  0.8310  0.7544  -1.1916   0.0000   0.0000   0.0000   0.2151
  -1.800  -0.1304   0.00745   0.00324  -0.0036  0.8298  0.7751  -1.1222   0.0000   0.0000   0.0000   0.2171
  -1.600  -0.1074   0.00729   0.00320  -0.0036  0.8279  0.8122  -0.9809   0.0000   0.0000   0.0000   0.2111
  -1.500  -0.0920   0.00724   0.00321  -0.0044  0.8271  0.8319  -0.9080   0.0000   0.0000   0.0000   0.1961
  -1.400  -0.0729   0.00725   0.00329  -0.0060  0.8263  0.8584  -0.8248   0.0000   0.0000   0.0000   0.1607
  -1.300  -0.0504   0.00735   0.00344  -0.0082  0.8255  0.8790  -0.7359   0.0000   0.0000   0.0000   0.0769
  -1.200  -0.0389   0.00743   0.00353  -0.0082  0.8238  0.8910  -0.6769   0.0000   0.0000   0.0000   0.0275
  -1.100  -0.0199   0.00750   0.00360  -0.0099  0.8226  0.8952  -0.6006   0.0000   0.0000   0.0000  -0.2671
  -1.000  -0.0040   0.00758   0.00367  -0.0108  0.8212  0.8999  -0.5336   0.0000   0.0000   0.0000  -2.5137
  -0.900   0.0010   0.00763   0.00371  -0.0094  0.8192  0.9081  -0.4935   0.0000   0.0000   0.0000   9.7474
  -0.800   0.0195   0.00770   0.00376  -0.0110  0.8181  0.9099  -0.4234   0.0000   0.0000   0.0000   0.8261
  -0.700   0.0369   0.00775   0.00379  -0.0123  0.8170  0.9114  -0.3824   0.0000   0.0000   0.0000   0.5900
  -0.500   0.0679   0.00780   0.00379  -0.0142  0.8147  0.9142  -0.3958   0.0000   0.0000   0.0000   0.4616
  -0.300   0.0825   0.00786   0.00380  -0.0124  0.8119  0.9238  -0.4028   0.0000   0.0000   0.0000   0.4011
  -0.200   0.0992   0.00790   0.00381  -0.0136  0.8109  0.9243  -0.4101   0.0000   0.0000   0.0000   0.3877
  -0.100   0.1153   0.00794   0.00383  -0.0148  0.8097  0.9249  -0.4171   0.0000   0.0000   0.0000   0.3778
   0.000   0.1310   0.00798   0.00388  -0.0158  0.8080  0.9256  -0.4239   0.0000   0.0000   0.0000   0.3702
   0.100   0.1465   0.00803   0.00392  -0.0168  0.8062  0.9263  -0.4309   0.0000   0.0000   0.0000   0.3640
   0.200   0.1618   0.00807   0.00395  -0.0177  0.8045  0.9270  -0.4425   0.0000   0.0000   0.0000   0.3587
   0.300   0.1769   0.00810   0.00397  -0.0186  0.8025  0.9278  -0.4549   0.0000   0.0000   0.0000   0.3541
   0.400   0.1918   0.00811   0.00396  -0.0194  0.8003  0.9287  -0.4674   0.0000   0.0000   0.0000   0.3499
   0.500   0.2066   0.00809   0.00392  -0.0201  0.7978  0.9297  -0.4798   0.0000   0.0000   0.0000   0.3460
   0.600   0.2210   0.00808   0.00387  -0.0208  0.7952  0.9308  -0.4926   0.0000   0.0000   0.0000   0.3424
   0.700   0.2345   0.00808   0.00387  -0.0212  0.7919  0.9323  -0.5051   0.0000   0.0000   0.0000   0.3389
   0.800   0.2465   0.00809   0.00387  -0.0214  0.7878  0.9346  -0.5167   0.0000   0.0000   0.0000   0.3350
   0.900   0.2496   0.00809   0.00386  -0.0196  0.7844  0.9405  -0.5233   0.0000   0.0000   0.0000   0.3265
   1.000   0.2652   0.00809   0.00384  -0.0205  0.7817  0.9409  -0.5371   0.0000   0.0000   0.0000   0.3254
   1.100   0.2807   0.00809   0.00383  -0.0215  0.7797  0.9415  -0.5517   0.0000   0.0000   0.0000   0.3244
   1.200   0.2962   0.00811   0.00383  -0.0224  0.7778  0.9420  -0.5664   0.0000   0.0000   0.0000   0.3235
   1.300   0.3113   0.00814   0.00387  -0.0234  0.7749  0.9427  -0.5808   0.0000   0.0000   0.0000   0.3228
   1.400   0.3263   0.00817   0.00391  -0.0243  0.7720  0.9435  -0.5952   0.0000   0.0000   0.0000   0.3220
   1.500   0.3412   0.00819   0.00393  -0.0251  0.7693  0.9444  -0.6097   0.0000   0.0000   0.0000   0.3212
   1.600   0.3559   0.00821   0.00394  -0.0259  0.7668  0.9453  -0.6246   0.0000   0.0000   0.0000   0.3203
   1.700   0.3703   0.00822   0.00394  -0.0266  0.7644  0.9464  -0.6399   0.0000   0.0000   0.0000   0.3194
   1.800   0.3844   0.00824   0.00394  -0.0273  0.7622  0.9476  -0.6549   0.0000   0.0000   0.0000   0.3184
   1.900   0.3975   0.00827   0.00398  -0.0278  0.7593  0.9492  -0.6694   0.0000   0.0000   0.0000   0.3172
   2.000   0.4097   0.00829   0.00402  -0.0281  0.7559  0.9513  -0.6832   0.0000   0.0000   0.0000   0.3157
   2.100   0.4130   0.00835   0.00408  -0.0264  0.7527  0.9563  -0.6912   0.0000   0.0000   0.0000   0.3109
   2.200   0.4285   0.00835   0.00409  -0.0273  0.7497  0.9568  -0.7075   0.0000   0.0000   0.0000   0.3109
   2.300   0.4439   0.00835   0.00407  -0.0283  0.7470  0.9574  -0.7247   0.0000   0.0000   0.0000   0.3108
   2.400   0.4592   0.00836   0.00408  -0.0293  0.7439  0.9580  -0.7420   0.0000   0.0000   0.0000   0.3106
   2.500   0.4742   0.00837   0.00412  -0.0302  0.7401  0.9587  -0.7592   0.0000   0.0000   0.0000   0.3105
   2.600   0.4890   0.00838   0.00414  -0.0311  0.7364  0.9595  -0.7763   0.0000   0.0000   0.0000   0.3103
   2.700   0.5036   0.00839   0.00414  -0.0319  0.7329  0.9604  -0.7934   0.0000   0.0000   0.0000   0.3100
   2.800   0.5180   0.00840   0.00413  -0.0326  0.7295  0.9613  -0.8104   0.0000   0.0000   0.0000   0.3096
   2.900   0.5321   0.00841   0.00417  -0.0333  0.7251  0.9624  -0.8323   0.0000   0.0000   0.0000   0.3092
   3.000   0.5457   0.00842   0.00420  -0.0339  0.7207  0.9637  -0.8912   0.0000   0.0000   0.0000   0.3087
   3.100   0.5588   0.00844   0.00423  -0.0344  0.7166  0.9651  -0.9497   0.0000   0.0000   0.0000   0.3080
   3.200   0.5711   0.00847   0.00424  -0.0347  0.7128  0.9668  -1.0079   0.0000   0.0000   0.0000   0.3071
   3.300   0.5807   0.00852   0.00432  -0.0344  0.7078  0.9695  -1.0682   0.0000   0.0000   0.0000   0.3056
   3.400   0.5912   0.00856   0.00436  -0.0343  0.7026  0.9715  -1.1320   0.0000   0.0000   0.0000   0.3043
   3.500   0.6062   0.00855   0.00434  -0.0352  0.6975  0.9721  -1.2100   0.0000   0.0000   0.0000   0.3042
   3.600   0.6212   0.00855   0.00436  -0.0362  0.6918  0.9727  -1.2889   0.0000   0.0000   0.0000   0.3043
   3.700   0.6357   0.00855   0.00436  -0.0370  0.6843  0.9735  -1.3678   0.0000   0.0000   0.0000   0.3041
   3.800   0.6496   0.00856   0.00435  -0.0376  0.6732  0.9744  -1.4463   0.0000   0.0000   0.0000   0.3038
   3.900   0.6627   0.00859   0.00433  -0.0381  0.6576  0.9755  -1.5238   0.0000   0.0000   0.0000   0.3033
   4.000   0.6752   0.00864   0.00433  -0.0385  0.6392  0.9767  -1.6003   0.0000   0.0000   0.0000   0.3027
   4.100   0.6873   0.00872   0.00436  -0.0388  0.6205  0.9782  -1.6756   0.0000   0.0000   0.0000   0.3020
   4.200   0.6985   0.00882   0.00439  -0.0389  0.6007  0.9799  -1.7496   0.0000   0.0000   0.0000   0.3012
   4.300   0.7080   0.00898   0.00446  -0.0387  0.5753  0.9820  -1.8189   0.0000   0.0000   0.0000   0.3000
   4.400   0.7165   0.00921   0.00454  -0.0383  0.5418  0.9839  -1.8917   0.0000   0.0000   0.0000   0.2987
   4.500   0.7279   0.00947   0.00459  -0.0386  0.4948  0.9849  -1.9809   0.0000   0.0000   0.0000   0.2983
   4.600   0.7382   0.00984   0.00470  -0.0389  0.4407  0.9861  -2.0665   0.0000   0.0000   0.0000   0.2978
   4.700   0.7481   0.01024   0.00485  -0.0390  0.3905  0.9875  -2.1512   0.0000   0.0000   0.0000   0.2972
   4.800   0.7581   0.01061   0.00501  -0.0392  0.3476  0.9889  -2.2366   0.0000   0.0000   0.0000   0.2967
   4.900   0.7683   0.01094   0.00517  -0.0395  0.3123  0.9904  -2.3240   0.0000   0.0000   0.0000   0.2962
   5.000   0.7785   0.01124   0.00532  -0.0396  0.2811  0.9919  -2.4119   0.0000   0.0000   0.0000   0.2957
   5.100   0.7884   0.01156   0.00549  -0.0398  0.2509  0.9934  -2.4986   0.0000   0.0000   0.0000   0.2951
   5.200   0.7992   0.01189   0.00565  -0.0401  0.2156  0.9946  -2.5876   0.0000   0.0000   0.0000   0.2948
   5.300   0.8096   0.01233   0.00583  -0.0405  0.1661  0.9957  -2.6737   0.0000   0.0000   0.0000   0.2945
   5.400   0.8151   0.01330   0.00625  -0.0403  0.0704  0.9973  -2.7339   0.0000   0.0000   0.0000   0.2938
   5.500   0.8245   0.01389   0.00663  -0.0404  0.0367  0.9987  -2.8009   0.0000   0.0000   0.0000   0.2933
   5.600   0.8370   0.01412   0.00685  -0.0410  0.0318  0.9996  -2.8880   0.0000   0.0000   0.0000   0.2931
   5.700   0.8456   0.01442   0.00716  -0.0406  0.0280  1.0000  -2.9505   0.0000   0.0000   0.0000   0.2922
   5.800   0.8510   0.01470   0.00748  -0.0396  0.0262  1.0000  -3.0011   0.0000   0.0000   0.0000   0.2906
   5.900   0.8578   0.01484   0.00765  -0.0389  0.0256  1.0000  -3.0706   0.0000   0.0000   0.0000   0.2892
   6.000   0.8642   0.01501   0.00784  -0.0381  0.0248  1.0000  -3.1372   0.0000   0.0000   0.0000   0.2879
   6.100   0.8705   0.01519   0.00805  -0.0373  0.0239  1.0000  -3.2032   0.0000   0.0000   0.0000   0.2865
   6.200   0.8766   0.01538   0.00825  -0.0364  0.0230  1.0000  -3.2701   0.0000   0.0000   0.0000   0.2851
   6.300   0.8826   0.01556   0.00846  -0.0356  0.0222  1.0000  -3.3386   0.0000   0.0000   0.0000   0.2838
   6.400   0.8884   0.01576   0.00867  -0.0347  0.0213  1.0000  -3.4231   0.0000   0.0000   0.0000   0.2824
   6.500   0.8936   0.01600   0.00892  -0.0337  0.0205  1.0000  -3.5038   0.0000   0.0000   0.0000   0.2810
   6.600   0.8978   0.01630   0.00926  -0.0325  0.0197  1.0000  -3.5727   0.0000   0.0000   0.0000   0.2794
   6.700   0.9009   0.01668   0.00967  -0.0311  0.0190  1.0000  -3.6301   0.0000   0.0000   0.0000   0.2776
   6.800   0.9025   0.01715   0.01018  -0.0295  0.0185  1.0000  -3.6743   0.0000   0.0000   0.0000   0.2756
   6.900   0.9024   0.01772   0.01081  -0.0275  0.0180  1.0000  -3.7051   0.0000   0.0000   0.0000   0.2733
   7.000   0.9054   0.01807   0.01120  -0.0261  0.0178  1.0000  -3.7642   0.0000   0.0000   0.0000   0.2716
   7.100   0.9105   0.01827   0.01142  -0.0251  0.0176  1.0000  -3.8440   0.0000   0.0000   0.0000   0.2702
   7.200   0.9152   0.01849   0.01166  -0.0240  0.0174  1.0000  -3.9209   0.0000   0.0000   0.0000   0.2687
   7.300   0.9196   0.01873   0.01193  -0.0228  0.0172  1.0000  -3.9950   0.0000   0.0000   0.0000   0.2672
   7.400   0.9236   0.01899   0.01221  -0.0216  0.0170  1.0000  -4.0665   0.0000   0.0000   0.0000   0.2657
   7.500   0.9274   0.01926   0.01252  -0.0204  0.0168  1.0000  -4.1356   0.0000   0.0000   0.0000   0.2641
   7.600   0.9310   0.01955   0.01283  -0.0191  0.0166  1.0000  -4.2027   0.0000   0.0000   0.0000   0.2625
   7.700   0.9344   0.01985   0.01316  -0.0177  0.0164  1.0000  -4.2679   0.0000   0.0000   0.0000   0.2609
   7.800   0.9376   0.02017   0.01351  -0.0164  0.0161  1.0000  -4.3316   0.0000   0.0000   0.0000   0.2593
   7.900   0.9408   0.02050   0.01386  -0.0150  0.0159  1.0000  -4.3941   0.0000   0.0000   0.0000   0.2577
   8.000   0.9440   0.02084   0.01423  -0.0137  0.0157  1.0000  -4.4558   0.0000   0.0000   0.0000   0.2561
   8.100   0.9470   0.02119   0.01461  -0.0123  0.0155  1.0000  -4.5156   0.0000   0.0000   0.0000   0.2544
   8.200   0.9497   0.02153   0.01498  -0.0108  0.0153  1.0000  -4.5742   0.0000   0.0000   0.0000   0.2528
   8.300   0.9523   0.02185   0.01533  -0.0094  0.0151  1.0000  -4.6349   0.0000   0.0000   0.0000   0.2511
   8.400   0.9548   0.02216   0.01566  -0.0079  0.0149  1.0000  -4.6983   0.0000   0.0000   0.0000   0.2494
   8.500   0.9573   0.02244   0.01596  -0.0064  0.0146  1.0000  -4.7643   0.0000   0.0000   0.0000   0.2477
   8.600   0.9597   0.02271   0.01625  -0.0050  0.0144  1.0000  -4.8329   0.0000   0.0000   0.0000   0.2460
   8.700   0.9620   0.02297   0.01655  -0.0035  0.0141  1.0000  -4.9050   0.0000   0.0000   0.0000   0.2444
   8.800   0.9643   0.02322   0.01682  -0.0021  0.0139  1.0000  -4.9791   0.0000   0.0000   0.0000   0.2428
   8.900   0.9667   0.02349   0.01710  -0.0007  0.0137  1.0000  -5.0552   0.0000   0.0000   0.0000   0.2412
   9.000   0.9693   0.02378   0.01741   0.0006  0.0134  1.0000  -5.1323   0.0000   0.0000   0.0000   0.2397
   9.100   0.9723   0.02413   0.01777   0.0019  0.0132  1.0000  -5.2090   0.0000   0.0000   0.0000   0.2383
   9.200   0.9761   0.02456   0.01823   0.0030  0.0130  1.0000  -5.2829   0.0000   0.0000   0.0000   0.2371
   9.300   0.9812   0.02511   0.01880   0.0038  0.0128  1.0000  -5.3537   0.0000   0.0000   0.0000   0.2361
   9.400   0.9878   0.02577   0.01949   0.0044  0.0127  1.0000  -5.4252   0.0000   0.0000   0.0000   0.2354
   9.500   0.9971   0.02664   0.02041   0.0045  0.0125  1.0000  -5.4981   0.0000   0.0000   0.0000   0.2353
   9.600   1.0127   0.02801   0.02185   0.0033  0.0123  1.0000  -5.5754   0.0000   0.0000   0.0000   0.2364
   9.700   1.0327   0.03002   0.02399   0.0012  0.0121  1.0000  -5.6343   0.0000   0.0000   0.0000   0.2384
   9.800   1.0413   0.03153   0.02562   0.0013  0.0120  1.0000  -5.6526   0.0000   0.0000   0.0000   0.2382
   9.900   1.0469   0.03295   0.02715   0.0020  0.0120  1.0000  -5.6593   0.0000   0.0000   0.0000   0.2375
  10.000   1.0505   0.03424   0.02856   0.0029  0.0120  1.0000  -5.6897   0.0000   0.0000   0.0000   0.2365
  10.100   1.0527   0.03540   0.02982   0.0042  0.0119  1.0000  -5.7218   0.0000   0.0000   0.0000   0.2352
  10.200   1.0541   0.03645   0.03097   0.0055  0.0119  1.0000  -5.7544   0.0000   0.0000   0.0000   0.2338
  10.300   1.0548   0.03739   0.03200   0.0070  0.0119  1.0000  -5.7888   0.0000   0.0000   0.0000   0.2323
  10.400   1.0551   0.03825   0.03293   0.0085  0.0120  1.0000  -5.8254   0.0000   0.0000   0.0000   0.2307
  10.500   1.0550   0.03902   0.03377   0.0101  0.0120  1.0000  -5.8642   0.0000   0.0000   0.0000   0.2291
  10.600   1.0540   0.03968   0.03450   0.0119  0.0120  1.0000  -5.9025   0.0000   0.0000   0.0000   0.2273
  10.700   1.0518   0.04022   0.03510   0.0139  0.0120  1.0000  -5.9377   0.0000   0.0000   0.0000   0.2252
  10.800   1.0489   0.04069   0.03563   0.0160  0.0120  1.0000  -5.9713   0.0000   0.0000   0.0000   0.2230
  10.900   1.0458   0.04114   0.03612   0.0181  0.0121  1.0000  -6.0053   0.0000   0.0000   0.0000   0.2208
  11.000   1.0429   0.04158   0.03661   0.0202  0.0121  1.0000  -6.0407   0.0000   0.0000   0.0000   0.2186
  11.100   1.0402   0.04201   0.03710   0.0221  0.0122  1.0000  -6.0774   0.0000   0.0000   0.0000   0.2166
  11.200   1.0376   0.04244   0.03758   0.0240  0.0122  1.0000  -6.1150   0.0000   0.0000   0.0000   0.2146
  11.300   1.0351   0.04286   0.03805   0.0258  0.0123  1.0000  -6.1524   0.0000   0.0000   0.0000   0.2126
  11.400   1.0329   0.04326   0.03851   0.0275  0.0124  1.0000  -6.1886   0.0000   0.0000   0.0000   0.2107
  14.000   0.6164   0.07634   0.07388   0.0479  0.0167  1.0000  -4.0230   0.0000   0.0000   0.0000   0.1573
  14.100   0.6073   0.07854   0.07612   0.0466  0.0167  1.0000  -3.9715   0.0000   0.0000   0.0000   0.1582
  14.200   0.5980   0.08087   0.07849   0.0452  0.0166  1.0000  -3.9129   0.0000   0.0000   0.0000   0.1594
  14.300   0.5885   0.08335   0.08101   0.0436  0.0166  1.0000  -3.8468   0.0000   0.0000   0.0000   0.1608
  14.400   0.5789   0.08598   0.08367   0.0419  0.0165  1.0000  -3.7719   0.0000   0.0000   0.0000   0.1625
  14.500   0.5689   0.08877   0.08651   0.0401  0.0165  1.0000  -3.6862   0.0000   0.0000   0.0000   0.1644
  14.600   0.5585   0.09178   0.08955   0.0382  0.0165  1.0000  -3.5859   0.0000   0.0000   0.0000   0.1665
  14.700   0.5474   0.09505   0.09284   0.0362  0.0166  1.0000  -3.4659   0.0000   0.0000   0.0000   0.1689
  14.800   0.5350   0.09867   0.09649   0.0341  0.0168  1.0000  -3.3160   0.0000   0.0000   0.0000   0.1715
  14.900   0.4786   0.11486   0.11268   0.0275  0.0263  1.0000  -2.1907   0.0000   0.0000   0.0000   0.1793
  15.000   0.4759   0.11693   0.11475   0.0265  0.0262  1.0000  -2.1342   0.0000   0.0000   0.0000   0.1811
  15.400   0.4715   0.12409   0.12189   0.0227  0.0235  1.0000  -1.9557   0.0000   0.0000   0.0000   0.1889
  15.500   0.4701   0.12570   0.12350   0.0220  0.0231  1.0000  -1.9224   0.0000   0.0000   0.0000   0.1903
  15.600   0.4690   0.12723   0.12503   0.0213  0.0227  1.0000  -1.8950   0.0000   0.0000   0.0000   0.1916
  15.700   0.4682   0.12869   0.12649   0.0207  0.0224  1.0000  -1.8726   0.0000   0.0000   0.0000   0.1928
  15.800   0.4676   0.13009   0.12789   0.0201  0.0220  1.0000  -1.8546   0.0000   0.0000   0.0000   0.1941
  15.900   0.4673   0.13144   0.12923   0.0195  0.0217  1.0000  -1.8406   0.0000   0.0000   0.0000   0.1952
  16.000   0.4672   0.13273   0.13053   0.0189  0.0214  1.0000  -1.8303   0.0000   0.0000   0.0000   0.1964
  16.100   0.4672   0.13399   0.13178   0.0184  0.0211  1.0000  -1.8234   0.0000   0.0000   0.0000   0.1975
  16.200   0.4675   0.13520   0.13299   0.0179  0.0208  1.0000  -1.8199   0.0000   0.0000   0.0000   0.1986
  16.300   0.4680   0.13637   0.13416   0.0174  0.0206  1.0000  -1.8197   0.0000   0.0000   0.0000   0.1996
  16.400   0.4687   0.13750   0.13529   0.0169  0.0203  1.0000  -1.8229   0.0000   0.0000   0.0000   0.2006
  16.500   0.4695   0.13859   0.13638   0.0164  0.0201  1.0000  -1.8297   0.0000   0.0000   0.0000   0.2016
  16.600   0.4705   0.13964   0.13744   0.0160  0.0199  1.0000  -1.8402   0.0000   0.0000   0.0000   0.2025
  16.700   0.4718   0.14065   0.13845   0.0156  0.0197  1.0000  -1.8544   0.0000   0.0000   0.0000   0.2034
  16.800   0.4732   0.14162   0.13942   0.0152  0.0195  1.0000  -1.8728   0.0000   0.0000   0.0000   0.2042
  16.900   0.4746   0.14260   0.14039   0.0148  0.0193  1.0000  -1.8913   0.0000   0.0000   0.0000   0.2050
  17.000   0.4761   0.14354   0.14134   0.0144  0.0191  1.0000  -1.9131   0.0000   0.0000   0.0000   0.2058
  17.100   0.4778   0.14446   0.14226   0.0141  0.0190  1.0000  -1.9386   0.0000   0.0000   0.0000   0.2065
  17.200   0.4797   0.14536   0.14317   0.0138  0.0188  1.0000  -1.9677   0.0000   0.0000   0.0000   0.2071
  17.300   0.4812   0.14636   0.14417   0.0134  0.0186  1.0000  -1.9915   0.0000   0.0000   0.0000   0.2078
  17.400   0.4806   0.14796   0.14576   0.0129  0.0183  1.0000  -1.9750   0.0000   0.0000   0.0000   0.2088
  17.500   0.6926   0.19391   0.19140  -0.0084  0.0150  1.0000  -2.3611   0.0000   0.0000   0.0000   0.2407
  17.600   0.6943   0.19554   0.19302  -0.0091  0.0147  1.0000  -2.3529   0.0000   0.0000   0.0000   0.2416
  17.700   0.6960   0.19711   0.19460  -0.0098  0.0144  1.0000  -2.3481   0.0000   0.0000   0.0000   0.2424
  17.800   0.6979   0.19865   0.19613  -0.0105  0.0142  1.0000  -2.3464   0.0000   0.0000   0.0000   0.2432
  17.900   0.6999   0.20013   0.19762  -0.0112  0.0140  1.0000  -2.3481   0.0000   0.0000   0.0000   0.2439
  18.000   0.7020   0.20157   0.19906  -0.0118  0.0138  1.0000  -2.3532   0.0000   0.0000   0.0000   0.2447
  18.100   0.7041   0.20296   0.20045  -0.0125  0.0136  1.0000  -2.3620   0.0000   0.0000   0.0000   0.2453
  18.200   0.7064   0.20430   0.20178  -0.0131  0.0134  1.0000  -2.3748   0.0000   0.0000   0.0000   0.2460
  18.300   0.7088   0.20558   0.20306  -0.0136  0.0132  1.0000  -2.3924   0.0000   0.0000   0.0000   0.2465
  18.400   0.7113   0.20679   0.20428  -0.0142  0.0131  1.0000  -2.4156   0.0000   0.0000   0.0000   0.2470
  18.500   0.7140   0.20794   0.20543  -0.0146  0.0129  1.0000  -2.4449   0.0000   0.0000   0.0000   0.2474
  18.600   0.7169   0.20902   0.20652  -0.0151  0.0128  1.0000  -2.4817   0.0000   0.0000   0.0000   0.2477
  18.700   0.7198   0.21004   0.20753  -0.0154  0.0126  1.0000  -2.5233   0.0000   0.0000   0.0000   0.2480
  18.800   0.7227   0.21106   0.20856  -0.0158  0.0125  1.0000  -2.5663   0.0000   0.0000   0.0000   0.2482
  18.900   0.7253   0.21213   0.20963  -0.0162  0.0123  1.0000  -2.6083   0.0000   0.0000   0.0000   0.2484
  19.000   0.7272   0.21345   0.21095  -0.0165  0.0122  1.0000  -2.6357   0.0000   0.0000   0.0000   0.2486
  19.400   0.4934   0.17631   0.17412  -0.0015  0.0138  1.0000  -1.4608   0.0000   0.0000   0.0000   0.2379
  19.500   0.4952   0.17742   0.17523  -0.0020  0.0136  1.0000  -1.4647   0.0000   0.0000   0.0000   0.2389
  19.600   0.4971   0.17850   0.17632  -0.0026  0.0134  1.0000  -1.4719   0.0000   0.0000   0.0000   0.2399
  19.700   0.4991   0.17956   0.17737  -0.0031  0.0132  1.0000  -1.4829   0.0000   0.0000   0.0000   0.2408
  19.800   0.5012   0.18059   0.17842  -0.0036  0.0130  1.0000  -1.4983   0.0000   0.0000   0.0000   0.2416
  19.900   0.5035   0.18158   0.17941  -0.0041  0.0128  1.0000  -1.5191   0.0000   0.0000   0.0000   0.2424
  20.000   0.5060   0.18254   0.18037  -0.0045  0.0127  1.0000  -1.5460   0.0000   0.0000   0.0000   0.2430
  20.100   0.5088   0.18346   0.18130  -0.0049  0.0125  1.0000  -1.5810   0.0000   0.0000   0.0000   0.2435
  20.200   0.5121   0.18438   0.18222  -0.0052  0.0123  1.0000  -1.6267   0.0000   0.0000   0.0000   0.2438
  20.300   0.5151   0.18551   0.18335  -0.0054  0.0122  1.0000  -1.6671   0.0000   0.0000   0.0000   0.2440
  21.000   0.5229   0.19660   0.19444  -0.0102  0.0118  1.0000  -1.4580   0.0000   0.0000   0.0000   0.2525
  21.100   0.5244   0.19791   0.19575  -0.0109  0.0118  1.0000  -1.4502   0.0000   0.0000   0.0000   0.2537
  21.200   0.5259   0.19921   0.19706  -0.0116  0.0117  1.0000  -1.4423   0.0000   0.0000   0.0000   0.2549
  21.300   0.5272   0.20052   0.19837  -0.0123  0.0117  1.0000  -1.4293   0.0000   0.0000   0.0000   0.2562
  21.400   0.5283   0.20183   0.19968  -0.0131  0.0116  1.0000  -1.4115   0.0000   0.0000   0.0000   0.2575
  21.500   0.5291   0.20316   0.20101  -0.0140  0.0116  1.0000  -1.3861   0.0000   0.0000   0.0000   0.2591
  21.600   0.5299   0.20451   0.20236  -0.0149  0.0115  1.0000  -1.3575   0.0000   0.0000   0.0000   0.2607
  21.700   0.5309   0.20588   0.20374  -0.0158  0.0113  1.0000  -1.3255   0.0000   0.0000   0.0000   0.2623
  21.800   0.5323   0.20729   0.20515  -0.0166  0.0111  1.0000  -1.2972   0.0000   0.0000   0.0000   0.2637
  21.900   0.5339   0.20868   0.20654  -0.0174  0.0109  1.0000  -1.2801   0.0000   0.0000   0.0000   0.2649
  22.000   0.5356   0.21004   0.20790  -0.0181  0.0106  1.0000  -1.2710   0.0000   0.0000   0.0000   0.2660
  22.100   0.5374   0.21138   0.20924  -0.0187  0.0104  1.0000  -1.2661   0.0000   0.0000   0.0000   0.2670
  22.200   0.5392   0.21269   0.21055  -0.0194  0.0102  1.0000  -1.2636   0.0000   0.0000   0.0000   0.2680
  22.300   0.5410   0.21400   0.21187  -0.0201  0.0101  1.0000  -1.2628   0.0000   0.0000   0.0000   0.2690
  22.400   0.5428   0.21531   0.21318  -0.0207  0.0099  1.0000  -1.2632   0.0000   0.0000   0.0000   0.2700
  22.500   0.5446   0.21661   0.21449  -0.0214  0.0097  1.0000  -1.2645   0.0000   0.0000   0.0000   0.2710
  22.600   0.5465   0.21790   0.21578  -0.0220  0.0096  1.0000  -1.2666   0.0000   0.0000   0.0000   0.2719
  22.700   0.5483   0.21919   0.21707  -0.0227  0.0095  1.0000  -1.2695   0.0000   0.0000   0.0000   0.2728
  22.800   0.5502   0.22047   0.21836  -0.0233  0.0093  1.0000  -1.2730   0.0000   0.0000   0.0000   0.2738
  22.900   0.5520   0.22175   0.21965  -0.0240  0.0092  1.0000  -1.2772   0.0000   0.0000   0.0000   0.2747
  23.000   0.5539   0.22299   0.22090  -0.0247  0.0090  1.0000  -1.2837   0.0000   0.0000   0.0000   0.2756
  23.100   0.5558   0.22422   0.22213  -0.0253  0.0089  1.0000  -1.2926   0.0000   0.0000   0.0000   0.2764
  23.200   0.5577   0.22545   0.22336  -0.0260  0.0087  1.0000  -1.3046   0.0000   0.0000   0.0000   0.2773
  23.300   0.5597   0.22663   0.22455  -0.0266  0.0086  1.0000  -1.3201   0.0000   0.0000   0.0000   0.2781
  23.400   0.5617   0.22778   0.22570  -0.0272  0.0084  1.0000  -1.3397   0.0000   0.0000   0.0000   0.2789
  23.500   0.5638   0.22891   0.22683  -0.0278  0.0083  1.0000  -1.3639   0.0000   0.0000   0.0000   0.2796
  23.600   0.5659   0.23001   0.22794  -0.0284  0.0082  1.0000  -1.3932   0.0000   0.0000   0.0000   0.2803
  23.700   0.5682   0.23110   0.22904  -0.0290  0.0081  1.0000  -1.4283   0.0000   0.0000   0.0000   0.2808
  23.800   0.5707   0.23223   0.23017  -0.0295  0.0080  1.0000  -1.4704   0.0000   0.0000   0.0000   0.2812
  23.900   0.5737   0.23349   0.23144  -0.0298  0.0079  1.0000  -1.5242   0.0000   0.0000   0.0000   0.2813
  24.000   0.5766   0.23599   0.23394  -0.0300  0.0077  1.0000  -1.5310   0.0000   0.0000   0.0000   0.2812
  24.100   0.5781   0.23739   0.23534  -0.0307  0.0077  1.0000  -1.5165   0.0000   0.0000   0.0000   0.2822
  24.200   0.5797   0.23878   0.23673  -0.0314  0.0077  1.0000  -1.5006   0.0000   0.0000   0.0000   0.2832
  24.300   0.5812   0.24018   0.23814  -0.0322  0.0077  1.0000  -1.4832   0.0000   0.0000   0.0000   0.2842
  24.400   0.5826   0.24158   0.23953  -0.0329  0.0077  1.0000  -1.4631   0.0000   0.0000   0.0000   0.2852
  24.500   0.5838   0.24299   0.24095  -0.0337  0.0077  1.0000  -1.4348   0.0000   0.0000   0.0000   0.2863
  24.600   0.5849   0.24441   0.24237  -0.0346  0.0077  1.0000  -1.4018   0.0000   0.0000   0.0000   0.2875
  24.700   0.5860   0.24583   0.24379  -0.0354  0.0076  1.0000  -1.3673   0.0000   0.0000   0.0000   0.2887
  24.800   0.5872   0.24726   0.24523  -0.0362  0.0076  1.0000  -1.3312   0.0000   0.0000   0.0000   0.2899
  24.900   0.5884   0.24871   0.24667  -0.0371  0.0076  1.0000  -1.2931   0.0000   0.0000   0.0000   0.2911
  25.000   0.5896   0.25017   0.24814  -0.0379  0.0075  1.0000  -1.2521   0.0000   0.0000   0.0000   0.2923
  25.100   0.5911   0.25167   0.24964  -0.0387  0.0074  1.0000  -1.2070   0.0000   0.0000   0.0000   0.2935
  25.200   0.5927   0.25321   0.25118  -0.0395  0.0072  1.0000  -1.1647   0.0000   0.0000   0.0000   0.2946
  25.300   0.5946   0.25471   0.25269  -0.0402  0.0070  1.0000  -1.1376   0.0000   0.0000   0.0000   0.2954
  25.400   0.5963   0.25616   0.25414  -0.0409  0.0068  1.0000  -1.1210   0.0000   0.0000   0.0000   0.2963
  25.500   0.5981   0.25760   0.25558  -0.0416  0.0067  1.0000  -1.1092   0.0000   0.0000   0.0000   0.2971
  25.600   0.5999   0.25899   0.25698  -0.0423  0.0065  1.0000  -1.1001   0.0000   0.0000   0.0000   0.2979
  25.700   0.6016   0.26041   0.25840  -0.0430  0.0064  1.0000  -1.0928   0.0000   0.0000   0.0000   0.2986
  25.800   0.6034   0.26182   0.25981  -0.0437  0.0063  1.0000  -1.0869   0.0000   0.0000   0.0000   0.2994
  25.900   0.6051   0.26322   0.26122  -0.0444  0.0062  1.0000  -1.0821   0.0000   0.0000   0.0000   0.3002
  26.000   0.6069   0.26461   0.26262  -0.0451  0.0060  1.0000  -1.0782   0.0000   0.0000   0.0000   0.3009
  26.100   0.6086   0.26600   0.26401  -0.0458  0.0059  1.0000  -1.0752   0.0000   0.0000   0.0000   0.3017
  26.200   0.6103   0.26738   0.26539  -0.0465  0.0059  1.0000  -1.0730   0.0000   0.0000   0.0000   0.3024
  26.300   0.6121   0.26876   0.26678  -0.0472  0.0058  1.0000  -1.0717   0.0000   0.0000   0.0000   0.3032
  26.400   0.6138   0.27013   0.26815  -0.0478  0.0057  1.0000  -1.0711   0.0000   0.0000   0.0000   0.3039
  26.500   0.6155   0.27150   0.26953  -0.0485  0.0056  1.0000  -1.0714   0.0000   0.0000   0.0000   0.3046
  26.600   0.6172   0.27287   0.27089  -0.0492  0.0055  1.0000  -1.0725   0.0000   0.0000   0.0000   0.3054
  26.700   0.6189   0.27424   0.27228  -0.0499  0.0055  1.0000  -1.0745   0.0000   0.0000   0.0000   0.3061
  26.800   0.6206   0.27558   0.27363  -0.0506  0.0054  1.0000  -1.0774   0.0000   0.0000   0.0000   0.3068
  26.900   0.6222   0.27692   0.27498  -0.0513  0.0053  1.0000  -1.0813   0.0000   0.0000   0.0000   0.3075
  27.000   0.6239   0.27826   0.27633  -0.0520  0.0053  1.0000  -1.0863   0.0000   0.0000   0.0000   0.3082
  27.100   0.6256   0.27960   0.27766  -0.0527  0.0052  1.0000  -1.0924   0.0000   0.0000   0.0000   0.3089
  27.200   0.6272   0.28096   0.27903  -0.0534  0.0052  1.0000  -1.1054   0.0000   0.0000   0.0000   0.3096
  27.300   0.6289   0.28229   0.28036  -0.0541  0.0051  1.0000  -1.1212   0.0000   0.0000   0.0000   0.3102
  27.400   0.6306   0.28361   0.28169  -0.0548  0.0051  1.0000  -1.1383   0.0000   0.0000   0.0000   0.3109
  27.500   0.6322   0.28494   0.28302  -0.0555  0.0050  1.0000  -1.1570   0.0000   0.0000   0.0000   0.3115
  27.600   0.6339   0.28627   0.28436  -0.0561  0.0050  1.0000  -1.1778   0.0000   0.0000   0.0000   0.3121
  27.700   0.6356   0.28762   0.28571  -0.0568  0.0049  1.0000  -1.2010   0.0000   0.0000   0.0000   0.3126
  27.800   0.6374   0.28901   0.28711  -0.0574  0.0049  1.0000  -1.2277   0.0000   0.0000   0.0000   0.3130
  27.900   0.6394   0.29053   0.28864  -0.0579  0.0049  1.0000  -1.2604   0.0000   0.0000   0.0000   0.3133
  28.100   0.9630   0.34038   0.33793  -0.0932  0.0047  1.0000  -2.1628   0.0000   0.0000   0.0000   0.3038
  28.200   0.9657   0.34156   0.33910  -0.0942  0.0047  1.0000  -2.1606   0.0000   0.0000   0.0000   0.3043
  28.300   0.9683   0.34272   0.34027  -0.0952  0.0047  1.0000  -2.1583   0.0000   0.0000   0.0000   0.3048
  28.400   0.9710   0.34387   0.34142  -0.0962  0.0047  1.0000  -2.1559   0.0000   0.0000   0.0000   0.3053
  28.500   0.9737   0.34501   0.34256  -0.0972  0.0047  1.0000  -2.1534   0.0000   0.0000   0.0000   0.3058
  28.600   0.9764   0.34614   0.34369  -0.0982  0.0047  1.0000  -2.1506   0.0000   0.0000   0.0000   0.3063
  28.700   0.9792   0.34726   0.34481  -0.0992  0.0047  1.0000  -2.1475   0.0000   0.0000   0.0000   0.3068
  28.800   0.9819   0.34837   0.34592  -0.1002  0.0047  1.0000  -2.1441   0.0000   0.0000   0.0000   0.3073
  28.900   0.9847   0.34947   0.34703  -0.1012  0.0047  1.0000  -2.1402   0.0000   0.0000   0.0000   0.3078
  29.000   0.9874   0.35057   0.34813  -0.1022  0.0047  1.0000  -2.1346   0.0000   0.0000   0.0000   0.3083
  29.100   0.9903   0.35168   0.34924  -0.1033  0.0046  1.0000  -2.1262   0.0000   0.0000   0.0000   0.3087
  29.200   0.9932   0.35282   0.35038  -0.1043  0.0046  1.0000  -2.1142   0.0000   0.0000   0.0000   0.3092
  29.300   0.9962   0.35399   0.35156  -0.1054  0.0046  1.0000  -2.0983   0.0000   0.0000   0.0000   0.3097
  29.400   0.9993   0.35519   0.35277  -0.1064  0.0045  1.0000  -2.0819   0.0000   0.0000   0.0000   0.3101
  29.500   1.0023   0.35634   0.35392  -0.1073  0.0043  1.0000  -2.0724   0.0000   0.0000   0.0000   0.3105
  29.600   1.0051   0.35743   0.35501  -0.1083  0.0042  1.0000  -2.0698   0.0000   0.0000   0.0000   0.3109
  29.700   1.0078   0.35846   0.35605  -0.1092  0.0041  1.0000  -2.0707   0.0000   0.0000   0.0000   0.3113
  29.800   1.0105   0.35949   0.35708  -0.1102  0.0040  1.0000  -2.0729   0.0000   0.0000   0.0000   0.3116
  29.900   1.0131   0.36051   0.35810  -0.1111  0.0039  1.0000  -2.0756   0.0000   0.0000   0.0000   0.3120
  30.000   1.0157   0.36151   0.35911  -0.1121  0.0038  1.0000  -2.0787   0.0000   0.0000   0.0000   0.3124


