xflr5 v6.61

 Calculated polar for: MH 18

 1 1 Reynolds number fixed          Mach number fixed         

 xtrf =   1.000 (top)        1.000 (bottom)
 Mach =   0.000     Re =     0.130 e 6     Ncrit =   9.000

  alpha     CL        CD       CDp       Cm    Top Xtr Bot Xtr   Cpmin    Chinge    XCp    
 ------- -------- --------- --------- -------- ------- ------- -------- --------- ---------
 -10.000  -0.4080   0.10885   0.10521  -0.0200  1.0000  0.0572  -1.9163   0.0000   0.0000   0.0000   0.1926
  -9.900  -0.4045   0.10742   0.10379  -0.0207  1.0000  0.0580  -1.9072   0.0000   0.0000   0.0000   0.1906
  -9.800  -0.4012   0.10598   0.10237  -0.0214  1.0000  0.0588  -1.9014   0.0000   0.0000   0.0000   0.1884
  -9.700  -0.3981   0.10454   0.10094  -0.0222  1.0000  0.0595  -1.8987   0.0000   0.0000   0.0000   0.1860
  -9.600  -0.3953   0.10309   0.09951  -0.0232  1.0000  0.0603  -1.8986   0.0000   0.0000   0.0000   0.1833
  -9.500  -0.3926   0.10163   0.09806  -0.0242  1.0000  0.0611  -1.9008   0.0000   0.0000   0.0000   0.1804
  -9.400  -0.3901   0.10016   0.09661  -0.0252  1.0000  0.0620  -1.9050   0.0000   0.0000   0.0000   0.1773
  -9.300  -0.3877   0.09866   0.09513  -0.0264  1.0000  0.0628  -1.9112   0.0000   0.0000   0.0000   0.1740
  -9.200  -0.3853   0.09715   0.09363  -0.0277  1.0000  0.0637  -1.9193   0.0000   0.0000   0.0000   0.1703
  -9.100  -0.3831   0.09561   0.09211  -0.0290  1.0000  0.0647  -1.9291   0.0000   0.0000   0.0000   0.1664
  -9.000  -0.3810   0.09407   0.09059  -0.0305  1.0000  0.0656  -1.9410   0.0000   0.0000   0.0000   0.1622
  -8.900  -0.3792   0.09253   0.08907  -0.0321  1.0000  0.0666  -1.9553   0.0000   0.0000   0.0000   0.1578
  -8.800  -0.3777   0.09099   0.08755  -0.0337  1.0000  0.0676  -1.9724   0.0000   0.0000   0.0000   0.1531
  -8.700  -0.3767   0.08948   0.08606  -0.0355  1.0000  0.0686  -1.9927   0.0000   0.0000   0.0000   0.1483
  -8.600  -0.3764   0.08803   0.08464  -0.0374  1.0000  0.0696  -2.0167   0.0000   0.0000   0.0000   0.1433
  -8.500  -0.3773   0.08672   0.08336  -0.0392  1.0000  0.0706  -2.0431   0.0000   0.0000   0.0000   0.1389
  -8.400  -0.3815   0.08582   0.08249  -0.0402  1.0000  0.0712  -2.0696   0.0000   0.0000   0.0000   0.1376
  -8.300  -0.3841   0.08465   0.08135  -0.0425  0.9945  0.0721  -2.1043   0.0000   0.0000   0.0000   0.1325
  -8.200  -0.3779   0.08265   0.07931  -0.0522  0.9855  0.0746  -2.1853   0.0000   0.0000   0.0000   0.1052
  -8.100  -0.3732   0.08151   0.07809  -0.0569  0.9777  0.0755  -2.2272   0.0000   0.0000   0.0000   0.0911
  -8.000  -0.3680   0.07981   0.07632  -0.0601  0.9732  0.0759  -2.2565   0.0000   0.0000   0.0000   0.0802
  -7.900  -0.3624   0.07794   0.07438  -0.0629  0.9696  0.0760  -2.2810   0.0000   0.0000   0.0000   0.0699
  -7.800  -0.3585   0.07627   0.07263  -0.0648  0.9653  0.0762  -2.3016   0.0000   0.0000   0.0000   0.0628
  -7.700  -0.3561   0.07475   0.07106  -0.0659  0.9602  0.0762  -2.3194   0.0000   0.0000   0.0000   0.0585
  -7.600  -0.3531   0.07317   0.06941  -0.0670  0.9557  0.0763  -2.3358   0.0000   0.0000   0.0000   0.0537
  -7.500  -0.3675   0.06654   0.06280  -0.0694  0.9514  0.0781  -2.4651   0.0000   0.0000   0.0000   0.0550
  -7.400  -0.3672   0.06344   0.05970  -0.0703  0.9483  0.0794  -2.4772   0.0000   0.0000   0.0000   0.0525
  -7.300  -0.3622   0.06148   0.05773  -0.0707  0.9455  0.0804  -2.4585   0.0000   0.0000   0.0000   0.0486
  -7.200  -0.3568   0.06001   0.05626  -0.0708  0.9425  0.0812  -2.4342   0.0000   0.0000   0.0000   0.0454
  -7.100  -0.3538   0.05876   0.05499  -0.0706  0.9386  0.0819  -2.4199   0.0000   0.0000   0.0000   0.0443
  -7.000  -0.3507   0.05748   0.05353  -0.0705  0.9346  0.0826  -2.4093   0.0000   0.0000   0.0000   0.0428
  -6.900  -0.3475   0.05619   0.05220  -0.0705  0.9307  0.0832  -2.4035   0.0000   0.0000   0.0000   0.0411
  -6.800  -0.3447   0.05045   0.04616  -0.0709  0.9262  0.0483  -2.8358   0.0000   0.0000   0.0000   0.0375
  -6.700  -0.3454   0.04821   0.04385  -0.0707  0.9227  0.0466  -2.8740   0.0000   0.0000   0.0000   0.0387
  -6.600  -0.3444   0.04635   0.04188  -0.0703  0.9195  0.0450  -2.9090   0.0000   0.0000   0.0000   0.0392
  -6.500  -0.3428   0.04460   0.04000  -0.0698  0.9166  0.0436  -2.9478   0.0000   0.0000   0.0000   0.0398
  -6.400  -0.3410   0.04296   0.03822  -0.0691  0.9137  0.0423  -2.9899   0.0000   0.0000   0.0000   0.0407
  -6.300  -0.3391   0.04132   0.03643  -0.0684  0.9107  0.0412  -3.0332   0.0000   0.0000   0.0000   0.0415
  -6.200  -0.3368   0.03977   0.03471  -0.0677  0.9075  0.0403  -3.0751   0.0000   0.0000   0.0000   0.0424
  -6.100  -0.3340   0.03832   0.03308  -0.0668  0.9042  0.0396  -3.1112   0.0000   0.0000   0.0000   0.0432
  -6.000  -0.3303   0.03699   0.03140  -0.0659  0.9008  0.0393  -3.1345   0.0000   0.0000   0.0000   0.0438
  -5.900  -0.3260   0.03582   0.03007  -0.0650  0.8975  0.0393  -3.1462   0.0000   0.0000   0.0000   0.0439
  -5.800  -0.3210   0.03475   0.02883  -0.0641  0.8944  0.0394  -3.1491   0.0000   0.0000   0.0000   0.0436
  -5.700  -0.3156   0.03371   0.02763  -0.0631  0.8915  0.0396  -3.1483   0.0000   0.0000   0.0000   0.0430
  -5.600  -0.3097   0.03269   0.02643  -0.0622  0.8888  0.0398  -3.1472   0.0000   0.0000   0.0000   0.0421
  -5.500  -0.3035   0.03166   0.02523  -0.0613  0.8864  0.0399  -3.1476   0.0000   0.0000   0.0000   0.0410
  -5.400  -0.2970   0.03066   0.02404  -0.0603  0.8842  0.0399  -3.1493   0.0000   0.0000   0.0000   0.0398
  -5.300  -0.2902   0.02970   0.02288  -0.0594  0.8821  0.0399  -3.1519   0.0000   0.0000   0.0000   0.0382
  -5.200  -0.2831   0.02883   0.02183  -0.0585  0.8801  0.0398  -3.1515   0.0000   0.0000   0.0000   0.0361
  -5.100  -0.2750   0.02790   0.02073  -0.0580  0.8783  0.0401  -3.1437   0.0000   0.0000   0.0000   0.0317
  -5.000  -0.2666   0.02705   0.01974  -0.0575  0.8763  0.0405  -3.1297   0.0000   0.0000   0.0000   0.0269
  -4.900  -0.2581   0.02628   0.01884  -0.0570  0.8742  0.0411  -3.1107   0.0000   0.0000   0.0000   0.0215
  -4.800  -0.2493   0.02557   0.01800  -0.0565  0.8721  0.0420  -3.0877   0.0000   0.0000   0.0000   0.0155
  -4.700  -0.2402   0.02490   0.01722  -0.0561  0.8700  0.0433  -3.0617   0.0000   0.0000   0.0000   0.0087
  -4.600  -0.2308   0.02428   0.01649  -0.0556  0.8679  0.0448  -3.0333   0.0000   0.0000   0.0000   0.0010
  -4.500  -0.2213   0.02391   0.01604  -0.0552  0.8658  0.0476  -2.9845   0.0000   0.0000   0.0000  -0.0078
  -4.400  -0.2116   0.02397   0.01601  -0.0549  0.8637  0.0505  -2.9095   0.0000   0.0000   0.0000  -0.0178
  -4.300  -0.2032   0.02243   0.01439  -0.0543  0.8619  0.0550  -2.9340   0.0000   0.0000   0.0000  -0.0261
  -4.200  -0.1948   0.02176   0.01374  -0.0538  0.8600  0.0602  -2.9216   0.0000   0.0000   0.0000  -0.0349
  -4.100  -0.1859   0.02160   0.01358  -0.0534  0.8580  0.0684  -2.8738   0.0000   0.0000   0.0000  -0.0463
  -4.000  -0.1764   0.02143   0.01336  -0.0530  0.8562  0.0785  -2.8317   0.0000   0.0000   0.0000  -0.0596
  -3.900  -0.1694   0.02058   0.01261  -0.0522  0.8544  0.0940  -2.8324   0.0000   0.0000   0.0000  -0.0674
  -3.800  -0.1602   0.02026   0.01223  -0.0516  0.8527  0.1089  -2.7981   0.0000   0.0000   0.0000  -0.0815
  -3.700  -0.1534   0.01971   0.01180  -0.0508  0.8510  0.1289  -2.7496   0.0000   0.0000   0.0000  -0.0910
  -3.600  -0.1449   0.01947   0.01159  -0.0502  0.8495  0.1500  -2.6736   0.0000   0.0000   0.0000  -0.1070
  -3.500  -0.1368   0.01929   0.01150  -0.0497  0.8479  0.1735  -2.5875   0.0000   0.0000   0.0000  -0.1239
  -3.400  -0.1296   0.01896   0.01131  -0.0489  0.8463  0.1999  -2.5133   0.0000   0.0000   0.0000  -0.1383
  -3.300  -0.1216   0.01880   0.01119  -0.0482  0.8446  0.2277  -2.4303   0.0000   0.0000   0.0000  -0.1577
  -3.200  -0.1153   0.01863   0.01120  -0.0473  0.8427  0.2625  -2.3519   0.0000   0.0000   0.0000  -0.1715
  -3.100  -0.1092   0.01834   0.01112  -0.0466  0.8406  0.3052  -2.2733   0.0000   0.0000   0.0000  -0.1883
  -3.000  -0.1039   0.01802   0.01105  -0.0458  0.8383  0.3588  -2.1968   0.0000   0.0000   0.0000  -0.2032
  -2.900  -0.0996   0.01767   0.01102  -0.0448  0.8357  0.4268  -2.1248   0.0000   0.0000   0.0000  -0.2114
  -2.800  -0.0964   0.01729   0.01105  -0.0434  0.8331  0.5148  -2.0559   0.0000   0.0000   0.0000  -0.2126
  -2.700  -0.0907   0.01687   0.01112  -0.0422  0.8311  0.6294  -1.9742   0.0000   0.0000   0.0000  -0.2271
  -2.600   0.0042   0.01628   0.01107  -0.0557  0.8356  0.8952  -1.4609   0.0000   0.0000   0.0000  13.8580
  -2.500   0.0325   0.01650   0.01117  -0.0583  0.8349  0.9235  -1.2814   0.0000   0.0000   0.0000   2.0755
  -2.400   0.0622   0.01668   0.01122  -0.0615  0.8343  0.9419  -1.1021   0.0000   0.0000   0.0000   1.2537
  -2.300   0.0893   0.01682   0.01125  -0.0643  0.8335  0.9581  -0.9408   0.0000   0.0000   0.0000   0.9803
  -2.200   0.1148   0.01694   0.01119  -0.0670  0.8325  0.9721  -0.7954   0.0000   0.0000   0.0000   0.8410
  -2.100   0.1481   0.01689   0.01102  -0.0713  0.8319  0.9831  -0.6222   0.0000   0.0000   0.0000   0.7371
  -2.000   0.1805   0.01675   0.01076  -0.0756  0.8310  0.9930  -0.5457   0.0000   0.0000   0.0000   0.6730
  -1.900   0.2077   0.01658   0.01049  -0.0790  0.8297  1.0000  -0.4998   0.0000   0.0000   0.0000   0.6338
  -1.800   0.2158   0.01661   0.01047  -0.0788  0.8270  1.0000  -0.5053   0.0000   0.0000   0.0000   0.6182
  -1.700   0.2238   0.01664   0.01045  -0.0785  0.8242  1.0000  -0.5108   0.0000   0.0000   0.0000   0.6035
  -1.600   0.2317   0.01667   0.01042  -0.0781  0.8215  1.0000  -0.5163   0.0000   0.0000   0.0000   0.5898
  -1.500   0.2394   0.01670   0.01040  -0.0777  0.8189  1.0000  -0.5218   0.0000   0.0000   0.0000   0.5768
  -1.400   0.2472   0.01673   0.01038  -0.0772  0.8165  1.0000  -0.5274   0.0000   0.0000   0.0000   0.5644
  -1.300   0.2550   0.01676   0.01034  -0.0767  0.8143  1.0000  -0.5330   0.0000   0.0000   0.0000   0.5527
  -1.200   0.2630   0.01682   0.01035  -0.0763  0.8123  1.0000  -0.5386   0.0000   0.0000   0.0000   0.5417
  -1.100   0.2709   0.01687   0.01035  -0.0758  0.8105  1.0000  -0.5443   0.0000   0.0000   0.0000   0.5312
  -1.000   0.2786   0.01693   0.01037  -0.0752  0.8086  1.0000  -0.5499   0.0000   0.0000   0.0000   0.5212
  -0.900   0.2861   0.01700   0.01039  -0.0745  0.8066  1.0000  -0.5562   0.0000   0.0000   0.0000   0.5115
  -0.800   0.2935   0.01711   0.01045  -0.0738  0.8046  1.0000  -0.5626   0.0000   0.0000   0.0000   0.5023
  -0.700   0.3004   0.01733   0.01062  -0.0730  0.8022  1.0000  -0.5687   0.0000   0.0000   0.0000   0.4938
  -0.600   0.3089   0.01749   0.01075  -0.0728  0.8000  1.0000  -0.5753   0.0000   0.0000   0.0000   0.4862
  -0.500   0.3185   0.01752   0.01077  -0.0729  0.7977  1.0000  -0.5824   0.0000   0.0000   0.0000   0.4793
  -0.400   0.3278   0.01759   0.01081  -0.0729  0.7951  1.0000  -0.5894   0.0000   0.0000   0.0000   0.4728
  -0.300   0.3368   0.01768   0.01088  -0.0729  0.7923  1.0000  -0.5962   0.0000   0.0000   0.0000   0.4665
  -0.200   0.3456   0.01778   0.01095  -0.0728  0.7897  1.0000  -0.6029   0.0000   0.0000   0.0000   0.4605
  -0.100   0.3543   0.01789   0.01105  -0.0726  0.7871  1.0000  -0.6096   0.0000   0.0000   0.0000   0.4547
   0.000   0.3629   0.01799   0.01112  -0.0723  0.7845  1.0000  -0.6163   0.0000   0.0000   0.0000   0.4491
   0.100   0.3713   0.01807   0.01117  -0.0720  0.7818  1.0000  -0.6231   0.0000   0.0000   0.0000   0.4434
   0.200   0.3797   0.01812   0.01120  -0.0715  0.7790  1.0000  -0.6309   0.0000   0.0000   0.0000   0.4378
   0.300   0.3881   0.01816   0.01122  -0.0710  0.7763  1.0000  -0.6389   0.0000   0.0000   0.0000   0.4323
   0.400   0.3964   0.01818   0.01121  -0.0704  0.7737  1.0000  -0.6470   0.0000   0.0000   0.0000   0.4269
   0.500   0.4047   0.01818   0.01119  -0.0698  0.7711  1.0000  -0.6553   0.0000   0.0000   0.0000   0.4215
   0.600   0.4131   0.01817   0.01115  -0.0691  0.7688  1.0000  -0.6636   0.0000   0.0000   0.0000   0.4162
   0.700   0.4213   0.01818   0.01113  -0.0683  0.7666  1.0000  -0.6719   0.0000   0.0000   0.0000   0.4111
   0.800   0.4295   0.01820   0.01112  -0.0676  0.7645  1.0000  -0.6802   0.0000   0.0000   0.0000   0.4061
   0.900   0.4377   0.01826   0.01116  -0.0668  0.7625  1.0000  -0.6884   0.0000   0.0000   0.0000   0.4014
   1.000   0.4458   0.01840   0.01128  -0.0661  0.7605  1.0000  -0.6965   0.0000   0.0000   0.0000   0.3970
   1.100   0.4532   0.01871   0.01156  -0.0654  0.7581  1.0000  -0.7039   0.0000   0.0000   0.0000   0.3928
   1.200   0.4621   0.01886   0.01172  -0.0654  0.7558  1.0000  -0.7118   0.0000   0.0000   0.0000   0.3898
   1.300   0.4711   0.01896   0.01184  -0.0654  0.7530  1.0000  -0.7196   0.0000   0.0000   0.0000   0.3871
   1.400   0.4798   0.01908   0.01197  -0.0653  0.7496  1.0000  -0.7284   0.0000   0.0000   0.0000   0.3843
   1.500   0.4882   0.01920   0.01208  -0.0651  0.7460  1.0000  -0.7374   0.0000   0.0000   0.0000   0.3814
   1.600   0.4966   0.01928   0.01217  -0.0647  0.7424  1.0000  -0.7466   0.0000   0.0000   0.0000   0.3783
   1.700   0.5052   0.01932   0.01221  -0.0643  0.7390  1.0000  -0.7561   0.0000   0.0000   0.0000   0.3751
   1.800   0.5140   0.01934   0.01222  -0.0638  0.7357  1.0000  -0.7659   0.0000   0.0000   0.0000   0.3719
   1.900   0.5227   0.01934   0.01222  -0.0632  0.7326  1.0000  -0.7757   0.0000   0.0000   0.0000   0.3687
   2.000   0.5317   0.01933   0.01221  -0.0627  0.7298  1.0000  -0.7858   0.0000   0.0000   0.0000   0.3655
   2.100   0.5407   0.01932   0.01220  -0.0621  0.7273  1.0000  -0.7960   0.0000   0.0000   0.0000   0.3624
   2.200   0.5498   0.01931   0.01218  -0.0616  0.7250  1.0000  -0.8063   0.0000   0.0000   0.0000   0.3594
   2.300   0.5590   0.01927   0.01214  -0.0609  0.7228  1.0000  -0.8167   0.0000   0.0000   0.0000   0.3564
   2.400   0.5681   0.01923   0.01208  -0.0603  0.7207  1.0000  -0.8288   0.0000   0.0000   0.0000   0.3533
   2.500   0.5773   0.01919   0.01203  -0.0595  0.7185  1.0000  -0.8410   0.0000   0.0000   0.0000   0.3503
   2.600   0.5864   0.01918   0.01201  -0.0588  0.7162  1.0000  -0.8532   0.0000   0.0000   0.0000   0.3474
   2.700   0.5949   0.01932   0.01214  -0.0580  0.7135  1.0000  -0.8648   0.0000   0.0000   0.0000   0.3445
   2.800   0.6031   0.01951   0.01236  -0.0576  0.7102  1.0000  -0.8755   0.0000   0.0000   0.0000   0.3425
   2.900   0.6116   0.01959   0.01248  -0.0575  0.7063  1.0000  -0.8861   0.0000   0.0000   0.0000   0.3408
   3.000   0.6199   0.01969   0.01261  -0.0573  0.7019  1.0000  -0.8969   0.0000   0.0000   0.0000   0.3391
   3.100   0.6284   0.01976   0.01270  -0.0569  0.6977  1.0000  -0.9098   0.0000   0.0000   0.0000   0.3372
   3.200   0.6371   0.01980   0.01277  -0.0565  0.6937  1.0000  -0.9231   0.0000   0.0000   0.0000   0.3352
   3.300   0.6460   0.01983   0.01281  -0.0560  0.6901  1.0000  -0.9366   0.0000   0.0000   0.0000   0.3332
   3.400   0.6552   0.01981   0.01281  -0.0555  0.6868  1.0000  -0.9507   0.0000   0.0000   0.0000   0.3311
   3.500   0.6647   0.01974   0.01275  -0.0550  0.6837  1.0000  -0.9652   0.0000   0.0000   0.0000   0.3290
   3.600   0.6744   0.01963   0.01264  -0.0544  0.6808  1.0000  -0.9814   0.0000   0.0000   0.0000   0.3268
   3.700   0.6843   0.01948   0.01250  -0.0538  0.6781  1.0000  -0.9992   0.0000   0.0000   0.0000   0.3246
   3.800   0.6946   0.01930   0.01236  -0.0531  0.6755  1.0000  -1.0174   0.0000   0.0000   0.0000   0.3225
   3.900   0.7049   0.01913   0.01218  -0.0525  0.6730  1.0000  -1.0359   0.0000   0.0000   0.0000   0.3204
   4.000   0.7152   0.01899   0.01204  -0.0518  0.6703  1.0000  -1.0544   0.0000   0.0000   0.0000   0.3183
   4.100   0.7248   0.01902   0.01206  -0.0512  0.6671  1.0000  -1.0721   0.0000   0.0000   0.0000   0.3163
   4.200   0.7332   0.01918   0.01226  -0.0507  0.6633  1.0000  -1.0894   0.0000   0.0000   0.0000   0.3148
   4.300   0.7414   0.01926   0.01241  -0.0505  0.6590  1.0000  -1.1078   0.0000   0.0000   0.0000   0.3136
   4.400   0.7495   0.01937   0.01257  -0.0501  0.6540  1.0000  -1.1261   0.0000   0.0000   0.0000   0.3123
   4.500   0.7579   0.01941   0.01265  -0.0497  0.6490  1.0000  -1.1453   0.0000   0.0000   0.0000   0.3109
   4.600   0.7670   0.01936   0.01264  -0.0492  0.6443  1.0000  -1.1656   0.0000   0.0000   0.0000   0.3094
   4.700   0.7767   0.01922   0.01253  -0.0487  0.6400  1.0000  -1.1908   0.0000   0.0000   0.0000   0.3078
   4.800   0.7871   0.01902   0.01235  -0.0481  0.6361  1.0000  -1.2180   0.0000   0.0000   0.0000   0.3061
   4.900   0.7978   0.01878   0.01212  -0.0476  0.6325  1.0000  -1.2460   0.0000   0.0000   0.0000   0.3045
   5.000   0.8088   0.01854   0.01196  -0.0470  0.6291  1.0000  -1.2846   0.0000   0.0000   0.0000   0.3029
   5.100   0.8198   0.01831   0.01173  -0.0465  0.6258  1.0000  -1.3319   0.0000   0.0000   0.0000   0.3014
   5.200   0.8305   0.01814   0.01156  -0.0459  0.6223  1.0000  -1.3791   0.0000   0.0000   0.0000   0.2999
   5.300   0.8408   0.01818   0.01157  -0.0454  0.6176  1.0000  -1.4254   0.0000   0.0000   0.0000   0.2985
   5.400   0.8486   0.01822   0.01171  -0.0450  0.6127  1.0000  -1.4688   0.0000   0.0000   0.0000   0.2974
   5.500   0.8567   0.01824   0.01181  -0.0445  0.6066  1.0000  -1.5635   0.0000   0.0000   0.0000   0.2963
   5.600   0.8657   0.01818   0.01180  -0.0440  0.6003  1.0000  -1.6653   0.0000   0.0000   0.0000   0.2951
   5.700   0.8755   0.01803   0.01169  -0.0435  0.5944  1.0000  -1.7744   0.0000   0.0000   0.0000   0.2938
   5.800   0.8859   0.01782   0.01150  -0.0430  0.5889  1.0000  -1.8896   0.0000   0.0000   0.0000   0.2925
   5.900   0.8966   0.01757   0.01126  -0.0425  0.5838  1.0000  -2.0092   0.0000   0.0000   0.0000   0.2912
   6.000   0.9077   0.01731   0.01099  -0.0420  0.5788  1.0000  -2.1329   0.0000   0.0000   0.0000   0.2900
   6.100   0.9190   0.01710   0.01075  -0.0415  0.5734  1.0000  -2.2608   0.0000   0.0000   0.0000   0.2887
   6.200   0.9285   0.01710   0.01077  -0.0410  0.5671  1.0000  -2.3774   0.0000   0.0000   0.0000   0.2877
   6.300   0.9363   0.01715   0.01093  -0.0405  0.5597  1.0000  -2.4843   0.0000   0.0000   0.0000   0.2867
   6.400   0.9450   0.01712   0.01096  -0.0400  0.5517  1.0000  -2.5992   0.0000   0.0000   0.0000   0.2856
   6.500   0.9544   0.01700   0.01089  -0.0395  0.5437  1.0000  -2.7213   0.0000   0.0000   0.0000   0.2845
   6.600   0.9647   0.01681   0.01069  -0.0389  0.5359  1.0000  -2.8513   0.0000   0.0000   0.0000   0.2834
   6.700   0.9755   0.01660   0.01041  -0.0384  0.5278  1.0000  -2.9879   0.0000   0.0000   0.0000   0.2823
   6.800   0.9850   0.01658   0.01038  -0.0379  0.5191  1.0000  -3.1158   0.0000   0.0000   0.0000   0.2812
   6.900   0.9926   0.01666   0.01057  -0.0373  0.5093  1.0000  -3.2307   0.0000   0.0000   0.0000   0.2803
   7.000   1.0011   0.01665   0.01059  -0.0367  0.4984  1.0000  -3.3545   0.0000   0.0000   0.0000   0.2792
   7.100   1.0103   0.01657   0.01045  -0.0361  0.4869  1.0000  -3.4864   0.0000   0.0000   0.0000   0.2781
   7.200   1.0196   0.01656   0.01029  -0.0354  0.4744  1.0000  -3.6215   0.0000   0.0000   0.0000   0.2770
   7.300   1.0265   0.01670   0.01056  -0.0348  0.4633  1.0000  -3.7365   0.0000   0.0000   0.0000   0.2760
   7.400   1.0337   0.01680   0.01066  -0.0341  0.4495  1.0000  -3.8576   0.0000   0.0000   0.0000   0.2750
   7.500   1.0410   0.01691   0.01064  -0.0332  0.4346  1.0000  -3.9820   0.0000   0.0000   0.0000   0.2738
   7.600   1.0477   0.01710   0.01081  -0.0325  0.4207  1.0000  -4.1007   0.0000   0.0000   0.0000   0.2727
   7.700   1.0538   0.01729   0.01103  -0.0317  0.4063  1.0000  -4.2161   0.0000   0.0000   0.0000   0.2717
   7.800   1.0595   0.01752   0.01116  -0.0308  0.3907  1.0000  -4.3305   0.0000   0.0000   0.0000   0.2705
   7.900   1.0651   0.01780   0.01136  -0.0299  0.3759  1.0000  -4.4442   0.0000   0.0000   0.0000   0.2694
   8.000   1.0707   0.01803   0.01164  -0.0291  0.3613  1.0000  -4.5563   0.0000   0.0000   0.0000   0.2683
   8.100   1.0747   0.01835   0.01186  -0.0280  0.3446  1.0000  -4.6597   0.0000   0.0000   0.0000   0.2671
   8.200   1.0785   0.01869   0.01213  -0.0269  0.3278  1.0000  -4.7609   0.0000   0.0000   0.0000   0.2659
   8.300   1.0817   0.01902   0.01242  -0.0258  0.3082  1.0000  -4.8581   0.0000   0.0000   0.0000   0.2646
   8.400   1.0822   0.01951   0.01273  -0.0243  0.2891  1.0000  -4.9373   0.0000   0.0000   0.0000   0.2631
   8.500   1.0850   0.01986   0.01307  -0.0232  0.2684  1.0000  -5.0297   0.0000   0.0000   0.0000   0.2619
   8.600   1.0842   0.02040   0.01345  -0.0216  0.2498  1.0000  -5.0963   0.0000   0.0000   0.0000   0.2603
   8.700   1.0860   0.02083   0.01384  -0.0203  0.2292  1.0000  -5.1777   0.0000   0.0000   0.0000   0.2589
   8.800   1.0830   0.02146   0.01430  -0.0185  0.2096  1.0000  -5.2264   0.0000   0.0000   0.0000   0.2572
   8.900   1.0813   0.02206   0.01505  -0.0169  0.1851  1.0000  -5.2807   0.0000   0.0000   0.0000   0.2555
   9.000   1.0761   0.02279   0.01561  -0.0148  0.1639  1.0000  -5.3080   0.0000   0.0000   0.0000   0.2535
   9.100   1.0695   0.02354   0.01619  -0.0126  0.1440  1.0000  -5.3226   0.0000   0.0000   0.0000   0.2514
   9.200   1.0628   0.02438   0.01688  -0.0104  0.1239  1.0000  -5.3286   0.0000   0.0000   0.0000   0.2493
   9.300   1.0545   0.02540   0.01769  -0.0083  0.1078  1.0000  -5.3212   0.0000   0.0000   0.0000   0.2472
   9.400   1.0487   0.02639   0.01857  -0.0065  0.0912  1.0000  -5.3107   0.0000   0.0000   0.0000   0.2453
   9.500   1.0403   0.02760   0.01962  -0.0046  0.0808  1.0000  -5.2849   0.0000   0.0000   0.0000   0.2434
   9.600   1.0372   0.02855   0.02058  -0.0031  0.0712  1.0000  -5.2697   0.0000   0.0000   0.0000   0.2418
   9.700   1.0342   0.02950   0.02149  -0.0018  0.0641  1.0000  -5.2721   0.0000   0.0000   0.0000   0.2404
   9.800   1.0287   0.03066   0.02257  -0.0004  0.0587  1.0000  -5.2582   0.0000   0.0000   0.0000   0.2389
   9.900   1.0247   0.03182   0.02372   0.0010  0.0541  1.0000  -5.2405   0.0000   0.0000   0.0000   0.2373
  10.000   1.0283   0.03233   0.02429   0.0016  0.0492  1.0000  -5.3004   0.0000   0.0000   0.0000   0.2367
  10.100   1.0295   0.03304   0.02501   0.0023  0.0453  1.0000  -5.3436   0.0000   0.0000   0.0000   0.2358
  10.200   1.0294   0.03389   0.02588   0.0032  0.0429  1.0000  -5.3665   0.0000   0.0000   0.0000   0.2348
  10.300   1.0287   0.03483   0.02683   0.0041  0.0408  1.0000  -5.3809   0.0000   0.0000   0.0000   0.2337
  10.400   1.0276   0.03591   0.02789   0.0052  0.0387  1.0000  -5.3813   0.0000   0.0000   0.0000   0.2325
  10.500   1.0303   0.03764   0.02961   0.0068  0.0354  1.0000  -5.3285   0.0000   0.0000   0.0000   0.2309
  10.600   1.0337   0.03811   0.03016   0.0073  0.0344  1.0000  -5.3842   0.0000   0.0000   0.0000   0.2303
  10.700   1.0372   0.03870   0.03081   0.0078  0.0329  1.0000  -5.4338   0.0000   0.0000   0.0000   0.2296
  10.800   1.0409   0.03939   0.03156   0.0084  0.0314  1.0000  -5.4762   0.0000   0.0000   0.0000   0.2289
  10.900   1.0452   0.04017   0.03240   0.0091  0.0301  1.0000  -5.5075   0.0000   0.0000   0.0000   0.2282
  11.000   1.0505   0.04104   0.03333   0.0097  0.0290  1.0000  -5.5462   0.0000   0.0000   0.0000   0.2274
  11.100   1.0558   0.04193   0.03430   0.0104  0.0281  1.0000  -5.5947   0.0000   0.0000   0.0000   0.2267
  11.200   1.0611   0.04287   0.03530   0.0111  0.0274  1.0000  -5.6433   0.0000   0.0000   0.0000   0.2260
  11.300   1.0661   0.04385   0.03635   0.0117  0.0267  1.0000  -5.6903   0.0000   0.0000   0.0000   0.2254
  11.400   1.0704   0.04488   0.03746   0.0123  0.0262  1.0000  -5.7333   0.0000   0.0000   0.0000   0.2247
  11.500   1.0744   0.04595   0.03862   0.0129  0.0257  1.0000  -5.7738   0.0000   0.0000   0.0000   0.2241
  11.600   1.0779   0.04708   0.03983   0.0135  0.0254  1.0000  -5.8106   0.0000   0.0000   0.0000   0.2234
  11.700   1.0805   0.04825   0.04110   0.0141  0.0251  1.0000  -5.8420   0.0000   0.0000   0.0000   0.2228
  11.800   1.0824   0.04946   0.04241   0.0146  0.0248  1.0000  -5.8683   0.0000   0.0000   0.0000   0.2221
  11.900   1.0836   0.05072   0.04378   0.0152  0.0246  1.0000  -5.8899   0.0000   0.0000   0.0000   0.2215
  12.000   1.0841   0.05203   0.04519   0.0157  0.0245  1.0000  -5.9066   0.0000   0.0000   0.0000   0.2208
  12.100   1.0839   0.05337   0.04663   0.0163  0.0244  1.0000  -5.9191   0.0000   0.0000   0.0000   0.2202
  12.200   1.0829   0.05471   0.04808   0.0168  0.0243  1.0000  -5.9296   0.0000   0.0000   0.0000   0.2195
  12.300   1.0812   0.05608   0.04955   0.0173  0.0242  1.0000  -5.9378   0.0000   0.0000   0.0000   0.2189
  12.400   1.0789   0.05747   0.05104   0.0177  0.0241  1.0000  -5.9436   0.0000   0.0000   0.0000   0.2183
  12.500   1.0761   0.05890   0.05256   0.0180  0.0240  1.0000  -5.9478   0.0000   0.0000   0.0000   0.2178
  12.600   1.0731   0.06036   0.05411   0.0184  0.0239  1.0000  -5.9507   0.0000   0.0000   0.0000   0.2173
  12.700   1.0697   0.06185   0.05570   0.0186  0.0238  1.0000  -5.9521   0.0000   0.0000   0.0000   0.2168
  12.800   1.0659   0.06338   0.05732   0.0188  0.0237  1.0000  -5.9510   0.0000   0.0000   0.0000   0.2164
  12.900   1.0614   0.06496   0.05899   0.0189  0.0237  1.0000  -5.9452   0.0000   0.0000   0.0000   0.2160
  13.000   1.0566   0.06659   0.06071   0.0190  0.0236  1.0000  -5.9371   0.0000   0.0000   0.0000   0.2157
  13.100   1.0517   0.06827   0.06248   0.0190  0.0236  1.0000  -5.9269   0.0000   0.0000   0.0000   0.2155
  13.200   1.0465   0.06999   0.06429   0.0189  0.0235  1.0000  -5.9138   0.0000   0.0000   0.0000   0.2153
  13.300   1.0405   0.07179   0.06618   0.0187  0.0235  1.0000  -5.8946   0.0000   0.0000   0.0000   0.2152
  13.400   1.0341   0.07367   0.06815   0.0184  0.0236  1.0000  -5.8700   0.0000   0.0000   0.0000   0.2152
  13.500   1.0275   0.07561   0.07018   0.0180  0.0236  1.0000  -5.8419   0.0000   0.0000   0.0000   0.2152
  13.600   1.0205   0.07760   0.07226   0.0176  0.0237  1.0000  -5.8086   0.0000   0.0000   0.0000   0.2154
  13.700   1.0126   0.07974   0.07450   0.0170  0.0238  1.0000  -5.7650   0.0000   0.0000   0.0000   0.2156
  13.800   1.0041   0.08204   0.07690   0.0163  0.0240  1.0000  -5.7139   0.0000   0.0000   0.0000   0.2160
  13.900   0.9955   0.08448   0.07943   0.0155  0.0242  1.0000  -5.6574   0.0000   0.0000   0.0000   0.2166
  14.000   0.9862   0.08713   0.08218   0.0144  0.0245  1.0000  -5.5911   0.0000   0.0000   0.0000   0.2173
  14.100   0.9763   0.08999   0.08514   0.0131  0.0248  1.0000  -5.5162   0.0000   0.0000   0.0000   0.2184
  14.200   0.9668   0.09294   0.08818   0.0117  0.0251  1.0000  -5.4407   0.0000   0.0000   0.0000   0.2195
  14.300   0.9546   0.09646   0.09180   0.0098  0.0256  1.0000  -5.3342   0.0000   0.0000   0.0000   0.2212
  14.400   0.9426   0.10012   0.09555   0.0077  0.0260  1.0000  -5.2277   0.0000   0.0000   0.0000   0.2232
  14.500   0.9306   0.10396   0.09947   0.0054  0.0265  1.0000  -5.1196   0.0000   0.0000   0.0000   0.2254
  14.600   0.9191   0.10787   0.10345   0.0030  0.0269  1.0000  -5.0127   0.0000   0.0000   0.0000   0.2279
  14.700   0.9076   0.11202   0.10766   0.0003  0.0273  1.0000  -4.9004   0.0000   0.0000   0.0000   0.2307
  14.800   0.8965   0.11627   0.11196  -0.0024  0.0276  1.0000  -4.7848   0.0000   0.0000   0.0000   0.2336
  14.900   0.8854   0.12076   0.11648  -0.0053  0.0280  1.0000  -4.6606   0.0000   0.0000   0.0000   0.2369
  15.000   0.8742   0.12553   0.12129  -0.0083  0.0284  1.0000  -4.5208   0.0000   0.0000   0.0000   0.2404
  15.100   0.8632   0.13053   0.12630  -0.0113  0.0289  1.0000  -4.3670   0.0000   0.0000   0.0000   0.2440
  15.200   0.8533   0.13551   0.13129  -0.0141  0.0295  1.0000  -4.2073   0.0000   0.0000   0.0000   0.2475
  15.300   0.8449   0.14029   0.13605  -0.0166  0.0301  1.0000  -4.0516   0.0000   0.0000   0.0000   0.2507
  15.400   0.8381   0.14471   0.14046  -0.0188  0.0306  1.0000  -3.9086   0.0000   0.0000   0.0000   0.2535
  15.500   0.8329   0.14859   0.14432  -0.0206  0.0311  1.0000  -3.7895   0.0000   0.0000   0.0000   0.2558
  15.600   0.8289   0.15201   0.14772  -0.0221  0.0316  1.0000  -3.6904   0.0000   0.0000   0.0000   0.2578
  15.700   0.8256   0.15508   0.15077  -0.0235  0.0320  1.0000  -3.6046   0.0000   0.0000   0.0000   0.2596
  15.800   0.8228   0.15794   0.15361  -0.0248  0.0324  1.0000  -3.5284   0.0000   0.0000   0.0000   0.2612
  15.900   0.8206   0.16066   0.15631  -0.0261  0.0329  1.0000  -3.4595   0.0000   0.0000   0.0000   0.2627
  16.000   0.8186   0.16329   0.15892  -0.0272  0.0333  1.0000  -3.3962   0.0000   0.0000   0.0000   0.2640
  16.100   0.8169   0.16587   0.16149  -0.0282  0.0338  1.0000  -3.3368   0.0000   0.0000   0.0000   0.2653
  16.200   0.8150   0.16848   0.16409  -0.0290  0.0345  1.0000  -3.2785   0.0000   0.0000   0.0000   0.2663
  16.300   0.8061   0.18090   0.17647  -0.0342  0.0609  1.0000  -2.6133   0.0000   0.0000   0.0000   0.2739
  16.400   0.8018   0.18432   0.17969  -0.0364  0.0628  1.0000  -2.5047   0.0000   0.0000   0.0000   0.2768
  16.500   0.8008   0.18681   0.18217  -0.0377  0.0637  1.0000  -2.4534   0.0000   0.0000   0.0000   0.2784
  16.600   0.8009   0.18893   0.18428  -0.0387  0.0640  1.0000  -2.4226   0.0000   0.0000   0.0000   0.2795
  16.700   0.8016   0.19088   0.18623  -0.0395  0.0639  1.0000  -2.4019   0.0000   0.0000   0.0000   0.2805
  16.800   0.8027   0.19274   0.18807  -0.0403  0.0636  1.0000  -2.3875   0.0000   0.0000   0.0000   0.2812
  16.900   0.8041   0.19456   0.19007  -0.0410  0.0631  1.0000  -2.3774   0.0000   0.0000   0.0000   0.2819
  17.000   0.8057   0.19631   0.19182  -0.0416  0.0626  1.0000  -2.3716   0.0000   0.0000   0.0000   0.2824
  17.100   0.8076   0.19802   0.19353  -0.0422  0.0621  1.0000  -2.3695   0.0000   0.0000   0.0000   0.2829
  17.200   0.8097   0.19970   0.19522  -0.0427  0.0615  1.0000  -2.3710   0.0000   0.0000   0.0000   0.2833
  17.300   0.8121   0.20137   0.19689  -0.0432  0.0609  1.0000  -2.3762   0.0000   0.0000   0.0000   0.2835
  17.400   0.8149   0.20302   0.19855  -0.0435  0.0603  1.0000  -2.3858   0.0000   0.0000   0.0000   0.2836
  17.500   0.8180   0.20467   0.20020  -0.0438  0.0597  1.0000  -2.4006   0.0000   0.0000   0.0000   0.2836
  17.600   0.8216   0.20632   0.20186  -0.0439  0.0591  1.0000  -2.4209   0.0000   0.0000   0.0000   0.2834
  17.700   0.8257   0.20795   0.20350  -0.0439  0.0584  1.0000  -2.4508   0.0000   0.0000   0.0000   0.2829
  17.800   0.8307   0.20963   0.20519  -0.0435  0.0576  1.0000  -2.4976   0.0000   0.0000   0.0000   0.2819
  17.900   0.8359   0.21227   0.20785  -0.0425  0.0564  1.0000  -2.5566   0.0000   0.0000   0.0000   0.2803
  18.000   0.8288   0.21997   0.21548  -0.0436  0.0550  1.0000  -2.4498   0.0000   0.0000   0.0000   0.2821
  18.100   0.8300   0.22199   0.21750  -0.0445  0.0550  1.0000  -2.4322   0.0000   0.0000   0.0000   0.2830
  18.200   0.8312   0.22397   0.21948  -0.0454  0.0549  1.0000  -2.4147   0.0000   0.0000   0.0000   0.2838
  18.300   0.8324   0.22590   0.22140  -0.0463  0.0549  1.0000  -2.3974   0.0000   0.0000   0.0000   0.2847
  18.400   0.8336   0.22776   0.22326  -0.0472  0.0548  1.0000  -2.3802   0.0000   0.0000   0.0000   0.2856
  18.500   0.8347   0.22955   0.22504  -0.0482  0.0547  1.0000  -2.3631   0.0000   0.0000   0.0000   0.2865
  18.600   0.8359   0.23123   0.22672  -0.0492  0.0546  1.0000  -2.3458   0.0000   0.0000   0.0000   0.2875
  18.700   0.8370   0.23278   0.22827  -0.0502  0.0544  1.0000  -2.3283   0.0000   0.0000   0.0000   0.2885
  18.800   0.8381   0.23411   0.22959  -0.0513  0.0541  1.0000  -2.3095   0.0000   0.0000   0.0000   0.2896
  18.900   0.8384   0.23510   0.23057  -0.0527  0.0537  1.0000  -2.2809   0.0000   0.0000   0.0000   0.2911
  19.000   0.8371   0.23586   0.23132  -0.0545  0.0529  1.0000  -2.2349   0.0000   0.0000   0.0000   0.2932
  19.100   0.8355   0.23689   0.23233  -0.0564  0.0518  1.0000  -2.1852   0.0000   0.0000   0.0000   0.2954
  19.200   0.8355   0.23842   0.23385  -0.0578  0.0504  1.0000  -2.1495   0.0000   0.0000   0.0000   0.2971
  19.300   0.8364   0.24018   0.23560  -0.0590  0.0490  1.0000  -2.1283   0.0000   0.0000   0.0000   0.2982
  19.400   0.8377   0.24200   0.23742  -0.0599  0.0477  1.0000  -2.1160   0.0000   0.0000   0.0000   0.2991
  19.500   0.8392   0.24382   0.23924  -0.0607  0.0465  1.0000  -2.1091   0.0000   0.0000   0.0000   0.2997
  19.600   0.8409   0.24563   0.24105  -0.0614  0.0454  1.0000  -2.1059   0.0000   0.0000   0.0000   0.3003
  19.700   0.8427   0.24742   0.24285  -0.0621  0.0444  1.0000  -2.1057   0.0000   0.0000   0.0000   0.3008
  19.800   0.8446   0.24921   0.24464  -0.0627  0.0436  1.0000  -2.1076   0.0000   0.0000   0.0000   0.3012
  19.900   0.8465   0.25099   0.24642  -0.0633  0.0428  1.0000  -2.1110   0.0000   0.0000   0.0000   0.3016
  20.000   0.8485   0.25277   0.24821  -0.0639  0.0421  1.0000  -2.1155   0.0000   0.0000   0.0000   0.3019
  20.100   0.8505   0.25456   0.25000  -0.0644  0.0415  1.0000  -2.1213   0.0000   0.0000   0.0000   0.3022
  20.200   0.8527   0.25633   0.25177  -0.0649  0.0409  1.0000  -2.1294   0.0000   0.0000   0.0000   0.3025
  20.300   0.8549   0.25809   0.25354  -0.0654  0.0403  1.0000  -2.1401   0.0000   0.0000   0.0000   0.3027
  20.400   0.8572   0.25985   0.25531  -0.0658  0.0397  1.0000  -2.1540   0.0000   0.0000   0.0000   0.3027
  20.500   0.8597   0.26161   0.25707  -0.0661  0.0392  1.0000  -2.1716   0.0000   0.0000   0.0000   0.3027
  20.600   0.8625   0.26339   0.25887  -0.0664  0.0387  1.0000  -2.1940   0.0000   0.0000   0.0000   0.3026
  20.700   0.8656   0.26524   0.26072  -0.0665  0.0382  1.0000  -2.2225   0.0000   0.0000   0.0000   0.3023
  20.800   0.8692   0.26723   0.26273  -0.0664  0.0377  1.0000  -2.2603   0.0000   0.0000   0.0000   0.3017
  20.900   0.8742   0.26965   0.26517  -0.0660  0.0371  1.0000  -2.3133   0.0000   0.0000   0.0000   0.3006
  21.000   0.8785   0.27313   0.26867  -0.0654  0.0364  1.0000  -2.3604   0.0000   0.0000   0.0000   0.2994
  21.100   0.8738   0.28132   0.27680  -0.0660  0.0354  1.0000  -2.2580   0.0000   0.0000   0.0000   0.3006
  21.200   0.8750   0.28340   0.27888  -0.0668  0.0354  1.0000  -2.2438   0.0000   0.0000   0.0000   0.3012
  21.300   0.8762   0.28547   0.28096  -0.0675  0.0354  1.0000  -2.2297   0.0000   0.0000   0.0000   0.3018
  21.400   0.8774   0.28753   0.28301  -0.0683  0.0354  1.0000  -2.2155   0.0000   0.0000   0.0000   0.3024
  21.500   0.8785   0.28957   0.28505  -0.0690  0.0353  1.0000  -2.2013   0.0000   0.0000   0.0000   0.3030
  21.600   0.8796   0.29158   0.28707  -0.0698  0.0353  1.0000  -2.1871   0.0000   0.0000   0.0000   0.3036
  21.700   0.8806   0.29357   0.28906  -0.0705  0.0353  1.0000  -2.1728   0.0000   0.0000   0.0000   0.3043
  21.800   0.8816   0.29553   0.29103  -0.0713  0.0352  1.0000  -2.1585   0.0000   0.0000   0.0000   0.3049
  21.900   0.8826   0.29747   0.29297  -0.0720  0.0352  1.0000  -2.1441   0.0000   0.0000   0.0000   0.3055
  22.000   0.8835   0.29938   0.29487  -0.0728  0.0352  1.0000  -2.1296   0.0000   0.0000   0.0000   0.3061
  22.100   0.8843   0.30124   0.29674  -0.0736  0.0351  1.0000  -2.1149   0.0000   0.0000   0.0000   0.3068
  22.200   0.8852   0.30307   0.29857  -0.0743  0.0350  1.0000  -2.1001   0.0000   0.0000   0.0000   0.3074
  22.300   0.8859   0.30483   0.30034  -0.0751  0.0350  1.0000  -2.0849   0.0000   0.0000   0.0000   0.3081
  22.400   0.8865   0.30653   0.30204  -0.0759  0.0349  1.0000  -2.0687   0.0000   0.0000   0.0000   0.3087
  22.500   0.8865   0.30811   0.30361  -0.0768  0.0348  1.0000  -2.0466   0.0000   0.0000   0.0000   0.3096
  22.600   0.8861   0.30958   0.30508  -0.0778  0.0346  1.0000  -2.0215   0.0000   0.0000   0.0000   0.3106
  22.700   0.8855   0.31098   0.30648  -0.0788  0.0345  1.0000  -1.9941   0.0000   0.0000   0.0000   0.3117
  22.800   0.8850   0.31234   0.30785  -0.0799  0.0342  1.0000  -1.9650   0.0000   0.0000   0.0000   0.3128
  22.900   0.8846   0.31371   0.30922  -0.0811  0.0339  1.0000  -1.9341   0.0000   0.0000   0.0000   0.3140
  23.000   0.8845   0.31518   0.31068  -0.0822  0.0335  1.0000  -1.9026   0.0000   0.0000   0.0000   0.3151
  23.100   0.8846   0.31683   0.31233  -0.0832  0.0329  1.0000  -1.8735   0.0000   0.0000   0.0000   0.3161
  23.200   0.8850   0.31866   0.31417  -0.0842  0.0324  1.0000  -1.8489   0.0000   0.0000   0.0000   0.3170
  23.300   0.8853   0.32059   0.31610  -0.0849  0.0318  1.0000  -1.8289   0.0000   0.0000   0.0000   0.3177
  23.400   0.8857   0.32256   0.31808  -0.0856  0.0312  1.0000  -1.8121   0.0000   0.0000   0.0000   0.3183
  23.500   0.8859   0.32454   0.32006  -0.0863  0.0307  1.0000  -1.7974   0.0000   0.0000   0.0000   0.3189
  23.600   0.8860   0.32651   0.32204  -0.0869  0.0302  1.0000  -1.7840   0.0000   0.0000   0.0000   0.3194
  23.700   0.8860   0.32846   0.32401  -0.0874  0.0297  1.0000  -1.7716   0.0000   0.0000   0.0000   0.3199
  23.800   0.8858   0.33039   0.32595  -0.0879  0.0292  1.0000  -1.7599   0.0000   0.0000   0.0000   0.3204
  23.900   0.8855   0.33230   0.32786  -0.0884  0.0288  1.0000  -1.7485   0.0000   0.0000   0.0000   0.3208
  24.000   0.8850   0.33416   0.32973  -0.0889  0.0284  1.0000  -1.7373   0.0000   0.0000   0.0000   0.3213
  24.100   0.8842   0.33597   0.33156  -0.0893  0.0280  1.0000  -1.7262   0.0000   0.0000   0.0000   0.3217
  24.200   0.8832   0.33773   0.33333  -0.0897  0.0276  1.0000  -1.7150   0.0000   0.0000   0.0000   0.3221
  24.300   0.8818   0.33942   0.33503  -0.0900  0.0272  1.0000  -1.7034   0.0000   0.0000   0.0000   0.3226
  24.400   0.8801   0.34100   0.33662  -0.0903  0.0269  1.0000  -1.6911   0.0000   0.0000   0.0000   0.3230
  24.500   0.8777   0.34244   0.33808  -0.0905  0.0266  1.0000  -1.6778   0.0000   0.0000   0.0000   0.3234
  24.600   0.8741   0.34363   0.33929  -0.0906  0.0263  1.0000  -1.6618   0.0000   0.0000   0.0000   0.3239
  24.700   0.8204   0.33189   0.32772  -0.0849  0.0268  1.0000  -1.5137   0.0000   0.0000   0.0000   0.3252
  24.800   0.8140   0.33126   0.32711  -0.0846  0.0266  1.0000  -1.4899   0.0000   0.0000   0.0000   0.3258
  24.900   0.8089   0.33091   0.32679  -0.0845  0.0263  1.0000  -1.4700   0.0000   0.0000   0.0000   0.3263
  25.000   0.8046   0.33073   0.32664  -0.0845  0.0260  1.0000  -1.4525   0.0000   0.0000   0.0000   0.3269
  25.100   0.8009   0.33067   0.32659  -0.0845  0.0258  1.0000  -1.4370   0.0000   0.0000   0.0000   0.3274
  25.200   0.7977   0.33068   0.32662  -0.0845  0.0255  1.0000  -1.4229   0.0000   0.0000   0.0000   0.3279
  25.300   0.7947   0.33074   0.32671  -0.0847  0.0252  1.0000  -1.4103   0.0000   0.0000   0.0000   0.3284
  25.400   0.7921   0.33084   0.32682  -0.0848  0.0249  1.0000  -1.3989   0.0000   0.0000   0.0000   0.3288
  25.500   0.7896   0.33097   0.32697  -0.0849  0.0246  1.0000  -1.3887   0.0000   0.0000   0.0000   0.3293
  25.600   0.7874   0.33113   0.32715  -0.0851  0.0244  1.0000  -1.3798   0.0000   0.0000   0.0000   0.3298
  25.700   0.7854   0.33131   0.32735  -0.0853  0.0241  1.0000  -1.3721   0.0000   0.0000   0.0000   0.3302
  25.800   0.7835   0.33151   0.32757  -0.0855  0.0238  1.0000  -1.3655   0.0000   0.0000   0.0000   0.3306
  25.900   0.7818   0.33172   0.32780  -0.0856  0.0235  1.0000  -1.3603   0.0000   0.0000   0.0000   0.3310
  26.000   0.7802   0.33196   0.32813  -0.0858  0.0233  1.0000  -1.3547   0.0000   0.0000   0.0000   0.3314
  26.100   0.7788   0.33219   0.32837  -0.0860  0.0230  1.0000  -1.3519   0.0000   0.0000   0.0000   0.3318
  26.200   0.7774   0.33242   0.32863  -0.0862  0.0227  1.0000  -1.3508   0.0000   0.0000   0.0000   0.3322
  26.300   0.7762   0.33266   0.32888  -0.0864  0.0225  1.0000  -1.3514   0.0000   0.0000   0.0000   0.3325
  26.400   0.7750   0.33290   0.32914  -0.0866  0.0222  1.0000  -1.3539   0.0000   0.0000   0.0000   0.3327
  26.500   0.7740   0.33315   0.32941  -0.0867  0.0220  1.0000  -1.3586   0.0000   0.0000   0.0000   0.3330
  26.600   0.7731   0.33343   0.32971  -0.0868  0.0217  1.0000  -1.3657   0.0000   0.0000   0.0000   0.3331
  26.700   0.7724   0.33376   0.33006  -0.0868  0.0214  1.0000  -1.3758   0.0000   0.0000   0.0000   0.3332
  26.800   0.7719   0.33422   0.33054  -0.0868  0.0212  1.0000  -1.3898   0.0000   0.0000   0.0000   0.3331
  26.900   0.7719   0.33500   0.33134  -0.0866  0.0209  1.0000  -1.4090   0.0000   0.0000   0.0000   0.3328
  27.000   0.7734   0.33718   0.33354  -0.0862  0.0205  1.0000  -1.4377   0.0000   0.0000   0.0000   0.3319
  27.100   0.7722   0.34234   0.33867  -0.0859  0.0200  1.0000  -1.3857   0.0000   0.0000   0.0000   0.3318
  27.200   0.7711   0.34268   0.33902  -0.0863  0.0200  1.0000  -1.3715   0.0000   0.0000   0.0000   0.3324
  27.300   0.7700   0.34304   0.33939  -0.0867  0.0200  1.0000  -1.3577   0.0000   0.0000   0.0000   0.3330
  27.400   0.7689   0.34339   0.33976  -0.0871  0.0200  1.0000  -1.3442   0.0000   0.0000   0.0000   0.3336
  27.500   0.7680   0.34376   0.34013  -0.0875  0.0200  1.0000  -1.3309   0.0000   0.0000   0.0000   0.3342
  27.600   0.7670   0.34413   0.34052  -0.0880  0.0199  1.0000  -1.3179   0.0000   0.0000   0.0000   0.3347
  27.700   0.7661   0.34448   0.34089  -0.0884  0.0199  1.0000  -1.3049   0.0000   0.0000   0.0000   0.3353
  27.800   0.7651   0.34484   0.34125  -0.0888  0.0199  1.0000  -1.2921   0.0000   0.0000   0.0000   0.3359
  27.900   0.7643   0.34521   0.34163  -0.0893  0.0199  1.0000  -1.2796   0.0000   0.0000   0.0000   0.3365
  28.000   0.7634   0.34558   0.34202  -0.0897  0.0199  1.0000  -1.2733   0.0000   0.0000   0.0000   0.3371
  28.100   0.7627   0.34596   0.34241  -0.0902  0.0199  1.0000  -1.2672   0.0000   0.0000   0.0000   0.3377
  28.200   0.7619   0.34634   0.34280  -0.0906  0.0199  1.0000  -1.2612   0.0000   0.0000   0.0000   0.3383
  28.300   0.7612   0.34672   0.34320  -0.0910  0.0199  1.0000  -1.2552   0.0000   0.0000   0.0000   0.3388
  28.400   0.7604   0.34708   0.34356  -0.0915  0.0198  1.0000  -1.2487   0.0000   0.0000   0.0000   0.3394
  28.500   0.7597   0.34743   0.34393  -0.0920  0.0198  1.0000  -1.2422   0.0000   0.0000   0.0000   0.3400
  28.600   0.7590   0.34779   0.34430  -0.0924  0.0198  1.0000  -1.2358   0.0000   0.0000   0.0000   0.3406
  28.700   0.7582   0.34811   0.34463  -0.0929  0.0198  1.0000  -1.2285   0.0000   0.0000   0.0000   0.3412
  28.800   0.7573   0.34840   0.34493  -0.0934  0.0198  1.0000  -1.2204   0.0000   0.0000   0.0000   0.3419
  28.900   0.7565   0.34870   0.34524  -0.0939  0.0198  1.0000  -1.2123   0.0000   0.0000   0.0000   0.3425
  29.000   0.7558   0.34900   0.34555  -0.0944  0.0197  1.0000  -1.2043   0.0000   0.0000   0.0000   0.3432
  29.100   0.7550   0.34931   0.34588  -0.0949  0.0197  1.0000  -1.1963   0.0000   0.0000   0.0000   0.3438
  29.200   0.7543   0.34963   0.34621  -0.0954  0.0197  1.0000  -1.1883   0.0000   0.0000   0.0000   0.3445
  29.300   0.7537   0.34996   0.34655  -0.0960  0.0197  1.0000  -1.1804   0.0000   0.0000   0.0000   0.3451
  29.400   0.7531   0.35030   0.34689  -0.0965  0.0196  1.0000  -1.1724   0.0000   0.0000   0.0000   0.3458
  29.500   0.7525   0.35064   0.34725  -0.0970  0.0196  1.0000  -1.1645   0.0000   0.0000   0.0000   0.3464
  29.600   0.7519   0.35100   0.34761  -0.0975  0.0196  1.0000  -1.1565   0.0000   0.0000   0.0000   0.3470
  29.700   0.7514   0.35137   0.34799  -0.0981  0.0195  1.0000  -1.1486   0.0000   0.0000   0.0000   0.3477
  29.800   0.7510   0.35174   0.34838  -0.0986  0.0195  1.0000  -1.1405   0.0000   0.0000   0.0000   0.3483
  29.900   0.7505   0.35213   0.34878  -0.0992  0.0195  1.0000  -1.1325   0.0000   0.0000   0.0000   0.3490
  30.000   0.7502   0.35254   0.34920  -0.0997  0.0194  1.0000  -1.1243   0.0000   0.0000   0.0000   0.3496


