xflr5 v6.61

 Calculated polar for: MH 18

 1 1 Reynolds number fixed          Mach number fixed         

 xtrf =   1.000 (top)        1.000 (bottom)
 Mach =   0.000     Re =     0.500 e 6     Ncrit =   9.000

  alpha     CL        CD       CDp       Cm    Top Xtr Bot Xtr   Cpmin    Chinge    XCp    
 ------- -------- --------- --------- -------- ------- ------- -------- --------- ---------
 -10.000  -0.4248   0.10888   0.10666  -0.0095  0.8667  0.0150  -2.0404   0.0000   0.0000   0.0000   0.2192
  -9.900  -0.4237   0.10728   0.10506  -0.0102  0.8635  0.0150  -2.0581   0.0000   0.0000   0.0000   0.2176
  -9.800  -0.4227   0.10569   0.10346  -0.0109  0.8603  0.0150  -2.0763   0.0000   0.0000   0.0000   0.2161
  -9.700  -0.4219   0.10411   0.10186  -0.0115  0.8570  0.0150  -2.0951   0.0000   0.0000   0.0000   0.2146
  -9.600  -0.4213   0.10253   0.10027  -0.0121  0.8537  0.0150  -2.1145   0.0000   0.0000   0.0000   0.2131
  -9.500  -0.4207   0.10096   0.09868  -0.0128  0.8502  0.0150  -2.1344   0.0000   0.0000   0.0000   0.2117
  -9.400  -0.4202   0.09938   0.09709  -0.0135  0.8464  0.0150  -2.1550   0.0000   0.0000   0.0000   0.2101
  -9.300  -0.4196   0.09777   0.09546  -0.0142  0.8422  0.0150  -2.1763   0.0000   0.0000   0.0000   0.2083
  -9.200  -0.4187   0.09606   0.09376  -0.0151  0.8406  0.0150  -2.1985   0.0000   0.0000   0.0000   0.2062
  -9.100  -0.4180   0.09435   0.09205  -0.0160  0.8388  0.0150  -2.2215   0.0000   0.0000   0.0000   0.2041
  -9.000  -0.4174   0.09262   0.09033  -0.0169  0.8367  0.0150  -2.2454   0.0000   0.0000   0.0000   0.2019
  -8.900  -0.4169   0.09089   0.08861  -0.0179  0.8344  0.0150  -2.2701   0.0000   0.0000   0.0000   0.1998
  -8.800  -0.4166   0.08915   0.08687  -0.0188  0.8319  0.0150  -2.2958   0.0000   0.0000   0.0000   0.1976
  -8.700  -0.4166   0.08741   0.08513  -0.0197  0.8292  0.0150  -2.3226   0.0000   0.0000   0.0000   0.1954
  -8.600  -0.4168   0.08566   0.08338  -0.0207  0.8264  0.0150  -2.3504   0.0000   0.0000   0.0000   0.1932
  -8.500  -0.4172   0.08390   0.08161  -0.0217  0.8236  0.0150  -2.3796   0.0000   0.0000   0.0000   0.1909
  -8.400  -0.4178   0.08209   0.07980  -0.0228  0.8206  0.0150  -2.4102   0.0000   0.0000   0.0000   0.1885
  -8.300  -0.4186   0.08025   0.07796  -0.0240  0.8176  0.0150  -2.4427   0.0000   0.0000   0.0000   0.1859
  -8.200  -0.4199   0.07838   0.07607  -0.0253  0.8144  0.0150  -2.4773   0.0000   0.0000   0.0000   0.1831
  -8.100  -0.4217   0.07645   0.07413  -0.0269  0.8108  0.0150  -2.5151   0.0000   0.0000   0.0000   0.1798
  -8.000  -0.4243   0.07440   0.07207  -0.0289  0.8065  0.0150  -2.5578   0.0000   0.0000   0.0000   0.1757
  -7.900  -0.4273   0.07231   0.06995  -0.0309  0.8014  0.0150  -2.6040   0.0000   0.0000   0.0000   0.1716
  -7.800  -0.4298   0.07028   0.06791  -0.0322  0.7999  0.0150  -2.6486   0.0000   0.0000   0.0000   0.1691
  -7.700  -0.4323   0.06836   0.06597  -0.0331  0.7985  0.0150  -2.6927   0.0000   0.0000   0.0000   0.1676
  -7.600  -0.4333   0.06625   0.06384  -0.0342  0.7969  0.0150  -2.7388   0.0000   0.0000   0.0000   0.1653
  -7.500  -0.4338   0.06412   0.06167  -0.0352  0.7951  0.0150  -2.7851   0.0000   0.0000   0.0000   0.1631
  -7.400  -0.4340   0.06202   0.05953  -0.0360  0.7933  0.0150  -2.8306   0.0000   0.0000   0.0000   0.1614
  -7.300  -0.4340   0.05997   0.05742  -0.0366  0.7914  0.0150  -2.8747   0.0000   0.0000   0.0000   0.1600
  -7.200  -0.4338   0.05796   0.05537  -0.0371  0.7894  0.0150  -2.9169   0.0000   0.0000   0.0000   0.1589
  -7.100  -0.4333   0.05601   0.05335  -0.0374  0.7874  0.0150  -2.9570   0.0000   0.0000   0.0000   0.1581
  -7.000  -0.4325   0.05409   0.05137  -0.0376  0.7855  0.0150  -2.9950   0.0000   0.0000   0.0000   0.1575
  -6.900  -0.4315   0.05222   0.04942  -0.0377  0.7835  0.0150  -3.0310   0.0000   0.0000   0.0000   0.1570
  -6.800  -0.4301   0.05036   0.04748  -0.0377  0.7815  0.0150  -3.0658   0.0000   0.0000   0.0000   0.1568
  -6.700  -0.4285   0.04852   0.04554  -0.0377  0.7794  0.0150  -3.1000   0.0000   0.0000   0.0000   0.1567
  -6.600  -0.4521   0.04104   0.03782  -0.0372  0.7775  0.0132  -3.5492   0.0000   0.0000   0.0000   0.1624
  -6.500  -0.4533   0.03820   0.03480  -0.0366  0.7756  0.0125  -3.6823   0.0000   0.0000   0.0000   0.1639
  -6.400  -0.4523   0.03572   0.03213  -0.0359  0.7735  0.0119  -3.7960   0.0000   0.0000   0.0000   0.1653
  -6.300  -0.4502   0.03339   0.02961  -0.0350  0.7714  0.0114  -3.9064   0.0000   0.0000   0.0000   0.1668
  -6.200  -0.4471   0.03124   0.02724  -0.0341  0.7690  0.0109  -4.0115   0.0000   0.0000   0.0000   0.1682
  -6.100  -0.4433   0.02920   0.02499  -0.0332  0.7664  0.0105  -4.1142   0.0000   0.0000   0.0000   0.1697
  -6.000  -0.4385   0.02731   0.02289  -0.0322  0.7634  0.0101  -4.2107   0.0000   0.0000   0.0000   0.1710
  -5.900  -0.4330   0.02563   0.02098  -0.0314  0.7601  0.0099  -4.2918   0.0000   0.0000   0.0000   0.1720
  -5.800  -0.4265   0.02412   0.01927  -0.0306  0.7574  0.0097  -4.3551   0.0000   0.0000   0.0000   0.1728
  -5.700  -0.4193   0.02274   0.01771  -0.0298  0.7567  0.0095  -4.3993   0.0000   0.0000   0.0000   0.1733
  -5.600  -0.4114   0.02152   0.01633  -0.0291  0.7558  0.0094  -4.4239   0.0000   0.0000   0.0000   0.1736
  -5.500  -0.4030   0.02044   0.01510  -0.0286  0.7549  0.0094  -4.4307   0.0000   0.0000   0.0000   0.1736
  -5.400  -0.3942   0.01948   0.01399  -0.0280  0.7540  0.0094  -4.4219   0.0000   0.0000   0.0000   0.1733
  -5.300  -0.3850   0.01861   0.01299  -0.0276  0.7530  0.0095  -4.4000   0.0000   0.0000   0.0000   0.1728
  -5.200  -0.3755   0.01786   0.01213  -0.0272  0.7518  0.0096  -4.3588   0.0000   0.0000   0.0000   0.1721
  -5.100  -0.3656   0.01733   0.01153  -0.0269  0.7507  0.0099  -4.2801   0.0000   0.0000   0.0000   0.1709
  -5.000  -0.3555   0.01687   0.01089  -0.0266  0.7494  0.0102  -4.1913   0.0000   0.0000   0.0000   0.1695
  -4.900  -0.3454   0.01640   0.01035  -0.0264  0.7481  0.0106  -4.1057   0.0000   0.0000   0.0000   0.1680
  -4.800  -0.3353   0.01589   0.00978  -0.0261  0.7468  0.0109  -4.0294   0.0000   0.0000   0.0000   0.1666
  -4.700  -0.3253   0.01535   0.00915  -0.0257  0.7455  0.0111  -3.9638   0.0000   0.0000   0.0000   0.1652
  -4.600  -0.3154   0.01478   0.00850  -0.0254  0.7441  0.0113  -3.9070   0.0000   0.0000   0.0000   0.1638
  -4.500  -0.3056   0.01425   0.00789  -0.0250  0.7428  0.0114  -3.8477   0.0000   0.0000   0.0000   0.1625
  -4.400  -0.2958   0.01378   0.00734  -0.0246  0.7414  0.0117  -3.7835   0.0000   0.0000   0.0000   0.1610
  -4.300  -0.2859   0.01335   0.00684  -0.0242  0.7401  0.0120  -3.7150   0.0000   0.0000   0.0000   0.1594
  -4.200  -0.2761   0.01297   0.00639  -0.0239  0.7387  0.0123  -3.6423   0.0000   0.0000   0.0000   0.1577
  -4.100  -0.2662   0.01263   0.00599  -0.0235  0.7374  0.0128  -3.5649   0.0000   0.0000   0.0000   0.1557
  -4.000  -0.2561   0.01234   0.00564  -0.0232  0.7360  0.0134  -3.4802   0.0000   0.0000   0.0000   0.1534
  -3.900  -0.2458   0.01211   0.00536  -0.0230  0.7346  0.0141  -3.3837   0.0000   0.0000   0.0000   0.1506
  -3.800  -0.2353   0.01195   0.00517  -0.0228  0.7333  0.0147  -3.2712   0.0000   0.0000   0.0000   0.1470
  -3.700  -0.2245   0.01186   0.00506  -0.0227  0.7319  0.0151  -3.1443   0.0000   0.0000   0.0000   0.1426
  -3.600  -0.2168   0.01107   0.00417  -0.0218  0.7305  0.0254  -3.1880   0.0000   0.0000   0.0000   0.1435
  -3.500  -0.2073   0.01074   0.00391  -0.0214  0.7291  0.0434  -3.1073   0.0000   0.0000   0.0000   0.1404
  -3.400  -0.1968   0.01061   0.00379  -0.0213  0.7276  0.0545  -2.9825   0.0000   0.0000   0.0000   0.1354
  -3.300  -0.1867   0.01043   0.00369  -0.0212  0.7261  0.0696  -2.8725   0.0000   0.0000   0.0000   0.1303
  -3.200  -0.1761   0.01034   0.00361  -0.0211  0.7244  0.0796  -2.7550   0.0000   0.0000   0.0000   0.1237
  -3.100  -0.1661   0.01016   0.00354  -0.0210  0.7225  0.0996  -2.6414   0.0000   0.0000   0.0000   0.1172
  -3.000  -0.1557   0.01006   0.00347  -0.0209  0.7204  0.1166  -2.5258   0.0000   0.0000   0.0000   0.1091
  -2.900  -0.1455   0.00993   0.00343  -0.0208  0.7179  0.1346  -2.4125   0.0000   0.0000   0.0000   0.1002
  -2.800  -0.1349   0.00989   0.00340  -0.0207  0.7152  0.1494  -2.2980   0.0000   0.0000   0.0000   0.0890
  -2.700  -0.1247   0.00981   0.00340  -0.0207  0.7122  0.1689  -2.1869   0.0000   0.0000   0.0000   0.0766
  -2.600  -0.1139   0.00971   0.00333  -0.0206  0.7117  0.1839  -2.0732   0.0000   0.0000   0.0000   0.0610
  -2.500  -0.1038   0.00953   0.00326  -0.0205  0.7111  0.2100  -1.9645   0.0000   0.0000   0.0000   0.0441
  -2.400  -0.0934   0.00939   0.00320  -0.0204  0.7106  0.2358  -1.8557   0.0000   0.0000   0.0000   0.0226
  -2.300  -0.0834   0.00922   0.00313  -0.0203  0.7099  0.2653  -1.7502   0.0000   0.0000   0.0000  -0.0027
  -2.200  -0.0736   0.00902   0.00308  -0.0201  0.7092  0.3011  -1.6474   0.0000   0.0000   0.0000  -0.0334
  -2.100  -0.0636   0.00886   0.00301  -0.0199  0.7083  0.3353  -1.5455   0.0000   0.0000   0.0000  -0.0745
  -1.900  -0.0446   0.00847   0.00290  -0.0194  0.7062  0.4188  -1.3506   0.0000   0.0000   0.0000  -0.2000
  -1.800  -0.0362   0.00820   0.00285  -0.0189  0.7051  0.4796  -1.2609   0.0000   0.0000   0.0000  -0.2898
  -1.700  -0.0289   0.00790   0.00281  -0.0182  0.7039  0.5487  -1.1769   0.0000   0.0000   0.0000  -0.4020
  -1.600  -0.0217   0.00762   0.00278  -0.0174  0.7026  0.6174  -1.0950   0.0000   0.0000   0.0000  -0.5797
  -1.500  -0.0143   0.00738   0.00275  -0.0166  0.7014  0.6799  -1.0137   0.0000   0.0000   0.0000  -0.9485
  -1.400  -0.0067   0.00715   0.00273  -0.0158  0.7001  0.7380  -0.9332   0.0000   0.0000   0.0000  -2.1759
  -1.300   0.0025   0.00693   0.00269  -0.0152  0.6987  0.7995  -0.8506   0.0000   0.0000   0.0000   6.5337
  -1.200   0.0202   0.00677   0.00272  -0.0163  0.6973  0.8629  -0.7316   0.0000   0.0000   0.0000   1.0779
  -1.100   0.0716   0.00681   0.00281  -0.0248  0.6959  0.9175  -0.5586   0.0000   0.0000   0.0000   0.6003
  -1.000   0.0941   0.00689   0.00286  -0.0270  0.6945  0.9319  -0.5091   0.0000   0.0000   0.0000   0.5401
  -0.900   0.1104   0.00696   0.00290  -0.0280  0.6931  0.9407  -0.4930   0.0000   0.0000   0.0000   0.5056
  -0.800   0.1197   0.00702   0.00293  -0.0275  0.6916  0.9500  -0.4996   0.0000   0.0000   0.0000   0.4811
  -0.700   0.1371   0.00708   0.00296  -0.0287  0.6901  0.9562  -0.5102   0.0000   0.0000   0.0000   0.4604
  -0.600   0.1541   0.00715   0.00298  -0.0298  0.6885  0.9624  -0.5205   0.0000   0.0000   0.0000   0.4444
  -0.500   0.1672   0.00721   0.00300  -0.0302  0.6868  0.9682  -0.5291   0.0000   0.0000   0.0000   0.4308
  -0.400   0.1794   0.00726   0.00302  -0.0303  0.6850  0.9722  -0.5372   0.0000   0.0000   0.0000   0.4192
  -0.300   0.1978   0.00728   0.00300  -0.0319  0.6833  0.9745  -0.5484   0.0000   0.0000   0.0000   0.4109
  -0.200   0.2166   0.00732   0.00301  -0.0335  0.6816  0.9777  -0.5608   0.0000   0.0000   0.0000   0.4042
  -0.100   0.2342   0.00737   0.00302  -0.0348  0.6800  0.9812  -0.5726   0.0000   0.0000   0.0000   0.3982
   0.000   0.2495   0.00743   0.00305  -0.0357  0.6783  0.9845  -0.5834   0.0000   0.0000   0.0000   0.3925
   0.100   0.2639   0.00749   0.00307  -0.0364  0.6762  0.9870  -0.5936   0.0000   0.0000   0.0000   0.3872
   0.200   0.2826   0.00750   0.00305  -0.0381  0.6737  0.9887  -0.6060   0.0000   0.0000   0.0000   0.3839
   0.300   0.3014   0.00754   0.00305  -0.0398  0.6708  0.9908  -0.6185   0.0000   0.0000   0.0000   0.3810
   0.400   0.3190   0.00760   0.00309  -0.0413  0.6675  0.9930  -0.6304   0.0000   0.0000   0.0000   0.3782
   0.500   0.3357   0.00764   0.00311  -0.0425  0.6651  0.9951  -0.6419   0.0000   0.0000   0.0000   0.3754
   0.600   0.3530   0.00760   0.00307  -0.0439  0.6645  0.9970  -0.6548   0.0000   0.0000   0.0000   0.3729
   0.700   0.3713   0.00754   0.00300  -0.0455  0.6639  0.9988  -0.6687   0.0000   0.0000   0.0000   0.3710
   0.800   0.3867   0.00750   0.00295  -0.0465  0.6632  1.0000  -0.6810   0.0000   0.0000   0.0000   0.3686
   0.900   0.3971   0.00749   0.00293  -0.0464  0.6624  1.0000  -0.6904   0.0000   0.0000   0.0000   0.3651
   1.000   0.4074   0.00747   0.00291  -0.0463  0.6615  1.0000  -0.6998   0.0000   0.0000   0.0000   0.3618
   1.100   0.4177   0.00746   0.00289  -0.0462  0.6603  1.0000  -0.7093   0.0000   0.0000   0.0000   0.3587
   1.200   0.4281   0.00744   0.00287  -0.0461  0.6590  1.0000  -0.7188   0.0000   0.0000   0.0000   0.3557
   1.300   0.4384   0.00742   0.00285  -0.0460  0.6575  1.0000  -0.7283   0.0000   0.0000   0.0000   0.3528
   1.400   0.4488   0.00741   0.00284  -0.0459  0.6558  1.0000  -0.7378   0.0000   0.0000   0.0000   0.3500
   1.500   0.4592   0.00739   0.00282  -0.0457  0.6541  1.0000  -0.7474   0.0000   0.0000   0.0000   0.3474
   1.600   0.4696   0.00738   0.00280  -0.0456  0.6523  1.0000  -0.7576   0.0000   0.0000   0.0000   0.3449
   1.700   0.4800   0.00738   0.00279  -0.0455  0.6505  1.0000  -0.7685   0.0000   0.0000   0.0000   0.3424
   1.800   0.4904   0.00738   0.00278  -0.0454  0.6489  1.0000  -0.7795   0.0000   0.0000   0.0000   0.3402
   1.900   0.5009   0.00737   0.00278  -0.0453  0.6471  1.0000  -0.7905   0.0000   0.0000   0.0000   0.3379
   2.000   0.5114   0.00737   0.00277  -0.0453  0.6454  1.0000  -0.8016   0.0000   0.0000   0.0000   0.3358
   2.100   0.5218   0.00736   0.00277  -0.0451  0.6434  1.0000  -0.8126   0.0000   0.0000   0.0000   0.3338
   2.200   0.5322   0.00736   0.00275  -0.0450  0.6413  1.0000  -0.8237   0.0000   0.0000   0.0000   0.3318
   2.300   0.5426   0.00735   0.00274  -0.0449  0.6390  1.0000  -0.8349   0.0000   0.0000   0.0000   0.3298
   2.400   0.5530   0.00735   0.00272  -0.0448  0.6364  1.0000  -0.8460   0.0000   0.0000   0.0000   0.3279
   2.500   0.5634   0.00735   0.00270  -0.0446  0.6336  1.0000  -0.8580   0.0000   0.0000   0.0000   0.3261
   2.600   0.5738   0.00737   0.00270  -0.0445  0.6304  1.0000  -0.8708   0.0000   0.0000   0.0000   0.3244
   2.700   0.5842   0.00740   0.00272  -0.0444  0.6270  1.0000  -0.8836   0.0000   0.0000   0.0000   0.3228
   2.800   0.5947   0.00744   0.00275  -0.0443  0.6233  1.0000  -0.8964   0.0000   0.0000   0.0000   0.3212
   2.900   0.6053   0.00752   0.00281  -0.0443  0.6194  1.0000  -0.9092   0.0000   0.0000   0.0000   0.3198
   3.000   0.6159   0.00755   0.00285  -0.0443  0.6173  1.0000  -0.9222   0.0000   0.0000   0.0000   0.3183
   3.100   0.6265   0.00753   0.00285  -0.0442  0.6163  1.0000  -0.9364   0.0000   0.0000   0.0000   0.3169
   3.200   0.6371   0.00751   0.00284  -0.0441  0.6150  1.0000  -0.9515   0.0000   0.0000   0.0000   0.3155
   3.300   0.6477   0.00749   0.00284  -0.0440  0.6134  1.0000  -0.9668   0.0000   0.0000   0.0000   0.3142
   3.400   0.6583   0.00747   0.00284  -0.0439  0.6112  1.0000  -0.9820   0.0000   0.0000   0.0000   0.3129
   3.500   0.6689   0.00746   0.00285  -0.0439  0.6088  1.0000  -0.9974   0.0000   0.0000   0.0000   0.3116
   3.600   0.6795   0.00745   0.00285  -0.0438  0.6060  1.0000  -1.0152   0.0000   0.0000   0.0000   0.3104
   3.700   0.6901   0.00745   0.00288  -0.0437  0.6032  1.0000  -1.0332   0.0000   0.0000   0.0000   0.3092
   3.800   0.7007   0.00745   0.00289  -0.0436  0.6000  1.0000  -1.0513   0.0000   0.0000   0.0000   0.3080
   3.900   0.7113   0.00744   0.00289  -0.0435  0.5962  1.0000  -1.0694   0.0000   0.0000   0.0000   0.3069
   4.000   0.7217   0.00744   0.00288  -0.0434  0.5920  1.0000  -1.0875   0.0000   0.0000   0.0000   0.3057
   4.100   0.7322   0.00745   0.00287  -0.0433  0.5873  1.0000  -1.1063   0.0000   0.0000   0.0000   0.3046
   4.200   0.7425   0.00747   0.00287  -0.0431  0.5823  1.0000  -1.1279   0.0000   0.0000   0.0000   0.3035
   4.300   0.7529   0.00751   0.00288  -0.0430  0.5763  1.0000  -1.1494   0.0000   0.0000   0.0000   0.3024
   4.400   0.7632   0.00758   0.00293  -0.0429  0.5698  1.0000  -1.1710   0.0000   0.0000   0.0000   0.3014
   4.500   0.7739   0.00757   0.00296  -0.0428  0.5675  1.0000  -1.1942   0.0000   0.0000   0.0000   0.3005
   4.600   0.7845   0.00757   0.00299  -0.0428  0.5640  1.0000  -1.2211   0.0000   0.0000   0.0000   0.2995
   4.700   0.7951   0.00758   0.00302  -0.0427  0.5593  1.0000  -1.2480   0.0000   0.0000   0.0000   0.2986
   4.800   0.8057   0.00759   0.00308  -0.0426  0.5536  1.0000  -1.2757   0.0000   0.0000   0.0000   0.2977
   4.900   0.8161   0.00762   0.00311  -0.0425  0.5472  1.0000  -1.3205   0.0000   0.0000   0.0000   0.2968
   5.000   0.8263   0.00766   0.00312  -0.0424  0.5393  1.0000  -1.3653   0.0000   0.0000   0.0000   0.2959
   5.100   0.8363   0.00773   0.00314  -0.0422  0.5294  1.0000  -1.4101   0.0000   0.0000   0.0000   0.2950
   5.200   0.8465   0.00780   0.00318  -0.0421  0.5201  1.0000  -1.4785   0.0000   0.0000   0.0000   0.2941
   5.300   0.8569   0.00784   0.00323  -0.0420  0.5129  1.0000  -1.5881   0.0000   0.0000   0.0000   0.2933
   5.400   0.8671   0.00790   0.00328  -0.0419  0.5033  1.0000  -1.6990   0.0000   0.0000   0.0000   0.2925
   5.500   0.8770   0.00800   0.00333  -0.0417  0.4918  1.0000  -1.8106   0.0000   0.0000   0.0000   0.2917
   5.600   0.8865   0.00815   0.00340  -0.0415  0.4771  1.0000  -1.9219   0.0000   0.0000   0.0000   0.2908
   5.700   0.8966   0.00823   0.00348  -0.0414  0.4677  1.0000  -2.0383   0.0000   0.0000   0.0000   0.2901
   5.800   0.9065   0.00834   0.00356  -0.0413  0.4567  1.0000  -2.1560   0.0000   0.0000   0.0000   0.2893
   5.900   0.9159   0.00849   0.00366  -0.0411  0.4436  1.0000  -2.2730   0.0000   0.0000   0.0000   0.2885
   6.000   0.9249   0.00870   0.00379  -0.0408  0.4277  1.0000  -2.3894   0.0000   0.0000   0.0000   0.2877
   6.100   0.9349   0.00879   0.00388  -0.0407  0.4193  1.0000  -2.5132   0.0000   0.0000   0.0000   0.2870
   6.200   0.9442   0.00894   0.00399  -0.0405  0.4061  1.0000  -2.6358   0.0000   0.0000   0.0000   0.2862
   6.300   0.9526   0.00921   0.00416  -0.0402  0.3879  1.0000  -2.7538   0.0000   0.0000   0.0000   0.2854
   6.400   0.9616   0.00938   0.00429  -0.0400  0.3730  1.0000  -2.8779   0.0000   0.0000   0.0000   0.2846
   6.500   0.9703   0.00959   0.00443  -0.0397  0.3564  1.0000  -3.0015   0.0000   0.0000   0.0000   0.2839
   6.600   0.9780   0.00990   0.00463  -0.0393  0.3369  1.0000  -3.1203   0.0000   0.0000   0.0000   0.2830
   6.700   0.9872   0.01005   0.00476  -0.0391  0.3259  1.0000  -3.2500   0.0000   0.0000   0.0000   0.2823
   6.800   0.9957   0.01025   0.00491  -0.0388  0.3127  1.0000  -3.3778   0.0000   0.0000   0.0000   0.2815
   6.900   1.0035   0.01051   0.00510  -0.0384  0.2979  1.0000  -3.5016   0.0000   0.0000   0.0000   0.2807
   7.000   1.0121   0.01070   0.00527  -0.0381  0.2862  1.0000  -3.6317   0.0000   0.0000   0.0000   0.2800
   7.100   1.0206   0.01088   0.00542  -0.0378  0.2750  1.0000  -3.7637   0.0000   0.0000   0.0000   0.2792
   7.200   1.0280   0.01117   0.00562  -0.0373  0.2599  1.0000  -3.8886   0.0000   0.0000   0.0000   0.2784
   7.300   1.0355   0.01143   0.00583  -0.0368  0.2451  1.0000  -4.0155   0.0000   0.0000   0.0000   0.2776
   7.400   1.0433   0.01164   0.00601  -0.0364  0.2328  1.0000  -4.1464   0.0000   0.0000   0.0000   0.2768
   7.500   1.0494   0.01200   0.00625  -0.0358  0.2149  1.0000  -4.2655   0.0000   0.0000   0.0000   0.2759
   7.600   1.0562   0.01228   0.00648  -0.0352  0.1987  1.0000  -4.3909   0.0000   0.0000   0.0000   0.2750
   7.700   1.0607   0.01274   0.00677  -0.0344  0.1764  1.0000  -4.5001   0.0000   0.0000   0.0000   0.2739
   7.800   1.0658   0.01312   0.00706  -0.0336  0.1559  1.0000  -4.6148   0.0000   0.0000   0.0000   0.2729
   7.900   1.0693   0.01362   0.00739  -0.0327  0.1327  1.0000  -4.7174   0.0000   0.0000   0.0000   0.2718
   8.000   1.0721   0.01413   0.00775  -0.0316  0.1121  1.0000  -4.8159   0.0000   0.0000   0.0000   0.2706
   8.100   1.0763   0.01453   0.00805  -0.0306  0.0945  1.0000  -4.9238   0.0000   0.0000   0.0000   0.2695
   8.200   1.0788   0.01503   0.00842  -0.0295  0.0774  1.0000  -5.0198   0.0000   0.0000   0.0000   0.2682
   8.300   1.0823   0.01544   0.00875  -0.0285  0.0648  1.0000  -5.1224   0.0000   0.0000   0.0000   0.2671
   8.400   1.0852   0.01587   0.00910  -0.0273  0.0521  1.0000  -5.2194   0.0000   0.0000   0.0000   0.2658
   8.500   1.0875   0.01632   0.00946  -0.0261  0.0424  1.0000  -5.3106   0.0000   0.0000   0.0000   0.2645
   8.600   1.0903   0.01672   0.00982  -0.0249  0.0328  1.0000  -5.3996   0.0000   0.0000   0.0000   0.2632
   8.700   1.0908   0.01724   0.01038  -0.0234  0.0257  1.0000  -5.4686   0.0000   0.0000   0.0000   0.2617
   8.800   1.0914   0.01775   0.01090  -0.0218  0.0191  1.0000  -5.5067   0.0000   0.0000   0.0000   0.2601
   8.900   1.0946   0.01805   0.01124  -0.0207  0.0170  1.0000  -5.5926   0.0000   0.0000   0.0000   0.2589
   9.000   1.0942   0.01842   0.01160  -0.0189  0.0151  1.0000  -5.6484   0.0000   0.0000   0.0000   0.2571
   9.100   1.0918   0.01885   0.01202  -0.0169  0.0132  1.0000  -5.6841   0.0000   0.0000   0.0000   0.2552
   9.200   1.0869   0.01948   0.01270  -0.0146  0.0108  1.0000  -5.6768   0.0000   0.0000   0.0000   0.2530
   9.300   1.0786   0.02038   0.01373  -0.0120  0.0093  1.0000  -5.6168   0.0000   0.0000   0.0000   0.2505
   9.400   1.0754   0.02109   0.01452  -0.0102  0.0088  1.0000  -5.6312   0.0000   0.0000   0.0000   0.2487
   9.500   1.0799   0.02138   0.01482  -0.0095  0.0086  1.0000  -5.7558   0.0000   0.0000   0.0000   0.2479
   9.600   1.0838   0.02171   0.01518  -0.0087  0.0085  1.0000  -5.8728   0.0000   0.0000   0.0000   0.2470
   9.700   1.0873   0.02208   0.01558  -0.0079  0.0083  1.0000  -5.9818   0.0000   0.0000   0.0000   0.2460
   9.800   1.0903   0.02250   0.01603  -0.0070  0.0080  1.0000  -6.0824   0.0000   0.0000   0.0000   0.2451
   9.900   1.0929   0.02296   0.01654  -0.0062  0.0078  1.0000  -6.1743   0.0000   0.0000   0.0000   0.2441
  10.000   1.0947   0.02349   0.01711  -0.0052  0.0076  1.0000  -6.2565   0.0000   0.0000   0.0000   0.2431
  10.100   1.0959   0.02406   0.01773  -0.0043  0.0073  1.0000  -6.3305   0.0000   0.0000   0.0000   0.2421
  10.200   1.0971   0.02466   0.01838  -0.0034  0.0071  1.0000  -6.4011   0.0000   0.0000   0.0000   0.2411
  10.300   1.0982   0.02529   0.01905  -0.0025  0.0069  1.0000  -6.4690   0.0000   0.0000   0.0000   0.2401
  10.400   1.0993   0.02594   0.01975  -0.0016  0.0068  1.0000  -6.5344   0.0000   0.0000   0.0000   0.2391
  10.500   1.1001   0.02662   0.02048  -0.0007  0.0066  1.0000  -6.5967   0.0000   0.0000   0.0000   0.2382
  10.600   1.1005   0.02735   0.02127   0.0002  0.0065  1.0000  -6.6545   0.0000   0.0000   0.0000   0.2372
  10.700   1.1010   0.02809   0.02206   0.0010  0.0063  1.0000  -6.7113   0.0000   0.0000   0.0000   0.2363
  10.800   1.1016   0.02884   0.02286   0.0018  0.0062  1.0000  -6.7683   0.0000   0.0000   0.0000   0.2354
  10.900   1.1023   0.02959   0.02366   0.0027  0.0061  1.0000  -6.8251   0.0000   0.0000   0.0000   0.2345
  11.000   1.1030   0.03034   0.02447   0.0035  0.0060  1.0000  -6.8811   0.0000   0.0000   0.0000   0.2336
  11.100   1.1038   0.03111   0.02529   0.0043  0.0059  1.0000  -6.9365   0.0000   0.0000   0.0000   0.2327
  11.200   1.1045   0.03190   0.02614   0.0051  0.0058  1.0000  -6.9903   0.0000   0.0000   0.0000   0.2318
  11.300   1.1050   0.03273   0.02703   0.0058  0.0058  1.0000  -7.0415   0.0000   0.0000   0.0000   0.2310
  11.400   1.1055   0.03358   0.02793   0.0065  0.0057  1.0000  -7.0921   0.0000   0.0000   0.0000   0.2301
  11.500   1.1064   0.03442   0.02883   0.0073  0.0056  1.0000  -7.1428   0.0000   0.0000   0.0000   0.2293
  11.600   1.1074   0.03528   0.02975   0.0080  0.0056  1.0000  -7.1932   0.0000   0.0000   0.0000   0.2285
  11.700   1.1085   0.03614   0.03067   0.0087  0.0055  1.0000  -7.2443   0.0000   0.0000   0.0000   0.2277
  11.800   1.1099   0.03700   0.03159   0.0094  0.0055  1.0000  -7.2984   0.0000   0.0000   0.0000   0.2270
  11.900   1.1113   0.03786   0.03251   0.0100  0.0054  1.0000  -7.3551   0.0000   0.0000   0.0000   0.2262
  12.000   1.1128   0.03873   0.03344   0.0106  0.0054  1.0000  -7.4142   0.0000   0.0000   0.0000   0.2255
  12.100   1.1142   0.03960   0.03437   0.0112  0.0053  1.0000  -7.4755   0.0000   0.0000   0.0000   0.2248
  12.200   1.1156   0.04048   0.03531   0.0118  0.0052  1.0000  -7.5386   0.0000   0.0000   0.0000   0.2242
  12.300   1.1168   0.04137   0.03627   0.0123  0.0051  1.0000  -7.6026   0.0000   0.0000   0.0000   0.2236
  12.400   1.1173   0.04230   0.03726   0.0128  0.0051  1.0000  -7.6634   0.0000   0.0000   0.0000   0.2230
  12.500   1.1174   0.04326   0.03827   0.0132  0.0050  1.0000  -7.7218   0.0000   0.0000   0.0000   0.2224
  12.600   1.1174   0.04423   0.03930   0.0137  0.0049  1.0000  -7.7812   0.0000   0.0000   0.0000   0.2218
  12.700   1.1175   0.04521   0.04034   0.0140  0.0048  1.0000  -7.8419   0.0000   0.0000   0.0000   0.2213
  12.800   1.1176   0.04621   0.04140   0.0144  0.0047  1.0000  -7.9026   0.0000   0.0000   0.0000   0.2208
  12.900   1.1177   0.04724   0.04249   0.0148  0.0047  1.0000  -7.9619   0.0000   0.0000   0.0000   0.2203
  13.000   1.1175   0.04831   0.04361   0.0151  0.0046  1.0000  -8.0179   0.0000   0.0000   0.0000   0.2199
  13.100   1.1170   0.04942   0.04479   0.0154  0.0045  1.0000  -8.0688   0.0000   0.0000   0.0000   0.2194
  13.200   1.1161   0.05061   0.04604   0.0157  0.0045  1.0000  -8.1117   0.0000   0.0000   0.0000   0.2190
  13.300   1.1139   0.05193   0.04743   0.0159  0.0045  1.0000  -8.1399   0.0000   0.0000   0.0000   0.2186
  13.400   1.1113   0.05332   0.04889   0.0161  0.0044  1.0000  -8.1585   0.0000   0.0000   0.0000   0.2182
  13.500   1.1086   0.05477   0.05042   0.0162  0.0044  1.0000  -8.1694   0.0000   0.0000   0.0000   0.2178
  13.600   1.1059   0.05626   0.05198   0.0164  0.0044  1.0000  -8.1772   0.0000   0.0000   0.0000   0.2175
  13.700   1.1029   0.05779   0.05359   0.0165  0.0044  1.0000  -8.1819   0.0000   0.0000   0.0000   0.2172
  13.800   1.0997   0.05937   0.05525   0.0165  0.0044  1.0000  -8.1827   0.0000   0.0000   0.0000   0.2169
  13.900   1.0959   0.06103   0.05698   0.0165  0.0044  1.0000  -8.1784   0.0000   0.0000   0.0000   0.2167
  14.000   1.0909   0.06283   0.05886   0.0163  0.0044  1.0000  -8.1651   0.0000   0.0000   0.0000   0.2166
  14.100   1.0861   0.06466   0.06077   0.0160  0.0044  1.0000  -8.1511   0.0000   0.0000   0.0000   0.2166
  14.200   1.0815   0.06651   0.06269   0.0158  0.0044  1.0000  -8.1358   0.0000   0.0000   0.0000   0.2166
  14.300   1.0767   0.06837   0.06462   0.0155  0.0044  1.0000  -8.1177   0.0000   0.0000   0.0000   0.2166
  14.400   1.0715   0.07027   0.06660   0.0151  0.0044  1.0000  -8.0958   0.0000   0.0000   0.0000   0.2166
  14.500   1.0652   0.07237   0.06877   0.0146  0.0044  1.0000  -8.0654   0.0000   0.0000   0.0000   0.2169
  14.600   1.0591   0.07452   0.07099   0.0139  0.0045  1.0000  -8.0341   0.0000   0.0000   0.0000   0.2172
  14.700   1.0534   0.07670   0.07324   0.0133  0.0045  1.0000  -8.0025   0.0000   0.0000   0.0000   0.2176
  14.800   1.0476   0.07896   0.07557   0.0125  0.0045  1.0000  -7.9683   0.0000   0.0000   0.0000   0.2180
  14.900   1.0410   0.08142   0.07810   0.0116  0.0045  1.0000  -7.9266   0.0000   0.0000   0.0000   0.2187
  15.000   1.0343   0.08396   0.08071   0.0105  0.0045  1.0000  -7.8824   0.0000   0.0000   0.0000   0.2195
  15.100   1.0281   0.08651   0.08332   0.0095  0.0045  1.0000  -7.8377   0.0000   0.0000   0.0000   0.2202
  15.200   1.0216   0.08914   0.08602   0.0083  0.0045  1.0000  -7.7885   0.0000   0.0000   0.0000   0.2211
  15.300   1.0141   0.09203   0.08898   0.0069  0.0045  1.0000  -7.7298   0.0000   0.0000   0.0000   0.2223
  15.400   1.0072   0.09490   0.09191   0.0055  0.0046  1.0000  -7.6712   0.0000   0.0000   0.0000   0.2235
  15.500   1.0004   0.09778   0.09485   0.0040  0.0046  1.0000  -7.6102   0.0000   0.0000   0.0000   0.2247
  15.600   0.9927   0.10094   0.09807   0.0023  0.0046  1.0000  -7.5399   0.0000   0.0000   0.0000   0.2262
  15.700   0.9854   0.10408   0.10128   0.0006  0.0046  1.0000  -7.4685   0.0000   0.0000   0.0000   0.2278
  15.800   0.9783   0.10722   0.10447  -0.0011  0.0046  1.0000  -7.3947   0.0000   0.0000   0.0000   0.2293
  15.900   0.9703   0.11066   0.10797  -0.0031  0.0047  1.0000  -7.3098   0.0000   0.0000   0.0000   0.2313
  16.000   0.9628   0.11405   0.11143  -0.0050  0.0047  1.0000  -7.2236   0.0000   0.0000   0.0000   0.2332
  16.100   0.9553   0.11750   0.11492  -0.0069  0.0047  1.0000  -7.1320   0.0000   0.0000   0.0000   0.2351
  16.200   0.9470   0.12125   0.11873  -0.0092  0.0048  1.0000  -7.0273   0.0000   0.0000   0.0000   0.2375
  16.300   0.9393   0.12490   0.12243  -0.0113  0.0048  1.0000  -6.9205   0.0000   0.0000   0.0000   0.2397
  16.400   0.9308   0.12889   0.12647  -0.0136  0.0048  1.0000  -6.7969   0.0000   0.0000   0.0000   0.2422
  16.500   0.9224   0.13289   0.13052  -0.0159  0.0049  1.0000  -6.6650   0.0000   0.0000   0.0000   0.2448
  16.600   0.9136   0.13720   0.13487  -0.0184  0.0049  1.0000  -6.5123   0.0000   0.0000   0.0000   0.2477
  16.700   0.9044   0.14169   0.13940  -0.0209  0.0050  1.0000  -6.3401   0.0000   0.0000   0.0000   0.2506
  16.800   0.8942   0.14671   0.14445  -0.0236  0.0051  1.0000  -6.1259   0.0000   0.0000   0.0000   0.2540
  16.900   0.8829   0.15202   0.14980  -0.0263  0.0052  1.0000  -5.8539   0.0000   0.0000   0.0000   0.2576
  17.000   0.8657   0.15955   0.15734  -0.0299  0.0055  1.0000  -5.3460   0.0000   0.0000   0.0000   0.2626
  17.100   0.8522   0.16644   0.16422  -0.0325  0.0059  1.0000  -4.8509   0.0000   0.0000   0.0000   0.2665
  17.200   0.8459   0.17092   0.16868  -0.0343  0.0060  1.0000  -4.5926   0.0000   0.0000   0.0000   0.2690
  17.300   0.8419   0.17463   0.17238  -0.0358  0.0061  1.0000  -4.4094   0.0000   0.0000   0.0000   0.2711
  17.400   0.8390   0.17797   0.17571  -0.0372  0.0062  1.0000  -4.2621   0.0000   0.0000   0.0000   0.2728
  17.500   0.8370   0.18108   0.17881  -0.0385  0.0063  1.0000  -4.1370   0.0000   0.0000   0.0000   0.2744
  17.600   0.8354   0.18403   0.18175  -0.0397  0.0063  1.0000  -4.0273   0.0000   0.0000   0.0000   0.2759
  17.700   0.8343   0.18686   0.18456  -0.0409  0.0064  1.0000  -3.9289   0.0000   0.0000   0.0000   0.2773
  17.800   0.8336   0.18959   0.18729  -0.0420  0.0064  1.0000  -3.8388   0.0000   0.0000   0.0000   0.2786
  17.900   0.8331   0.19226   0.18995  -0.0430  0.0064  1.0000  -3.7548   0.0000   0.0000   0.0000   0.2799
  18.000   0.8328   0.19488   0.19257  -0.0441  0.0065  1.0000  -3.6750   0.0000   0.0000   0.0000   0.2810
  18.100   0.8326   0.19747   0.19515  -0.0451  0.0065  1.0000  -3.5977   0.0000   0.0000   0.0000   0.2822
  18.200   0.8325   0.20004   0.19771  -0.0461  0.0066  1.0000  -3.5213   0.0000   0.0000   0.0000   0.2833
  18.300   0.8326   0.20258   0.20025  -0.0471  0.0067  1.0000  -3.4465   0.0000   0.0000   0.0000   0.2844
  18.400   0.8327   0.20510   0.20276  -0.0480  0.0068  1.0000  -3.3752   0.0000   0.0000   0.0000   0.2854
  18.500   0.8330   0.20758   0.20524  -0.0489  0.0069  1.0000  -3.3068   0.0000   0.0000   0.0000   0.2865
  18.600   0.8333   0.21005   0.20770  -0.0499  0.0071  1.0000  -3.2403   0.0000   0.0000   0.0000   0.2874
  18.700   0.8337   0.21251   0.21016  -0.0508  0.0072  1.0000  -3.1748   0.0000   0.0000   0.0000   0.2884
  18.800   0.8340   0.21498   0.21263  -0.0517  0.0074  1.0000  -3.1087   0.0000   0.0000   0.0000   0.2894
  18.900   0.8342   0.21751   0.21515  -0.0526  0.0076  1.0000  -3.0386   0.0000   0.0000   0.0000   0.2903
  19.000   0.8338   0.22027   0.21790  -0.0535  0.0079  1.0000  -2.9493   0.0000   0.0000   0.0000   0.2914
  19.100   0.8277   0.22531   0.22293  -0.0543  0.0087  1.0000  -2.6705   0.0000   0.0000   0.0000   0.2928
  19.200   0.8291   0.22751   0.22512  -0.0551  0.0087  1.0000  -2.6394   0.0000   0.0000   0.0000   0.2935
  19.300   0.8305   0.22970   0.22731  -0.0558  0.0087  1.0000  -2.6100   0.0000   0.0000   0.0000   0.2942
  19.400   0.8319   0.23188   0.22948  -0.0566  0.0087  1.0000  -2.5819   0.0000   0.0000   0.0000   0.2948
  19.500   0.8334   0.23405   0.23165  -0.0573  0.0087  1.0000  -2.5550   0.0000   0.0000   0.0000   0.2955
  19.600   0.8349   0.23622   0.23382  -0.0581  0.0087  1.0000  -2.5291   0.0000   0.0000   0.0000   0.2961
  19.700   0.8364   0.23838   0.23598  -0.0588  0.0087  1.0000  -2.5041   0.0000   0.0000   0.0000   0.2967
  19.800   0.8380   0.24054   0.23815  -0.0595  0.0087  1.0000  -2.4799   0.0000   0.0000   0.0000   0.2973
  19.900   0.8395   0.24270   0.24031  -0.0603  0.0087  1.0000  -2.4565   0.0000   0.0000   0.0000   0.2979
  20.000   0.8411   0.24486   0.24246  -0.0610  0.0087  1.0000  -2.4338   0.0000   0.0000   0.0000   0.2985
  20.100   0.8426   0.24702   0.24462  -0.0617  0.0087  1.0000  -2.4118   0.0000   0.0000   0.0000   0.2991
  20.200   0.8442   0.24918   0.24678  -0.0624  0.0087  1.0000  -2.3904   0.0000   0.0000   0.0000   0.2997
  20.300   0.8458   0.25134   0.24894  -0.0632  0.0087  1.0000  -2.3697   0.0000   0.0000   0.0000   0.3003
  20.400   0.8473   0.25350   0.25110  -0.0639  0.0087  1.0000  -2.3496   0.0000   0.0000   0.0000   0.3009
  20.500   0.8489   0.25565   0.25326  -0.0646  0.0087  1.0000  -2.3301   0.0000   0.0000   0.0000   0.3014
  20.600   0.8505   0.25781   0.25541  -0.0653  0.0087  1.0000  -2.3111   0.0000   0.0000   0.0000   0.3020
  20.700   0.8520   0.25997   0.25757  -0.0660  0.0087  1.0000  -2.2926   0.0000   0.0000   0.0000   0.3026
  20.800   0.8536   0.26213   0.25973  -0.0667  0.0087  1.0000  -2.2747   0.0000   0.0000   0.0000   0.3031
  20.900   0.8551   0.26429   0.26190  -0.0674  0.0087  1.0000  -2.2572   0.0000   0.0000   0.0000   0.3037
  21.000   0.8567   0.26646   0.26406  -0.0682  0.0087  1.0000  -2.2402   0.0000   0.0000   0.0000   0.3042
  21.100   0.8582   0.26862   0.26622  -0.0689  0.0087  1.0000  -2.2235   0.0000   0.0000   0.0000   0.3047
  21.200   0.8597   0.27079   0.26839  -0.0696  0.0087  1.0000  -2.2073   0.0000   0.0000   0.0000   0.3053
  21.300   0.8612   0.27295   0.27056  -0.0703  0.0087  1.0000  -2.1915   0.0000   0.0000   0.0000   0.3058
  21.400   0.8627   0.27512   0.27273  -0.0710  0.0087  1.0000  -2.1760   0.0000   0.0000   0.0000   0.3063
  21.500   0.8642   0.27729   0.27489  -0.0717  0.0087  1.0000  -2.1609   0.0000   0.0000   0.0000   0.3068
  21.600   0.8656   0.27946   0.27707  -0.0723  0.0087  1.0000  -2.1460   0.0000   0.0000   0.0000   0.3074
  21.700   0.8670   0.28163   0.27924  -0.0730  0.0087  1.0000  -2.1315   0.0000   0.0000   0.0000   0.3079
  21.800   0.8684   0.28380   0.28141  -0.0737  0.0087  1.0000  -2.1172   0.0000   0.0000   0.0000   0.3084
  21.900   0.8698   0.28597   0.28358  -0.0744  0.0087  1.0000  -2.1032   0.0000   0.0000   0.0000   0.3089
  22.000   0.8712   0.28814   0.28576  -0.0751  0.0087  1.0000  -2.0895   0.0000   0.0000   0.0000   0.3094
  22.100   0.8725   0.29032   0.28794  -0.0758  0.0087  1.0000  -2.0761   0.0000   0.0000   0.0000   0.3099
  22.200   0.8738   0.29249   0.29011  -0.0765  0.0087  1.0000  -2.0628   0.0000   0.0000   0.0000   0.3104
  22.300   0.8751   0.29467   0.29229  -0.0771  0.0087  1.0000  -2.0498   0.0000   0.0000   0.0000   0.3109
  22.400   0.8763   0.29685   0.29447  -0.0778  0.0087  1.0000  -2.0370   0.0000   0.0000   0.0000   0.3114
  22.500   0.8775   0.29902   0.29664  -0.0785  0.0087  1.0000  -2.0244   0.0000   0.0000   0.0000   0.3119
  22.600   0.8787   0.30120   0.29882  -0.0791  0.0087  1.0000  -2.0119   0.0000   0.0000   0.0000   0.3124
  22.700   0.8798   0.30337   0.30100  -0.0798  0.0087  1.0000  -1.9996   0.0000   0.0000   0.0000   0.3128
  22.800   0.8808   0.30554   0.30317  -0.0805  0.0087  1.0000  -1.9873   0.0000   0.0000   0.0000   0.3133
  22.900   0.8819   0.30771   0.30534  -0.0811  0.0086  1.0000  -1.9752   0.0000   0.0000   0.0000   0.3138
  23.000   0.8829   0.30988   0.30751  -0.0818  0.0086  1.0000  -1.9633   0.0000   0.0000   0.0000   0.3143
  23.100   0.8838   0.31204   0.30968  -0.0824  0.0086  1.0000  -1.9514   0.0000   0.0000   0.0000   0.3148
  23.200   0.8847   0.31420   0.31185  -0.0830  0.0086  1.0000  -1.9397   0.0000   0.0000   0.0000   0.3153
  23.300   0.8855   0.31636   0.31401  -0.0837  0.0086  1.0000  -1.9280   0.0000   0.0000   0.0000   0.3157
  23.400   0.8863   0.31851   0.31616  -0.0843  0.0086  1.0000  -1.9164   0.0000   0.0000   0.0000   0.3162
  23.500   0.8870   0.32065   0.31831  -0.0849  0.0086  1.0000  -1.9048   0.0000   0.0000   0.0000   0.3167
  23.600   0.8876   0.32279   0.32045  -0.0855  0.0086  1.0000  -1.8933   0.0000   0.0000   0.0000   0.3172
  23.700   0.8882   0.32492   0.32258  -0.0862  0.0086  1.0000  -1.8818   0.0000   0.0000   0.0000   0.3177
  23.800   0.8886   0.32704   0.32470  -0.0868  0.0086  1.0000  -1.8703   0.0000   0.0000   0.0000   0.3182
  23.900   0.8890   0.32914   0.32681  -0.0874  0.0086  1.0000  -1.8585   0.0000   0.0000   0.0000   0.3186
  24.000   0.8892   0.33123   0.32890  -0.0879  0.0086  1.0000  -1.8467   0.0000   0.0000   0.0000   0.3191
  24.100   0.8894   0.33330   0.33098  -0.0885  0.0086  1.0000  -1.8348   0.0000   0.0000   0.0000   0.3196
  24.200   0.8894   0.33535   0.33304  -0.0891  0.0086  1.0000  -1.8227   0.0000   0.0000   0.0000   0.3201
  24.300   0.8892   0.33738   0.33507  -0.0896  0.0085  1.0000  -1.8105   0.0000   0.0000   0.0000   0.3206
  24.400   0.8889   0.33937   0.33707  -0.0902  0.0085  1.0000  -1.7980   0.0000   0.0000   0.0000   0.3211
  24.500   0.8884   0.34133   0.33903  -0.0907  0.0085  1.0000  -1.7852   0.0000   0.0000   0.0000   0.3216
  24.600   0.8877   0.34324   0.34095  -0.0912  0.0085  1.0000  -1.7720   0.0000   0.0000   0.0000   0.3222
  24.700   0.8867   0.34509   0.34281  -0.0916  0.0085  1.0000  -1.7581   0.0000   0.0000   0.0000   0.3227
  24.800   0.8853   0.34687   0.34459  -0.0920  0.0085  1.0000  -1.7435   0.0000   0.0000   0.0000   0.3232
  24.900   0.8834   0.34853   0.34626  -0.0924  0.0085  1.0000  -1.7278   0.0000   0.0000   0.0000   0.3238
  25.000   0.8808   0.35002   0.34777  -0.0927  0.0085  1.0000  -1.7102   0.0000   0.0000   0.0000   0.3244
  25.300   0.8023   0.33267   0.33058  -0.0866  0.0085  1.0000  -1.4696   0.0000   0.0000   0.0000   0.3292
  25.400   0.7990   0.33272   0.33063  -0.0868  0.0085  1.0000  -1.4507   0.0000   0.0000   0.0000   0.3299
  25.500   0.7961   0.33283   0.33076  -0.0870  0.0085  1.0000  -1.4330   0.0000   0.0000   0.0000   0.3306
  25.600   0.7935   0.33299   0.33093  -0.0873  0.0084  1.0000  -1.4162   0.0000   0.0000   0.0000   0.3313
  25.700   0.7912   0.33321   0.33115  -0.0876  0.0084  1.0000  -1.4002   0.0000   0.0000   0.0000   0.3319
  25.800   0.7891   0.33346   0.33142  -0.0879  0.0084  1.0000  -1.3851   0.0000   0.0000   0.0000   0.3326
  25.900   0.7871   0.33374   0.33175  -0.0883  0.0084  1.0000  -1.3698   0.0000   0.0000   0.0000   0.3333
  26.000   0.7854   0.33406   0.33207  -0.0886  0.0084  1.0000  -1.3559   0.0000   0.0000   0.0000   0.3339
  26.100   0.7837   0.33440   0.33242  -0.0890  0.0084  1.0000  -1.3426   0.0000   0.0000   0.0000   0.3345
  26.200   0.7823   0.33476   0.33280  -0.0894  0.0083  1.0000  -1.3291   0.0000   0.0000   0.0000   0.3352
  26.300   0.7809   0.33516   0.33320  -0.0898  0.0083  1.0000  -1.3154   0.0000   0.0000   0.0000   0.3358
  26.400   0.7796   0.33557   0.33363  -0.0902  0.0083  1.0000  -1.3062   0.0000   0.0000   0.0000   0.3365
  26.500   0.7784   0.33601   0.33407  -0.0907  0.0083  1.0000  -1.3007   0.0000   0.0000   0.0000   0.3371
  26.600   0.7773   0.33646   0.33453  -0.0911  0.0082  1.0000  -1.2955   0.0000   0.0000   0.0000   0.3378
  26.700   0.7764   0.33693   0.33500  -0.0915  0.0082  1.0000  -1.2904   0.0000   0.0000   0.0000   0.3384
  26.800   0.7755   0.33741   0.33550  -0.0920  0.0082  1.0000  -1.2856   0.0000   0.0000   0.0000   0.3390
  26.900   0.7748   0.33792   0.33601  -0.0925  0.0081  1.0000  -1.2809   0.0000   0.0000   0.0000   0.3396
  27.000   0.7741   0.33844   0.33654  -0.0929  0.0081  1.0000  -1.2764   0.0000   0.0000   0.0000   0.3402
  27.100   0.7735   0.33899   0.33710  -0.0934  0.0080  1.0000  -1.2718   0.0000   0.0000   0.0000   0.3408
  27.200   0.7730   0.33955   0.33767  -0.0939  0.0079  1.0000  -1.2672   0.0000   0.0000   0.0000   0.3414
  27.300   0.7726   0.34013   0.33826  -0.0944  0.0079  1.0000  -1.2626   0.0000   0.0000   0.0000   0.3420
  27.400   0.7723   0.34073   0.33886  -0.0949  0.0078  1.0000  -1.2577   0.0000   0.0000   0.0000   0.3426
  27.500   0.7720   0.34134   0.33948  -0.0954  0.0077  1.0000  -1.2526   0.0000   0.0000   0.0000   0.3432
  27.600   0.7718   0.34196   0.34010  -0.0959  0.0075  1.0000  -1.2474   0.0000   0.0000   0.0000   0.3437
  27.700   0.7715   0.34257   0.34072  -0.0964  0.0074  1.0000  -1.2422   0.0000   0.0000   0.0000   0.3443
  27.800   0.7712   0.34317   0.34133  -0.0968  0.0073  1.0000  -1.2370   0.0000   0.0000   0.0000   0.3448
  27.900   0.7708   0.34377   0.34193  -0.0973  0.0072  1.0000  -1.2320   0.0000   0.0000   0.0000   0.3453
  28.000   0.7705   0.34435   0.34253  -0.0978  0.0070  1.0000  -1.2273   0.0000   0.0000   0.0000   0.3459
  28.100   0.7701   0.34494   0.34311  -0.0982  0.0069  1.0000  -1.2228   0.0000   0.0000   0.0000   0.3464
  28.200   0.7698   0.34551   0.34370  -0.0987  0.0068  1.0000  -1.2185   0.0000   0.0000   0.0000   0.3469
  28.300   0.7694   0.34608   0.34428  -0.0991  0.0067  1.0000  -1.2144   0.0000   0.0000   0.0000   0.3474
  28.400   0.7690   0.34665   0.34485  -0.0996  0.0066  1.0000  -1.2105   0.0000   0.0000   0.0000   0.3480
  28.500   0.7686   0.34722   0.34543  -0.1000  0.0065  1.0000  -1.2067   0.0000   0.0000   0.0000   0.3485
  28.600   0.7683   0.34779   0.34600  -0.1005  0.0064  1.0000  -1.2031   0.0000   0.0000   0.0000   0.3490
  28.700   0.7679   0.34836   0.34658  -0.1009  0.0062  1.0000  -1.1995   0.0000   0.0000   0.0000   0.3495
  28.800   0.7676   0.34892   0.34715  -0.1014  0.0061  1.0000  -1.1960   0.0000   0.0000   0.0000   0.3500
  28.900   0.7673   0.34949   0.34773  -0.1019  0.0060  1.0000  -1.1925   0.0000   0.0000   0.0000   0.3505
  29.000   0.7670   0.35006   0.34830  -0.1023  0.0059  1.0000  -1.1891   0.0000   0.0000   0.0000   0.3510
  29.100   0.7667   0.35063   0.34888  -0.1028  0.0059  1.0000  -1.1857   0.0000   0.0000   0.0000   0.3515
  29.200   0.7664   0.35121   0.34946  -0.1032  0.0058  1.0000  -1.1823   0.0000   0.0000   0.0000   0.3520
  29.300   0.7661   0.35178   0.35004  -0.1037  0.0057  1.0000  -1.1788   0.0000   0.0000   0.0000   0.3525
  29.400   0.7659   0.35236   0.35062  -0.1042  0.0056  1.0000  -1.1754   0.0000   0.0000   0.0000   0.3530
  29.500   0.7656   0.35293   0.35121  -0.1046  0.0055  1.0000  -1.1719   0.0000   0.0000   0.0000   0.3535
  29.600   0.7654   0.35351   0.35179  -0.1051  0.0054  1.0000  -1.1683   0.0000   0.0000   0.0000   0.3540
  29.700   0.7652   0.35409   0.35238  -0.1056  0.0053  1.0000  -1.1648   0.0000   0.0000   0.0000   0.3545
  29.800   0.7650   0.35467   0.35297  -0.1061  0.0052  1.0000  -1.1614   0.0000   0.0000   0.0000   0.3550
  29.900   0.7648   0.35525   0.35355  -0.1065  0.0051  1.0000  -1.1582   0.0000   0.0000   0.0000   0.3554
  30.000   0.7646   0.35583   0.35414  -0.1070  0.0050  1.0000  -1.1550   0.0000   0.0000   0.0000   0.3559


