xflr5 v6.61

 Calculated polar for: MH 18

 1 1 Reynolds number fixed          Mach number fixed         

 xtrf =   1.000 (top)        1.000 (bottom)
 Mach =   0.000     Re =     0.160 e 6     Ncrit =   9.000

  alpha     CL        CD       CDp       Cm    Top Xtr Bot Xtr   Cpmin    Chinge    XCp    
 ------- -------- --------- --------- -------- ------- ------- -------- --------- ---------
 -10.000  -0.4058   0.11135   0.10809  -0.0235  1.0000  0.0501  -1.9734   0.0000   0.0000   0.0000   0.1839
  -9.900  -0.4033   0.10999   0.10674  -0.0250  1.0000  0.0503  -1.9908   0.0000   0.0000   0.0000   0.1798
  -9.800  -0.4008   0.10852   0.10528  -0.0266  1.0000  0.0504  -2.0087   0.0000   0.0000   0.0000   0.1756
  -9.700  -0.3983   0.10696   0.10375  -0.0282  1.0000  0.0505  -2.0272   0.0000   0.0000   0.0000   0.1712
  -9.600  -0.3957   0.10533   0.10213  -0.0298  1.0000  0.0506  -2.0463   0.0000   0.0000   0.0000   0.1666
  -9.500  -0.3931   0.10366   0.10047  -0.0315  1.0000  0.0507  -2.0661   0.0000   0.0000   0.0000   0.1618
  -9.400  -0.3906   0.10193   0.09876  -0.0333  1.0000  0.0507  -2.0866   0.0000   0.0000   0.0000   0.1568
  -9.300  -0.3881   0.10018   0.09702  -0.0352  1.0000  0.0508  -2.1080   0.0000   0.0000   0.0000   0.1516
  -9.200  -0.3858   0.09839   0.09525  -0.0371  1.0000  0.0508  -2.1305   0.0000   0.0000   0.0000   0.1461
  -9.100  -0.3837   0.09658   0.09346  -0.0391  1.0000  0.0508  -2.1541   0.0000   0.0000   0.0000   0.1404
  -9.000  -0.3818   0.09475   0.09164  -0.0412  1.0000  0.0509  -2.1792   0.0000   0.0000   0.0000   0.1345
  -8.900  -0.3805   0.09292   0.08984  -0.0434  1.0000  0.0509  -2.2060   0.0000   0.0000   0.0000   0.1284
  -8.800  -0.3769   0.09065   0.08756  -0.0468  0.9870  0.0509  -2.2386   0.0000   0.0000   0.0000   0.1184
  -8.700  -0.3725   0.08804   0.08495  -0.0509  0.9790  0.0509  -2.2770   0.0000   0.0000   0.0000   0.1059
  -8.600  -0.3831   0.08176   0.07870  -0.0558  0.9729  0.0519  -2.4324   0.0000   0.0000   0.0000   0.0972
  -8.500  -0.3857   0.07792   0.07486  -0.0581  0.9685  0.0528  -2.4840   0.0000   0.0000   0.0000   0.0922
  -8.400  -0.3858   0.07570   0.07263  -0.0593  0.9624  0.0534  -2.4969   0.0000   0.0000   0.0000   0.0893
  -8.300  -0.3848   0.07395   0.07087  -0.0600  0.9564  0.0540  -2.4959   0.0000   0.0000   0.0000   0.0872
  -8.200  -0.3808   0.07262   0.06953  -0.0600  0.9518  0.0546  -2.4663   0.0000   0.0000   0.0000   0.0856
  -8.100  -0.3782   0.07135   0.06824  -0.0601  0.9470  0.0551  -2.4483   0.0000   0.0000   0.0000   0.0842
  -8.000  -0.3768   0.07013   0.06701  -0.0603  0.9422  0.0556  -2.4385   0.0000   0.0000   0.0000   0.0832
  -7.900  -0.3759   0.06889   0.06575  -0.0606  0.9370  0.0561  -2.4327   0.0000   0.0000   0.0000   0.0823
  -7.800  -0.3752   0.06763   0.06448  -0.0608  0.9319  0.0566  -2.4298   0.0000   0.0000   0.0000   0.0814
  -7.700  -0.3750   0.06640   0.06323  -0.0609  0.9269  0.0570  -2.4298   0.0000   0.0000   0.0000   0.0811
  -7.600  -0.3751   0.06519   0.06199  -0.0610  0.9223  0.0575  -2.4316   0.0000   0.0000   0.0000   0.0811
  -7.500  -0.3755   0.06402   0.06078  -0.0608  0.9180  0.0580  -2.4350   0.0000   0.0000   0.0000   0.0817
  -7.400  -0.3756   0.06285   0.05958  -0.0608  0.9140  0.0585  -2.4387   0.0000   0.0000   0.0000   0.0820
  -7.300  -0.3738   0.06145   0.05814  -0.0613  0.9107  0.0591  -2.4416   0.0000   0.0000   0.0000   0.0799
  -7.200  -0.3721   0.06005   0.05671  -0.0617  0.9072  0.0597  -2.4458   0.0000   0.0000   0.0000   0.0781
  -7.100  -0.3704   0.05867   0.05528  -0.0620  0.9035  0.0604  -2.4511   0.0000   0.0000   0.0000   0.0766
  -7.000  -0.3687   0.05731   0.05386  -0.0622  0.8999  0.0610  -2.4574   0.0000   0.0000   0.0000   0.0754
  -6.900  -0.3671   0.05595   0.05244  -0.0622  0.8964  0.0616  -2.4654   0.0000   0.0000   0.0000   0.0746
  -6.600  -0.3646   0.04875   0.04472  -0.0619  0.8867  0.0466  -2.8003   0.0000   0.0000   0.0000   0.0741
  -6.500  -0.3659   0.04663   0.04250  -0.0612  0.8840  0.0440  -2.8482   0.0000   0.0000   0.0000   0.0766
  -6.400  -0.3665   0.04445   0.04018  -0.0604  0.8812  0.0411  -2.9247   0.0000   0.0000   0.0000   0.0791
  -6.300  -0.3700   0.03928   0.03429  -0.0586  0.8786  0.0324  -3.3851   0.0000   0.0000   0.0000   0.0850
  -6.200  -0.3595   0.03909   0.03399  -0.0583  0.8765  0.0315  -3.3429   0.0000   0.0000   0.0000   0.0811
  -6.100  -0.3496   0.03885   0.03369  -0.0581  0.8742  0.0311  -3.2864   0.0000   0.0000   0.0000   0.0772
  -6.000  -0.3427   0.03744   0.03220  -0.0578  0.8718  0.0299  -3.2831   0.0000   0.0000   0.0000   0.0748
  -5.900  -0.3400   0.03546   0.03004  -0.0570  0.8689  0.0294  -3.3294   0.0000   0.0000   0.0000   0.0756
  -5.800  -0.3357   0.03394   0.02835  -0.0562  0.8660  0.0291  -3.3520   0.0000   0.0000   0.0000   0.0758
  -5.700  -0.3309   0.03257   0.02664  -0.0554  0.8632  0.0289  -3.3654   0.0000   0.0000   0.0000   0.0759
  -5.600  -0.3254   0.03136   0.02525  -0.0545  0.8605  0.0288  -3.3715   0.0000   0.0000   0.0000   0.0757
  -5.500  -0.3193   0.03027   0.02399  -0.0536  0.8580  0.0288  -3.3694   0.0000   0.0000   0.0000   0.0752
  -5.400  -0.3123   0.02945   0.02302  -0.0529  0.8557  0.0291  -3.3465   0.0000   0.0000   0.0000   0.0739
  -5.300  -0.3042   0.02897   0.02241  -0.0522  0.8536  0.0296  -3.2991   0.0000   0.0000   0.0000   0.0716
  -5.200  -0.2943   0.02927   0.02262  -0.0517  0.8517  0.0304  -3.2007   0.0000   0.0000   0.0000   0.0674
  -5.100  -0.2889   0.02774   0.02090  -0.0507  0.8499  0.0309  -3.2217   0.0000   0.0000   0.0000   0.0673
  -5.000  -0.2828   0.02618   0.01910  -0.0498  0.8482  0.0315  -3.2443   0.0000   0.0000   0.0000   0.0668
  -4.900  -0.2757   0.02488   0.01761  -0.0490  0.8465  0.0321  -3.2511   0.0000   0.0000   0.0000   0.0650
  -4.800  -0.2677   0.02383   0.01640  -0.0483  0.8448  0.0328  -3.2443   0.0000   0.0000   0.0000   0.0623
  -4.700  -0.2593   0.02298   0.01543  -0.0477  0.8429  0.0335  -3.2289   0.0000   0.0000   0.0000   0.0588
  -4.600  -0.2497   0.02216   0.01453  -0.0474  0.8415  0.0347  -3.2004   0.0000   0.0000   0.0000   0.0528
  -4.500  -0.2395   0.02148   0.01380  -0.0472  0.8401  0.0363  -3.1557   0.0000   0.0000   0.0000   0.0452
  -4.400  -0.2293   0.02096   0.01325  -0.0471  0.8387  0.0384  -3.1024   0.0000   0.0000   0.0000   0.0370
  -4.300  -0.2191   0.02050   0.01277  -0.0469  0.8371  0.0411  -3.0500   0.0000   0.0000   0.0000   0.0281
  -4.200  -0.2088   0.02025   0.01249  -0.0467  0.8353  0.0457  -2.9801   0.0000   0.0000   0.0000   0.0181
  -4.100  -0.1981   0.02020   0.01238  -0.0467  0.8336  0.0502  -2.9126   0.0000   0.0000   0.0000   0.0062
  -4.000  -0.1907   0.01902   0.01119  -0.0459  0.8318  0.0575  -2.9522   0.0000   0.0000   0.0000   0.0010
  -3.900  -0.1812   0.01887   0.01110  -0.0457  0.8299  0.0701  -2.8881   0.0000   0.0000   0.0000  -0.0111
  -3.800  -0.1734   0.01828   0.01056  -0.0451  0.8280  0.0875  -2.8742   0.0000   0.0000   0.0000  -0.0191
  -3.700  -0.1640   0.01807   0.01035  -0.0448  0.8262  0.1041  -2.8144   0.0000   0.0000   0.0000  -0.0322
  -3.600  -0.1566   0.01757   0.00995  -0.0441  0.8243  0.1242  -2.7593   0.0000   0.0000   0.0000  -0.0411
  -3.500  -0.1467   0.01750   0.00985  -0.0440  0.8225  0.1408  -2.6640   0.0000   0.0000   0.0000  -0.0592
  -3.400  -0.1394   0.01711   0.00966  -0.0434  0.8207  0.1685  -2.5836   0.0000   0.0000   0.0000  -0.0711
  -3.300  -0.1311   0.01687   0.00950  -0.0429  0.8188  0.1953  -2.4953   0.0000   0.0000   0.0000  -0.0872
  -3.200  -0.1226   0.01667   0.00936  -0.0424  0.8169  0.2225  -2.4022   0.0000   0.0000   0.0000  -0.1063
  -3.100  -0.1156   0.01634   0.00922  -0.0416  0.8149  0.2593  -2.3169   0.0000   0.0000   0.0000  -0.1209
  -3.000  -0.1085   0.01606   0.00910  -0.0409  0.8130  0.2994  -2.2288   0.0000   0.0000   0.0000  -0.1378
  -2.900  -0.1020   0.01576   0.00901  -0.0400  0.8111  0.3499  -2.1424   0.0000   0.0000   0.0000  -0.1534
  -2.800  -0.0963   0.01543   0.00894  -0.0389  0.8093  0.4142  -2.0598   0.0000   0.0000   0.0000  -0.1653
  -2.700  -0.0921   0.01506   0.00891  -0.0374  0.8075  0.4925  -1.9838   0.0000   0.0000   0.0000  -0.1681
  -2.600  -0.0878   0.01471   0.00893  -0.0358  0.8059  0.5854  -1.9073   0.0000   0.0000   0.0000  -0.1701
  -2.500  -0.0795   0.01433   0.00902  -0.0348  0.8045  0.6989  -1.8104   0.0000   0.0000   0.0000  -0.2006
  -2.400  -0.0009   0.01399   0.00902  -0.0467  0.8062  0.8862  -1.3838   0.0000   0.0000   0.0000  -55.3855
  -2.300   0.0270   0.01418   0.00912  -0.0494  0.8055  0.9157  -1.2077   0.0000   0.0000   0.0000   2.1151
  -2.200   0.0454   0.01439   0.00925  -0.0504  0.8043  0.9329  -1.0782   0.0000   0.0000   0.0000   1.3798
  -2.100   0.0641   0.01463   0.00939  -0.0516  0.8031  0.9480  -0.9517   0.0000   0.0000   0.0000   1.0682
  -2.000   0.0892   0.01485   0.00945  -0.0542  0.8018  0.9601  -0.8067   0.0000   0.0000   0.0000   0.8666
  -1.900   0.1098   0.01502   0.00954  -0.0560  0.8006  0.9720  -0.6810   0.0000   0.0000   0.0000   0.7667
  -1.800   0.1387   0.01498   0.00940  -0.0596  0.7997  0.9804  -0.5738   0.0000   0.0000   0.0000   0.6845
  -1.700   0.1648   0.01493   0.00927  -0.0626  0.7986  0.9889  -0.5192   0.0000   0.0000   0.0000   0.6339
  -1.600   0.1935   0.01480   0.00905  -0.0663  0.7973  0.9965  -0.5041   0.0000   0.0000   0.0000   0.5957
  -1.500   0.2131   0.01469   0.00888  -0.0683  0.7956  1.0000  -0.5155   0.0000   0.0000   0.0000   0.5729
  -1.400   0.2227   0.01470   0.00885  -0.0683  0.7935  1.0000  -0.5218   0.0000   0.0000   0.0000   0.5589
  -1.300   0.2323   0.01472   0.00884  -0.0683  0.7915  1.0000  -0.5281   0.0000   0.0000   0.0000   0.5461
  -1.200   0.2419   0.01476   0.00882  -0.0683  0.7896  1.0000  -0.5344   0.0000   0.0000   0.0000   0.5342
  -1.100   0.2513   0.01480   0.00882  -0.0683  0.7875  1.0000  -0.5407   0.0000   0.0000   0.0000   0.5232
  -1.000   0.2606   0.01483   0.00882  -0.0682  0.7853  1.0000  -0.5469   0.0000   0.0000   0.0000   0.5129
  -0.900   0.2697   0.01486   0.00881  -0.0680  0.7830  1.0000  -0.5531   0.0000   0.0000   0.0000   0.5031
  -0.800   0.2786   0.01488   0.00879  -0.0677  0.7806  1.0000  -0.5601   0.0000   0.0000   0.0000   0.4939
  -0.700   0.2874   0.01488   0.00876  -0.0673  0.7782  1.0000  -0.5672   0.0000   0.0000   0.0000   0.4851
  -0.600   0.2960   0.01489   0.00872  -0.0669  0.7759  1.0000  -0.5743   0.0000   0.0000   0.0000   0.4767
  -0.500   0.3045   0.01488   0.00868  -0.0665  0.7737  1.0000  -0.5814   0.0000   0.0000   0.0000   0.4687
  -0.400   0.3131   0.01488   0.00864  -0.0660  0.7716  1.0000  -0.5885   0.0000   0.0000   0.0000   0.4610
  -0.300   0.3216   0.01489   0.00862  -0.0655  0.7696  1.0000  -0.5957   0.0000   0.0000   0.0000   0.4537
  -0.200   0.3303   0.01491   0.00860  -0.0650  0.7678  1.0000  -0.6029   0.0000   0.0000   0.0000   0.4469
  -0.100   0.3389   0.01494   0.00859  -0.0646  0.7661  1.0000  -0.6101   0.0000   0.0000   0.0000   0.4403
   0.000   0.3474   0.01498   0.00859  -0.0640  0.7642  1.0000  -0.6173   0.0000   0.0000   0.0000   0.4339
   0.100   0.3557   0.01504   0.00862  -0.0634  0.7622  1.0000  -0.6244   0.0000   0.0000   0.0000   0.4279
   0.200   0.3639   0.01520   0.00874  -0.0629  0.7598  1.0000  -0.6313   0.0000   0.0000   0.0000   0.4222
   0.300   0.3724   0.01546   0.00897  -0.0625  0.7571  1.0000  -0.6387   0.0000   0.0000   0.0000   0.4172
   0.400   0.3825   0.01545   0.00896  -0.0625  0.7554  1.0000  -0.6476   0.0000   0.0000   0.0000   0.4127
   0.500   0.3925   0.01546   0.00897  -0.0625  0.7533  1.0000  -0.6564   0.0000   0.0000   0.0000   0.4084
   0.600   0.4023   0.01550   0.00899  -0.0625  0.7509  1.0000  -0.6652   0.0000   0.0000   0.0000   0.4043
   0.700   0.4121   0.01555   0.00904  -0.0624  0.7485  1.0000  -0.6739   0.0000   0.0000   0.0000   0.4003
   0.800   0.4217   0.01562   0.00910  -0.0623  0.7461  1.0000  -0.6825   0.0000   0.0000   0.0000   0.3965
   0.900   0.4313   0.01569   0.00917  -0.0622  0.7437  1.0000  -0.6911   0.0000   0.0000   0.0000   0.3928
   1.000   0.4407   0.01575   0.00922  -0.0620  0.7411  1.0000  -0.6997   0.0000   0.0000   0.0000   0.3892
   1.100   0.4499   0.01579   0.00925  -0.0617  0.7384  1.0000  -0.7083   0.0000   0.0000   0.0000   0.3856
   1.200   0.4590   0.01581   0.00926  -0.0613  0.7358  1.0000  -0.7169   0.0000   0.0000   0.0000   0.3820
   1.300   0.4681   0.01580   0.00925  -0.0609  0.7331  1.0000  -0.7256   0.0000   0.0000   0.0000   0.3783
   1.400   0.4770   0.01578   0.00922  -0.0604  0.7306  1.0000  -0.7347   0.0000   0.0000   0.0000   0.3747
   1.500   0.4859   0.01575   0.00917  -0.0598  0.7281  1.0000  -0.7448   0.0000   0.0000   0.0000   0.3712
   1.600   0.4949   0.01571   0.00910  -0.0592  0.7257  1.0000  -0.7550   0.0000   0.0000   0.0000   0.3677
   1.700   0.5038   0.01567   0.00905  -0.0586  0.7235  1.0000  -0.7652   0.0000   0.0000   0.0000   0.3643
   1.800   0.5128   0.01564   0.00900  -0.0580  0.7214  1.0000  -0.7754   0.0000   0.0000   0.0000   0.3610
   1.900   0.5218   0.01564   0.00899  -0.0575  0.7193  1.0000  -0.7857   0.0000   0.0000   0.0000   0.3578
   2.000   0.5308   0.01570   0.00903  -0.0570  0.7173  1.0000  -0.7958   0.0000   0.0000   0.0000   0.3549
   2.100   0.5396   0.01584   0.00916  -0.0564  0.7148  1.0000  -0.8057   0.0000   0.0000   0.0000   0.3521
   2.200   0.5480   0.01615   0.00946  -0.0560  0.7117  1.0000  -0.8150   0.0000   0.0000   0.0000   0.3497
   2.300   0.5580   0.01614   0.00948  -0.0560  0.7097  1.0000  -0.8254   0.0000   0.0000   0.0000   0.3476
   2.400   0.5677   0.01615   0.00951  -0.0559  0.7071  1.0000  -0.8369   0.0000   0.0000   0.0000   0.3456
   2.500   0.5773   0.01617   0.00955  -0.0557  0.7040  1.0000  -0.8487   0.0000   0.0000   0.0000   0.3436
   2.600   0.5868   0.01619   0.00959  -0.0554  0.7006  1.0000  -0.8606   0.0000   0.0000   0.0000   0.3415
   2.700   0.5961   0.01621   0.00964  -0.0551  0.6971  1.0000  -0.8725   0.0000   0.0000   0.0000   0.3395
   2.800   0.6055   0.01620   0.00964  -0.0548  0.6937  1.0000  -0.8844   0.0000   0.0000   0.0000   0.3374
   2.900   0.6148   0.01619   0.00964  -0.0544  0.6905  1.0000  -0.8965   0.0000   0.0000   0.0000   0.3352
   3.000   0.6242   0.01617   0.00962  -0.0540  0.6875  1.0000  -0.9089   0.0000   0.0000   0.0000   0.3332
   3.100   0.6337   0.01614   0.00960  -0.0535  0.6848  1.0000  -0.9232   0.0000   0.0000   0.0000   0.3311
   3.200   0.6433   0.01609   0.00955  -0.0531  0.6822  1.0000  -0.9376   0.0000   0.0000   0.0000   0.3290
   3.300   0.6530   0.01601   0.00948  -0.0526  0.6796  1.0000  -0.9523   0.0000   0.0000   0.0000   0.3269
   3.400   0.6627   0.01592   0.00938  -0.0520  0.6770  1.0000  -0.9671   0.0000   0.0000   0.0000   0.3249
   3.500   0.6724   0.01583   0.00928  -0.0515  0.6745  1.0000  -0.9820   0.0000   0.0000   0.0000   0.3228
   3.600   0.6820   0.01576   0.00919  -0.0509  0.6717  1.0000  -0.9991   0.0000   0.0000   0.0000   0.3208
   3.700   0.6913   0.01579   0.00921  -0.0503  0.6685  1.0000  -1.0161   0.0000   0.0000   0.0000   0.3188
   3.800   0.7002   0.01600   0.00946  -0.0499  0.6645  1.0000  -1.0323   0.0000   0.0000   0.0000   0.3172
   3.900   0.7098   0.01596   0.00947  -0.0497  0.6616  1.0000  -1.0493   0.0000   0.0000   0.0000   0.3159
   4.000   0.7193   0.01597   0.00953  -0.0495  0.6580  1.0000  -1.0660   0.0000   0.0000   0.0000   0.3146
   4.100   0.7287   0.01600   0.00960  -0.0492  0.6541  1.0000  -1.0829   0.0000   0.0000   0.0000   0.3132
   4.200   0.7382   0.01600   0.00963  -0.0489  0.6501  1.0000  -1.1025   0.0000   0.0000   0.0000   0.3118
   4.300   0.7478   0.01595   0.00962  -0.0485  0.6460  1.0000  -1.1232   0.0000   0.0000   0.0000   0.3104
   4.400   0.7576   0.01587   0.00955  -0.0481  0.6420  1.0000  -1.1444   0.0000   0.0000   0.0000   0.3089
   4.500   0.7675   0.01574   0.00945  -0.0477  0.6381  1.0000  -1.1660   0.0000   0.0000   0.0000   0.3074
   4.600   0.7776   0.01560   0.00930  -0.0472  0.6344  1.0000  -1.1901   0.0000   0.0000   0.0000   0.3058
   4.700   0.7878   0.01544   0.00915  -0.0467  0.6308  1.0000  -1.2170   0.0000   0.0000   0.0000   0.3043
   4.800   0.7980   0.01531   0.00901  -0.0462  0.6273  1.0000  -1.2440   0.0000   0.0000   0.0000   0.3028
   4.900   0.8081   0.01522   0.00898  -0.0457  0.6236  1.0000  -1.2750   0.0000   0.0000   0.0000   0.3014
   5.000   0.8180   0.01527   0.00901  -0.0452  0.6189  1.0000  -1.3192   0.0000   0.0000   0.0000   0.3000
   5.100   0.8274   0.01529   0.00908  -0.0449  0.6148  1.0000  -1.3618   0.0000   0.0000   0.0000   0.2989
   5.200   0.8366   0.01526   0.00913  -0.0446  0.6100  1.0000  -1.4047   0.0000   0.0000   0.0000   0.2979
   5.300   0.8460   0.01522   0.00914  -0.0442  0.6045  1.0000  -1.4484   0.0000   0.0000   0.0000   0.2968
   5.400   0.8557   0.01515   0.00910  -0.0439  0.5988  1.0000  -1.5397   0.0000   0.0000   0.0000   0.2956
   5.500   0.8656   0.01504   0.00902  -0.0434  0.5931  1.0000  -1.6473   0.0000   0.0000   0.0000   0.2944
   5.600   0.8757   0.01490   0.00890  -0.0430  0.5877  1.0000  -1.7581   0.0000   0.0000   0.0000   0.2932
   5.700   0.8859   0.01475   0.00874  -0.0425  0.5824  1.0000  -1.8723   0.0000   0.0000   0.0000   0.2920
   5.800   0.8963   0.01461   0.00857  -0.0420  0.5769  1.0000  -1.9897   0.0000   0.0000   0.0000   0.2908
   5.900   0.9066   0.01458   0.00849  -0.0416  0.5706  1.0000  -2.1082   0.0000   0.0000   0.0000   0.2897
   6.000   0.9156   0.01460   0.00860  -0.0413  0.5647  1.0000  -2.2191   0.0000   0.0000   0.0000   0.2887
   6.100   0.9246   0.01461   0.00869  -0.0409  0.5576  1.0000  -2.3323   0.0000   0.0000   0.0000   0.2878
   6.200   0.9339   0.01458   0.00871  -0.0405  0.5496  1.0000  -2.4495   0.0000   0.0000   0.0000   0.2868
   6.300   0.9436   0.01450   0.00864  -0.0401  0.5413  1.0000  -2.5712   0.0000   0.0000   0.0000   0.2858
   6.400   0.9534   0.01440   0.00851  -0.0396  0.5331  1.0000  -2.6969   0.0000   0.0000   0.0000   0.2847
   6.500   0.9633   0.01434   0.00837  -0.0390  0.5243  1.0000  -2.8248   0.0000   0.0000   0.0000   0.2836
   6.600   0.9721   0.01441   0.00850  -0.0386  0.5156  1.0000  -2.9451   0.0000   0.0000   0.0000   0.2827
   6.700   0.9808   0.01446   0.00862  -0.0382  0.5055  1.0000  -3.0667   0.0000   0.0000   0.0000   0.2818
   6.800   0.9896   0.01447   0.00862  -0.0377  0.4941  1.0000  -3.1917   0.0000   0.0000   0.0000   0.2808
   6.900   0.9983   0.01450   0.00855  -0.0371  0.4821  1.0000  -3.3185   0.0000   0.0000   0.0000   0.2797
   7.000   1.0066   0.01461   0.00863  -0.0365  0.4704  1.0000  -3.4430   0.0000   0.0000   0.0000   0.2787
   7.100   1.0146   0.01473   0.00879  -0.0360  0.4582  1.0000  -3.5658   0.0000   0.0000   0.0000   0.2778
   7.200   1.0221   0.01486   0.00887  -0.0353  0.4438  1.0000  -3.6882   0.0000   0.0000   0.0000   0.2768
   7.300   1.0290   0.01507   0.00893  -0.0345  0.4282  1.0000  -3.8082   0.0000   0.0000   0.0000   0.2757
   7.400   1.0364   0.01524   0.00915  -0.0340  0.4159  1.0000  -3.9308   0.0000   0.0000   0.0000   0.2748
   7.500   1.0433   0.01544   0.00933  -0.0333  0.4012  1.0000  -4.0510   0.0000   0.0000   0.0000   0.2738
   7.600   1.0489   0.01573   0.00950  -0.0325  0.3857  1.0000  -4.1649   0.0000   0.0000   0.0000   0.2726
   7.700   1.0556   0.01595   0.00973  -0.0318  0.3723  1.0000  -4.2844   0.0000   0.0000   0.0000   0.2717
   7.800   1.0617   0.01620   0.00996  -0.0310  0.3570  1.0000  -4.4014   0.0000   0.0000   0.0000   0.2707
   7.900   1.0657   0.01656   0.01019  -0.0300  0.3398  1.0000  -4.5056   0.0000   0.0000   0.0000   0.2694
   8.000   1.0710   0.01684   0.01046  -0.0292  0.3231  1.0000  -4.6178   0.0000   0.0000   0.0000   0.2684
   8.100   1.0747   0.01720   0.01073  -0.0281  0.3036  1.0000  -4.7197   0.0000   0.0000   0.0000   0.2672
   8.200   1.0773   0.01763   0.01104  -0.0270  0.2857  1.0000  -4.8131   0.0000   0.0000   0.0000   0.2659
   8.300   1.0813   0.01797   0.01134  -0.0260  0.2670  1.0000  -4.9160   0.0000   0.0000   0.0000   0.2648
   8.400   1.0822   0.01846   0.01170  -0.0246  0.2497  1.0000  -4.9963   0.0000   0.0000   0.0000   0.2633
   8.500   1.0857   0.01883   0.01205  -0.0236  0.2311  1.0000  -5.0927   0.0000   0.0000   0.0000   0.2622
   8.600   1.0848   0.01939   0.01246  -0.0220  0.2116  1.0000  -5.1590   0.0000   0.0000   0.0000   0.2606
   8.700   1.0854   0.01989   0.01288  -0.0206  0.1900  1.0000  -5.2318   0.0000   0.0000   0.0000   0.2592
   8.800   1.0821   0.02056   0.01337  -0.0188  0.1691  1.0000  -5.2762   0.0000   0.0000   0.0000   0.2574
   8.900   1.0785   0.02127   0.01415  -0.0169  0.1447  1.0000  -5.3175   0.0000   0.0000   0.0000   0.2555
   9.000   1.0727   0.02198   0.01472  -0.0146  0.1240  1.0000  -5.3372   0.0000   0.0000   0.0000   0.2534
   9.200   1.0584   0.02368   0.01609  -0.0102  0.0889  1.0000  -5.3411   0.0000   0.0000   0.0000   0.2491
   9.300   1.0509   0.02471   0.01699  -0.0081  0.0747  1.0000  -5.3202   0.0000   0.0000   0.0000   0.2470
   9.400   1.0461   0.02564   0.01783  -0.0064  0.0642  1.0000  -5.3194   0.0000   0.0000   0.0000   0.2453
   9.500   1.0377   0.02687   0.01897  -0.0045  0.0564  1.0000  -5.2827   0.0000   0.0000   0.0000   0.2433
   9.600   1.0388   0.02750   0.01963  -0.0035  0.0497  1.0000  -5.3193   0.0000   0.0000   0.0000   0.2422
   9.700   1.0389   0.02820   0.02033  -0.0026  0.0445  1.0000  -5.3623   0.0000   0.0000   0.0000   0.2412
   9.800   1.0361   0.02914   0.02124  -0.0014  0.0410  1.0000  -5.3727   0.0000   0.0000   0.0000   0.2399
   9.900   1.0314   0.03026   0.02237  -0.0000  0.0383  1.0000  -5.3557   0.0000   0.0000   0.0000   0.2384
  10.000   1.0256   0.03157   0.02373   0.0015  0.0361  1.0000  -5.3160   0.0000   0.0000   0.0000   0.2367
  10.100   1.0271   0.03231   0.02450   0.0023  0.0345  1.0000  -5.3466   0.0000   0.0000   0.0000   0.2358
  10.200   1.0305   0.03287   0.02512   0.0029  0.0327  1.0000  -5.4004   0.0000   0.0000   0.0000   0.2350
  10.300   1.0329   0.03351   0.02580   0.0036  0.0307  1.0000  -5.4469   0.0000   0.0000   0.0000   0.2342
  10.400   1.0349   0.03419   0.02652   0.0043  0.0288  1.0000  -5.4897   0.0000   0.0000   0.0000   0.2334
  10.500   1.0365   0.03495   0.02730   0.0050  0.0273  1.0000  -5.5236   0.0000   0.0000   0.0000   0.2326
  10.600   1.0380   0.03574   0.02813   0.0057  0.0262  1.0000  -5.5516   0.0000   0.0000   0.0000   0.2317
  10.700   1.0395   0.03657   0.02898   0.0065  0.0252  1.0000  -5.5798   0.0000   0.0000   0.0000   0.2309
  10.800   1.0412   0.03742   0.02986   0.0072  0.0243  1.0000  -5.6235   0.0000   0.0000   0.0000   0.2300
  10.900   1.0431   0.03835   0.03081   0.0080  0.0234  1.0000  -5.6631   0.0000   0.0000   0.0000   0.2291
  11.000   1.0460   0.03935   0.03185   0.0089  0.0226  1.0000  -5.6959   0.0000   0.0000   0.0000   0.2282
  11.100   1.0505   0.04051   0.03307   0.0098  0.0218  1.0000  -5.7202   0.0000   0.0000   0.0000   0.2272
  11.200   1.0574   0.04196   0.03461   0.0108  0.0211  1.0000  -5.7347   0.0000   0.0000   0.0000   0.2263
  11.300   1.0650   0.04377   0.03657   0.0116  0.0206  1.0000  -5.7366   0.0000   0.0000   0.0000   0.2255
  11.400   1.0697   0.04573   0.03869   0.0123  0.0203  1.0000  -5.7276   0.0000   0.0000   0.0000   0.2247
  11.600   1.0716   0.04869   0.04187   0.0136  0.0199  1.0000  -5.7476   0.0000   0.0000   0.0000   0.2233
  11.700   1.0717   0.04948   0.04274   0.0142  0.0197  1.0000  -5.7951   0.0000   0.0000   0.0000   0.2226
  11.800   1.0719   0.05031   0.04365   0.0147  0.0195  1.0000  -5.8415   0.0000   0.0000   0.0000   0.2220
  11.900   1.0720   0.05118   0.04461   0.0152  0.0193  1.0000  -5.8861   0.0000   0.0000   0.0000   0.2214
  12.000   1.0719   0.05211   0.04562   0.0156  0.0191  1.0000  -5.9277   0.0000   0.0000   0.0000   0.2208
  12.100   1.0713   0.05310   0.04669   0.0161  0.0189  1.0000  -5.9644   0.0000   0.0000   0.0000   0.2202
  12.200   1.0702   0.05416   0.04784   0.0165  0.0187  1.0000  -5.9950   0.0000   0.0000   0.0000   0.2196
  12.300   1.0687   0.05530   0.04906   0.0169  0.0185  1.0000  -6.0214   0.0000   0.0000   0.0000   0.2190
  12.400   1.0669   0.05650   0.05036   0.0172  0.0183  1.0000  -6.0437   0.0000   0.0000   0.0000   0.2185
  12.500   1.0649   0.05777   0.05172   0.0175  0.0181  1.0000  -6.0616   0.0000   0.0000   0.0000   0.2180
  12.600   1.0624   0.05911   0.05315   0.0178  0.0180  1.0000  -6.0745   0.0000   0.0000   0.0000   0.2176
  12.700   1.0592   0.06054   0.05466   0.0180  0.0178  1.0000  -6.0807   0.0000   0.0000   0.0000   0.2171
  12.800   1.0554   0.06204   0.05626   0.0182  0.0178  1.0000  -6.0816   0.0000   0.0000   0.0000   0.2168
  12.900   1.0514   0.06360   0.05791   0.0183  0.0177  1.0000  -6.0789   0.0000   0.0000   0.0000   0.2164
  13.000   1.0471   0.06521   0.05962   0.0183  0.0177  1.0000  -6.0725   0.0000   0.0000   0.0000   0.2161
  13.100   1.0424   0.06690   0.06139   0.0183  0.0176  1.0000  -6.0621   0.0000   0.0000   0.0000   0.2159
  13.200   1.0369   0.06866   0.06324   0.0181  0.0176  1.0000  -6.0464   0.0000   0.0000   0.0000   0.2158
  13.300   1.0312   0.07048   0.06514   0.0179  0.0176  1.0000  -6.0276   0.0000   0.0000   0.0000   0.2157
  13.400   1.0253   0.07235   0.06710   0.0176  0.0177  1.0000  -6.0066   0.0000   0.0000   0.0000   0.2157
  13.500   1.0192   0.07424   0.06908   0.0173  0.0177  1.0000  -5.9832   0.0000   0.0000   0.0000   0.2157
  13.600   1.0125   0.07619   0.07111   0.0169  0.0177  1.0000  -5.9564   0.0000   0.0000   0.0000   0.2159
  13.700   1.0055   0.07823   0.07323   0.0163  0.0177  1.0000  -5.9266   0.0000   0.0000   0.0000   0.2161
  13.800   0.9986   0.08034   0.07541   0.0157  0.0178  1.0000  -5.8956   0.0000   0.0000   0.0000   0.2165
  13.900   0.9918   0.08254   0.07769   0.0150  0.0178  1.0000  -5.8626   0.0000   0.0000   0.0000   0.2169
  14.000   0.9845   0.08486   0.08008   0.0141  0.0179  1.0000  -5.8258   0.0000   0.0000   0.0000   0.2176
  14.100   0.9771   0.08727   0.08257   0.0130  0.0179  1.0000  -5.7863   0.0000   0.0000   0.0000   0.2183
  14.200   0.9699   0.08976   0.08513   0.0119  0.0180  1.0000  -5.7449   0.0000   0.0000   0.0000   0.2192
  14.300   0.9624   0.09236   0.08780   0.0107  0.0180  1.0000  -5.6998   0.0000   0.0000   0.0000   0.2202
  14.400   0.9547   0.09509   0.09060   0.0093  0.0181  1.0000  -5.6507   0.0000   0.0000   0.0000   0.2215
  14.500   0.9471   0.09789   0.09346   0.0078  0.0182  1.0000  -5.5988   0.0000   0.0000   0.0000   0.2228
  14.600   0.9392   0.10084   0.09648   0.0062  0.0182  1.0000  -5.5409   0.0000   0.0000   0.0000   0.2243
  14.700   0.9311   0.10393   0.09962   0.0044  0.0183  1.0000  -5.4772   0.0000   0.0000   0.0000   0.2260
  14.800   0.9230   0.10713   0.10288   0.0025  0.0184  1.0000  -5.4078   0.0000   0.0000   0.0000   0.2278
  14.900   0.9141   0.11059   0.10639   0.0005  0.0186  1.0000  -5.3255   0.0000   0.0000   0.0000   0.2300
  15.000   0.9052   0.11419   0.11005  -0.0017  0.0188  1.0000  -5.2332   0.0000   0.0000   0.0000   0.2322
  15.100   0.8949   0.11820   0.11410  -0.0041  0.0190  1.0000  -5.1166   0.0000   0.0000   0.0000   0.2348
  15.200   0.8825   0.12283   0.11877  -0.0067  0.0195  1.0000  -4.9540   0.0000   0.0000   0.0000   0.2378
  15.300   0.8700   0.12764   0.12363  -0.0088  0.0201  1.0000  -4.7526   0.0000   0.0000   0.0000   0.2403
  15.400   0.8667   0.13038   0.12639  -0.0105  0.0202  1.0000  -4.7156   0.0000   0.0000   0.0000   0.2422
  15.500   0.8637   0.13310   0.12914  -0.0121  0.0203  1.0000  -4.6765   0.0000   0.0000   0.0000   0.2440
  15.600   0.8608   0.13587   0.13194  -0.0138  0.0204  1.0000  -4.6347   0.0000   0.0000   0.0000   0.2460
  15.700   0.8581   0.13869   0.13478  -0.0155  0.0205  1.0000  -4.5893   0.0000   0.0000   0.0000   0.2479
  15.800   0.8556   0.14152   0.13762  -0.0171  0.0206  1.0000  -4.5404   0.0000   0.0000   0.0000   0.2498
  15.900   0.8532   0.14442   0.14054  -0.0188  0.0208  1.0000  -4.4842   0.0000   0.0000   0.0000   0.2518
  16.000   0.8509   0.14739   0.14353  -0.0205  0.0211  1.0000  -4.4180   0.0000   0.0000   0.0000   0.2538
  16.100   0.8477   0.15128   0.14743  -0.0226  0.0217  1.0000  -4.2922   0.0000   0.0000   0.0000   0.2564
  16.200   0.8151   0.16901   0.16504  -0.0303  0.0297  1.0000  -3.2073   0.0000   0.0000   0.0000   0.2680
  16.300   0.8140   0.17156   0.16758  -0.0314  0.0304  1.0000  -3.1449   0.0000   0.0000   0.0000   0.2693
  16.400   0.8132   0.17401   0.17002  -0.0324  0.0311  1.0000  -3.0911   0.0000   0.0000   0.0000   0.2705
  16.500   0.8127   0.17637   0.17237  -0.0333  0.0318  1.0000  -3.0444   0.0000   0.0000   0.0000   0.2715
  16.600   0.8123   0.17869   0.17468  -0.0341  0.0326  1.0000  -3.0031   0.0000   0.0000   0.0000   0.2725
  16.700   0.8069   0.19069   0.18667  -0.0341  0.0548  1.0000  -2.5909   0.0000   0.0000   0.0000   0.2731
  16.800   0.8078   0.19279   0.18877  -0.0350  0.0548  1.0000  -2.5683   0.0000   0.0000   0.0000   0.2741
  16.900   0.8087   0.19483   0.19080  -0.0359  0.0547  1.0000  -2.5463   0.0000   0.0000   0.0000   0.2751
  17.000   0.8096   0.19679   0.19275  -0.0369  0.0546  1.0000  -2.5248   0.0000   0.0000   0.0000   0.2762
  17.100   0.8106   0.19862   0.19457  -0.0379  0.0545  1.0000  -2.5036   0.0000   0.0000   0.0000   0.2773
  17.200   0.8116   0.20015   0.19610  -0.0391  0.0541  1.0000  -2.4823   0.0000   0.0000   0.0000   0.2785
  17.300   0.8108   0.20037   0.19629  -0.0420  0.0514  1.0000  -2.4198   0.0000   0.0000   0.0000   0.2821
  17.400   0.8104   0.20222   0.19814  -0.0435  0.0501  1.0000  -2.3805   0.0000   0.0000   0.0000   0.2839
  17.500   0.8106   0.20408   0.19998  -0.0447  0.0488  1.0000  -2.3530   0.0000   0.0000   0.0000   0.2852
  17.600   0.8114   0.20590   0.20181  -0.0458  0.0476  1.0000  -2.3347   0.0000   0.0000   0.0000   0.2863
  17.700   0.8125   0.20767   0.20357  -0.0467  0.0463  1.0000  -2.3244   0.0000   0.0000   0.0000   0.2872
  17.800   0.8141   0.20936   0.20526  -0.0474  0.0451  1.0000  -2.3214   0.0000   0.0000   0.0000   0.2879
  17.900   0.8159   0.21096   0.20686  -0.0481  0.0439  1.0000  -2.3258   0.0000   0.0000   0.0000   0.2884
  18.000   0.8181   0.21248   0.20838  -0.0486  0.0427  1.0000  -2.3377   0.0000   0.0000   0.0000   0.2888
  18.100   0.8207   0.21392   0.20983  -0.0491  0.0417  1.0000  -2.3565   0.0000   0.0000   0.0000   0.2890
  18.200   0.8235   0.21533   0.21125  -0.0495  0.0408  1.0000  -2.3802   0.0000   0.0000   0.0000   0.2891
  18.300   0.8264   0.21678   0.21270  -0.0498  0.0400  1.0000  -2.4047   0.0000   0.0000   0.0000   0.2891
  18.400   0.8293   0.21831   0.21424  -0.0501  0.0395  1.0000  -2.4261   0.0000   0.0000   0.0000   0.2891
  18.500   0.8324   0.21986   0.21579  -0.0503  0.0390  1.0000  -2.4507   0.0000   0.0000   0.0000   0.2890
  18.600   0.8358   0.22140   0.21734  -0.0505  0.0385  1.0000  -2.4811   0.0000   0.0000   0.0000   0.2887
  18.700   0.8392   0.22297   0.21891  -0.0506  0.0380  1.0000  -2.5141   0.0000   0.0000   0.0000   0.2884
  18.800   0.8425   0.22463   0.22058  -0.0507  0.0376  1.0000  -2.5475   0.0000   0.0000   0.0000   0.2881
  18.900   0.8459   0.22650   0.22246  -0.0506  0.0371  1.0000  -2.5844   0.0000   0.0000   0.0000   0.2876
  19.000   0.8465   0.22931   0.22528  -0.0509  0.0365  1.0000  -2.5805   0.0000   0.0000   0.0000   0.2878
  19.100   0.8395   0.23658   0.23248  -0.0521  0.0354  1.0000  -2.4397   0.0000   0.0000   0.0000   0.2898
  19.200   0.8410   0.23872   0.23461  -0.0529  0.0354  1.0000  -2.4240   0.0000   0.0000   0.0000   0.2905
  19.300   0.8425   0.24084   0.23674  -0.0537  0.0354  1.0000  -2.4086   0.0000   0.0000   0.0000   0.2912
  19.400   0.8441   0.24296   0.23885  -0.0545  0.0354  1.0000  -2.3933   0.0000   0.0000   0.0000   0.2919
  19.500   0.8456   0.24506   0.24095  -0.0553  0.0354  1.0000  -2.3782   0.0000   0.0000   0.0000   0.2926
  19.600   0.8471   0.24714   0.24303  -0.0561  0.0353  1.0000  -2.3632   0.0000   0.0000   0.0000   0.2933
  19.700   0.8486   0.24921   0.24510  -0.0569  0.0353  1.0000  -2.3484   0.0000   0.0000   0.0000   0.2940
  19.800   0.8500   0.25126   0.24715  -0.0577  0.0353  1.0000  -2.3337   0.0000   0.0000   0.0000   0.2947
  19.900   0.8515   0.25330   0.24919  -0.0585  0.0352  1.0000  -2.3191   0.0000   0.0000   0.0000   0.2954
  20.000   0.8530   0.25530   0.25119  -0.0593  0.0352  1.0000  -2.3046   0.0000   0.0000   0.0000   0.2960
  20.100   0.8544   0.25727   0.25316  -0.0601  0.0352  1.0000  -2.2902   0.0000   0.0000   0.0000   0.2967
  20.200   0.8559   0.25922   0.25511  -0.0609  0.0351  1.0000  -2.2758   0.0000   0.0000   0.0000   0.2974
  20.300   0.8573   0.26112   0.25700  -0.0617  0.0350  1.0000  -2.2614   0.0000   0.0000   0.0000   0.2981
  20.400   0.8588   0.26296   0.25885  -0.0626  0.0349  1.0000  -2.2469   0.0000   0.0000   0.0000   0.2989
  20.500   0.8602   0.26474   0.26062  -0.0635  0.0348  1.0000  -2.2323   0.0000   0.0000   0.0000   0.2996
  20.600   0.8616   0.26641   0.26229  -0.0644  0.0347  1.0000  -2.2172   0.0000   0.0000   0.0000   0.3004
  20.700   0.8627   0.26795   0.26383  -0.0654  0.0345  1.0000  -2.1979   0.0000   0.0000   0.0000   0.3013
  20.800   0.8630   0.26935   0.26523  -0.0666  0.0342  1.0000  -2.1679   0.0000   0.0000   0.0000   0.3026
  20.900   0.8629   0.27071   0.26658  -0.0681  0.0337  1.0000  -2.1299   0.0000   0.0000   0.0000   0.3041
  21.000   0.8633   0.27225   0.26812  -0.0695  0.0330  1.0000  -2.0917   0.0000   0.0000   0.0000   0.3056
  21.100   0.8642   0.27407   0.26993  -0.0707  0.0323  1.0000  -2.0606   0.0000   0.0000   0.0000   0.3067
  21.200   0.8654   0.27603   0.27189  -0.0717  0.0315  1.0000  -2.0378   0.0000   0.0000   0.0000   0.3076
  21.300   0.8667   0.27805   0.27391  -0.0725  0.0308  1.0000  -2.0207   0.0000   0.0000   0.0000   0.3084
  21.400   0.8680   0.28008   0.27594  -0.0733  0.0302  1.0000  -2.0071   0.0000   0.0000   0.0000   0.3090
  21.500   0.8694   0.28211   0.27797  -0.0741  0.0296  1.0000  -1.9958   0.0000   0.0000   0.0000   0.3096
  21.600   0.8707   0.28413   0.28000  -0.0748  0.0290  1.0000  -1.9863   0.0000   0.0000   0.0000   0.3101
  21.700   0.8721   0.28615   0.28203  -0.0755  0.0285  1.0000  -1.9782   0.0000   0.0000   0.0000   0.3107
  21.800   0.8734   0.28817   0.28404  -0.0762  0.0280  1.0000  -1.9712   0.0000   0.0000   0.0000   0.3111
  21.900   0.8747   0.29017   0.28605  -0.0768  0.0275  1.0000  -1.9652   0.0000   0.0000   0.0000   0.3116
  22.000   0.8760   0.29217   0.28806  -0.0775  0.0270  1.0000  -1.9601   0.0000   0.0000   0.0000   0.3121
  22.100   0.8773   0.29416   0.29005  -0.0781  0.0266  1.0000  -1.9559   0.0000   0.0000   0.0000   0.3125
  22.200   0.8785   0.29615   0.29204  -0.0787  0.0262  1.0000  -1.9525   0.0000   0.0000   0.0000   0.3129
  22.300   0.8798   0.29812   0.29402  -0.0793  0.0258  1.0000  -1.9499   0.0000   0.0000   0.0000   0.3133
  22.400   0.8810   0.30008   0.29598  -0.0799  0.0254  1.0000  -1.9482   0.0000   0.0000   0.0000   0.3137
  22.500   0.8821   0.30203   0.29794  -0.0805  0.0250  1.0000  -1.9474   0.0000   0.0000   0.0000   0.3141
  22.600   0.8833   0.30397   0.29989  -0.0810  0.0246  1.0000  -1.9476   0.0000   0.0000   0.0000   0.3144
  22.700   0.8844   0.30590   0.30183  -0.0816  0.0243  1.0000  -1.9488   0.0000   0.0000   0.0000   0.3147
  22.800   0.8855   0.30782   0.30375  -0.0821  0.0240  1.0000  -1.9510   0.0000   0.0000   0.0000   0.3150
  22.900   0.8866   0.30973   0.30566  -0.0826  0.0237  1.0000  -1.9545   0.0000   0.0000   0.0000   0.3153
  23.000   0.8876   0.31162   0.30756  -0.0831  0.0234  1.0000  -1.9592   0.0000   0.0000   0.0000   0.3156
  23.100   0.8886   0.31350   0.30945  -0.0835  0.0231  1.0000  -1.9656   0.0000   0.0000   0.0000   0.3158
  23.200   0.8896   0.31536   0.31132  -0.0839  0.0228  1.0000  -1.9742   0.0000   0.0000   0.0000   0.3160
  23.300   0.8906   0.31720   0.31317  -0.0843  0.0225  1.0000  -1.9857   0.0000   0.0000   0.0000   0.3161
  23.400   0.8916   0.31904   0.31502  -0.0846  0.0222  1.0000  -2.0005   0.0000   0.0000   0.0000   0.3162
  23.500   0.8927   0.32088   0.31687  -0.0848  0.0219  1.0000  -2.0198   0.0000   0.0000   0.0000   0.3162
  23.600   0.8939   0.32277   0.31877  -0.0850  0.0216  1.0000  -2.0447   0.0000   0.0000   0.0000   0.3160
  23.700   0.8955   0.32480   0.32083  -0.0849  0.0213  1.0000  -2.0772   0.0000   0.0000   0.0000   0.3156
  23.800   0.8977   0.32739   0.32343  -0.0845  0.0209  1.0000  -2.1222   0.0000   0.0000   0.0000   0.3148
  23.900   0.8964   0.33198   0.32804  -0.0843  0.0204  1.0000  -2.1034   0.0000   0.0000   0.0000   0.3146
  24.000   0.8911   0.33781   0.33382  -0.0846  0.0200  1.0000  -1.9954   0.0000   0.0000   0.0000   0.3156
  24.100   0.8904   0.33971   0.33573  -0.0851  0.0200  1.0000  -1.9781   0.0000   0.0000   0.0000   0.3161
  24.200   0.8894   0.34155   0.33758  -0.0855  0.0200  1.0000  -1.9605   0.0000   0.0000   0.0000   0.3166
  24.300   0.8882   0.34331   0.33935  -0.0860  0.0200  1.0000  -1.9422   0.0000   0.0000   0.0000   0.3171
  24.400   0.8865   0.34499   0.34104  -0.0864  0.0200  1.0000  -1.9231   0.0000   0.0000   0.0000   0.3177
  24.500   0.8844   0.34655   0.34261  -0.0867  0.0199  1.0000  -1.9031   0.0000   0.0000   0.0000   0.3182
  24.600   0.8816   0.34794   0.34402  -0.0870  0.0199  1.0000  -1.8815   0.0000   0.0000   0.0000   0.3188
  24.700   0.8771   0.34894   0.34504  -0.0871  0.0199  1.0000  -1.8560   0.0000   0.0000   0.0000   0.3193
  24.800   0.8189   0.33453   0.33080  -0.0810  0.0199  1.0000  -1.6960   0.0000   0.0000   0.0000   0.3207
  24.900   0.8132   0.33398   0.33027  -0.0810  0.0199  1.0000  -1.6677   0.0000   0.0000   0.0000   0.3214
  25.000   0.8084   0.33367   0.32998  -0.0810  0.0199  1.0000  -1.6421   0.0000   0.0000   0.0000   0.3220
  25.100   0.8043   0.33348   0.32981  -0.0811  0.0199  1.0000  -1.6182   0.0000   0.0000   0.0000   0.3226
  25.200   0.8007   0.33339   0.32974  -0.0812  0.0199  1.0000  -1.5957   0.0000   0.0000   0.0000   0.3233
  25.300   0.7974   0.33338   0.32975  -0.0814  0.0199  1.0000  -1.5743   0.0000   0.0000   0.0000   0.3239
  25.400   0.7944   0.33343   0.32981  -0.0816  0.0199  1.0000  -1.5539   0.0000   0.0000   0.0000   0.3246
  25.500   0.7918   0.33353   0.32993  -0.0819  0.0199  1.0000  -1.5343   0.0000   0.0000   0.0000   0.3252
  25.600   0.7893   0.33366   0.33008  -0.0822  0.0198  1.0000  -1.5154   0.0000   0.0000   0.0000   0.3258
  25.700   0.7870   0.33385   0.33035  -0.0824  0.0198  1.0000  -1.4967   0.0000   0.0000   0.0000   0.3264
  25.800   0.7848   0.33402   0.33054  -0.0828  0.0198  1.0000  -1.4788   0.0000   0.0000   0.0000   0.3271
  25.900   0.7828   0.33422   0.33075  -0.0831  0.0198  1.0000  -1.4614   0.0000   0.0000   0.0000   0.3277
  26.000   0.7809   0.33443   0.33097  -0.0834  0.0198  1.0000  -1.4445   0.0000   0.0000   0.0000   0.3283
  26.100   0.7791   0.33467   0.33122  -0.0838  0.0198  1.0000  -1.4281   0.0000   0.0000   0.0000   0.3290
  26.200   0.7774   0.33492   0.33149  -0.0841  0.0197  1.0000  -1.4121   0.0000   0.0000   0.0000   0.3296
  26.300   0.7759   0.33519   0.33177  -0.0845  0.0197  1.0000  -1.3964   0.0000   0.0000   0.0000   0.3302
  26.400   0.7743   0.33544   0.33204  -0.0849  0.0197  1.0000  -1.3805   0.0000   0.0000   0.0000   0.3309
  26.500   0.7728   0.33570   0.33230  -0.0853  0.0197  1.0000  -1.3644   0.0000   0.0000   0.0000   0.3315
  26.600   0.7712   0.33592   0.33254  -0.0857  0.0196  1.0000  -1.3469   0.0000   0.0000   0.0000   0.3322
  26.700   0.7697   0.33615   0.33278  -0.0862  0.0196  1.0000  -1.3297   0.0000   0.0000   0.0000   0.3329
  26.800   0.7683   0.33641   0.33305  -0.0866  0.0196  1.0000  -1.3128   0.0000   0.0000   0.0000   0.3337
  26.900   0.7669   0.33667   0.33333  -0.0871  0.0195  1.0000  -1.2962   0.0000   0.0000   0.0000   0.3344
  27.000   0.7657   0.33696   0.33362  -0.0876  0.0195  1.0000  -1.2799   0.0000   0.0000   0.0000   0.3351
  27.100   0.7646   0.33726   0.33394  -0.0881  0.0194  1.0000  -1.2637   0.0000   0.0000   0.0000   0.3358
  27.200   0.7635   0.33758   0.33427  -0.0886  0.0194  1.0000  -1.2477   0.0000   0.0000   0.0000   0.3365
  27.300   0.7626   0.33793   0.33462  -0.0891  0.0193  1.0000  -1.2318   0.0000   0.0000   0.0000   0.3372
  27.400   0.7617   0.33830   0.33501  -0.0897  0.0193  1.0000  -1.2160   0.0000   0.0000   0.0000   0.3380
  27.500   0.7610   0.33870   0.33542  -0.0902  0.0192  1.0000  -1.2001   0.0000   0.0000   0.0000   0.3387
  27.600   0.7603   0.33914   0.33587  -0.0908  0.0191  1.0000  -1.1856   0.0000   0.0000   0.0000   0.3394
  27.700   0.7598   0.33962   0.33636  -0.0914  0.0190  1.0000  -1.1759   0.0000   0.0000   0.0000   0.3401
  27.800   0.7594   0.34016   0.33690  -0.0920  0.0188  1.0000  -1.1661   0.0000   0.0000   0.0000   0.3409
  27.900   0.7592   0.34074   0.33750  -0.0926  0.0186  1.0000  -1.1562   0.0000   0.0000   0.0000   0.3416
  28.000   0.7590   0.34138   0.33814  -0.0932  0.0184  1.0000  -1.1466   0.0000   0.0000   0.0000   0.3422
  28.100   0.7589   0.34204   0.33881  -0.0938  0.0182  1.0000  -1.1376   0.0000   0.0000   0.0000   0.3429
  28.200   0.7588   0.34271   0.33949  -0.0943  0.0180  1.0000  -1.1295   0.0000   0.0000   0.0000   0.3435
  28.300   0.7587   0.34337   0.34016  -0.0949  0.0177  1.0000  -1.1223   0.0000   0.0000   0.0000   0.3441
  28.400   0.7585   0.34401   0.34082  -0.0954  0.0175  1.0000  -1.1161   0.0000   0.0000   0.0000   0.3446
  28.500   0.7583   0.34464   0.34146  -0.0958  0.0172  1.0000  -1.1107   0.0000   0.0000   0.0000   0.3452
  28.600   0.7581   0.34526   0.34209  -0.0963  0.0169  1.0000  -1.1058   0.0000   0.0000   0.0000   0.3457
  28.700   0.7578   0.34587   0.34271  -0.0968  0.0167  1.0000  -1.1015   0.0000   0.0000   0.0000   0.3462
  28.800   0.7576   0.34647   0.34332  -0.0972  0.0164  1.0000  -1.0976   0.0000   0.0000   0.0000   0.3467
  28.900   0.7573   0.34707   0.34393  -0.0977  0.0162  1.0000  -1.0940   0.0000   0.0000   0.0000   0.3472
  29.000   0.7571   0.34766   0.34453  -0.0981  0.0160  1.0000  -1.0907   0.0000   0.0000   0.0000   0.3477
  29.100   0.7568   0.34825   0.34513  -0.0986  0.0157  1.0000  -1.0877   0.0000   0.0000   0.0000   0.3481
  29.200   0.7566   0.34883   0.34572  -0.0990  0.0155  1.0000  -1.0848   0.0000   0.0000   0.0000   0.3486
  29.300   0.7564   0.34941   0.34632  -0.0995  0.0153  1.0000  -1.0821   0.0000   0.0000   0.0000   0.3491
  29.400   0.7562   0.35000   0.34691  -0.0999  0.0151  1.0000  -1.0795   0.0000   0.0000   0.0000   0.3496
  29.500   0.7559   0.35058   0.34750  -0.1004  0.0149  1.0000  -1.0771   0.0000   0.0000   0.0000   0.3500
  29.600   0.7557   0.35116   0.34810  -0.1008  0.0147  1.0000  -1.0748   0.0000   0.0000   0.0000   0.3505
  29.700   0.7556   0.35174   0.34869  -0.1013  0.0145  1.0000  -1.0726   0.0000   0.0000   0.0000   0.3510
  29.800   0.7554   0.35232   0.34928  -0.1017  0.0143  1.0000  -1.0705   0.0000   0.0000   0.0000   0.3514
  29.900   0.7552   0.35290   0.34987  -0.1022  0.0142  1.0000  -1.0684   0.0000   0.0000   0.0000   0.3519
  30.000   0.7550   0.35348   0.35046  -0.1026  0.0140  1.0000  -1.0665   0.0000   0.0000   0.0000   0.3524


