xflr5 v6.61

 Calculated polar for: MH 17

 1 1 Reynolds number fixed          Mach number fixed         

 xtrf =   1.000 (top)        1.000 (bottom)
 Mach =   0.000     Re =     0.130 e 6     Ncrit =   9.000

  alpha     CL        CD       CDp       Cm    Top Xtr Bot Xtr   Cpmin    Chinge    XCp    
 ------- -------- --------- --------- -------- ------- ------- -------- --------- ---------
 -10.000  -0.4462   0.09390   0.08978  -0.0465  1.0000  0.0723  -1.9236   0.0000   0.0000   0.0000   0.1361
  -9.900  -0.4501   0.09214   0.08805  -0.0478  1.0000  0.0731  -1.9554   0.0000   0.0000   0.0000   0.1344
  -9.800  -0.4554   0.09029   0.08623  -0.0493  1.0000  0.0738  -1.9960   0.0000   0.0000   0.0000   0.1325
  -9.700  -0.4620   0.08835   0.08432  -0.0510  1.0000  0.0743  -2.0427   0.0000   0.0000   0.0000   0.1306
  -9.600  -0.4698   0.08646   0.08246  -0.0525  1.0000  0.0745  -2.0883   0.0000   0.0000   0.0000   0.1296
  -9.500  -0.4784   0.08493   0.08095  -0.0532  1.0000  0.0746  -2.1277   0.0000   0.0000   0.0000   0.1303
  -9.400  -0.4878   0.08374   0.07979  -0.0531  1.0000  0.0746  -2.1604   0.0000   0.0000   0.0000   0.1330
  -9.300  -0.4977   0.08281   0.07887  -0.0524  1.0000  0.0746  -2.1880   0.0000   0.0000   0.0000   0.1368
  -9.200  -0.5081   0.08206   0.07813  -0.0512  1.0000  0.0745  -2.2114   0.0000   0.0000   0.0000   0.1417
  -9.100  -0.5188   0.08141   0.07751  -0.0496  1.0000  0.0744  -2.2324   0.0000   0.0000   0.0000   0.1469
  -9.000  -0.5297   0.08083   0.07694  -0.0479  1.0000  0.0743  -2.2522   0.0000   0.0000   0.0000   0.1524
  -8.900  -0.5407   0.08028   0.07640  -0.0460  1.0000  0.0742  -2.2713   0.0000   0.0000   0.0000   0.1578
  -8.800  -0.5519   0.07977   0.07590  -0.0440  1.0000  0.0741  -2.2899   0.0000   0.0000   0.0000   0.1634
  -8.700  -0.5632   0.07929   0.07543  -0.0419  1.0000  0.0739  -2.3081   0.0000   0.0000   0.0000   0.1689
  -8.600  -0.5746   0.07884   0.07499  -0.0397  1.0000  0.0738  -2.3258   0.0000   0.0000   0.0000   0.1745
  -8.500  -0.5861   0.07841   0.07456  -0.0373  1.0000  0.0737  -2.3434   0.0000   0.0000   0.0000   0.1800
  -8.400  -0.5974   0.07795   0.07410  -0.0350  1.0000  0.0736  -2.3617   0.0000   0.0000   0.0000   0.1852
  -8.300  -0.6079   0.07735   0.07349  -0.0330  1.0000  0.0737  -2.3822   0.0000   0.0000   0.0000   0.1897
  -8.200  -0.6180   0.07669   0.07282  -0.0310  1.0000  0.0739  -2.4043   0.0000   0.0000   0.0000   0.1939
  -8.100  -0.6281   0.07604   0.07215  -0.0291  1.0000  0.0742  -2.4283   0.0000   0.0000   0.0000   0.1979
  -8.000  -0.6383   0.07544   0.07150  -0.0271  1.0000  0.0746  -2.4559   0.0000   0.0000   0.0000   0.2019
  -7.900  -0.6492   0.07495   0.07099  -0.0249  1.0000  0.0751  -2.4893   0.0000   0.0000   0.0000   0.2060
  -7.800  -0.6613   0.07478   0.07073  -0.0225  1.0000  0.0757  -2.5323   0.0000   0.0000   0.0000   0.2105
  -7.700  -0.6739   0.07494   0.07076  -0.0199  1.0000  0.0762  -2.5791   0.0000   0.0000   0.0000   0.2152
  -7.600  -0.6855   0.07505   0.07074  -0.0172  1.0000  0.0765  -2.6181   0.0000   0.0000   0.0000   0.2196
  -7.500  -0.6954   0.07501   0.07057  -0.0148  1.0000  0.0768  -2.6488   0.0000   0.0000   0.0000   0.2236
  -7.400  -0.7023   0.07486   0.07030  -0.0125  1.0000  0.0769  -2.6657   0.0000   0.0000   0.0000   0.2271
  -7.300  -0.7076   0.07453   0.06986  -0.0105  1.0000  0.0771  -2.6755   0.0000   0.0000   0.0000   0.2301
  -7.200  -0.7069   0.06869   0.06422  -0.0114  1.0000  0.0782  -2.6667   0.0000   0.0000   0.0000   0.2290
  -7.100  -0.7029   0.06648   0.06211  -0.0112  1.0000  0.0791  -2.6107   0.0000   0.0000   0.0000   0.2292
  -7.000  -0.6999   0.06507   0.06072  -0.0105  1.0000  0.0799  -2.5583   0.0000   0.0000   0.0000   0.2301
  -6.900  -0.6990   0.06397   0.05964  -0.0095  1.0000  0.0808  -2.5188   0.0000   0.0000   0.0000   0.2316
  -5.900  -0.6540   0.05155   0.04639  -0.0078  0.9835  0.1126  -2.2843   0.0000   0.0000   0.0000   0.2336
  -5.800  -0.6474   0.05055   0.04546  -0.0076  0.9820  0.1161  -2.2370   0.0000   0.0000   0.0000   0.2339
  -5.200  -0.6173   0.04560   0.03991  -0.0047  0.9704  0.1603  -2.1009   0.0000   0.0000   0.0000   0.2383
  -5.100  -0.6115   0.04402   0.03844  -0.0043  0.9688  0.1627  -2.0683   0.0000   0.0000   0.0000   0.2390
  -5.000  -0.6058   0.04316   0.03759  -0.0035  0.9668  0.1668  -2.0395   0.0000   0.0000   0.0000   0.2402
  -4.700  -0.5606   0.03552   0.02784   0.0026  0.9622  0.0602  -2.6279   0.0000   0.0000   0.0000   0.2503
  -4.600  -0.5507   0.03367   0.02589   0.0027  0.9611  0.0577  -2.6253   0.0000   0.0000   0.0000   0.2506
  -4.500  -0.5390   0.03233   0.02437   0.0028  0.9598  0.0551  -2.6272   0.0000   0.0000   0.0000   0.2509
  -4.400  -0.5255   0.03105   0.02281   0.0030  0.9587  0.0524  -2.6460   0.0000   0.0000   0.0000   0.2513
  -4.300  -0.5107   0.02999   0.02142   0.0030  0.9577  0.0502  -2.6655   0.0000   0.0000   0.0000   0.2514
  -4.200  -0.4948   0.02920   0.02045   0.0024  0.9567  0.0493  -2.6428   0.0000   0.0000   0.0000   0.2505
  -4.100  -0.4795   0.02851   0.01962   0.0019  0.9557  0.0490  -2.6046   0.0000   0.0000   0.0000   0.2495
  -4.000  -0.4734   0.02795   0.01901   0.0029  0.9535  0.0495  -2.5697   0.0000   0.0000   0.0000   0.2517
  -3.900  -0.4650   0.02746   0.01850   0.0032  0.9516  0.0509  -2.5127   0.0000   0.0000   0.0000   0.2527
  -3.800  -0.4555   0.02708   0.01810   0.0034  0.9498  0.0528  -2.4491   0.0000   0.0000   0.0000   0.2532
  -3.700  -0.4441   0.02669   0.01766   0.0033  0.9481  0.0545  -2.3886   0.0000   0.0000   0.0000   0.2533
  -3.600  -0.4309   0.02620   0.01711   0.0030  0.9467  0.0555  -2.3345   0.0000   0.0000   0.0000   0.2528
  -3.500  -0.4165   0.02565   0.01652   0.0025  0.9453  0.0561  -2.2818   0.0000   0.0000   0.0000   0.2519
  -3.400  -0.4018   0.02516   0.01598   0.0020  0.9441  0.0570  -2.2242   0.0000   0.0000   0.0000   0.2506
  -3.300  -0.3869   0.02471   0.01550   0.0013  0.9428  0.0582  -2.1627   0.0000   0.0000   0.0000   0.2491
  -3.200  -0.3718   0.02432   0.01507   0.0006  0.9416  0.0597  -2.1090   0.0000   0.0000   0.0000   0.2474
  -3.100  -0.3564   0.02404   0.01471  -0.0002  0.9405  0.0613  -2.0678   0.0000   0.0000   0.0000   0.2452
  -3.000  -0.3486   0.02344   0.01417   0.0004  0.9388  0.0639  -2.0435   0.0000   0.0000   0.0000   0.2469
  -2.900  -0.3482   0.02318   0.01394   0.0023  0.9359  0.0663  -2.0181   0.0000   0.0000   0.0000   0.2525
  -2.800  -0.3424   0.02298   0.01376   0.0032  0.9335  0.0702  -1.9787   0.0000   0.0000   0.0000   0.2553
  -2.700  -0.3341   0.02279   0.01355   0.0038  0.9313  0.0746  -1.9411   0.0000   0.0000   0.0000   0.2572
  -2.600  -0.3255   0.02249   0.01323   0.0043  0.9293  0.0788  -1.9109   0.0000   0.0000   0.0000   0.2590
  -2.500  -0.3161   0.02217   0.01293   0.0046  0.9275  0.0862  -1.8738   0.0000   0.0000   0.0000   0.2604
  -2.400  -0.3054   0.02184   0.01265   0.0047  0.9259  0.1000  -1.8413   0.0000   0.0000   0.0000   0.2614
  -2.300  -0.0973   0.02315   0.01716  -0.0244  0.9475  0.9450  -1.1448   0.0000   0.0000   0.0000  -0.0115
  -2.200  -0.0648   0.02343   0.01732  -0.0284  0.9478  0.9535  -1.0139   0.0000   0.0000   0.0000  -0.2039
  -2.100  -0.0412   0.02350   0.01730  -0.0311  0.9470  0.9581  -0.9211   0.0000   0.0000   0.0000  -0.5266
  -2.000  -0.0184   0.02346   0.01718  -0.0337  0.9460  0.9603  -0.8323   0.0000   0.0000   0.0000  -1.6293
  -1.900   0.0011   0.02341   0.01705  -0.0358  0.9447  0.9622  -0.7535   0.0000   0.0000   0.0000  33.6339
  -1.800   0.0203   0.02338   0.01695  -0.0378  0.9435  0.9643  -0.6776   0.0000   0.0000   0.0000   2.1539
  -1.700   0.0390   0.02335   0.01686  -0.0397  0.9424  0.9666  -0.6042   0.0000   0.0000   0.0000   1.2869
  -1.600   0.0571   0.02335   0.01681  -0.0415  0.9413  0.9690  -0.5339   0.0000   0.0000   0.0000   0.9890
  -1.500   0.0752   0.02337   0.01677  -0.0433  0.9403  0.9713  -0.4648   0.0000   0.0000   0.0000   0.8338
  -1.400   0.0946   0.02329   0.01665  -0.0454  0.9391  0.9728  -0.4032   0.0000   0.0000   0.0000   0.7357
  -1.300   0.1065   0.02322   0.01656  -0.0461  0.9362  0.9757  -0.3802   0.0000   0.0000   0.0000   0.6872
  -1.200   0.1216   0.02318   0.01648  -0.0473  0.9340  0.9784  -0.3865   0.0000   0.0000   0.0000   0.6429
  -1.100   0.1375   0.02315   0.01641  -0.0487  0.9321  0.9810  -0.3932   0.0000   0.0000   0.0000   0.6073
  -1.000   0.1534   0.02316   0.01638  -0.0501  0.9304  0.9836  -0.4001   0.0000   0.0000   0.0000   0.5790
  -0.900   0.1739   0.02304   0.01623  -0.0524  0.9291  0.9850  -0.4093   0.0000   0.0000   0.0000   0.5531
  -0.800   0.1946   0.02293   0.01610  -0.0547  0.9279  0.9866  -0.4186   0.0000   0.0000   0.0000   0.5325
  -0.700   0.2154   0.02284   0.01598  -0.0570  0.9269  0.9882  -0.4281   0.0000   0.0000   0.0000   0.5158
  -0.600   0.2364   0.02275   0.01587  -0.0594  0.9260  0.9899  -0.4391   0.0000   0.0000   0.0000   0.5020
  -0.500   0.2576   0.02267   0.01577  -0.0618  0.9252  0.9915  -0.4538   0.0000   0.0000   0.0000   0.4903
  -0.400   0.2791   0.02258   0.01567  -0.0642  0.9244  0.9929  -0.4691   0.0000   0.0000   0.0000   0.4803
  -0.300   0.3011   0.02249   0.01556  -0.0668  0.9238  0.9942  -0.4856   0.0000   0.0000   0.0000   0.4717
  -0.200   0.3092   0.02243   0.01551  -0.0669  0.9196  0.9979  -0.4935   0.0000   0.0000   0.0000   0.4660
  -0.100   0.3266   0.02235   0.01542  -0.0686  0.9176  1.0000  -0.5071   0.0000   0.0000   0.0000   0.4597
   0.000   0.3360   0.02234   0.01541  -0.0687  0.9147  1.0000  -0.5166   0.0000   0.0000   0.0000   0.4540
   0.100   0.3504   0.02229   0.01535  -0.0697  0.9127  1.0000  -0.5294   0.0000   0.0000   0.0000   0.4484
   0.200   0.3671   0.02222   0.01528  -0.0712  0.9112  1.0000  -0.5438   0.0000   0.0000   0.0000   0.4432
   0.300   0.3853   0.02213   0.01519  -0.0729  0.9100  1.0000  -0.5591   0.0000   0.0000   0.0000   0.4384
   0.400   0.4042   0.02204   0.01512  -0.0748  0.9090  1.0000  -0.5755   0.0000   0.0000   0.0000   0.4339
   0.500   0.4230   0.02195   0.01503  -0.0765  0.9080  1.0000  -0.5923   0.0000   0.0000   0.0000   0.4298
   0.700   0.4166   0.02225   0.01534  -0.0720  0.8971  1.0000  -0.5968   0.0000   0.0000   0.0000   0.4214
   0.800   0.4332   0.02216   0.01526  -0.0732  0.8953  1.0000  -0.6123   0.0000   0.0000   0.0000   0.4176
   0.900   0.4522   0.02202   0.01513  -0.0749  0.8938  1.0000  -0.6297   0.0000   0.0000   0.0000   0.4141
   1.000   0.4751   0.02178   0.01490  -0.0772  0.8925  1.0000  -0.6504   0.0000   0.0000   0.0000   0.4108
   1.100   0.4625   0.02206   0.01518  -0.0731  0.8842  1.0000  -0.6464   0.0000   0.0000   0.0000   0.4063
   1.200   0.4807   0.02181   0.01495  -0.0744  0.8809  1.0000  -0.6647   0.0000   0.0000   0.0000   0.4029
   1.300   0.5043   0.02143   0.01458  -0.0765  0.8784  1.0000  -0.6871   0.0000   0.0000   0.0000   0.3998
   1.400   0.5283   0.02101   0.01420  -0.0786  0.8763  1.0000  -0.7101   0.0000   0.0000   0.0000   0.3967
   1.500   0.5191   0.02128   0.01447  -0.0751  0.8683  1.0000  -0.7085   0.0000   0.0000   0.0000   0.3926
   1.600   0.5330   0.02105   0.01427  -0.0755  0.8646  1.0000  -0.7241   0.0000   0.0000   0.0000   0.3895
   1.700   0.5493   0.02078   0.01402  -0.0763  0.8621  1.0000  -0.7421   0.0000   0.0000   0.0000   0.3866
   1.800   0.5650   0.02054   0.01379  -0.0769  0.8601  1.0000  -0.7603   0.0000   0.0000   0.0000   0.3838
   2.000   0.5671   0.02075   0.01404  -0.0736  0.8492  1.0000  -0.7735   0.0000   0.0000   0.0000   0.3772
   2.100   0.5799   0.02056   0.01387  -0.0737  0.8466  1.0000  -0.7895   0.0000   0.0000   0.0000   0.3745
   2.200   0.5934   0.02034   0.01366  -0.0739  0.8445  1.0000  -0.8063   0.0000   0.0000   0.0000   0.3719
   2.300   0.5942   0.02048   0.01383  -0.0722  0.8391  1.0000  -0.8127   0.0000   0.0000   0.0000   0.3688
   2.400   0.5986   0.02051   0.01388  -0.0711  0.8342  1.0000  -0.8220   0.0000   0.0000   0.0000   0.3658
   2.500   0.6095   0.02033   0.01373  -0.0709  0.8312  1.0000  -0.8563   0.0000   0.0000   0.0000   0.3633
   2.600   0.6218   0.02011   0.01356  -0.0708  0.8288  1.0000  -0.9131   0.0000   0.0000   0.0000   0.3608
   2.700   0.6347   0.01986   0.01334  -0.0708  0.8268  1.0000  -0.9722   0.0000   0.0000   0.0000   0.3584
   2.800   0.6309   0.02016   0.01367  -0.0685  0.8193  1.0000  -0.9885   0.0000   0.0000   0.0000   0.3553
   2.900   0.6403   0.02001   0.01355  -0.0680  0.8158  1.0000  -1.0396   0.0000   0.0000   0.0000   0.3528
   3.000   0.6517   0.01978   0.01335  -0.0677  0.8131  1.0000  -1.1011   0.0000   0.0000   0.0000   0.3505
   3.100   0.6642   0.01949   0.01309  -0.0675  0.8109  1.0000  -1.1716   0.0000   0.0000   0.0000   0.3483
   3.200   0.6644   0.01969   0.01332  -0.0658  0.8042  1.0000  -1.2039   0.0000   0.0000   0.0000   0.3455
   3.300   0.6726   0.01955   0.01322  -0.0650  0.8000  1.0000  -1.2620   0.0000   0.0000   0.0000   0.3431
   3.400   0.6837   0.01929   0.01300  -0.0647  0.7971  1.0000  -1.3303   0.0000   0.0000   0.0000   0.3409
   3.500   0.6958   0.01898   0.01272  -0.0644  0.7949  1.0000  -1.4033   0.0000   0.0000   0.0000   0.3388
   3.600   0.6981   0.01910   0.01288  -0.0629  0.7883  1.0000  -1.4440   0.0000   0.0000   0.0000   0.3362
   3.700   0.7062   0.01894   0.01277  -0.0621  0.7838  1.0000  -1.5047   0.0000   0.0000   0.0000   0.3340
   3.800   0.7174   0.01863   0.01250  -0.0617  0.7807  1.0000  -1.5768   0.0000   0.0000   0.0000   0.3319
   3.900   0.7298   0.01827   0.01221  -0.0614  0.7782  1.0000  -1.6535   0.0000   0.0000   0.0000   0.3300
   4.000   0.7318   0.01841   0.01240  -0.0598  0.7708  1.0000  -1.6952   0.0000   0.0000   0.0000   0.3275
   4.100   0.7413   0.01816   0.01220  -0.0591  0.7665  1.0000  -1.7635   0.0000   0.0000   0.0000   0.3255
   4.200   0.7531   0.01779   0.01188  -0.0587  0.7633  1.0000  -1.8409   0.0000   0.0000   0.0000   0.3236
   4.300   0.7595   0.01772   0.01185  -0.0577  0.7573  1.0000  -1.8991   0.0000   0.0000   0.0000   0.3215
   4.400   0.7671   0.01756   0.01175  -0.0568  0.7515  1.0000  -1.9697   0.0000   0.0000   0.0000   0.3194
   4.500   0.7789   0.01714   0.01138  -0.0562  0.7473  1.0000  -2.0615   0.0000   0.0000   0.0000   0.3176
   4.600   0.7851   0.01695   0.01124  -0.0550  0.7389  1.0000  -2.1313   0.0000   0.0000   0.0000   0.3153
   4.700   0.7968   0.01630   0.01060  -0.0540  0.7304  1.0000  -2.2270   0.0000   0.0000   0.0000   0.3130
   4.800   0.8030   0.01596   0.01029  -0.0525  0.7174  1.0000  -2.2994   0.0000   0.0000   0.0000   0.3105
   4.900   0.8106   0.01553   0.00985  -0.0510  0.7022  1.0000  -2.3793   0.0000   0.0000   0.0000   0.3079
   5.100   0.8263   0.01486   0.00915  -0.0484  0.6650  1.0000  -2.5403   0.0000   0.0000   0.0000   0.3034
   5.200   0.8324   0.01473   0.00899  -0.0470  0.6424  1.0000  -2.6130   0.0000   0.0000   0.0000   0.3012
   5.300   0.8390   0.01461   0.00877  -0.0456  0.6145  1.0000  -2.6882   0.0000   0.0000   0.0000   0.2990
   5.400   0.8445   0.01462   0.00866  -0.0442  0.5821  1.0000  -2.7580   0.0000   0.0000   0.0000   0.2968
   5.500   0.8491   0.01472   0.00860  -0.0427  0.5432  1.0000  -2.8235   0.0000   0.0000   0.0000   0.2946
   5.600   0.8522   0.01495   0.00858  -0.0409  0.4967  1.0000  -2.8817   0.0000   0.0000   0.0000   0.2922
   5.700   0.8532   0.01533   0.00866  -0.0389  0.4475  1.0000  -2.9302   0.0000   0.0000   0.0000   0.2897
   5.800   0.8527   0.01583   0.00884  -0.0368  0.4001  1.0000  -2.9706   0.0000   0.0000   0.0000   0.2872
   5.900   0.8514   0.01639   0.00911  -0.0347  0.3539  1.0000  -3.0048   0.0000   0.0000   0.0000   0.2846
   6.000   0.8491   0.01702   0.00942  -0.0324  0.3063  1.0000  -3.0315   0.0000   0.0000   0.0000   0.2819
   6.200   0.8395   0.01865   0.01022  -0.0273  0.1764  1.0000  -3.0449   0.0000   0.0000   0.0000   0.2760
   6.300   0.8327   0.01971   0.01071  -0.0245  0.1076  1.0000  -3.0394   0.0000   0.0000   0.0000   0.2728
   6.400   0.8306   0.02049   0.01124  -0.0223  0.0844  1.0000  -3.0459   0.0000   0.0000   0.0000   0.2701
   6.500   0.8312   0.02106   0.01172  -0.0205  0.0755  1.0000  -3.0635   0.0000   0.0000   0.0000   0.2678
   6.600   0.8331   0.02152   0.01218  -0.0189  0.0701  1.0000  -3.0901   0.0000   0.0000   0.0000   0.2656
   6.700   0.8336   0.02204   0.01267  -0.0171  0.0662  1.0000  -3.1143   0.0000   0.0000   0.0000   0.2634
   6.800   0.8344   0.02252   0.01316  -0.0153  0.0634  1.0000  -3.1374   0.0000   0.0000   0.0000   0.2611
   6.900   0.8373   0.02287   0.01356  -0.0138  0.0607  1.0000  -3.1712   0.0000   0.0000   0.0000   0.2592
   7.000   0.8397   0.02324   0.01395  -0.0123  0.0580  1.0000  -3.2174   0.0000   0.0000   0.0000   0.2572
   7.100   0.8414   0.02364   0.01436  -0.0108  0.0556  1.0000  -3.2662   0.0000   0.0000   0.0000   0.2553
   7.200   0.8421   0.02410   0.01485  -0.0091  0.0537  1.0000  -3.3089   0.0000   0.0000   0.0000   0.2531
   7.300   0.8418   0.02467   0.01540  -0.0072  0.0522  1.0000  -3.3424   0.0000   0.0000   0.0000   0.2508
   7.400   0.8417   0.02535   0.01607  -0.0054  0.0510  1.0000  -3.3702   0.0000   0.0000   0.0000   0.2485
   7.500   0.8451   0.02588   0.01660  -0.0041  0.0502  1.0000  -3.4135   0.0000   0.0000   0.0000   0.2468
   7.600   0.8500   0.02631   0.01707  -0.0030  0.0495  1.0000  -3.4654   0.0000   0.0000   0.0000   0.2454
   7.700   0.8560   0.02680   0.01758  -0.0021  0.0487  1.0000  -3.5194   0.0000   0.0000   0.0000   0.2442
   7.800   0.8635   0.02734   0.01816  -0.0014  0.0478  1.0000  -3.5770   0.0000   0.0000   0.0000   0.2433
   7.900   0.8725   0.02794   0.01879  -0.0010  0.0470  1.0000  -3.6378   0.0000   0.0000   0.0000   0.2427
   8.000   0.8830   0.02860   0.01949  -0.0008  0.0462  1.0000  -3.7016   0.0000   0.0000   0.0000   0.2424
   8.100   0.8948   0.02932   0.02025  -0.0008  0.0455  1.0000  -3.7679   0.0000   0.0000   0.0000   0.2423
   8.200   0.9058   0.03001   0.02097  -0.0008  0.0445  1.0000  -3.8357   0.0000   0.0000   0.0000   0.2421
   8.300   0.9151   0.03064   0.02164  -0.0005  0.0434  1.0000  -3.9036   0.0000   0.0000   0.0000   0.2417
   8.400   0.9235   0.03126   0.02228  -0.0001  0.0421  1.0000  -3.9744   0.0000   0.0000   0.0000   0.2412
   8.500   0.9326   0.03199   0.02301   0.0001  0.0408  1.0000  -4.0495   0.0000   0.0000   0.0000   0.2409
   8.600   0.9449   0.03304   0.02408  -0.0003  0.0397  1.0000  -4.1244   0.0000   0.0000   0.0000   0.2412
   8.700   0.9578   0.03421   0.02532  -0.0006  0.0394  1.0000  -4.1827   0.0000   0.0000   0.0000   0.2414
   8.800   0.9689   0.03536   0.02657  -0.0006  0.0392  1.0000  -4.2311   0.0000   0.0000   0.0000   0.2413
   8.900   0.9782   0.03645   0.02777  -0.0002  0.0391  1.0000  -4.2721   0.0000   0.0000   0.0000   0.2408
   9.000   0.9861   0.03748   0.02895   0.0003  0.0391  1.0000  -4.3078   0.0000   0.0000   0.0000   0.2402
   9.100   0.9929   0.03844   0.03004   0.0011  0.0392  1.0000  -4.3384   0.0000   0.0000   0.0000   0.2393
   9.200   0.9986   0.03935   0.03109   0.0021  0.0395  1.0000  -4.3630   0.0000   0.0000   0.0000   0.2382
   9.300   1.0035   0.04025   0.03215   0.0032  0.0398  1.0000  -4.3793   0.0000   0.0000   0.0000   0.2370
   9.400   1.0075   0.04122   0.03331   0.0045  0.0403  1.0000  -4.3829   0.0000   0.0000   0.0000   0.2356
   9.500   1.0114   0.04241   0.03471   0.0059  0.0412  1.0000  -4.3691   0.0000   0.0000   0.0000   0.2341
   9.600   1.0103   0.04369   0.03626   0.0080  0.0422  1.0000  -4.3284   0.0000   0.0000   0.0000   0.2320
   9.700   1.0091   0.04510   0.03791   0.0099  0.0433  1.0000  -4.2898   0.0000   0.0000   0.0000   0.2299
   9.800   1.0079   0.04658   0.03959   0.0118  0.0444  1.0000  -4.2578   0.0000   0.0000   0.0000   0.2280
   9.900   1.0069   0.04810   0.04127   0.0135  0.0455  1.0000  -4.2325   0.0000   0.0000   0.0000   0.2262
  10.000   1.0056   0.04963   0.04294   0.0151  0.0465  1.0000  -4.2254   0.0000   0.0000   0.0000   0.2244
  10.100   1.0040   0.05123   0.04465   0.0166  0.0474  1.0000  -4.2210   0.0000   0.0000   0.0000   0.2228
  10.200   1.0025   0.05304   0.04656   0.0180  0.0484  1.0000  -4.2173   0.0000   0.0000   0.0000   0.2213
  10.400   0.9877   0.05622   0.05036   0.0240  0.0575  1.0000  -4.0107   0.0000   0.0000   0.0000   0.2147
  10.500   0.9816   0.05840   0.05267   0.0258  0.0602  1.0000  -3.9621   0.0000   0.0000   0.0000   0.2126
  10.600   0.8807   0.03753   0.03175   0.0349  0.0479  1.0000  -3.8977   0.0000   0.0000   0.0000   0.2001
  10.700   0.8747   0.03906   0.03334   0.0365  0.0484  1.0000  -3.8878   0.0000   0.0000   0.0000   0.1979
  10.800   0.8692   0.04085   0.03519   0.0379  0.0490  1.0000  -3.8769   0.0000   0.0000   0.0000   0.1959
  10.900   0.8761   0.04170   0.03621   0.0390  0.0533  1.0000  -3.8715   0.0000   0.0000   0.0000   0.1949
  11.000   0.8613   0.04265   0.03728   0.0415  0.0537  1.0000  -3.8224   0.0000   0.0000   0.0000   0.1911
  11.100   0.8466   0.04381   0.03855   0.0436  0.0542  1.0000  -3.7712   0.0000   0.0000   0.0000   0.1876
  11.200   0.8323   0.04513   0.03998   0.0454  0.0546  1.0000  -3.7213   0.0000   0.0000   0.0000   0.1844
  11.300   0.8186   0.04659   0.04153   0.0470  0.0550  1.0000  -3.6742   0.0000   0.0000   0.0000   0.1814
  11.400   0.8055   0.04813   0.04316   0.0483  0.0554  1.0000  -3.6307   0.0000   0.0000   0.0000   0.1787
  11.500   0.7928   0.04975   0.04487   0.0495  0.0557  1.0000  -3.5894   0.0000   0.0000   0.0000   0.1762
  11.600   0.7803   0.05143   0.04662   0.0504  0.0559  1.0000  -3.5503   0.0000   0.0000   0.0000   0.1739
  11.700   0.7681   0.05317   0.04843   0.0512  0.0561  1.0000  -3.5127   0.0000   0.0000   0.0000   0.1717
  11.800   0.7560   0.05494   0.05025   0.0518  0.0562  1.0000  -3.4769   0.0000   0.0000   0.0000   0.1697
  11.900   0.7440   0.05675   0.05213   0.0522  0.0562  1.0000  -3.4417   0.0000   0.0000   0.0000   0.1679
  12.000   0.7321   0.05861   0.05404   0.0525  0.0562  1.0000  -3.4070   0.0000   0.0000   0.0000   0.1662
  12.100   0.7202   0.06049   0.05597   0.0526  0.0560  1.0000  -3.3726   0.0000   0.0000   0.0000   0.1647
  12.200   0.7083   0.06243   0.05795   0.0526  0.0559  1.0000  -3.3401   0.0000   0.0000   0.0000   0.1633
  12.300   0.6965   0.06440   0.05997   0.0525  0.0557  1.0000  -3.3086   0.0000   0.0000   0.0000   0.1621
  12.400   0.6848   0.06639   0.06200   0.0522  0.0555  1.0000  -3.2767   0.0000   0.0000   0.0000   0.1611
  12.500   0.6730   0.06843   0.06408   0.0518  0.0553  1.0000  -3.2432   0.0000   0.0000   0.0000   0.1602
  12.600   0.6612   0.07049   0.06618   0.0513  0.0550  1.0000  -3.2082   0.0000   0.0000   0.0000   0.1595
  12.700   0.6494   0.07258   0.06826   0.0507  0.0548  1.0000  -3.1710   0.0000   0.0000   0.0000   0.1590
  12.800   0.6373   0.07462   0.07033   0.0500  0.0545  1.0000  -3.1317   0.0000   0.0000   0.0000   0.1586
  12.900   0.6248   0.07640   0.07215   0.0493  0.0542  1.0000  -3.0924   0.0000   0.0000   0.0000   0.1581
  13.000   0.6120   0.07837   0.07415   0.0484  0.0540  1.0000  -3.0445   0.0000   0.0000   0.0000   0.1579
  13.100   0.5984   0.08070   0.07650   0.0470  0.0539  1.0000  -2.9838   0.0000   0.0000   0.0000   0.1583
  13.200   0.5836   0.08349   0.07932   0.0453  0.0538  1.0000  -2.9042   0.0000   0.0000   0.0000   0.1594
  13.300   0.5650   0.08724   0.08310   0.0426  0.0539  1.0000  -2.7826   0.0000   0.0000   0.0000   0.1616
  13.400   0.5188   0.09828   0.09412   0.0348  0.0573  1.0000  -2.3173   0.0000   0.0000   0.0000   0.1706
  13.500   0.5090   0.10156   0.09738   0.0332  0.0596  1.0000  -2.2082   0.0000   0.0000   0.0000   0.1725
  13.600   0.5066   0.10335   0.09916   0.0328  0.0614  1.0000  -2.1763   0.0000   0.0000   0.0000   0.1730
  13.700   0.5149   0.10324   0.09907   0.0345  0.0635  1.0000  -2.2526   0.0000   0.0000   0.0000   0.1706
  13.800   0.4581   0.11901   0.11474   0.0234  0.1136  1.0000  -1.4785   0.0000   0.0000   0.0000   0.1882
  13.900   0.4644   0.11977   0.11551   0.0239  0.1117  1.0000  -1.5141   0.0000   0.0000   0.0000   0.1876
  14.000   0.4699   0.12081   0.11656   0.0243  0.1107  1.0000  -1.5404   0.0000   0.0000   0.0000   0.1872
  14.100   0.4750   0.12204   0.11780   0.0246  0.1101  1.0000  -1.5617   0.0000   0.0000   0.0000   0.1870
  14.200   0.4834   0.12344   0.11924   0.0254  0.1094  1.0000  -1.6006   0.0000   0.0000   0.0000   0.1862
  14.300   0.5028   0.12638   0.12220   0.0274  0.1084  1.0000  -1.6917   0.0000   0.0000   0.0000   0.1840
  14.400   0.4904   0.12746   0.12325   0.0256  0.1081  1.0000  -1.6159   0.0000   0.0000   0.0000   0.1865
  14.500   0.4672   0.12800   0.12374   0.0223  0.1071  1.0000  -1.4805   0.0000   0.0000   0.0000   0.1910
  14.600   0.4521   0.12865   0.12435   0.0201  0.1039  1.0000  -1.3905   0.0000   0.0000   0.0000   0.1944
  14.700   0.4502   0.12969   0.12538   0.0195  0.1020  1.0000  -1.3729   0.0000   0.0000   0.0000   0.1955
  14.800   0.4503   0.13073   0.12642   0.0191  0.1004  1.0000  -1.3663   0.0000   0.0000   0.0000   0.1963
  14.900   0.4517   0.13177   0.12746   0.0189  0.0990  1.0000  -1.3671   0.0000   0.0000   0.0000   0.1969
  15.000   0.4543   0.13280   0.12852   0.0188  0.0977  1.0000  -1.3754   0.0000   0.0000   0.0000   0.1973
  15.100   0.4587   0.13388   0.12961   0.0189  0.0966  1.0000  -1.3944   0.0000   0.0000   0.0000   0.1973
  15.200   0.4663   0.13510   0.13085   0.0194  0.0955  1.0000  -1.4314   0.0000   0.0000   0.0000   0.1967
  15.300   0.4796   0.13678   0.13255   0.0207  0.0944  1.0000  -1.5021   0.0000   0.0000   0.0000   0.1950
  15.400   0.4928   0.14009   0.13587   0.0220  0.0934  1.0000  -1.5619   0.0000   0.0000   0.0000   0.1934
  15.500   0.4850   0.14088   0.13664   0.0204  0.0931  1.0000  -1.5036   0.0000   0.0000   0.0000   0.1958
  15.600   0.4740   0.14135   0.13708   0.0185  0.0927  1.0000  -1.4268   0.0000   0.0000   0.0000   0.1990
  15.700   0.4601   0.14143   0.13714   0.0163  0.0914  1.0000  -1.3350   0.0000   0.0000   0.0000   0.2028
  15.800   0.4543   0.14213   0.13783   0.0150  0.0893  1.0000  -1.2891   0.0000   0.0000   0.0000   0.2051
  15.900   0.4535   0.14313   0.13882   0.0143  0.0875  1.0000  -1.2727   0.0000   0.0000   0.0000   0.2065
  16.000   0.4542   0.14415   0.13985   0.0139  0.0859  1.0000  -1.2662   0.0000   0.0000   0.0000   0.2074
  16.100   0.4558   0.14517   0.14087   0.0136  0.0845  1.0000  -1.2665   0.0000   0.0000   0.0000   0.2082
  16.200   0.4584   0.14619   0.14190   0.0134  0.0832  1.0000  -1.2792   0.0000   0.0000   0.0000   0.2086
  16.300   0.4624   0.14726   0.14297   0.0134  0.0820  1.0000  -1.3071   0.0000   0.0000   0.0000   0.2087
  16.400   0.4692   0.14854   0.14427   0.0138  0.0808  1.0000  -1.3562   0.0000   0.0000   0.0000   0.2082
  16.500   0.4868   0.15118   0.14694   0.0155  0.0795  1.0000  -1.4829   0.0000   0.0000   0.0000   0.2055
  16.600   0.4943   0.15455   0.15030   0.0159  0.0787  1.0000  -1.5225   0.0000   0.0000   0.0000   0.2050
  16.700   0.4895   0.15519   0.15094   0.0147  0.0785  1.0000  -1.4752   0.0000   0.0000   0.0000   0.2073
  16.800   0.4834   0.15562   0.15135   0.0132  0.0782  1.0000  -1.4188   0.0000   0.0000   0.0000   0.2098
  16.900   0.4757   0.15576   0.15147   0.0117  0.0778  1.0000  -1.3537   0.0000   0.0000   0.0000   0.2127
  17.000   0.4683   0.15592   0.15162   0.0101  0.0768  1.0000  -1.2886   0.0000   0.0000   0.0000   0.2157
  17.100   0.4653   0.15665   0.15235   0.0090  0.0751  1.0000  -1.2522   0.0000   0.0000   0.0000   0.2180
  17.200   0.4651   0.15765   0.15334   0.0083  0.0734  1.0000  -1.2401   0.0000   0.0000   0.0000   0.2194
  17.300   0.4661   0.15868   0.15437   0.0078  0.0718  1.0000  -1.2391   0.0000   0.0000   0.0000   0.2205
  17.400   0.4680   0.15968   0.15539   0.0074  0.0702  1.0000  -1.2475   0.0000   0.0000   0.0000   0.2213
  17.500   0.4711   0.16067   0.15638   0.0072  0.0686  1.0000  -1.2692   0.0000   0.0000   0.0000   0.2216
  17.600   0.4774   0.16177   0.15749   0.0076  0.0668  1.0000  -1.3240   0.0000   0.0000   0.0000   0.2209
  17.700   0.6906   0.20415   0.19924  -0.0102  0.0563  1.0000  -1.8923   0.0000   0.0000   0.0000   0.2436
  17.800   0.6932   0.20546   0.20055  -0.0107  0.0554  1.0000  -1.9038   0.0000   0.0000   0.0000   0.2440
  17.900   0.6963   0.20673   0.20182  -0.0110  0.0545  1.0000  -1.9212   0.0000   0.0000   0.0000   0.2442
  18.000   0.6998   0.20799   0.20309  -0.0112  0.0537  1.0000  -1.9466   0.0000   0.0000   0.0000   0.2443
  18.100   0.7043   0.20929   0.20440  -0.0111  0.0530  1.0000  -1.9841   0.0000   0.0000   0.0000   0.2439
  18.200   0.7108   0.21084   0.20597  -0.0106  0.0522  1.0000  -2.0456   0.0000   0.0000   0.0000   0.2429
  18.300   0.7221   0.21351   0.20868  -0.0088  0.0513  1.0000  -2.1640   0.0000   0.0000   0.0000   0.2401
  18.400   0.7281   0.21807   0.21324  -0.0079  0.0506  1.0000  -2.2033   0.0000   0.0000   0.0000   0.2387
  18.500   0.7283   0.21944   0.21459  -0.0091  0.0505  1.0000  -2.1732   0.0000   0.0000   0.0000   0.2402
  18.600   0.7284   0.22071   0.21585  -0.0103  0.0505  1.0000  -2.1415   0.0000   0.0000   0.0000   0.2417
  18.700   0.7285   0.22187   0.21700  -0.0115  0.0504  1.0000  -2.1078   0.0000   0.0000   0.0000   0.2432
  18.800   0.7281   0.22289   0.21800  -0.0129  0.0502  1.0000  -2.0692   0.0000   0.0000   0.0000   0.2450
  18.900   0.7270   0.22368   0.21878  -0.0145  0.0500  1.0000  -2.0229   0.0000   0.0000   0.0000   0.2469
  19.000   0.7249   0.22419   0.21927  -0.0162  0.0497  1.0000  -1.9690   0.0000   0.0000   0.0000   0.2491
  19.100   0.7234   0.22484   0.21990  -0.0180  0.0491  1.0000  -1.9149   0.0000   0.0000   0.0000   0.2514
  19.200   0.7236   0.22587   0.22092  -0.0195  0.0483  1.0000  -1.8747   0.0000   0.0000   0.0000   0.2532
  19.300   0.7250   0.22714   0.22218  -0.0206  0.0474  1.0000  -1.8517   0.0000   0.0000   0.0000   0.2545
  19.400   0.7269   0.22848   0.22352  -0.0214  0.0465  1.0000  -1.8383   0.0000   0.0000   0.0000   0.2555
  19.500   0.7291   0.22981   0.22484  -0.0222  0.0457  1.0000  -1.8299   0.0000   0.0000   0.0000   0.2563
  19.600   0.7315   0.23116   0.22619  -0.0230  0.0449  1.0000  -1.8249   0.0000   0.0000   0.0000   0.2570
  19.700   0.7339   0.23248   0.22752  -0.0237  0.0442  1.0000  -1.8224   0.0000   0.0000   0.0000   0.2577
  19.800   0.7365   0.23379   0.22883  -0.0243  0.0435  1.0000  -1.8222   0.0000   0.0000   0.0000   0.2583
  19.900   0.7392   0.23509   0.23012  -0.0249  0.0428  1.0000  -1.8244   0.0000   0.0000   0.0000   0.2588
  20.000   0.7419   0.23636   0.23140  -0.0255  0.0422  1.0000  -1.8292   0.0000   0.0000   0.0000   0.2593
  20.100   0.7448   0.23762   0.23266  -0.0260  0.0416  1.0000  -1.8370   0.0000   0.0000   0.0000   0.2597
  20.200   0.7479   0.23891   0.23395  -0.0265  0.0410  1.0000  -1.8487   0.0000   0.0000   0.0000   0.2600
  20.300   0.7512   0.24017   0.23522  -0.0269  0.0403  1.0000  -1.8676   0.0000   0.0000   0.0000   0.2602
  20.400   0.7551   0.24150   0.23656  -0.0270  0.0397  1.0000  -1.8980   0.0000   0.0000   0.0000   0.2600
  20.500   0.7603   0.24318   0.23825  -0.0267  0.0390  1.0000  -1.9532   0.0000   0.0000   0.0000   0.2592
  20.600   0.7745   0.25157   0.24668  -0.0235  0.0377  1.0000  -2.1200   0.0000   0.0000   0.0000   0.2546
  20.700   0.7759   0.25261   0.24774  -0.0246  0.0376  1.0000  -2.1042   0.0000   0.0000   0.0000   0.2557
  20.800   0.7769   0.25348   0.24861  -0.0257  0.0376  1.0000  -2.0829   0.0000   0.0000   0.0000   0.2570
  20.900   0.7777   0.25425   0.24937  -0.0269  0.0375  1.0000  -2.0604   0.0000   0.0000   0.0000   0.2582
  21.000   0.7784   0.25487   0.24997  -0.0282  0.0374  1.0000  -2.0348   0.0000   0.0000   0.0000   0.2596
  21.100   0.7784   0.25523   0.25033  -0.0296  0.0373  1.0000  -2.0029   0.0000   0.0000   0.0000   0.2612
  21.200   0.7782   0.25548   0.25056  -0.0311  0.0371  1.0000  -1.9666   0.0000   0.0000   0.0000   0.2629
  21.300   0.7783   0.25579   0.25085  -0.0327  0.0369  1.0000  -1.9280   0.0000   0.0000   0.0000   0.2647
  21.400   0.7790   0.25630   0.25135  -0.0343  0.0365  1.0000  -1.8903   0.0000   0.0000   0.0000   0.2664
  21.500   0.7806   0.25716   0.25221  -0.0356  0.0359  1.0000  -1.8617   0.0000   0.0000   0.0000   0.2679
  21.600   0.7827   0.25830   0.25334  -0.0368  0.0353  1.0000  -1.8449   0.0000   0.0000   0.0000   0.2690
  21.700   0.7852   0.25955   0.25458  -0.0377  0.0347  1.0000  -1.8366   0.0000   0.0000   0.0000   0.2699
  21.800   0.7878   0.26084   0.25587  -0.0386  0.0341  1.0000  -1.8333   0.0000   0.0000   0.0000   0.2706
  21.900   0.7904   0.26210   0.25714  -0.0394  0.0336  1.0000  -1.8330   0.0000   0.0000   0.0000   0.2713
  22.000   0.7931   0.26341   0.25844  -0.0402  0.0331  1.0000  -1.8349   0.0000   0.0000   0.0000   0.2720
  22.100   0.7958   0.26470   0.25974  -0.0410  0.0326  1.0000  -1.8383   0.0000   0.0000   0.0000   0.2726
  22.200   0.7985   0.26598   0.26102  -0.0417  0.0321  1.0000  -1.8431   0.0000   0.0000   0.0000   0.2732
  22.300   0.8013   0.26725   0.26229  -0.0425  0.0316  1.0000  -1.8492   0.0000   0.0000   0.0000   0.2737
  22.400   0.8041   0.26851   0.26356  -0.0432  0.0312  1.0000  -1.8565   0.0000   0.0000   0.0000   0.2742
  22.500   0.8069   0.26976   0.26481  -0.0439  0.0307  1.0000  -1.8651   0.0000   0.0000   0.0000   0.2747
  22.600   0.8097   0.27100   0.26605  -0.0446  0.0303  1.0000  -1.8751   0.0000   0.0000   0.0000   0.2752
  22.700   0.8126   0.27223   0.26728  -0.0453  0.0299  1.0000  -1.8866   0.0000   0.0000   0.0000   0.2757
  22.800   0.8155   0.27346   0.26851  -0.0460  0.0295  1.0000  -1.8998   0.0000   0.0000   0.0000   0.2761
  22.900   0.8184   0.27468   0.26974  -0.0466  0.0292  1.0000  -1.9151   0.0000   0.0000   0.0000   0.2764
  23.000   0.8213   0.27595   0.27101  -0.0472  0.0288  1.0000  -1.9327   0.0000   0.0000   0.0000   0.2768
  23.100   0.8244   0.27720   0.27227  -0.0478  0.0285  1.0000  -1.9532   0.0000   0.0000   0.0000   0.2770
  23.200   0.8275   0.27850   0.27358  -0.0483  0.0282  1.0000  -1.9774   0.0000   0.0000   0.0000   0.2772
  23.300   0.8308   0.27990   0.27498  -0.0487  0.0279  1.0000  -2.0065   0.0000   0.0000   0.0000   0.2773
  23.400   0.8343   0.28148   0.27657  -0.0490  0.0276  1.0000  -2.0426   0.0000   0.0000   0.0000   0.2772
  23.500   0.8384   0.28353   0.27864  -0.0490  0.0273  1.0000  -2.0904   0.0000   0.0000   0.0000   0.2768
  23.600   0.8447   0.28747   0.28260  -0.0483  0.0269  1.0000  -2.1707   0.0000   0.0000   0.0000   0.2754
  23.700   0.8523   0.29564   0.29076  -0.0473  0.0264  1.0000  -2.2291   0.0000   0.0000   0.0000   0.2737
  23.800   0.8543   0.29655   0.29168  -0.0483  0.0264  1.0000  -2.2161   0.0000   0.0000   0.0000   0.2746
  23.900   0.8562   0.29741   0.29253  -0.0493  0.0264  1.0000  -2.2019   0.0000   0.0000   0.0000   0.2754
  24.000   0.8581   0.29819   0.29331  -0.0504  0.0264  1.0000  -2.1871   0.0000   0.0000   0.0000   0.2763
  24.100   0.8600   0.29889   0.29401  -0.0514  0.0263  1.0000  -2.1715   0.0000   0.0000   0.0000   0.2771
  24.200   0.8616   0.29942   0.29453  -0.0526  0.0263  1.0000  -2.1525   0.0000   0.0000   0.0000   0.2781
  24.300   0.8630   0.29981   0.29492  -0.0538  0.0263  1.0000  -2.1309   0.0000   0.0000   0.0000   0.2791
  24.400   0.8645   0.30018   0.29528  -0.0550  0.0262  1.0000  -2.1086   0.0000   0.0000   0.0000   0.2802
  24.500   0.8661   0.30052   0.29561  -0.0562  0.0262  1.0000  -2.0852   0.0000   0.0000   0.0000   0.2812
  24.600   0.8677   0.30084   0.29593  -0.0575  0.0261  1.0000  -2.0606   0.0000   0.0000   0.0000   0.2823
  24.700   0.8694   0.30117   0.29625  -0.0588  0.0260  1.0000  -2.0345   0.0000   0.0000   0.0000   0.2834
  24.800   0.8712   0.30152   0.29660  -0.0601  0.0259  1.0000  -2.0069   0.0000   0.0000   0.0000   0.2845
  24.900   0.8733   0.30197   0.29704  -0.0615  0.0257  1.0000  -1.9782   0.0000   0.0000   0.0000   0.2856
  25.000   0.8756   0.30256   0.29762  -0.0628  0.0255  1.0000  -1.9507   0.0000   0.0000   0.0000   0.2867
  25.100   0.8781   0.30341   0.29848  -0.0640  0.0252  1.0000  -1.9267   0.0000   0.0000   0.0000   0.2876
  25.200   0.8808   0.30442   0.29949  -0.0651  0.0248  1.0000  -1.9080   0.0000   0.0000   0.0000   0.2884
  25.300   0.8836   0.30554   0.30061  -0.0661  0.0245  1.0000  -1.8941   0.0000   0.0000   0.0000   0.2891
  25.400   0.8864   0.30671   0.30178  -0.0670  0.0241  1.0000  -1.8838   0.0000   0.0000   0.0000   0.2897
  25.500   0.8892   0.30791   0.30298  -0.0679  0.0238  1.0000  -1.8759   0.0000   0.0000   0.0000   0.2903


