xflr5 v6.61

 Calculated polar for: MH 18

 1 1 Reynolds number fixed          Mach number fixed         

 xtrf =   1.000 (top)        1.000 (bottom)
 Mach =   0.000     Re =     0.400 e 6     Ncrit =   9.000

  alpha     CL        CD       CDp       Cm    Top Xtr Bot Xtr   Cpmin    Chinge    XCp    
 ------- -------- --------- --------- -------- ------- ------- -------- --------- ---------
 -10.000  -0.4195   0.10786   0.10552  -0.0130  0.8893  0.0151  -2.1366   0.0000   0.0000   0.0000   0.2105
  -9.900  -0.4191   0.10636   0.10399  -0.0134  0.8852  0.0151  -2.1559   0.0000   0.0000   0.0000   0.2095
  -9.700  -0.4175   0.10319   0.10081  -0.0147  0.8783  0.0151  -2.1967   0.0000   0.0000   0.0000   0.2064
  -9.600  -0.4166   0.10153   0.09916  -0.0155  0.8757  0.0151  -2.2182   0.0000   0.0000   0.0000   0.2045
  -9.500  -0.4158   0.09988   0.09751  -0.0163  0.8729  0.0151  -2.2404   0.0000   0.0000   0.0000   0.2027
  -9.400  -0.4151   0.09823   0.09586  -0.0171  0.8698  0.0151  -2.2632   0.0000   0.0000   0.0000   0.2008
  -9.300  -0.4170   0.09594   0.09361  -0.0181  0.8668  0.0152  -2.3291   0.0000   0.0000   0.0000   0.1986
  -9.200  -0.4234   0.09263   0.09030  -0.0196  0.8638  0.0154  -2.4670   0.0000   0.0000   0.0000   0.1959
  -9.100  -0.4273   0.09006   0.08773  -0.0208  0.8606  0.0155  -2.5546   0.0000   0.0000   0.0000   0.1936
  -9.000  -0.4303   0.08780   0.08546  -0.0219  0.8573  0.0156  -2.6216   0.0000   0.0000   0.0000   0.1916
  -8.900  -0.4328   0.08569   0.08335  -0.0229  0.8539  0.0156  -2.6786   0.0000   0.0000   0.0000   0.1896
  -8.800  -0.4351   0.08367   0.08132  -0.0240  0.8503  0.0157  -2.7298   0.0000   0.0000   0.0000   0.1876
  -8.700  -0.4373   0.08169   0.07933  -0.0251  0.8463  0.0157  -2.7778   0.0000   0.0000   0.0000   0.1855
  -8.600  -0.4391   0.07968   0.07731  -0.0264  0.8421  0.0158  -2.8247   0.0000   0.0000   0.0000   0.1828
  -8.500  -0.4408   0.07757   0.07521  -0.0280  0.8401  0.0158  -2.8712   0.0000   0.0000   0.0000   0.1796
  -8.400  -0.4426   0.07546   0.07311  -0.0298  0.8378  0.0158  -2.9165   0.0000   0.0000   0.0000   0.1759
  -8.300  -0.4446   0.07331   0.07097  -0.0320  0.8349  0.0158  -2.9610   0.0000   0.0000   0.0000   0.1715
  -8.200  -0.4467   0.07115   0.06880  -0.0342  0.8318  0.0157  -3.0056   0.0000   0.0000   0.0000   0.1670
  -8.100  -0.4491   0.06908   0.06671  -0.0356  0.8286  0.0157  -3.0524   0.0000   0.0000   0.0000   0.1644
  -8.000  -0.4517   0.06712   0.06472  -0.0365  0.8256  0.0157  -3.0996   0.0000   0.0000   0.0000   0.1629
  -7.900  -0.4540   0.06517   0.06273  -0.0373  0.8227  0.0157  -3.1482   0.0000   0.0000   0.0000   0.1618
  -7.800  -0.4554   0.06306   0.06057  -0.0381  0.8199  0.0157  -3.1999   0.0000   0.0000   0.0000   0.1602
  -7.700  -0.4565   0.06103   0.05848  -0.0387  0.8172  0.0157  -3.2486   0.0000   0.0000   0.0000   0.1592
  -7.600  -0.4572   0.05912   0.05649  -0.0392  0.8145  0.0157  -3.2919   0.0000   0.0000   0.0000   0.1584
  -7.500  -0.4573   0.05733   0.05464  -0.0394  0.8117  0.0157  -3.3273   0.0000   0.0000   0.0000   0.1579
  -7.400  -0.4565   0.05571   0.05294  -0.0396  0.8088  0.0156  -3.3524   0.0000   0.0000   0.0000   0.1575
  -7.300  -0.4545   0.05428   0.05143  -0.0396  0.8056  0.0156  -3.3641   0.0000   0.0000   0.0000   0.1570
  -7.200  -0.4511   0.05309   0.05017  -0.0397  0.8021  0.0155  -3.3587   0.0000   0.0000   0.0000   0.1563
  -7.100  -0.4460   0.05215   0.04918  -0.0396  0.8004  0.0154  -3.3311   0.0000   0.0000   0.0000   0.1554
  -6.700  -0.4491   0.04276   0.03945  -0.0391  0.7950  0.0136  -3.6161   0.0000   0.0000   0.0000   0.1573
  -6.600  -0.4494   0.04020   0.03674  -0.0387  0.7933  0.0132  -3.7212   0.0000   0.0000   0.0000   0.1583
  -6.500  -0.4480   0.03791   0.03428  -0.0382  0.7916  0.0129  -3.8104   0.0000   0.0000   0.0000   0.1592
  -6.400  -0.4455   0.03578   0.03199  -0.0376  0.7898  0.0126  -3.8907   0.0000   0.0000   0.0000   0.1601
  -6.300  -0.4423   0.03382   0.02985  -0.0369  0.7880  0.0123  -3.9613   0.0000   0.0000   0.0000   0.1610
  -6.200  -0.4382   0.03199   0.02784  -0.0362  0.7862  0.0121  -4.0246   0.0000   0.0000   0.0000   0.1618
  -6.100  -0.4335   0.03028   0.02595  -0.0354  0.7843  0.0119  -4.0805   0.0000   0.0000   0.0000   0.1627
  -6.000  -0.4281   0.02869   0.02418  -0.0347  0.7823  0.0118  -4.1277   0.0000   0.0000   0.0000   0.1634
  -5.900  -0.4222   0.02722   0.02253  -0.0339  0.7804  0.0116  -4.1646   0.0000   0.0000   0.0000   0.1641
  -5.800  -0.4157   0.02587   0.02100  -0.0331  0.7784  0.0115  -4.1909   0.0000   0.0000   0.0000   0.1646
  -5.700  -0.4087   0.02463   0.01958  -0.0324  0.7765  0.0115  -4.2068   0.0000   0.0000   0.0000   0.1650
  -5.600  -0.4011   0.02354   0.01833  -0.0318  0.7745  0.0115  -4.2041   0.0000   0.0000   0.0000   0.1652
  -5.500  -0.3928   0.02270   0.01735  -0.0312  0.7725  0.0117  -4.1692   0.0000   0.0000   0.0000   0.1649
  -5.400  -0.3840   0.02198   0.01650  -0.0308  0.7705  0.0120  -4.1179   0.0000   0.0000   0.0000   0.1643
  -5.300  -0.3750   0.02131   0.01571  -0.0303  0.7686  0.0123  -4.0617   0.0000   0.0000   0.0000   0.1635
  -5.200  -0.3658   0.02063   0.01492  -0.0299  0.7665  0.0126  -4.0081   0.0000   0.0000   0.0000   0.1626
  -5.100  -0.3565   0.01992   0.01396  -0.0295  0.7643  0.0128  -3.9615   0.0000   0.0000   0.0000   0.1616
  -5.000  -0.3471   0.01917   0.01310  -0.0291  0.7619  0.0129  -3.9225   0.0000   0.0000   0.0000   0.1606
  -4.900  -0.3376   0.01843   0.01223  -0.0287  0.7593  0.0129  -3.8872   0.0000   0.0000   0.0000   0.1593
  -4.800  -0.3278   0.01774   0.01143  -0.0283  0.7574  0.0130  -3.8454   0.0000   0.0000   0.0000   0.1578
  -4.700  -0.3178   0.01706   0.01065  -0.0280  0.7567  0.0131  -3.7968   0.0000   0.0000   0.0000   0.1561
  -4.600  -0.3078   0.01644   0.00994  -0.0277  0.7560  0.0133  -3.7420   0.0000   0.0000   0.0000   0.1543
  -4.500  -0.2977   0.01588   0.00930  -0.0273  0.7552  0.0135  -3.6810   0.0000   0.0000   0.0000   0.1523
  -4.400  -0.2876   0.01539   0.00874  -0.0270  0.7544  0.0138  -3.6135   0.0000   0.0000   0.0000   0.1500
  -4.300  -0.2774   0.01496   0.00825  -0.0268  0.7534  0.0141  -3.5388   0.0000   0.0000   0.0000   0.1476
  -4.200  -0.2672   0.01460   0.00784  -0.0265  0.7524  0.0144  -3.4554   0.0000   0.0000   0.0000   0.1447
  -4.100  -0.2567   0.01432   0.00751  -0.0263  0.7514  0.0147  -3.3615   0.0000   0.0000   0.0000   0.1415
  -4.000  -0.2461   0.01411   0.00727  -0.0261  0.7502  0.0150  -3.2566   0.0000   0.0000   0.0000   0.1376
  -3.900  -0.2382   0.01328   0.00632  -0.0254  0.7491  0.0162  -3.2557   0.0000   0.0000   0.0000   0.1373
  -3.800  -0.2300   0.01258   0.00552  -0.0246  0.7479  0.0205  -3.2571   0.0000   0.0000   0.0000   0.1367
  -3.700  -0.2199   0.01233   0.00530  -0.0244  0.7466  0.0254  -3.1668   0.0000   0.0000   0.0000   0.1327
  -3.600  -0.2092   0.01219   0.00512  -0.0243  0.7454  0.0301  -3.0690   0.0000   0.0000   0.0000   0.1276
  -3.500  -0.2002   0.01170   0.00469  -0.0237  0.7441  0.0508  -3.0277   0.0000   0.0000   0.0000   0.1249
  -3.400  -0.1906   0.01143   0.00453  -0.0235  0.7428  0.0707  -2.9328   0.0000   0.0000   0.0000   0.1199
  -3.300  -0.1801   0.01130   0.00443  -0.0234  0.7415  0.0848  -2.8199   0.0000   0.0000   0.0000   0.1130
  -3.200  -0.1700   0.01111   0.00435  -0.0233  0.7402  0.1028  -2.7066   0.0000   0.0000   0.0000   0.1059
  -3.100  -0.1598   0.01095   0.00425  -0.0232  0.7388  0.1211  -2.5945   0.0000   0.0000   0.0000   0.0977
  -3.000  -0.1495   0.01080   0.00416  -0.0231  0.7373  0.1373  -2.4818   0.0000   0.0000   0.0000   0.0884
  -2.900  -0.1393   0.01066   0.00406  -0.0229  0.7358  0.1562  -2.3701   0.0000   0.0000   0.0000   0.0779
  -2.800  -0.1291   0.01051   0.00397  -0.0228  0.7342  0.1748  -2.2586   0.0000   0.0000   0.0000   0.0658
  -2.700  -0.1191   0.01035   0.00388  -0.0226  0.7326  0.1986  -2.1492   0.0000   0.0000   0.0000   0.0520
  -2.600  -0.1090   0.01021   0.00381  -0.0224  0.7311  0.2223  -2.0398   0.0000   0.0000   0.0000   0.0355
  -2.500  -0.0994   0.01000   0.00373  -0.0222  0.7295  0.2565  -1.9352   0.0000   0.0000   0.0000   0.0176
  -2.400  -0.0898   0.00983   0.00366  -0.0220  0.7281  0.2897  -1.8310   0.0000   0.0000   0.0000  -0.0046
  -2.300  -0.0799   0.00968   0.00360  -0.0218  0.7266  0.3228  -1.7276   0.0000   0.0000   0.0000  -0.0329
  -2.200  -0.0707   0.00949   0.00354  -0.0215  0.7251  0.3624  -1.6283   0.0000   0.0000   0.0000  -0.0654
  -2.100  -0.0618   0.00928   0.00349  -0.0211  0.7234  0.4099  -1.5325   0.0000   0.0000   0.0000  -0.1037
  -2.000  -0.0537   0.00905   0.00345  -0.0206  0.7215  0.4692  -1.4413   0.0000   0.0000   0.0000  -0.1469
  -1.900  -0.0466   0.00878   0.00344  -0.0198  0.7193  0.5385  -1.3564   0.0000   0.0000   0.0000  -0.1898
  -1.800  -0.0403   0.00852   0.00346  -0.0189  0.7167  0.6129  -1.2758   0.0000   0.0000   0.0000  -0.2342
  -1.700  -0.0336   0.00835   0.00353  -0.0180  0.7136  0.6834  -1.1948   0.0000   0.0000   0.0000  -0.3020
  -1.600  -0.0262   0.00814   0.00358  -0.0171  0.7118  0.7514  -1.1113   0.0000   0.0000   0.0000  -0.4236
  -1.500  -0.0138   0.00791   0.00358  -0.0171  0.7112  0.8209  -1.0078   0.0000   0.0000   0.0000  -1.0256
  -1.400   0.0248   0.00783   0.00361  -0.0226  0.7108  0.8928  -0.8035   0.0000   0.0000   0.0000   1.1827
  -1.300   0.0630   0.00792   0.00368  -0.0281  0.7102  0.9231  -0.6066   0.0000   0.0000   0.0000   0.7031
  -1.200   0.0840   0.00800   0.00373  -0.0300  0.7094  0.9347  -0.5564   0.0000   0.0000   0.0000   0.6116
  -1.100   0.0980   0.00806   0.00376  -0.0305  0.7084  0.9444  -0.5195   0.0000   0.0000   0.0000   0.5642
  -1.000   0.1095   0.00812   0.00379  -0.0304  0.7073  0.9529  -0.4888   0.0000   0.0000   0.0000   0.5304
  -0.900   0.1293   0.00818   0.00381  -0.0321  0.7061  0.9594  -0.5005   0.0000   0.0000   0.0000   0.5004
  -0.800   0.1454   0.00825   0.00385  -0.0331  0.7049  0.9663  -0.5104   0.0000   0.0000   0.0000   0.4789
  -0.700   0.1581   0.00833   0.00390  -0.0333  0.7037  0.9720  -0.5186   0.0000   0.0000   0.0000   0.4619
  -0.600   0.1772   0.00834   0.00386  -0.0350  0.7024  0.9747  -0.5300   0.0000   0.0000   0.0000   0.4483
  -0.500   0.1965   0.00836   0.00385  -0.0367  0.7009  0.9783  -0.5415   0.0000   0.0000   0.0000   0.4372
  -0.400   0.2146   0.00840   0.00385  -0.0382  0.6993  0.9827  -0.5526   0.0000   0.0000   0.0000   0.4280
  -0.300   0.2303   0.00845   0.00387  -0.0391  0.6976  0.9867  -0.5635   0.0000   0.0000   0.0000   0.4197
  -0.200   0.2497   0.00841   0.00380  -0.0409  0.6959  0.9888  -0.5763   0.0000   0.0000   0.0000   0.4134
  -0.100   0.2685   0.00838   0.00375  -0.0425  0.6944  0.9913  -0.5888   0.0000   0.0000   0.0000   0.4080
   0.000   0.2875   0.00836   0.00370  -0.0443  0.6929  0.9942  -0.6015   0.0000   0.0000   0.0000   0.4033
   0.100   0.3060   0.00835   0.00365  -0.0459  0.6916  0.9969  -0.6139   0.0000   0.0000   0.0000   0.3991
   0.200   0.3247   0.00829   0.00357  -0.0475  0.6900  0.9991  -0.6265   0.0000   0.0000   0.0000   0.3955
   0.300   0.3385   0.00825   0.00351  -0.0482  0.6884  1.0000  -0.6366   0.0000   0.0000   0.0000   0.3913
   0.400   0.3485   0.00824   0.00347  -0.0480  0.6866  1.0000  -0.6447   0.0000   0.0000   0.0000   0.3866
   0.500   0.3585   0.00822   0.00343  -0.0478  0.6847  1.0000  -0.6533   0.0000   0.0000   0.0000   0.3822
   0.600   0.3685   0.00821   0.00339  -0.0476  0.6828  1.0000  -0.6625   0.0000   0.0000   0.0000   0.3779
   0.700   0.3786   0.00820   0.00336  -0.0475  0.6808  1.0000  -0.6717   0.0000   0.0000   0.0000   0.3739
   0.800   0.3886   0.00820   0.00333  -0.0473  0.6787  1.0000  -0.6810   0.0000   0.0000   0.0000   0.3701
   0.900   0.3988   0.00821   0.00332  -0.0472  0.6765  1.0000  -0.6903   0.0000   0.0000   0.0000   0.3666
   1.000   0.4091   0.00824   0.00333  -0.0470  0.6744  1.0000  -0.6996   0.0000   0.0000   0.0000   0.3633
   1.100   0.4194   0.00828   0.00335  -0.0470  0.6720  1.0000  -0.7089   0.0000   0.0000   0.0000   0.3601
   1.200   0.4298   0.00835   0.00341  -0.0469  0.6692  1.0000  -0.7182   0.0000   0.0000   0.0000   0.3572
   1.300   0.4403   0.00848   0.00352  -0.0469  0.6658  1.0000  -0.7276   0.0000   0.0000   0.0000   0.3546
   1.400   0.4507   0.00847   0.00352  -0.0468  0.6647  1.0000  -0.7371   0.0000   0.0000   0.0000   0.3518
   1.500   0.4611   0.00844   0.00349  -0.0467  0.6638  1.0000  -0.7467   0.0000   0.0000   0.0000   0.3491
   1.600   0.4714   0.00841   0.00346  -0.0466  0.6627  1.0000  -0.7571   0.0000   0.0000   0.0000   0.3466
   1.700   0.4818   0.00839   0.00344  -0.0465  0.6614  1.0000  -0.7680   0.0000   0.0000   0.0000   0.3441
   1.800   0.4923   0.00837   0.00342  -0.0464  0.6600  1.0000  -0.7790   0.0000   0.0000   0.0000   0.3418
   1.900   0.5027   0.00836   0.00341  -0.0463  0.6584  1.0000  -0.7900   0.0000   0.0000   0.0000   0.3395
   2.000   0.5132   0.00835   0.00341  -0.0462  0.6568  1.0000  -0.8010   0.0000   0.0000   0.0000   0.3374
   2.100   0.5236   0.00835   0.00341  -0.0461  0.6552  1.0000  -0.8120   0.0000   0.0000   0.0000   0.3353
   2.200   0.5341   0.00834   0.00341  -0.0460  0.6534  1.0000  -0.8231   0.0000   0.0000   0.0000   0.3334
   2.300   0.5446   0.00834   0.00341  -0.0459  0.6515  1.0000  -0.8342   0.0000   0.0000   0.0000   0.3314
   2.400   0.5550   0.00833   0.00340  -0.0458  0.6493  1.0000  -0.8453   0.0000   0.0000   0.0000   0.3296
   2.500   0.5654   0.00832   0.00339  -0.0457  0.6470  1.0000  -0.8576   0.0000   0.0000   0.0000   0.3277
   2.600   0.5758   0.00830   0.00337  -0.0455  0.6445  1.0000  -0.8704   0.0000   0.0000   0.0000   0.3259
   2.700   0.5861   0.00829   0.00336  -0.0454  0.6419  1.0000  -0.8832   0.0000   0.0000   0.0000   0.3242
   2.800   0.5965   0.00827   0.00334  -0.0452  0.6393  1.0000  -0.8961   0.0000   0.0000   0.0000   0.3225
   2.900   0.6068   0.00826   0.00331  -0.0451  0.6367  1.0000  -0.9090   0.0000   0.0000   0.0000   0.3208
   3.000   0.6172   0.00826   0.00330  -0.0449  0.6340  1.0000  -0.9219   0.0000   0.0000   0.0000   0.3193
   3.100   0.6275   0.00827   0.00330  -0.0448  0.6313  1.0000  -0.9360   0.0000   0.0000   0.0000   0.3178
   3.200   0.6379   0.00829   0.00331  -0.0446  0.6283  1.0000  -0.9509   0.0000   0.0000   0.0000   0.3163
   3.300   0.6483   0.00833   0.00334  -0.0445  0.6246  1.0000  -0.9659   0.0000   0.0000   0.0000   0.3149
   3.400   0.6587   0.00842   0.00341  -0.0444  0.6199  1.0000  -0.9809   0.0000   0.0000   0.0000   0.3136
   3.500   0.6692   0.00846   0.00346  -0.0443  0.6170  1.0000  -0.9960   0.0000   0.0000   0.0000   0.3123
   3.600   0.6797   0.00843   0.00345  -0.0442  0.6155  1.0000  -1.0137   0.0000   0.0000   0.0000   0.3111
   3.700   0.6902   0.00840   0.00347  -0.0441  0.6136  1.0000  -1.0317   0.0000   0.0000   0.0000   0.3098
   3.800   0.7008   0.00839   0.00347  -0.0440  0.6112  1.0000  -1.0497   0.0000   0.0000   0.0000   0.3086
   3.900   0.7113   0.00838   0.00349  -0.0439  0.6086  1.0000  -1.0677   0.0000   0.0000   0.0000   0.3075
   4.000   0.7218   0.00837   0.00350  -0.0438  0.6055  1.0000  -1.0858   0.0000   0.0000   0.0000   0.3063
   4.100   0.7323   0.00836   0.00351  -0.0437  0.6020  1.0000  -1.1046   0.0000   0.0000   0.0000   0.3052
   4.200   0.7427   0.00835   0.00351  -0.0436  0.5980  1.0000  -1.1262   0.0000   0.0000   0.0000   0.3041
   4.300   0.7531   0.00834   0.00350  -0.0434  0.5935  1.0000  -1.1479   0.0000   0.0000   0.0000   0.3030
   4.400   0.7634   0.00834   0.00349  -0.0433  0.5889  1.0000  -1.1697   0.0000   0.0000   0.0000   0.3019
   4.500   0.7737   0.00834   0.00348  -0.0431  0.5839  1.0000  -1.1921   0.0000   0.0000   0.0000   0.3008
   4.600   0.7838   0.00837   0.00348  -0.0429  0.5784  1.0000  -1.2184   0.0000   0.0000   0.0000   0.2997
   4.700   0.7939   0.00843   0.00351  -0.0427  0.5715  1.0000  -1.2447   0.0000   0.0000   0.0000   0.2987
   4.800   0.8044   0.00844   0.00359  -0.0426  0.5677  1.0000  -1.2716   0.0000   0.0000   0.0000   0.2978
   4.900   0.8150   0.00844   0.00363  -0.0425  0.5638  1.0000  -1.3156   0.0000   0.0000   0.0000   0.2969
   5.000   0.8255   0.00845   0.00367  -0.0424  0.5589  1.0000  -1.3608   0.0000   0.0000   0.0000   0.2961
   5.100   0.8359   0.00847   0.00371  -0.0423  0.5530  1.0000  -1.4063   0.0000   0.0000   0.0000   0.2952
   5.200   0.8461   0.00849   0.00373  -0.0422  0.5457  1.0000  -1.4657   0.0000   0.0000   0.0000   0.2943
   5.300   0.8561   0.00853   0.00373  -0.0420  0.5371  1.0000  -1.5733   0.0000   0.0000   0.0000   0.2934
   5.400   0.8659   0.00860   0.00374  -0.0417  0.5268  1.0000  -1.6816   0.0000   0.0000   0.0000   0.2924
   5.500   0.8760   0.00866   0.00380  -0.0416  0.5187  1.0000  -1.7933   0.0000   0.0000   0.0000   0.2916
   5.600   0.8862   0.00871   0.00387  -0.0415  0.5108  1.0000  -1.9080   0.0000   0.0000   0.0000   0.2908
   5.700   0.8962   0.00878   0.00392  -0.0413  0.5004  1.0000  -2.0235   0.0000   0.0000   0.0000   0.2900
   5.800   0.9057   0.00889   0.00397  -0.0411  0.4878  1.0000  -2.1386   0.0000   0.0000   0.0000   0.2891
   5.900   0.9148   0.00904   0.00405  -0.0408  0.4738  1.0000  -2.2537   0.0000   0.0000   0.0000   0.2883
   6.000   0.9248   0.00913   0.00414  -0.0407  0.4646  1.0000  -2.3749   0.0000   0.0000   0.0000   0.2875
   6.100   0.9343   0.00925   0.00424  -0.0404  0.4526  1.0000  -2.4956   0.0000   0.0000   0.0000   0.2867
   6.200   0.9431   0.00944   0.00435  -0.0401  0.4386  1.0000  -2.6144   0.0000   0.0000   0.0000   0.2859
   6.300   0.9520   0.00962   0.00449  -0.0399  0.4246  1.0000  -2.7349   0.0000   0.0000   0.0000   0.2851
   6.400   0.9614   0.00975   0.00460  -0.0397  0.4131  1.0000  -2.8607   0.0000   0.0000   0.0000   0.2843
   6.500   0.9699   0.00997   0.00474  -0.0393  0.3974  1.0000  -2.9824   0.0000   0.0000   0.0000   0.2835
   6.600   0.9776   0.01025   0.00493  -0.0389  0.3790  1.0000  -3.1009   0.0000   0.0000   0.0000   0.2827
   6.700   0.9866   0.01040   0.00507  -0.0387  0.3663  1.0000  -3.2293   0.0000   0.0000   0.0000   0.2819
   6.800   0.9945   0.01066   0.00523  -0.0383  0.3498  1.0000  -3.3516   0.0000   0.0000   0.0000   0.2811
   6.900   1.0019   0.01094   0.00544  -0.0378  0.3327  1.0000  -3.4722   0.0000   0.0000   0.0000   0.2802
   7.000   1.0105   0.01111   0.00559  -0.0375  0.3205  1.0000  -3.6025   0.0000   0.0000   0.0000   0.2795
   7.100   1.0180   0.01137   0.00578  -0.0370  0.3055  1.0000  -3.7265   0.0000   0.0000   0.0000   0.2786
   7.200   1.0250   0.01167   0.00600  -0.0365  0.2898  1.0000  -3.8477   0.0000   0.0000   0.0000   0.2777
   7.300   1.0335   0.01183   0.00617  -0.0362  0.2799  1.0000  -3.9810   0.0000   0.0000   0.0000   0.2770
   7.400   1.0406   0.01210   0.00637  -0.0356  0.2654  1.0000  -4.1060   0.0000   0.0000   0.0000   0.2761
   7.500   1.0466   0.01245   0.00662  -0.0350  0.2482  1.0000  -4.2234   0.0000   0.0000   0.0000   0.2752
   7.600   1.0543   0.01266   0.00682  -0.0345  0.2364  1.0000  -4.3539   0.0000   0.0000   0.0000   0.2744
   7.700   1.0599   0.01301   0.00708  -0.0338  0.2195  1.0000  -4.4707   0.0000   0.0000   0.0000   0.2734
   7.800   1.0656   0.01335   0.00733  -0.0331  0.2023  1.0000  -4.5884   0.0000   0.0000   0.0000   0.2724
   7.900   1.0700   0.01376   0.00764  -0.0322  0.1827  1.0000  -4.6976   0.0000   0.0000   0.0000   0.2714
   8.000   1.0739   0.01420   0.00794  -0.0313  0.1614  1.0000  -4.8034   0.0000   0.0000   0.0000   0.2703
   8.100   1.0757   0.01476   0.00833  -0.0301  0.1377  1.0000  -4.8935   0.0000   0.0000   0.0000   0.2690
   8.200   1.0785   0.01523   0.00867  -0.0290  0.1173  1.0000  -4.9913   0.0000   0.0000   0.0000   0.2678
   8.300   1.0804   0.01575   0.00906  -0.0278  0.0975  1.0000  -5.0810   0.0000   0.0000   0.0000   0.2665
   8.400   1.0812   0.01631   0.00946  -0.0264  0.0784  1.0000  -5.1624   0.0000   0.0000   0.0000   0.2651
   8.500   1.0828   0.01679   0.00985  -0.0251  0.0646  1.0000  -5.2490   0.0000   0.0000   0.0000   0.2637
   8.600   1.0838   0.01729   0.01026  -0.0237  0.0507  1.0000  -5.3273   0.0000   0.0000   0.0000   0.2623
   8.700   1.0834   0.01785   0.01071  -0.0222  0.0397  1.0000  -5.3929   0.0000   0.0000   0.0000   0.2607
   8.800   1.0843   0.01833   0.01131  -0.0207  0.0313  1.0000  -5.4582   0.0000   0.0000   0.0000   0.2592
   8.900   1.0806   0.01888   0.01178  -0.0185  0.0256  1.0000  -5.4836   0.0000   0.0000   0.0000   0.2571
   9.000   1.0710   0.01968   0.01264  -0.0154  0.0199  1.0000  -5.4133   0.0000   0.0000   0.0000   0.2542
   9.100   1.0744   0.01994   0.01293  -0.0143  0.0190  1.0000  -5.5034   0.0000   0.0000   0.0000   0.2530
   9.200   1.0763   0.02031   0.01334  -0.0131  0.0176  1.0000  -5.5690   0.0000   0.0000   0.0000   0.2517
   9.300   1.0776   0.02073   0.01380  -0.0119  0.0161  1.0000  -5.6241   0.0000   0.0000   0.0000   0.2504
   9.400   1.0787   0.02120   0.01429  -0.0107  0.0145  1.0000  -5.6864   0.0000   0.0000   0.0000   0.2492
   9.500   1.0790   0.02174   0.01483  -0.0095  0.0131  1.0000  -5.7520   0.0000   0.0000   0.0000   0.2479
   9.600   1.0775   0.02243   0.01555  -0.0081  0.0117  1.0000  -5.7884   0.0000   0.0000   0.0000   0.2464
   9.700   1.0739   0.02329   0.01648  -0.0065  0.0105  1.0000  -5.7896   0.0000   0.0000   0.0000   0.2448
   9.800   1.0688   0.02430   0.01758  -0.0048  0.0097  1.0000  -5.7704   0.0000   0.0000   0.0000   0.2431
   9.900   1.0631   0.02539   0.01877  -0.0032  0.0092  1.0000  -5.7446   0.0000   0.0000   0.0000   0.2415
  10.000   1.0570   0.02658   0.02006  -0.0016  0.0089  1.0000  -5.7113   0.0000   0.0000   0.0000   0.2398
  10.100   1.0594   0.02715   0.02064  -0.0009  0.0087  1.0000  -5.7950   0.0000   0.0000   0.0000   0.2389
  10.200   1.0631   0.02762   0.02115  -0.0003  0.0086  1.0000  -5.8979   0.0000   0.0000   0.0000   0.2382
  10.300   1.0661   0.02815   0.02172   0.0004  0.0085  1.0000  -5.9928   0.0000   0.0000   0.0000   0.2375
  10.400   1.0687   0.02872   0.02232   0.0010  0.0084  1.0000  -6.0816   0.0000   0.0000   0.0000   0.2367
  10.500   1.0711   0.02932   0.02297   0.0017  0.0082  1.0000  -6.1654   0.0000   0.0000   0.0000   0.2359
  10.600   1.0733   0.02995   0.02364   0.0024  0.0081  1.0000  -6.2441   0.0000   0.0000   0.0000   0.2351
  10.700   1.0753   0.03060   0.02434   0.0031  0.0080  1.0000  -6.3180   0.0000   0.0000   0.0000   0.2343
  10.800   1.0771   0.03128   0.02507   0.0038  0.0078  1.0000  -6.3879   0.0000   0.0000   0.0000   0.2335
  10.900   1.0788   0.03198   0.02582   0.0046  0.0077  1.0000  -6.4546   0.0000   0.0000   0.0000   0.2326
  11.000   1.0804   0.03272   0.02661   0.0053  0.0076  1.0000  -6.5178   0.0000   0.0000   0.0000   0.2318
  11.100   1.0818   0.03349   0.02743   0.0060  0.0075  1.0000  -6.5772   0.0000   0.0000   0.0000   0.2310
  11.200   1.0832   0.03429   0.02828   0.0067  0.0074  1.0000  -6.6344   0.0000   0.0000   0.0000   0.2302
  11.300   1.0847   0.03509   0.02915   0.0074  0.0073  1.0000  -6.6904   0.0000   0.0000   0.0000   0.2294
  11.400   1.0863   0.03592   0.03003   0.0081  0.0072  1.0000  -6.7453   0.0000   0.0000   0.0000   0.2286
  11.500   1.0881   0.03675   0.03093   0.0088  0.0071  1.0000  -6.7991   0.0000   0.0000   0.0000   0.2278
  11.600   1.0898   0.03761   0.03185   0.0095  0.0070  1.0000  -6.8513   0.0000   0.0000   0.0000   0.2270
  11.700   1.0916   0.03849   0.03279   0.0101  0.0070  1.0000  -6.9016   0.0000   0.0000   0.0000   0.2263
  11.800   1.0933   0.03940   0.03377   0.0108  0.0069  1.0000  -6.9497   0.0000   0.0000   0.0000   0.2255
  11.900   1.0949   0.04034   0.03478   0.0115  0.0068  1.0000  -6.9953   0.0000   0.0000   0.0000   0.2248
  12.000   1.0963   0.04131   0.03583   0.0121  0.0068  1.0000  -7.0379   0.0000   0.0000   0.0000   0.2241
  12.100   1.0975   0.04232   0.03692   0.0127  0.0068  1.0000  -7.0773   0.0000   0.0000   0.0000   0.2234
  12.200   1.0983   0.04337   0.03804   0.0133  0.0067  1.0000  -7.1128   0.0000   0.0000   0.0000   0.2227
  12.300   1.0986   0.04445   0.03920   0.0139  0.0067  1.0000  -7.1441   0.0000   0.0000   0.0000   0.2220
  12.400   1.0985   0.04558   0.04042   0.0145  0.0067  1.0000  -7.1711   0.0000   0.0000   0.0000   0.2213
  12.500   1.0976   0.04678   0.04171   0.0150  0.0067  1.0000  -7.1929   0.0000   0.0000   0.0000   0.2206
  12.600   1.0964   0.04803   0.04303   0.0155  0.0067  1.0000  -7.2128   0.0000   0.0000   0.0000   0.2200
  12.700   1.0951   0.04930   0.04439   0.0159  0.0066  1.0000  -7.2326   0.0000   0.0000   0.0000   0.2195
  12.800   1.0936   0.05060   0.04576   0.0162  0.0066  1.0000  -7.2521   0.0000   0.0000   0.0000   0.2189
  12.900   1.0919   0.05193   0.04716   0.0166  0.0066  1.0000  -7.2711   0.0000   0.0000   0.0000   0.2184
  13.000   1.0900   0.05328   0.04859   0.0169  0.0066  1.0000  -7.2891   0.0000   0.0000   0.0000   0.2180
  13.100   1.0878   0.05466   0.05006   0.0171  0.0065  1.0000  -7.3056   0.0000   0.0000   0.0000   0.2176
  13.200   1.0850   0.05611   0.05158   0.0173  0.0065  1.0000  -7.3182   0.0000   0.0000   0.0000   0.2172
  13.300   1.0814   0.05763   0.05317   0.0173  0.0065  1.0000  -7.3252   0.0000   0.0000   0.0000   0.2169
  13.400   1.0778   0.05917   0.05479   0.0174  0.0064  1.0000  -7.3322   0.0000   0.0000   0.0000   0.2166
  13.500   1.0743   0.06072   0.05641   0.0174  0.0064  1.0000  -7.3391   0.0000   0.0000   0.0000   0.2164
  13.600   1.0707   0.06230   0.05807   0.0173  0.0064  1.0000  -7.3448   0.0000   0.0000   0.0000   0.2162
  13.700   1.0669   0.06393   0.05977   0.0172  0.0063  1.0000  -7.3483   0.0000   0.0000   0.0000   0.2161
  13.800   1.0622   0.06568   0.06159   0.0169  0.0063  1.0000  -7.3440   0.0000   0.0000   0.0000   0.2160
  13.900   1.0571   0.06751   0.06350   0.0166  0.0063  1.0000  -7.3353   0.0000   0.0000   0.0000   0.2161
  14.000   1.0521   0.06932   0.06537   0.0163  0.0063  1.0000  -7.3270   0.0000   0.0000   0.0000   0.2161
  14.100   1.0472   0.07115   0.06727   0.0159  0.0063  1.0000  -7.3173   0.0000   0.0000   0.0000   0.2162
  14.200   1.0421   0.07305   0.06924   0.0154  0.0062  1.0000  -7.3049   0.0000   0.0000   0.0000   0.2164
  14.300   1.0359   0.07516   0.07142   0.0148  0.0062  1.0000  -7.2819   0.0000   0.0000   0.0000   0.2168
  14.400   1.0299   0.07734   0.07366   0.0140  0.0062  1.0000  -7.2578   0.0000   0.0000   0.0000   0.2172
  14.500   1.0243   0.07953   0.07593   0.0132  0.0062  1.0000  -7.2342   0.0000   0.0000   0.0000   0.2177
  14.600   1.0186   0.08180   0.07827   0.0124  0.0062  1.0000  -7.2080   0.0000   0.0000   0.0000   0.2183
  14.700   1.0118   0.08433   0.08086   0.0113  0.0062  1.0000  -7.1697   0.0000   0.0000   0.0000   0.2191
  14.800   1.0053   0.08688   0.08347   0.0101  0.0062  1.0000  -7.1309   0.0000   0.0000   0.0000   0.2200
  14.900   0.9991   0.08945   0.08611   0.0090  0.0062  1.0000  -7.0918   0.0000   0.0000   0.0000   0.2210
  15.000   0.9922   0.09221   0.08894   0.0076  0.0063  1.0000  -7.0433   0.0000   0.0000   0.0000   0.2221
  15.100   0.9849   0.09511   0.09191   0.0061  0.0063  1.0000  -6.9878   0.0000   0.0000   0.0000   0.2234
  15.200   0.9781   0.09800   0.09485   0.0046  0.0063  1.0000  -6.9336   0.0000   0.0000   0.0000   0.2247
  15.300   0.9708   0.10106   0.09798   0.0029  0.0064  1.0000  -6.8695   0.0000   0.0000   0.0000   0.2262
  15.400   0.9630   0.10430   0.10128   0.0011  0.0064  1.0000  -6.7963   0.0000   0.0000   0.0000   0.2280
  15.500   0.9558   0.10750   0.10454  -0.0007  0.0064  1.0000  -6.7242   0.0000   0.0000   0.0000   0.2297
  15.600   0.9476   0.11100   0.10810  -0.0027  0.0065  1.0000  -6.6362   0.0000   0.0000   0.0000   0.2317
  15.700   0.9395   0.11454   0.11169  -0.0048  0.0066  1.0000  -6.5435   0.0000   0.0000   0.0000   0.2338
  15.800   0.9316   0.11814   0.11534  -0.0069  0.0066  1.0000  -6.4460   0.0000   0.0000   0.0000   0.2360
  15.900   0.9226   0.12213   0.11939  -0.0093  0.0067  1.0000  -6.3266   0.0000   0.0000   0.0000   0.2386
  16.000   0.9142   0.12600   0.12331  -0.0115  0.0068  1.0000  -6.2083   0.0000   0.0000   0.0000   0.2411
  16.100   0.9047   0.13038   0.12773  -0.0141  0.0069  1.0000  -6.0618   0.0000   0.0000   0.0000   0.2440
  16.200   0.8959   0.13463   0.13202  -0.0166  0.0070  1.0000  -5.9142   0.0000   0.0000   0.0000   0.2469
  16.300   0.8859   0.13943   0.13687  -0.0193  0.0072  1.0000  -5.7325   0.0000   0.0000   0.0000   0.2502
  16.400   0.8763   0.14424   0.14170  -0.0219  0.0073  1.0000  -5.5401   0.0000   0.0000   0.0000   0.2535
  16.500   0.8667   0.14920   0.14669  -0.0245  0.0074  1.0000  -5.3243   0.0000   0.0000   0.0000   0.2568
  16.600   0.8573   0.15413   0.15164  -0.0270  0.0075  1.0000  -5.0832   0.0000   0.0000   0.0000   0.2602
  16.700   0.8489   0.15887   0.15638  -0.0292  0.0077  1.0000  -4.8382   0.0000   0.0000   0.0000   0.2632
  16.800   0.8420   0.16333   0.16083  -0.0312  0.0078  1.0000  -4.6021   0.0000   0.0000   0.0000   0.2659
  16.900   0.8363   0.16747   0.16495  -0.0329  0.0079  1.0000  -4.3866   0.0000   0.0000   0.0000   0.2682
  17.000   0.8319   0.17121   0.16868  -0.0344  0.0080  1.0000  -4.2061   0.0000   0.0000   0.0000   0.2703
  17.100   0.8282   0.17475   0.17221  -0.0358  0.0082  1.0000  -4.0430   0.0000   0.0000   0.0000   0.2722
  17.200   0.8246   0.17827   0.17571  -0.0373  0.0083  1.0000  -3.8797   0.0000   0.0000   0.0000   0.2741
  17.600   0.8122   0.19668   0.19407  -0.0422  0.0188  1.0000  -2.7854   0.0000   0.0000   0.0000   0.2812
  17.700   0.8134   0.19875   0.19614  -0.0431  0.0187  1.0000  -2.7607   0.0000   0.0000   0.0000   0.2821
  17.800   0.8145   0.20089   0.19827  -0.0439  0.0187  1.0000  -2.7324   0.0000   0.0000   0.0000   0.2829
  17.900   0.8153   0.20311   0.20049  -0.0447  0.0188  1.0000  -2.7004   0.0000   0.0000   0.0000   0.2838
  18.000   0.8158   0.20543   0.20280  -0.0456  0.0189  1.0000  -2.6639   0.0000   0.0000   0.0000   0.2847
  18.100   0.8155   0.20803   0.20540  -0.0464  0.0192  1.0000  -2.6148   0.0000   0.0000   0.0000   0.2855
  18.200   0.8241   0.20788   0.20526  -0.0477  0.0141  1.0000  -2.7400   0.0000   0.0000   0.0000   0.2864
  18.300   0.8255   0.20972   0.20710  -0.0485  0.0137  1.0000  -2.7367   0.0000   0.0000   0.0000   0.2871
  18.400   0.8272   0.21141   0.20879  -0.0492  0.0132  1.0000  -2.7467   0.0000   0.0000   0.0000   0.2878
  18.500   0.8293   0.21285   0.21023  -0.0499  0.0126  1.0000  -2.7773   0.0000   0.0000   0.0000   0.2883
  18.600   0.8321   0.21379   0.21117  -0.0504  0.0119  1.0000  -2.8496   0.0000   0.0000   0.0000   0.2884
  19.400   0.8478   0.22574   0.22314  -0.0554  0.0100  1.0000  -3.0661   0.0000   0.0000   0.0000   0.2918
  19.500   0.8491   0.22791   0.22531  -0.0561  0.0100  1.0000  -3.0364   0.0000   0.0000   0.0000   0.2925
  19.600   0.8503   0.23003   0.22743  -0.0569  0.0100  1.0000  -3.0118   0.0000   0.0000   0.0000   0.2931
  19.700   0.8516   0.23213   0.22953  -0.0577  0.0099  1.0000  -2.9903   0.0000   0.0000   0.0000   0.2938
  19.800   0.8529   0.23422   0.23162  -0.0584  0.0099  1.0000  -2.9706   0.0000   0.0000   0.0000   0.2944
  19.900   0.8542   0.23633   0.23372  -0.0592  0.0098  1.0000  -2.9511   0.0000   0.0000   0.0000   0.2951
  20.000   0.8554   0.23846   0.23585  -0.0599  0.0097  1.0000  -2.9307   0.0000   0.0000   0.0000   0.2957
  20.100   0.8565   0.24064   0.23804  -0.0607  0.0096  1.0000  -2.9078   0.0000   0.0000   0.0000   0.2963
  20.200   0.8574   0.24291   0.24030  -0.0614  0.0095  1.0000  -2.8801   0.0000   0.0000   0.0000   0.2970
  20.300   0.8581   0.24531   0.24270  -0.0622  0.0094  1.0000  -2.8445   0.0000   0.0000   0.0000   0.2977
  20.400   0.8584   0.24794   0.24532  -0.0630  0.0093  1.0000  -2.7949   0.0000   0.0000   0.0000   0.2985
  20.500   0.8580   0.25104   0.24842  -0.0638  0.0092  1.0000  -2.7154   0.0000   0.0000   0.0000   0.2994
  21.500   0.8654   0.27724   0.27457  -0.0715  0.0088  1.0000  -2.2580   0.0000   0.0000   0.0000   0.3065
  21.600   0.8668   0.27943   0.27676  -0.0722  0.0088  1.0000  -2.2414   0.0000   0.0000   0.0000   0.3070
  21.700   0.8682   0.28162   0.27896  -0.0728  0.0088  1.0000  -2.2252   0.0000   0.0000   0.0000   0.3075
  21.800   0.8695   0.28381   0.28115  -0.0735  0.0088  1.0000  -2.2093   0.0000   0.0000   0.0000   0.3080
  21.900   0.8709   0.28601   0.28335  -0.0742  0.0088  1.0000  -2.1937   0.0000   0.0000   0.0000   0.3085
  22.000   0.8722   0.28821   0.28555  -0.0749  0.0088  1.0000  -2.1784   0.0000   0.0000   0.0000   0.3090
  22.100   0.8735   0.29040   0.28775  -0.0756  0.0088  1.0000  -2.1633   0.0000   0.0000   0.0000   0.3095
  22.200   0.8747   0.29260   0.28995  -0.0762  0.0088  1.0000  -2.1484   0.0000   0.0000   0.0000   0.3100
  22.300   0.8759   0.29480   0.29215  -0.0769  0.0088  1.0000  -2.1338   0.0000   0.0000   0.0000   0.3105
  22.400   0.8771   0.29699   0.29435  -0.0776  0.0088  1.0000  -2.1193   0.0000   0.0000   0.0000   0.3110
  22.500   0.8783   0.29919   0.29654  -0.0782  0.0088  1.0000  -2.1051   0.0000   0.0000   0.0000   0.3115
  22.600   0.8794   0.30139   0.29874  -0.0789  0.0088  1.0000  -2.0911   0.0000   0.0000   0.0000   0.3120
  22.700   0.8804   0.30358   0.30094  -0.0795  0.0087  1.0000  -2.0772   0.0000   0.0000   0.0000   0.3125
  22.800   0.8814   0.30577   0.30313  -0.0802  0.0087  1.0000  -2.0635   0.0000   0.0000   0.0000   0.3130
  22.900   0.8824   0.30796   0.30533  -0.0808  0.0087  1.0000  -2.0499   0.0000   0.0000   0.0000   0.3134
  23.000   0.8833   0.31015   0.30752  -0.0815  0.0087  1.0000  -2.0364   0.0000   0.0000   0.0000   0.3139
  23.100   0.8842   0.31234   0.30971  -0.0821  0.0087  1.0000  -2.0231   0.0000   0.0000   0.0000   0.3144
  23.200   0.8850   0.31452   0.31189  -0.0827  0.0087  1.0000  -2.0098   0.0000   0.0000   0.0000   0.3149
  23.300   0.8857   0.31669   0.31407  -0.0834  0.0087  1.0000  -1.9966   0.0000   0.0000   0.0000   0.3153
  23.400   0.8864   0.31886   0.31624  -0.0840  0.0087  1.0000  -1.9835   0.0000   0.0000   0.0000   0.3158
  23.500   0.8870   0.32102   0.31841  -0.0846  0.0087  1.0000  -1.9704   0.0000   0.0000   0.0000   0.3163
  23.600   0.8875   0.32318   0.32057  -0.0852  0.0087  1.0000  -1.9572   0.0000   0.0000   0.0000   0.3168
  23.700   0.8879   0.32532   0.32271  -0.0858  0.0087  1.0000  -1.9439   0.0000   0.0000   0.0000   0.3173
  23.800   0.8883   0.32745   0.32485  -0.0864  0.0087  1.0000  -1.9307   0.0000   0.0000   0.0000   0.3177
  23.900   0.8885   0.32956   0.32697  -0.0869  0.0087  1.0000  -1.9173   0.0000   0.0000   0.0000   0.3182
  24.000   0.8886   0.33166   0.32907  -0.0875  0.0087  1.0000  -1.9039   0.0000   0.0000   0.0000   0.3187
  24.100   0.8885   0.33374   0.33115  -0.0880  0.0087  1.0000  -1.8903   0.0000   0.0000   0.0000   0.3192
  24.200   0.8884   0.33579   0.33321  -0.0886  0.0087  1.0000  -1.8765   0.0000   0.0000   0.0000   0.3197
  24.300   0.8880   0.33781   0.33524  -0.0891  0.0087  1.0000  -1.8625   0.0000   0.0000   0.0000   0.3202
  24.400   0.8874   0.33980   0.33723  -0.0896  0.0087  1.0000  -1.8481   0.0000   0.0000   0.0000   0.3207
  24.500   0.8866   0.34174   0.33918  -0.0900  0.0087  1.0000  -1.8332   0.0000   0.0000   0.0000   0.3212
  24.600   0.8855   0.34361   0.34106  -0.0905  0.0087  1.0000  -1.8177   0.0000   0.0000   0.0000   0.3217
  24.700   0.8841   0.34541   0.34286  -0.0909  0.0087  1.0000  -1.8014   0.0000   0.0000   0.0000   0.3222
  24.800   0.8821   0.34709   0.34455  -0.0912  0.0087  1.0000  -1.7840   0.0000   0.0000   0.0000   0.3228
  24.900   0.8793   0.34860   0.34607  -0.0915  0.0087  1.0000  -1.7647   0.0000   0.0000   0.0000   0.3233
  25.000   0.8117   0.33230   0.32991  -0.0851  0.0087  1.0000  -1.5756   0.0000   0.0000   0.0000   0.3262
  25.100   0.8068   0.33199   0.32963  -0.0852  0.0087  1.0000  -1.5509   0.0000   0.0000   0.0000   0.3269
  25.200   0.8027   0.33187   0.32952  -0.0853  0.0087  1.0000  -1.5284   0.0000   0.0000   0.0000   0.3276
  25.300   0.7991   0.33187   0.32953  -0.0854  0.0087  1.0000  -1.5077   0.0000   0.0000   0.0000   0.3283
  25.400   0.7960   0.33195   0.32962  -0.0857  0.0087  1.0000  -1.4882   0.0000   0.0000   0.0000   0.3290
  25.500   0.7931   0.33209   0.32977  -0.0859  0.0087  1.0000  -1.4697   0.0000   0.0000   0.0000   0.3297
  25.600   0.7906   0.33227   0.32997  -0.0862  0.0087  1.0000  -1.4521   0.0000   0.0000   0.0000   0.3303
  25.700   0.7883   0.33250   0.33021  -0.0864  0.0086  1.0000  -1.4353   0.0000   0.0000   0.0000   0.3310
  25.800   0.7861   0.33277   0.33053  -0.0868  0.0086  1.0000  -1.4186   0.0000   0.0000   0.0000   0.3316
  25.900   0.7841   0.33306   0.33083  -0.0871  0.0086  1.0000  -1.4030   0.0000   0.0000   0.0000   0.3322
  26.000   0.7823   0.33338   0.33116  -0.0874  0.0086  1.0000  -1.3880   0.0000   0.0000   0.0000   0.3329
  26.100   0.7807   0.33372   0.33152  -0.0877  0.0086  1.0000  -1.3735   0.0000   0.0000   0.0000   0.3335
  26.200   0.7791   0.33408   0.33189  -0.0881  0.0086  1.0000  -1.3595   0.0000   0.0000   0.0000   0.3341
  26.300   0.7776   0.33447   0.33228  -0.0885  0.0086  1.0000  -1.3459   0.0000   0.0000   0.0000   0.3347
  26.400   0.7763   0.33486   0.33269  -0.0888  0.0086  1.0000  -1.3327   0.0000   0.0000   0.0000   0.3353
  26.500   0.7750   0.33527   0.33311  -0.0892  0.0086  1.0000  -1.3199   0.0000   0.0000   0.0000   0.3359
  26.600   0.7739   0.33570   0.33354  -0.0896  0.0086  1.0000  -1.3081   0.0000   0.0000   0.0000   0.3365
  26.700   0.7727   0.33613   0.33399  -0.0900  0.0086  1.0000  -1.3032   0.0000   0.0000   0.0000   0.3371
  26.800   0.7717   0.33658   0.33444  -0.0904  0.0086  1.0000  -1.2982   0.0000   0.0000   0.0000   0.3377
  26.900   0.7707   0.33703   0.33491  -0.0908  0.0086  1.0000  -1.2933   0.0000   0.0000   0.0000   0.3383
  27.000   0.7698   0.33750   0.33538  -0.0912  0.0086  1.0000  -1.2886   0.0000   0.0000   0.0000   0.3389
  27.100   0.7689   0.33797   0.33586  -0.0917  0.0086  1.0000  -1.2841   0.0000   0.0000   0.0000   0.3394
  27.200   0.7681   0.33846   0.33635  -0.0921  0.0086  1.0000  -1.2797   0.0000   0.0000   0.0000   0.3400
  27.300   0.7673   0.33894   0.33685  -0.0925  0.0086  1.0000  -1.2753   0.0000   0.0000   0.0000   0.3406
  27.400   0.7666   0.33944   0.33735  -0.0930  0.0085  1.0000  -1.2711   0.0000   0.0000   0.0000   0.3412
  27.500   0.7659   0.33994   0.33786  -0.0934  0.0085  1.0000  -1.2670   0.0000   0.0000   0.0000   0.3417
  27.600   0.7652   0.34045   0.33838  -0.0938  0.0085  1.0000  -1.2629   0.0000   0.0000   0.0000   0.3423
  27.700   0.7646   0.34097   0.33890  -0.0943  0.0085  1.0000  -1.2589   0.0000   0.0000   0.0000   0.3429
  27.800   0.7641   0.34149   0.33943  -0.0947  0.0085  1.0000  -1.2550   0.0000   0.0000   0.0000   0.3434
  27.900   0.7635   0.34201   0.33997  -0.0952  0.0085  1.0000  -1.2511   0.0000   0.0000   0.0000   0.3440
  28.000   0.7630   0.34254   0.34050  -0.0956  0.0085  1.0000  -1.2473   0.0000   0.0000   0.0000   0.3445
  28.100   0.7626   0.34308   0.34105  -0.0961  0.0085  1.0000  -1.2435   0.0000   0.0000   0.0000   0.3451
  28.200   0.7621   0.34362   0.34160  -0.0966  0.0085  1.0000  -1.2397   0.0000   0.0000   0.0000   0.3456
  28.300   0.7617   0.34417   0.34215  -0.0970  0.0085  1.0000  -1.2355   0.0000   0.0000   0.0000   0.3462
  28.400   0.7613   0.34472   0.34271  -0.0975  0.0085  1.0000  -1.2308   0.0000   0.0000   0.0000   0.3467
  28.500   0.7609   0.34528   0.34327  -0.0980  0.0084  1.0000  -1.2261   0.0000   0.0000   0.0000   0.3473
  28.600   0.7606   0.34584   0.34384  -0.0985  0.0084  1.0000  -1.2215   0.0000   0.0000   0.0000   0.3478
  28.700   0.7602   0.34641   0.34442  -0.0990  0.0084  1.0000  -1.2168   0.0000   0.0000   0.0000   0.3484
  28.800   0.7599   0.34698   0.34500  -0.0994  0.0084  1.0000  -1.2120   0.0000   0.0000   0.0000   0.3489
  28.900   0.7596   0.34755   0.34558  -0.0999  0.0084  1.0000  -1.2073   0.0000   0.0000   0.0000   0.3495
  29.000   0.7594   0.34813   0.34617  -0.1004  0.0084  1.0000  -1.2025   0.0000   0.0000   0.0000   0.3500
  29.100   0.7591   0.34872   0.34676  -0.1009  0.0084  1.0000  -1.1976   0.0000   0.0000   0.0000   0.3506
  29.200   0.7589   0.34931   0.34735  -0.1014  0.0083  1.0000  -1.1927   0.0000   0.0000   0.0000   0.3511
  29.300   0.7587   0.34990   0.34795  -0.1019  0.0083  1.0000  -1.1877   0.0000   0.0000   0.0000   0.3516
  29.400   0.7586   0.35050   0.34856  -0.1024  0.0083  1.0000  -1.1826   0.0000   0.0000   0.0000   0.3521
  29.500   0.7584   0.35110   0.34917  -0.1029  0.0083  1.0000  -1.1775   0.0000   0.0000   0.0000   0.3527
  29.600   0.7583   0.35171   0.34978  -0.1034  0.0083  1.0000  -1.1722   0.0000   0.0000   0.0000   0.3532
  29.700   0.7582   0.35232   0.35040  -0.1039  0.0082  1.0000  -1.1668   0.0000   0.0000   0.0000   0.3537
  29.800   0.7581   0.35294   0.35103  -0.1044  0.0082  1.0000  -1.1613   0.0000   0.0000   0.0000   0.3542
  29.900   0.7581   0.35357   0.35166  -0.1050  0.0082  1.0000  -1.1556   0.0000   0.0000   0.0000   0.3547
  30.000   0.7581   0.35420   0.35230  -0.1055  0.0082  1.0000  -1.1497   0.0000   0.0000   0.0000   0.3552


