xflr5 v6.61

 Calculated polar for: MH 17

 1 1 Reynolds number fixed          Mach number fixed         

 xtrf =   1.000 (top)        1.000 (bottom)
 Mach =   0.000     Re =     0.625 e 6     Ncrit =   9.000

  alpha     CL        CD       CDp       Cm    Top Xtr Bot Xtr   Cpmin    Chinge    XCp    
 ------- -------- --------- --------- -------- ------- ------- -------- --------- ---------
 -10.000  -0.4365   0.06955   0.06748  -0.0729  0.9645  0.0155  -3.1049   0.0000   0.0000   0.0000   0.0725
  -8.000  -0.5442   0.04160   0.03808  -0.0518  0.9024  0.0160  -3.7833   0.0000   0.0000   0.0000   0.1478
  -7.900  -0.5492   0.03965   0.03603  -0.0500  0.9004  0.0162  -3.8204   0.0000   0.0000   0.0000   0.1520
  -7.800  -0.5497   0.03838   0.03469  -0.0486  0.8987  0.0164  -3.8032   0.0000   0.0000   0.0000   0.1547
  -7.700  -0.5486   0.03733   0.03356  -0.0474  0.8971  0.0165  -3.7697   0.0000   0.0000   0.0000   0.1568
  -7.600  -0.5465   0.03640   0.03256  -0.0462  0.8957  0.0167  -3.7254   0.0000   0.0000   0.0000   0.1587
  -7.500  -0.5429   0.03562   0.03173  -0.0453  0.8944  0.0168  -3.6631   0.0000   0.0000   0.0000   0.1599
  -7.400  -0.5391   0.03488   0.03094  -0.0443  0.8930  0.0169  -3.6008   0.0000   0.0000   0.0000   0.1612
  -7.300  -0.5351   0.03417   0.03017  -0.0434  0.8916  0.0171  -3.5388   0.0000   0.0000   0.0000   0.1624
  -7.200  -0.5307   0.03342   0.02935  -0.0425  0.8904  0.0172  -3.4774   0.0000   0.0000   0.0000   0.1634
  -7.100  -0.5261   0.03269   0.02856  -0.0417  0.8890  0.0174  -3.4161   0.0000   0.0000   0.0000   0.1644
  -7.000  -0.5214   0.03196   0.02777  -0.0408  0.8876  0.0176  -3.3563   0.0000   0.0000   0.0000   0.1655
  -6.900  -0.5165   0.03124   0.02698  -0.0399  0.8861  0.0178  -3.3022   0.0000   0.0000   0.0000   0.1665
  -6.800  -0.5114   0.03051   0.02618  -0.0389  0.8847  0.0180  -3.2657   0.0000   0.0000   0.0000   0.1676
  -6.700  -0.5062   0.02979   0.02538  -0.0380  0.8833  0.0183  -3.2323   0.0000   0.0000   0.0000   0.1688
  -6.500  -0.4978   0.02553   0.02058  -0.0338  0.8805  0.0148  -3.6601   0.0000   0.0000   0.0000   0.1758
  -6.400  -0.4949   0.02359   0.01842  -0.0323  0.8792  0.0141  -3.7679   0.0000   0.0000   0.0000   0.1786
  -6.300  -0.4887   0.02230   0.01696  -0.0312  0.8781  0.0139  -3.8217   0.0000   0.0000   0.0000   0.1800
  -6.200  -0.4810   0.02130   0.01582  -0.0304  0.8770  0.0139  -3.8382   0.0000   0.0000   0.0000   0.1806
  -6.100  -0.4725   0.02050   0.01490  -0.0298  0.8759  0.0140  -3.8273   0.0000   0.0000   0.0000   0.1807
  -6.000  -0.4633   0.01977   0.01408  -0.0294  0.8749  0.0141  -3.7970   0.0000   0.0000   0.0000   0.1803
  -5.900  -0.4537   0.01911   0.01333  -0.0291  0.8738  0.0142  -3.7540   0.0000   0.0000   0.0000   0.1797
  -5.800  -0.4438   0.01850   0.01264  -0.0289  0.8727  0.0143  -3.7020   0.0000   0.0000   0.0000   0.1789
  -5.700  -0.4337   0.01793   0.01201  -0.0286  0.8715  0.0144  -3.6433   0.0000   0.0000   0.0000   0.1779
  -5.600  -0.4235   0.01740   0.01141  -0.0285  0.8703  0.0145  -3.5794   0.0000   0.0000   0.0000   0.1767
  -5.500  -0.4131   0.01690   0.01085  -0.0283  0.8691  0.0146  -3.5113   0.0000   0.0000   0.0000   0.1754
  -5.400  -0.4030   0.01655   0.01045  -0.0281  0.8679  0.0148  -3.4301   0.0000   0.0000   0.0000   0.1741
  -5.300  -0.3931   0.01637   0.01024  -0.0279  0.8668  0.0151  -3.3351   0.0000   0.0000   0.0000   0.1730
  -5.200  -0.3834   0.01633   0.01014  -0.0276  0.8656  0.0154  -3.2339   0.0000   0.0000   0.0000   0.1720
  -5.100  -0.3743   0.01651   0.01030  -0.0272  0.8644  0.0156  -3.1185   0.0000   0.0000   0.0000   0.1714
  -5.000  -0.3627   0.01544   0.00915  -0.0273  0.8636  0.0158  -3.0855   0.0000   0.0000   0.0000   0.1686
  -4.900  -0.3522   0.01471   0.00838  -0.0272  0.8627  0.0160  -3.0357   0.0000   0.0000   0.0000   0.1668
  -4.800  -0.3431   0.01405   0.00767  -0.0268  0.8617  0.0162  -2.9880   0.0000   0.0000   0.0000   0.1658
  -4.700  -0.3351   0.01350   0.00708  -0.0262  0.8606  0.0165  -2.9381   0.0000   0.0000   0.0000   0.1658
  -4.600  -0.3275   0.01311   0.00666  -0.0255  0.8594  0.0170  -2.8765   0.0000   0.0000   0.0000   0.1661
  -4.500  -0.3193   0.01281   0.00635  -0.0250  0.8582  0.0174  -2.8009   0.0000   0.0000   0.0000   0.1658
  -4.400  -0.3108   0.01259   0.00612  -0.0245  0.8568  0.0179  -2.7177   0.0000   0.0000   0.0000   0.1651
  -4.300  -0.3021   0.01240   0.00593  -0.0241  0.8555  0.0184  -2.6321   0.0000   0.0000   0.0000   0.1643
  -4.200  -0.2933   0.01222   0.00574  -0.0237  0.8541  0.0190  -2.5467   0.0000   0.0000   0.0000   0.1634
  -4.100  -0.2845   0.01205   0.00556  -0.0232  0.8527  0.0195  -2.4622   0.0000   0.0000   0.0000   0.1625
  -4.000  -0.2757   0.01188   0.00537  -0.0227  0.8513  0.0201  -2.3858   0.0000   0.0000   0.0000   0.1616
  -3.900  -0.2668   0.01172   0.00519  -0.0223  0.8500  0.0207  -2.3253   0.0000   0.0000   0.0000   0.1606
  -3.800  -0.2579   0.01157   0.00500  -0.0218  0.8487  0.0214  -2.2639   0.0000   0.0000   0.0000   0.1594
  -3.700  -0.2488   0.01144   0.00484  -0.0214  0.8476  0.0220  -2.1999   0.0000   0.0000   0.0000   0.1579
  -3.600  -0.2393   0.01134   0.00472  -0.0211  0.8465  0.0226  -2.1299   0.0000   0.0000   0.0000   0.1558
  -3.500  -0.2303   0.01119   0.00456  -0.0207  0.8454  0.0234  -2.0662   0.0000   0.0000   0.0000   0.1543
  -3.400  -0.2235   0.01089   0.00420  -0.0198  0.8442  0.0258  -2.0305   0.0000   0.0000   0.0000   0.1556
  -3.300  -0.2147   0.01076   0.00406  -0.0193  0.8430  0.0278  -1.9671   0.0000   0.0000   0.0000   0.1542
  -3.200  -0.2054   0.01064   0.00394  -0.0190  0.8417  0.0296  -1.8999   0.0000   0.0000   0.0000   0.1517
  -3.100  -0.1960   0.01053   0.00382  -0.0186  0.8402  0.0316  -1.8331   0.0000   0.0000   0.0000   0.1488
  -3.000  -0.1862   0.01045   0.00373  -0.0184  0.8387  0.0333  -1.7629   0.0000   0.0000   0.0000   0.1452
  -2.900  -0.1781   0.01023   0.00353  -0.0177  0.8372  0.0410  -1.7130   0.0000   0.0000   0.0000   0.1442
  -2.800  -0.1696   0.01005   0.00340  -0.0172  0.8357  0.0552  -1.6517   0.0000   0.0000   0.0000   0.1423
  -2.700  -0.1636   0.00971   0.00327  -0.0163  0.8342  0.1079  -1.5946   0.0000   0.0000   0.0000   0.1440
  -2.600  -0.1585   0.00930   0.00314  -0.0153  0.8327  0.1824  -1.5375   0.0000   0.0000   0.0000   0.1476
  -2.500  -0.1546   0.00882   0.00299  -0.0140  0.8312  0.2730  -1.4854   0.0000   0.0000   0.0000   0.1533
  -2.400  -0.1566   0.00802   0.00278  -0.0117  0.8297  0.4299  -1.4542   0.0000   0.0000   0.0000   0.1698
  -2.300  -0.1587   0.00744   0.00267  -0.0090  0.8281  0.5571  -1.4218   0.0000   0.0000   0.0000   0.1877
  -2.200  -0.1562   0.00719   0.00265  -0.0072  0.8267  0.6217  -1.3726   0.0000   0.0000   0.0000   0.1988
  -2.100  -0.1511   0.00703   0.00263  -0.0059  0.8251  0.6603  -1.3149   0.0000   0.0000   0.0000   0.2060
  -2.000  -0.1447   0.00691   0.00262  -0.0048  0.8233  0.6880  -1.2531   0.0000   0.0000   0.0000   0.2114
  -1.900  -0.1371   0.00683   0.00259  -0.0040  0.8216  0.7098  -1.1881   0.0000   0.0000   0.0000   0.2154
  -1.800  -0.1294   0.00673   0.00257  -0.0032  0.8200  0.7300  -1.1233   0.0000   0.0000   0.0000   0.2197
  -1.700  -0.1213   0.00663   0.00254  -0.0025  0.8185  0.7495  -1.0578   0.0000   0.0000   0.0000   0.2238
  -1.600  -0.1125   0.00654   0.00250  -0.0020  0.8170  0.7676  -0.9969   0.0000   0.0000   0.0000   0.2271
  -1.500  -0.1030   0.00645   0.00247  -0.0016  0.8157  0.7841  -0.9396   0.0000   0.0000   0.0000   0.2292
  -1.400  -0.0926   0.00637   0.00244  -0.0014  0.8144  0.8008  -0.8805   0.0000   0.0000   0.0000   0.2296
  -1.300  -0.0808   0.00629   0.00242  -0.0014  0.8133  0.8204  -0.8174   0.0000   0.0000   0.0000   0.2263
  -1.200  -0.0637   0.00623   0.00247  -0.0026  0.8125  0.8504  -0.7425   0.0000   0.0000   0.0000   0.2021
  -1.100  -0.0455   0.00625   0.00256  -0.0040  0.8117  0.8759  -0.6661   0.0000   0.0000   0.0000   0.1529
  -1.000  -0.0267   0.00632   0.00263  -0.0056  0.8109  0.8871  -0.5903   0.0000   0.0000   0.0000   0.0267
  -0.900  -0.0132   0.00636   0.00266  -0.0061  0.8096  0.8940  -0.5291   0.0000   0.0000   0.0000  -0.2366
  -0.800   0.0038   0.00641   0.00272  -0.0074  0.8083  0.8991  -0.4609   0.0000   0.0000   0.0000   2.2651
  -0.700   0.0093   0.00645   0.00276  -0.0061  0.8063  0.9079  -0.4214   0.0000   0.0000   0.0000   0.9277
  -0.600   0.0279   0.00651   0.00281  -0.0077  0.8049  0.9103  -0.3809   0.0000   0.0000   0.0000   0.5326
  -0.500   0.0441   0.00656   0.00284  -0.0088  0.8035  0.9125  -0.3878   0.0000   0.0000   0.0000   0.4531
  -0.400   0.0593   0.00659   0.00286  -0.0097  0.8021  0.9146  -0.3944   0.0000   0.0000   0.0000   0.4156
  -0.200   0.0744   0.00664   0.00288  -0.0080  0.7987  0.9240  -0.4015   0.0000   0.0000   0.0000   0.3582
  -0.100   0.0907   0.00667   0.00289  -0.0092  0.7975  0.9248  -0.4086   0.0000   0.0000   0.0000   0.3512
   0.000   0.1071   0.00669   0.00289  -0.0104  0.7963  0.9255  -0.4158   0.0000   0.0000   0.0000   0.3464
   0.100   0.1231   0.00673   0.00290  -0.0115  0.7950  0.9263  -0.4229   0.0000   0.0000   0.0000   0.3424
   0.200   0.1387   0.00676   0.00292  -0.0125  0.7932  0.9271  -0.4310   0.0000   0.0000   0.0000   0.3389
   0.300   0.1535   0.00678   0.00294  -0.0133  0.7903  0.9280  -0.4429   0.0000   0.0000   0.0000   0.3354
   0.400   0.1681   0.00679   0.00294  -0.0140  0.7868  0.9290  -0.4550   0.0000   0.0000   0.0000   0.3321
   0.500   0.1825   0.00680   0.00292  -0.0147  0.7834  0.9300  -0.4672   0.0000   0.0000   0.0000   0.3291
   0.600   0.1965   0.00681   0.00290  -0.0153  0.7802  0.9311  -0.4792   0.0000   0.0000   0.0000   0.3262
   0.700   0.2102   0.00683   0.00290  -0.0158  0.7772  0.9324  -0.4917   0.0000   0.0000   0.0000   0.3235
   0.800   0.2224   0.00686   0.00294  -0.0161  0.7737  0.9344  -0.5033   0.0000   0.0000   0.0000   0.3203
   0.900   0.2242   0.00689   0.00296  -0.0140  0.7705  0.9405  -0.5091   0.0000   0.0000   0.0000   0.3102
   1.000   0.2397   0.00691   0.00298  -0.0149  0.7680  0.9409  -0.5226   0.0000   0.0000   0.0000   0.3102
   1.100   0.2550   0.00694   0.00299  -0.0159  0.7656  0.9413  -0.5365   0.0000   0.0000   0.0000   0.3100
   1.200   0.2702   0.00697   0.00300  -0.0168  0.7634  0.9418  -0.5509   0.0000   0.0000   0.0000   0.3098
   1.300   0.2853   0.00701   0.00302  -0.0177  0.7612  0.9422  -0.5652   0.0000   0.0000   0.0000   0.3096
   1.400   0.3002   0.00704   0.00307  -0.0186  0.7583  0.9428  -0.5796   0.0000   0.0000   0.0000   0.3095
   1.500   0.3151   0.00707   0.00310  -0.0195  0.7553  0.9435  -0.5939   0.0000   0.0000   0.0000   0.3092
   1.600   0.3298   0.00711   0.00313  -0.0203  0.7525  0.9442  -0.6082   0.0000   0.0000   0.0000   0.3089
   1.700   0.3444   0.00714   0.00316  -0.0211  0.7497  0.9449  -0.6233   0.0000   0.0000   0.0000   0.3085
   1.800   0.3588   0.00717   0.00317  -0.0218  0.7471  0.9458  -0.6385   0.0000   0.0000   0.0000   0.3081
   1.900   0.3728   0.00721   0.00320  -0.0225  0.7444  0.9467  -0.6535   0.0000   0.0000   0.0000   0.3075
   2.000   0.3864   0.00724   0.00325  -0.0231  0.7411  0.9479  -0.6682   0.0000   0.0000   0.0000   0.3069
   2.100   0.3994   0.00728   0.00329  -0.0235  0.7376  0.9493  -0.6827   0.0000   0.0000   0.0000   0.3060
   2.300   0.4171   0.00735   0.00335  -0.0225  0.7312  0.9550  -0.7062   0.0000   0.0000   0.0000   0.3010
   2.400   0.4279   0.00739   0.00338  -0.0225  0.7281  0.9567  -0.7202   0.0000   0.0000   0.0000   0.2994
   2.500   0.4431   0.00741   0.00342  -0.0235  0.7244  0.9572  -0.7374   0.0000   0.0000   0.0000   0.2997
   2.600   0.4580   0.00744   0.00345  -0.0244  0.7204  0.9577  -0.7546   0.0000   0.0000   0.0000   0.2999
   2.700   0.4728   0.00746   0.00346  -0.0252  0.7165  0.9582  -0.7717   0.0000   0.0000   0.0000   0.3000
   2.800   0.4874   0.00750   0.00348  -0.0260  0.7128  0.9588  -0.7887   0.0000   0.0000   0.0000   0.3000
   2.900   0.5020   0.00752   0.00352  -0.0269  0.7084  0.9594  -0.8058   0.0000   0.0000   0.0000   0.3000
   3.000   0.5163   0.00755   0.00356  -0.0276  0.7041  0.9601  -0.8243   0.0000   0.0000   0.0000   0.3000
   3.100   0.5303   0.00758   0.00358  -0.0283  0.6997  0.9609  -0.8840   0.0000   0.0000   0.0000   0.2998
   3.200   0.5440   0.00761   0.00362  -0.0290  0.6952  0.9618  -0.9439   0.0000   0.0000   0.0000   0.2995
   3.300   0.5577   0.00764   0.00366  -0.0296  0.6897  0.9627  -1.0060   0.0000   0.0000   0.0000   0.2993
   3.400   0.5708   0.00767   0.00369  -0.0301  0.6841  0.9638  -1.0767   0.0000   0.0000   0.0000   0.2989
   3.500   0.5835   0.00772   0.00372  -0.0305  0.6790  0.9651  -1.1470   0.0000   0.0000   0.0000   0.2983
   3.600   0.5957   0.00775   0.00377  -0.0308  0.6733  0.9666  -1.2167   0.0000   0.0000   0.0000   0.2977
   3.700   0.6053   0.00782   0.00382  -0.0305  0.6655  0.9688  -1.2803   0.0000   0.0000   0.0000   0.2963
   3.800   0.6123   0.00790   0.00389  -0.0296  0.6553  0.9714  -1.3365   0.0000   0.0000   0.0000   0.2942
   3.900   0.6260   0.00796   0.00389  -0.0303  0.6384  0.9719  -1.4141   0.0000   0.0000   0.0000   0.2941
   4.000   0.6393   0.00805   0.00390  -0.0308  0.6180  0.9725  -1.4913   0.0000   0.0000   0.0000   0.2939
   4.100   0.6522   0.00815   0.00393  -0.0313  0.5974  0.9732  -1.5687   0.0000   0.0000   0.0000   0.2936
   4.200   0.6650   0.00827   0.00399  -0.0318  0.5746  0.9740  -1.6458   0.0000   0.0000   0.0000   0.2934
   4.300   0.6765   0.00846   0.00405  -0.0321  0.5419  0.9749  -1.7203   0.0000   0.0000   0.0000   0.2929
   4.400   0.6865   0.00875   0.00414  -0.0322  0.4985  0.9762  -1.7909   0.0000   0.0000   0.0000   0.2921
   4.500   0.6958   0.00910   0.00428  -0.0321  0.4519  0.9777  -1.8629   0.0000   0.0000   0.0000   0.2913
   4.600   0.7045   0.00944   0.00443  -0.0319  0.4096  0.9794  -1.9411   0.0000   0.0000   0.0000   0.2904
   4.700   0.7120   0.00980   0.00461  -0.0315  0.3712  0.9815  -2.0152   0.0000   0.0000   0.0000   0.2892
   4.800   0.7179   0.01014   0.00480  -0.0306  0.3393  0.9838  -2.0837   0.0000   0.0000   0.0000   0.2876
   4.900   0.7297   0.01044   0.00492  -0.0312  0.3041  0.9844  -2.1762   0.0000   0.0000   0.0000   0.2875
   5.000   0.7417   0.01069   0.00504  -0.0317  0.2741  0.9851  -2.2703   0.0000   0.0000   0.0000   0.2875
   5.100   0.7534   0.01095   0.00516  -0.0322  0.2459  0.9859  -2.3643   0.0000   0.0000   0.0000   0.2874
   5.200   0.7647   0.01124   0.00530  -0.0326  0.2162  0.9868  -2.4569   0.0000   0.0000   0.0000   0.2872
   5.300   0.7753   0.01157   0.00547  -0.0330  0.1819  0.9879  -2.5455   0.0000   0.0000   0.0000   0.2870
   5.400   0.7841   0.01206   0.00569  -0.0330  0.1323  0.9892  -2.6256   0.0000   0.0000   0.0000   0.2865
   5.500   0.7886   0.01295   0.00614  -0.0324  0.0541  0.9911  -2.6835   0.0000   0.0000   0.0000   0.2854
   5.600   0.7978   0.01335   0.00643  -0.0323  0.0344  0.9925  -2.7577   0.0000   0.0000   0.0000   0.2847
   5.700   0.8074   0.01368   0.00673  -0.0322  0.0278  0.9938  -2.8283   0.0000   0.0000   0.0000   0.2840
   5.800   0.8198   0.01385   0.00692  -0.0327  0.0257  0.9945  -2.9157   0.0000   0.0000   0.0000   0.2839
   5.900   0.8328   0.01398   0.00709  -0.0333  0.0243  0.9951  -3.0112   0.0000   0.0000   0.0000   0.2839
   6.000   0.8454   0.01414   0.00726  -0.0338  0.0229  0.9959  -3.1066   0.0000   0.0000   0.0000   0.2838
   6.100   0.8577   0.01432   0.00745  -0.0343  0.0215  0.9967  -3.2024   0.0000   0.0000   0.0000   0.2837
   6.200   0.8694   0.01456   0.00771  -0.0347  0.0199  0.9976  -3.2901   0.0000   0.0000   0.0000   0.2835
   6.300   0.8794   0.01503   0.00823  -0.0348  0.0182  0.9986  -3.3478   0.0000   0.0000   0.0000   0.2831
   6.400   0.8909   0.01532   0.00857  -0.0351  0.0177  0.9994  -3.4498   0.0000   0.0000   0.0000   0.2828
   6.500   0.9028   0.01548   0.00876  -0.0355  0.0173  1.0000  -3.5642   0.0000   0.0000   0.0000   0.2826
   6.600   0.9089   0.01566   0.00896  -0.0347  0.0170  1.0000  -3.6496   0.0000   0.0000   0.0000   0.2813
   6.700   0.9146   0.01586   0.00918  -0.0338  0.0167  1.0000  -3.7334   0.0000   0.0000   0.0000   0.2800
   6.800   0.9201   0.01606   0.00942  -0.0328  0.0164  1.0000  -3.8157   0.0000   0.0000   0.0000   0.2786
   6.900   0.9254   0.01628   0.00966  -0.0318  0.0161  1.0000  -3.8968   0.0000   0.0000   0.0000   0.2772
   7.000   0.9304   0.01651   0.00991  -0.0308  0.0158  1.0000  -3.9771   0.0000   0.0000   0.0000   0.2758
   7.100   0.9353   0.01674   0.01017  -0.0297  0.0155  1.0000  -4.0568   0.0000   0.0000   0.0000   0.2744
   7.200   0.9400   0.01698   0.01043  -0.0286  0.0152  1.0000  -4.1360   0.0000   0.0000   0.0000   0.2730
   7.300   0.9445   0.01722   0.01069  -0.0275  0.0149  1.0000  -4.2148   0.0000   0.0000   0.0000   0.2715
   7.400   0.9488   0.01746   0.01096  -0.0263  0.0146  1.0000  -4.2931   0.0000   0.0000   0.0000   0.2700
   7.500   0.9529   0.01771   0.01123  -0.0251  0.0143  1.0000  -4.3710   0.0000   0.0000   0.0000   0.2686
   7.600   0.9568   0.01797   0.01150  -0.0239  0.0141  1.0000  -4.4480   0.0000   0.0000   0.0000   0.2671
   7.700   0.9604   0.01824   0.01179  -0.0226  0.0139  1.0000  -4.5235   0.0000   0.0000   0.0000   0.2655
   7.800   0.9637   0.01852   0.01209  -0.0213  0.0136  1.0000  -4.5970   0.0000   0.0000   0.0000   0.2640
   7.900   0.9666   0.01881   0.01240  -0.0199  0.0134  1.0000  -4.6687   0.0000   0.0000   0.0000   0.2623
   8.000   0.9690   0.01913   0.01274  -0.0185  0.0132  1.0000  -4.7373   0.0000   0.0000   0.0000   0.2607
   8.100   0.9707   0.01949   0.01313  -0.0169  0.0129  1.0000  -4.7988   0.0000   0.0000   0.0000   0.2589
   8.200   0.9713   0.01995   0.01361  -0.0151  0.0126  1.0000  -4.8478   0.0000   0.0000   0.0000   0.2569
   8.300   0.9701   0.02053   0.01421  -0.0130  0.0124  1.0000  -4.8774   0.0000   0.0000   0.0000   0.2547
   8.400   0.9691   0.02155   0.01529  -0.0111  0.0120  1.0000  -4.8775   0.0000   0.0000   0.0000   0.2525
   8.500   0.9728   0.02220   0.01598  -0.0099  0.0118  1.0000  -4.9273   0.0000   0.0000   0.0000   0.2512
   8.600   0.9746   0.02228   0.01610  -0.0082  0.0117  1.0000  -5.0053   0.0000   0.0000   0.0000   0.2493
   8.700   0.9764   0.02242   0.01627  -0.0066  0.0116  1.0000  -5.0781   0.0000   0.0000   0.0000   0.2475
   8.800   0.9788   0.02266   0.01654  -0.0051  0.0115  1.0000  -5.1474   0.0000   0.0000   0.0000   0.2459
   8.900   0.9816   0.02295   0.01686  -0.0037  0.0115  1.0000  -5.2156   0.0000   0.0000   0.0000   0.2443
   9.000   0.9847   0.02326   0.01721  -0.0024  0.0114  1.0000  -5.2842   0.0000   0.0000   0.0000   0.2428
   9.100   0.9882   0.02360   0.01758  -0.0012  0.0113  1.0000  -5.3530   0.0000   0.0000   0.0000   0.2414
   9.200   0.9919   0.02397   0.01798   0.0000  0.0112  1.0000  -5.4220   0.0000   0.0000   0.0000   0.2401
   9.300   0.9959   0.02436   0.01841   0.0011  0.0111  1.0000  -5.4911   0.0000   0.0000   0.0000   0.2389
   9.400   1.0001   0.02477   0.01886   0.0022  0.0110  1.0000  -5.5599   0.0000   0.0000   0.0000   0.2377
   9.500   1.0044   0.02520   0.01934   0.0033  0.0109  1.0000  -5.6282   0.0000   0.0000   0.0000   0.2365
   9.600   1.0089   0.02566   0.01984   0.0043  0.0108  1.0000  -5.6955   0.0000   0.0000   0.0000   0.2354
   9.700   1.0133   0.02613   0.02036   0.0053  0.0107  1.0000  -5.7614   0.0000   0.0000   0.0000   0.2343
   9.800   1.0177   0.02662   0.02090   0.0063  0.0106  1.0000  -5.8256   0.0000   0.0000   0.0000   0.2332
   9.900   1.0220   0.02713   0.02145   0.0073  0.0105  1.0000  -5.8877   0.0000   0.0000   0.0000   0.2321
  10.000   1.0261   0.02765   0.02203   0.0083  0.0104  1.0000  -5.9472   0.0000   0.0000   0.0000   0.2310
  10.100   1.0299   0.02819   0.02262   0.0094  0.0102  1.0000  -6.0038   0.0000   0.0000   0.0000   0.2299
  10.200   1.0335   0.02875   0.02324   0.0105  0.0101  1.0000  -6.0573   0.0000   0.0000   0.0000   0.2288
  10.300   1.0367   0.02932   0.02387   0.0116  0.0100  1.0000  -6.1101   0.0000   0.0000   0.0000   0.2276
  10.400   1.0396   0.02992   0.02453   0.0128  0.0099  1.0000  -6.1797   0.0000   0.0000   0.0000   0.2263
  10.500   1.0421   0.03053   0.02521   0.0140  0.0098  1.0000  -6.2454   0.0000   0.0000   0.0000   0.2251
  10.600   1.0441   0.03118   0.02592   0.0152  0.0097  1.0000  -6.3069   0.0000   0.0000   0.0000   0.2238
  10.700   1.0458   0.03185   0.02666   0.0165  0.0097  1.0000  -6.3639   0.0000   0.0000   0.0000   0.2224
  10.800   1.0469   0.03255   0.02744   0.0179  0.0096  1.0000  -6.4152   0.0000   0.0000   0.0000   0.2210
  10.900   1.0476   0.03331   0.02827   0.0193  0.0095  1.0000  -6.4597   0.0000   0.0000   0.0000   0.2196
  11.000   1.0477   0.03413   0.02917   0.0207  0.0095  1.0000  -6.4954   0.0000   0.0000   0.0000   0.2181
  11.100   1.0471   0.03505   0.03018   0.0222  0.0095  1.0000  -6.5190   0.0000   0.0000   0.0000   0.2165
  11.200   1.0456   0.03609   0.03132   0.0238  0.0095  1.0000  -6.5257   0.0000   0.0000   0.0000   0.2148
  11.300   1.0427   0.03730   0.03267   0.0255  0.0096  1.0000  -6.5111   0.0000   0.0000   0.0000   0.2130
  11.400   1.0386   0.03875   0.03426   0.0273  0.0097  1.0000  -6.4679   0.0000   0.0000   0.0000   0.2110
  11.500   1.0328   0.04032   0.03596   0.0293  0.0098  1.0000  -6.4073   0.0000   0.0000   0.0000   0.2088
  11.600   1.0258   0.04185   0.03762   0.0312  0.0100  1.0000  -6.3480   0.0000   0.0000   0.0000   0.2066
  11.700   1.0183   0.04332   0.03920   0.0331  0.0102  1.0000  -6.2956   0.0000   0.0000   0.0000   0.2043
  11.800   1.0106   0.04472   0.04071   0.0349  0.0104  1.0000  -6.2520   0.0000   0.0000   0.0000   0.2021
  11.900   1.0029   0.04610   0.04218   0.0366  0.0105  1.0000  -6.2150   0.0000   0.0000   0.0000   0.2000
  12.000   0.9951   0.04748   0.04364   0.0382  0.0106  1.0000  -6.1809   0.0000   0.0000   0.0000   0.1980
  12.100   0.9869   0.04887   0.04512   0.0396  0.0108  1.0000  -6.1475   0.0000   0.0000   0.0000   0.1960
  12.200   0.9785   0.05033   0.04666   0.0410  0.0109  1.0000  -6.1125   0.0000   0.0000   0.0000   0.1941
  12.300   0.9695   0.05187   0.04828   0.0422  0.0110  1.0000  -6.0732   0.0000   0.0000   0.0000   0.1922
  12.400   0.9594   0.05359   0.05006   0.0434  0.0112  1.0000  -6.0221   0.0000   0.0000   0.0000   0.1904
  13.500   0.7512   0.05424   0.05142   0.0542  0.0108  1.0000  -5.3526   0.0000   0.0000   0.0000   0.1630
  13.600   0.7410   0.05644   0.05367   0.0539  0.0108  1.0000  -5.3086   0.0000   0.0000   0.0000   0.1622
  13.700   0.7305   0.05866   0.05594   0.0536  0.0109  1.0000  -5.2627   0.0000   0.0000   0.0000   0.1615
  13.800   0.7198   0.06088   0.05821   0.0531  0.0109  1.0000  -5.2146   0.0000   0.0000   0.0000   0.1609
  13.900   0.7092   0.06312   0.06050   0.0526  0.0109  1.0000  -5.1646   0.0000   0.0000   0.0000   0.1604
  14.000   0.6973   0.06523   0.06266   0.0520  0.0109  1.0000  -5.1103   0.0000   0.0000   0.0000   0.1599
  14.100   0.6838   0.06701   0.06449   0.0515  0.0109  1.0000  -5.0500   0.0000   0.0000   0.0000   0.1590
  14.200   0.6721   0.06903   0.06656   0.0507  0.0109  1.0000  -4.9902   0.0000   0.0000   0.0000   0.1589
  14.300   0.6613   0.07118   0.06875   0.0498  0.0109  1.0000  -4.9289   0.0000   0.0000   0.0000   0.1590
  14.400   0.6509   0.07342   0.07104   0.0486  0.0110  1.0000  -4.8651   0.0000   0.0000   0.0000   0.1594
  14.500   0.6407   0.07574   0.07340   0.0474  0.0110  1.0000  -4.7982   0.0000   0.0000   0.0000   0.1601
  14.600   0.6306   0.07815   0.07585   0.0461  0.0110  1.0000  -4.7273   0.0000   0.0000   0.0000   0.1610
  14.700   0.6207   0.08063   0.07838   0.0446  0.0110  1.0000  -4.6519   0.0000   0.0000   0.0000   0.1621
  14.800   0.6108   0.08321   0.08099   0.0431  0.0111  1.0000  -4.5708   0.0000   0.0000   0.0000   0.1634
  14.900   0.6008   0.08588   0.08370   0.0415  0.0111  1.0000  -4.4829   0.0000   0.0000   0.0000   0.1649
  15.000   0.5906   0.08867   0.08653   0.0398  0.0112  1.0000  -4.3862   0.0000   0.0000   0.0000   0.1666
  15.100   0.5801   0.09160   0.08950   0.0380  0.0113  1.0000  -4.2776   0.0000   0.0000   0.0000   0.1685
  15.200   0.5690   0.09474   0.09267   0.0361  0.0114  1.0000  -4.1507   0.0000   0.0000   0.0000   0.1706
  16.100   0.4680   0.13133   0.12935   0.0200  0.0178  1.0000  -2.0498   0.0000   0.0000   0.0000   0.1935
  16.200   0.4674   0.13294   0.13096   0.0194  0.0178  1.0000  -2.0167   0.0000   0.0000   0.0000   0.1949
  16.300   0.4670   0.13451   0.13253   0.0187  0.0178  1.0000  -1.9861   0.0000   0.0000   0.0000   0.1963
  16.400   0.4667   0.13605   0.13407   0.0180  0.0178  1.0000  -1.9576   0.0000   0.0000   0.0000   0.1977
  16.500   0.4666   0.13756   0.13557   0.0174  0.0178  1.0000  -1.9311   0.0000   0.0000   0.0000   0.1990
  16.600   0.4667   0.13904   0.13705   0.0167  0.0177  1.0000  -1.9063   0.0000   0.0000   0.0000   0.2004
  16.700   0.4669   0.14049   0.13850   0.0161  0.0177  1.0000  -1.8832   0.0000   0.0000   0.0000   0.2018
  16.800   0.4672   0.14190   0.13992   0.0154  0.0176  1.0000  -1.8618   0.0000   0.0000   0.0000   0.2032
  16.900   0.4677   0.14328   0.14130   0.0148  0.0176  1.0000  -1.8420   0.0000   0.0000   0.0000   0.2046
  17.000   0.4685   0.14461   0.14262   0.0141  0.0175  1.0000  -1.8240   0.0000   0.0000   0.0000   0.2061
  17.100   0.4697   0.14587   0.14388   0.0134  0.0171  1.0000  -1.8061   0.0000   0.0000   0.0000   0.2077
  17.200   0.4699   0.14744   0.14546   0.0125  0.0167  1.0000  -1.7602   0.0000   0.0000   0.0000   0.2096
  17.300   0.4701   0.14897   0.14698   0.0117  0.0162  1.0000  -1.7232   0.0000   0.0000   0.0000   0.2113
  17.400   0.4703   0.15042   0.14843   0.0110  0.0159  1.0000  -1.6952   0.0000   0.0000   0.0000   0.2128
  17.500   0.4708   0.15178   0.14979   0.0103  0.0155  1.0000  -1.6749   0.0000   0.0000   0.0000   0.2143
  17.600   0.4715   0.15308   0.15109   0.0097  0.0152  1.0000  -1.6614   0.0000   0.0000   0.0000   0.2156
  17.700   0.4724   0.15433   0.15234   0.0091  0.0148  1.0000  -1.6538   0.0000   0.0000   0.0000   0.2169
  17.800   0.4735   0.15552   0.15354   0.0085  0.0145  1.0000  -1.6517   0.0000   0.0000   0.0000   0.2181
  17.900   0.4748   0.15666   0.15467   0.0079  0.0142  1.0000  -1.6554   0.0000   0.0000   0.0000   0.2193
  18.000   0.4763   0.15773   0.15575   0.0074  0.0139  1.0000  -1.6651   0.0000   0.0000   0.0000   0.2204
  18.100   0.4779   0.15875   0.15677   0.0068  0.0136  1.0000  -1.6808   0.0000   0.0000   0.0000   0.2214
  18.200   0.4798   0.15972   0.15774   0.0064  0.0134  1.0000  -1.7020   0.0000   0.0000   0.0000   0.2223
  18.300   0.4818   0.16067   0.15870   0.0059  0.0132  1.0000  -1.7260   0.0000   0.0000   0.0000   0.2232
  18.400   0.4838   0.16162   0.15965   0.0054  0.0130  1.0000  -1.7505   0.0000   0.0000   0.0000   0.2241
  18.500   0.4859   0.16254   0.16058   0.0050  0.0129  1.0000  -1.7760   0.0000   0.0000   0.0000   0.2249
  18.600   0.4882   0.16343   0.16148   0.0046  0.0127  1.0000  -1.8068   0.0000   0.0000   0.0000   0.2257
  18.700   0.4906   0.16433   0.16237   0.0042  0.0126  1.0000  -1.8401   0.0000   0.0000   0.0000   0.2264
  18.800   0.4928   0.16524   0.16329   0.0037  0.0125  1.0000  -1.8722   0.0000   0.0000   0.0000   0.2271
  18.900   0.4951   0.16615   0.16420   0.0034  0.0123  1.0000  -1.9081   0.0000   0.0000   0.0000   0.2278
  19.000   0.4918   0.16925   0.16729   0.0026  0.0119  1.0000  -1.7849   0.0000   0.0000   0.0000   0.2293
  19.100   0.4930   0.17065   0.16868   0.0020  0.0119  1.0000  -1.7613   0.0000   0.0000   0.0000   0.2306
  19.200   0.4942   0.17204   0.17008   0.0013  0.0118  1.0000  -1.7370   0.0000   0.0000   0.0000   0.2319
  19.300   0.4955   0.17343   0.17147   0.0006  0.0118  1.0000  -1.7119   0.0000   0.0000   0.0000   0.2332
  19.400   0.4967   0.17481   0.17286  -0.0000  0.0118  1.0000  -1.6861   0.0000   0.0000   0.0000   0.2345
  19.500   0.4980   0.17619   0.17424  -0.0007  0.0118  1.0000  -1.6598   0.0000   0.0000   0.0000   0.2358
  19.600   0.4993   0.17756   0.17560  -0.0014  0.0118  1.0000  -1.6331   0.0000   0.0000   0.0000   0.2371
  19.700   0.5006   0.17892   0.17696  -0.0021  0.0117  1.0000  -1.6062   0.0000   0.0000   0.0000   0.2384
  19.800   0.5020   0.18025   0.17830  -0.0028  0.0117  1.0000  -1.5794   0.0000   0.0000   0.0000   0.2397
  19.900   0.5033   0.18156   0.17961  -0.0035  0.0117  1.0000  -1.5523   0.0000   0.0000   0.0000   0.2410
  20.000   0.5043   0.18293   0.18098  -0.0043  0.0116  1.0000  -1.5125   0.0000   0.0000   0.0000   0.2426
  20.100   0.5044   0.18446   0.18250  -0.0054  0.0113  1.0000  -1.4430   0.0000   0.0000   0.0000   0.2447
  20.200   0.5051   0.18605   0.18410  -0.0063  0.0109  1.0000  -1.3763   0.0000   0.0000   0.0000   0.2466
  20.300   0.5065   0.18747   0.18552  -0.0070  0.0105  1.0000  -1.3435   0.0000   0.0000   0.0000   0.2480
  20.400   0.5081   0.18881   0.18686  -0.0077  0.0103  1.0000  -1.3236   0.0000   0.0000   0.0000   0.2492
  20.500   0.5098   0.19010   0.18815  -0.0084  0.0100  1.0000  -1.3093   0.0000   0.0000   0.0000   0.2503
  20.600   0.5115   0.19139   0.18944  -0.0090  0.0098  1.0000  -1.2985   0.0000   0.0000   0.0000   0.2514
  20.700   0.5132   0.19265   0.19071  -0.0097  0.0096  1.0000  -1.2935   0.0000   0.0000   0.0000   0.2525
  20.800   0.5150   0.19390   0.19196  -0.0103  0.0095  1.0000  -1.2973   0.0000   0.0000   0.0000   0.2536
  20.900   0.5168   0.19514   0.19321  -0.0109  0.0093  1.0000  -1.3026   0.0000   0.0000   0.0000   0.2546
  21.000   0.5186   0.19637   0.19444  -0.0116  0.0092  1.0000  -1.3092   0.0000   0.0000   0.0000   0.2557
  21.100   0.5204   0.19759   0.19566  -0.0122  0.0090  1.0000  -1.3172   0.0000   0.0000   0.0000   0.2567
  21.200   0.5223   0.19880   0.19687  -0.0128  0.0089  1.0000  -1.3264   0.0000   0.0000   0.0000   0.2577
  21.300   0.5242   0.20000   0.19807  -0.0135  0.0088  1.0000  -1.3371   0.0000   0.0000   0.0000   0.2587
  21.400   0.5261   0.20118   0.19926  -0.0141  0.0087  1.0000  -1.3492   0.0000   0.0000   0.0000   0.2597
  21.500   0.5280   0.20236   0.20044  -0.0147  0.0086  1.0000  -1.3629   0.0000   0.0000   0.0000   0.2606
  21.600   0.5300   0.20352   0.20160  -0.0153  0.0085  1.0000  -1.3782   0.0000   0.0000   0.0000   0.2615
  21.700   0.5320   0.20467   0.20275  -0.0160  0.0084  1.0000  -1.3955   0.0000   0.0000   0.0000   0.2624
  21.800   0.5340   0.20581   0.20390  -0.0166  0.0083  1.0000  -1.4148   0.0000   0.0000   0.0000   0.2633
  21.900   0.5361   0.20695   0.20504  -0.0172  0.0083  1.0000  -1.4365   0.0000   0.0000   0.0000   0.2641
  22.000   0.5382   0.20807   0.20617  -0.0177  0.0082  1.0000  -1.4608   0.0000   0.0000   0.0000   0.2649
  22.100   0.5404   0.20918   0.20728  -0.0183  0.0081  1.0000  -1.4881   0.0000   0.0000   0.0000   0.2657
  22.200   0.5428   0.21029   0.20839  -0.0188  0.0080  1.0000  -1.5195   0.0000   0.0000   0.0000   0.2663
  22.300   0.5453   0.21140   0.20951  -0.0193  0.0080  1.0000  -1.5563   0.0000   0.0000   0.0000   0.2668
  22.400   0.5482   0.21261   0.21074  -0.0197  0.0079  1.0000  -1.6011   0.0000   0.0000   0.0000   0.2671
  22.900   0.5559   0.22065   0.21878  -0.0230  0.0077  1.0000  -1.5337   0.0000   0.0000   0.0000   0.2721
  23.000   0.5575   0.22201   0.22014  -0.0237  0.0077  1.0000  -1.5243   0.0000   0.0000   0.0000   0.2731
  23.100   0.5591   0.22337   0.22150  -0.0244  0.0077  1.0000  -1.5134   0.0000   0.0000   0.0000   0.2742
  23.200   0.5606   0.22472   0.22285  -0.0252  0.0077  1.0000  -1.5007   0.0000   0.0000   0.0000   0.2753
  23.300   0.5619   0.22611   0.22425  -0.0260  0.0076  1.0000  -1.4776   0.0000   0.0000   0.0000   0.2766
  23.400   0.5630   0.22753   0.22567  -0.0268  0.0076  1.0000  -1.4520   0.0000   0.0000   0.0000   0.2779
  23.500   0.5643   0.22895   0.22709  -0.0277  0.0076  1.0000  -1.4270   0.0000   0.0000   0.0000   0.2791
  23.600   0.5656   0.23038   0.22853  -0.0285  0.0075  1.0000  -1.3978   0.0000   0.0000   0.0000   0.2803
  23.700   0.5670   0.23185   0.23000  -0.0293  0.0075  1.0000  -1.3608   0.0000   0.0000   0.0000   0.2816
  23.800   0.5685   0.23341   0.23155  -0.0302  0.0073  1.0000  -1.3109   0.0000   0.0000   0.0000   0.2830
  23.900   0.5703   0.23496   0.23311  -0.0309  0.0070  1.0000  -1.2715   0.0000   0.0000   0.0000   0.2840
  24.000   0.5721   0.23641   0.23456  -0.0316  0.0068  1.0000  -1.2521   0.0000   0.0000   0.0000   0.2850
  24.100   0.5740   0.23781   0.23596  -0.0323  0.0065  1.0000  -1.2400   0.0000   0.0000   0.0000   0.2859
  24.200   0.5758   0.23919   0.23735  -0.0330  0.0063  1.0000  -1.2314   0.0000   0.0000   0.0000   0.2867
  24.300   0.5776   0.24053   0.23870  -0.0337  0.0062  1.0000  -1.2251   0.0000   0.0000   0.0000   0.2876
  24.400   0.5795   0.24188   0.24005  -0.0344  0.0060  1.0000  -1.2209   0.0000   0.0000   0.0000   0.2884
  24.500   0.5813   0.24322   0.24139  -0.0351  0.0058  1.0000  -1.2186   0.0000   0.0000   0.0000   0.2893
  24.600   0.5832   0.24454   0.24272  -0.0357  0.0057  1.0000  -1.2180   0.0000   0.0000   0.0000   0.2901
  24.700   0.5850   0.24585   0.24403  -0.0364  0.0056  1.0000  -1.2194   0.0000   0.0000   0.0000   0.2909
  24.800   0.5868   0.24715   0.24533  -0.0371  0.0055  1.0000  -1.2225   0.0000   0.0000   0.0000   0.2917
  24.900   0.5887   0.24843   0.24662  -0.0378  0.0054  1.0000  -1.2276   0.0000   0.0000   0.0000   0.2925
  25.000   0.5905   0.24970   0.24789  -0.0385  0.0053  1.0000  -1.2347   0.0000   0.0000   0.0000   0.2933
  25.100   0.5924   0.25099   0.24918  -0.0392  0.0053  1.0000  -1.2438   0.0000   0.0000   0.0000   0.2940
  25.200   0.5942   0.25225   0.25044  -0.0398  0.0052  1.0000  -1.2552   0.0000   0.0000   0.0000   0.2948
  25.300   0.5961   0.25349   0.25168  -0.0405  0.0051  1.0000  -1.2690   0.0000   0.0000   0.0000   0.2955
  25.400   0.5980   0.25472   0.25292  -0.0412  0.0051  1.0000  -1.2856   0.0000   0.0000   0.0000   0.2962
  25.500   0.5999   0.25594   0.25415  -0.0418  0.0050  1.0000  -1.3052   0.0000   0.0000   0.0000   0.2969
  25.600   0.6019   0.25718   0.25539  -0.0424  0.0050  1.0000  -1.3285   0.0000   0.0000   0.0000   0.2974
  25.700   0.6040   0.25845   0.25667  -0.0430  0.0049  1.0000  -1.3571   0.0000   0.0000   0.0000   0.2979
  25.800   0.6065   0.25992   0.25815  -0.0434  0.0048  1.0000  -1.3990   0.0000   0.0000   0.0000   0.2980
  26.000   0.9068   0.31461   0.31238  -0.0750  0.0047  1.0000  -2.1347   0.0000   0.0000   0.0000   0.2951
  26.100   0.9096   0.31596   0.31373  -0.0760  0.0047  1.0000  -2.1114   0.0000   0.0000   0.0000   0.2957
  26.200   0.9124   0.31730   0.31507  -0.0770  0.0047  1.0000  -2.0886   0.0000   0.0000   0.0000   0.2963
  26.300   0.9152   0.31865   0.31642  -0.0780  0.0047  1.0000  -2.0659   0.0000   0.0000   0.0000   0.2969
  26.400   0.9181   0.31998   0.31776  -0.0790  0.0047  1.0000  -2.0431   0.0000   0.0000   0.0000   0.2974
  26.500   0.9210   0.32133   0.31910  -0.0799  0.0047  1.0000  -2.0201   0.0000   0.0000   0.0000   0.2980
  26.600   0.9239   0.32268   0.32046  -0.0809  0.0046  1.0000  -1.9967   0.0000   0.0000   0.0000   0.2986
  26.700   0.9268   0.32404   0.32181  -0.0819  0.0046  1.0000  -1.9725   0.0000   0.0000   0.0000   0.2991
  26.800   0.9298   0.32540   0.32318  -0.0829  0.0046  1.0000  -1.9479   0.0000   0.0000   0.0000   0.2997
  26.900   0.9329   0.32677   0.32455  -0.0838  0.0045  1.0000  -1.9248   0.0000   0.0000   0.0000   0.3002
  27.000   0.9359   0.32812   0.32590  -0.0847  0.0044  1.0000  -1.9197   0.0000   0.0000   0.0000   0.3007
  27.100   0.9389   0.32944   0.32722  -0.0857  0.0044  1.0000  -1.9181   0.0000   0.0000   0.0000   0.3011
  27.200   0.9418   0.33073   0.32851  -0.0866  0.0043  1.0000  -1.9197   0.0000   0.0000   0.0000   0.3016
  27.300   0.9446   0.33200   0.32978  -0.0875  0.0042  1.0000  -1.9238   0.0000   0.0000   0.0000   0.3020
  27.400   0.9474   0.33324   0.33103  -0.0884  0.0041  1.0000  -1.9294   0.0000   0.0000   0.0000   0.3024
  27.500   0.9502   0.33448   0.33226  -0.0893  0.0041  1.0000  -1.9362   0.0000   0.0000   0.0000   0.3029
  27.600   0.9530   0.33570   0.33349  -0.0902  0.0040  1.0000  -1.9438   0.0000   0.0000   0.0000   0.3033
  27.700   0.9557   0.33691   0.33470  -0.0911  0.0039  1.0000  -1.9520   0.0000   0.0000   0.0000   0.3037
  27.800   0.9584   0.33811   0.33591  -0.0920  0.0039  1.0000  -1.9606   0.0000   0.0000   0.0000   0.3041
  27.900   0.9611   0.33931   0.33710  -0.0929  0.0038  1.0000  -1.9695   0.0000   0.0000   0.0000   0.3045
  28.000   0.9638   0.34049   0.33829  -0.0938  0.0038  1.0000  -1.9788   0.0000   0.0000   0.0000   0.3050
  28.100   0.9665   0.34168   0.33948  -0.0948  0.0037  1.0000  -1.9884   0.0000   0.0000   0.0000   0.3054
  28.200   0.9692   0.34284   0.34064  -0.0957  0.0037  1.0000  -1.9982   0.0000   0.0000   0.0000   0.3058
  28.300   0.9719   0.34398   0.34179  -0.0966  0.0036  1.0000  -2.0085   0.0000   0.0000   0.0000   0.3062
  28.400   0.9746   0.34510   0.34291  -0.0975  0.0035  1.0000  -2.0195   0.0000   0.0000   0.0000   0.3066
  28.500   0.9772   0.34620   0.34401  -0.0985  0.0035  1.0000  -2.0313   0.0000   0.0000   0.0000   0.3070
  28.600   0.9799   0.34727   0.34508  -0.0994  0.0034  1.0000  -2.0440   0.0000   0.0000   0.0000   0.3074
  28.700   0.9825   0.34832   0.34614  -0.1003  0.0034  1.0000  -2.0577   0.0000   0.0000   0.0000   0.3078
  28.800   0.9851   0.34935   0.34717  -0.1013  0.0033  1.0000  -2.0726   0.0000   0.0000   0.0000   0.3082
  28.900   0.9877   0.35035   0.34817  -0.1022  0.0032  1.0000  -2.0888   0.0000   0.0000   0.0000   0.3086
  29.000   0.9903   0.35134   0.34916  -0.1031  0.0032  1.0000  -2.1062   0.0000   0.0000   0.0000   0.3090
  29.100   0.9929   0.35230   0.35012  -0.1041  0.0031  1.0000  -2.1248   0.0000   0.0000   0.0000   0.3094
  29.200   0.9954   0.35324   0.35107  -0.1050  0.0031  1.0000  -2.1447   0.0000   0.0000   0.0000   0.3097
  29.300   0.9980   0.35417   0.35201  -0.1060  0.0030  1.0000  -2.1657   0.0000   0.0000   0.0000   0.3101
  29.400   1.0005   0.35502   0.35287  -0.1069  0.0030  1.0000  -2.1874   0.0000   0.0000   0.0000   0.3105
  29.500   1.0029   0.35594   0.35379  -0.1079  0.0030  1.0000  -2.2095   0.0000   0.0000   0.0000   0.3109
  29.600   1.0054   0.35684   0.35469  -0.1088  0.0029  1.0000  -2.2315   0.0000   0.0000   0.0000   0.3112
  29.700   1.0078   0.35772   0.35558  -0.1097  0.0029  1.0000  -2.2546   0.0000   0.0000   0.0000   0.3116
  29.800   1.0103   0.35858   0.35644  -0.1107  0.0029  1.0000  -2.2793   0.0000   0.0000   0.0000   0.3119
  29.900   1.0126   0.35943   0.35729  -0.1116  0.0029  1.0000  -2.3059   0.0000   0.0000   0.0000   0.3123
  30.000   1.0149   0.36026   0.35812  -0.1125  0.0028  1.0000  -2.3345   0.0000   0.0000   0.0000   0.3126


