xflr5 v6.61

 Calculated polar for: MH 16

 1 1 Reynolds number fixed          Mach number fixed         

 xtrf =   1.000 (top)        1.000 (bottom)
 Mach =   0.000     Re =     0.688 e 6     Ncrit =   9.000

  alpha     CL        CD       CDp       Cm    Top Xtr Bot Xtr   Cpmin    Chinge    XCp    
 ------- -------- --------- --------- -------- ------- ------- -------- --------- ---------
 -10.000  -0.5750   0.03128   0.02737  -0.1027  0.9531  0.0118  -5.5526   0.0000   0.0000   0.0000   0.0601
  -9.900  -0.5809   0.03061   0.02662  -0.1001  0.9513  0.0118  -5.5612   0.0000   0.0000   0.0000   0.0665
  -9.800  -0.5862   0.02993   0.02586  -0.0976  0.9495  0.0117  -5.5666   0.0000   0.0000   0.0000   0.0726
  -9.700  -0.5901   0.02919   0.02502  -0.0953  0.9478  0.0117  -5.5673   0.0000   0.0000   0.0000   0.0777
  -9.600  -0.5913   0.02831   0.02404  -0.0935  0.9463  0.0117  -5.5602   0.0000   0.0000   0.0000   0.0811
  -9.500  -0.5910   0.02742   0.02304  -0.0920  0.9450  0.0116  -5.5451   0.0000   0.0000   0.0000   0.0837
  -9.400  -0.5895   0.02656   0.02206  -0.0907  0.9438  0.0116  -5.5221   0.0000   0.0000   0.0000   0.0856
  -9.300  -0.5872   0.02574   0.02113  -0.0895  0.9427  0.0116  -5.4964   0.0000   0.0000   0.0000   0.0872
  -9.200  -0.5839   0.02497   0.02024  -0.0884  0.9417  0.0116  -5.4762   0.0000   0.0000   0.0000   0.0884
  -9.100  -0.5797   0.02422   0.01939  -0.0874  0.9408  0.0117  -5.4480   0.0000   0.0000   0.0000   0.0890
  -9.000  -0.5746   0.02352   0.01859  -0.0866  0.9400  0.0117  -5.4120   0.0000   0.0000   0.0000   0.0892
  -8.900  -0.5688   0.02286   0.01783  -0.0858  0.9392  0.0117  -5.3686   0.0000   0.0000   0.0000   0.0890
  -8.800  -0.5624   0.02225   0.01712  -0.0852  0.9385  0.0118  -5.3182   0.0000   0.0000   0.0000   0.0885
  -8.700  -0.5555   0.02168   0.01646  -0.0846  0.9377  0.0119  -5.2611   0.0000   0.0000   0.0000   0.0877
  -8.600  -0.5482   0.02123   0.01594  -0.0841  0.9370  0.0120  -5.1923   0.0000   0.0000   0.0000   0.0867
  -8.500  -0.5408   0.02092   0.01556  -0.0835  0.9363  0.0121  -5.1122   0.0000   0.0000   0.0000   0.0857
  -8.400  -0.5337   0.02073   0.01531  -0.0829  0.9356  0.0122  -5.0241   0.0000   0.0000   0.0000   0.0849
  -8.300  -0.5270   0.02070   0.01521  -0.0821  0.9347  0.0124  -4.9283   0.0000   0.0000   0.0000   0.0845
  -8.200  -0.5169   0.01933   0.01373  -0.0824  0.9344  0.0126  -4.9081   0.0000   0.0000   0.0000   0.0810
  -8.100  -0.5066   0.01839   0.01273  -0.0826  0.9340  0.0128  -4.8491   0.0000   0.0000   0.0000   0.0773
  -8.000  -0.4975   0.01782   0.01213  -0.0824  0.9334  0.0130  -4.7698   0.0000   0.0000   0.0000   0.0746
  -7.900  -0.4889   0.01740   0.01168  -0.0822  0.9327  0.0132  -4.6836   0.0000   0.0000   0.0000   0.0723
  -7.800  -0.4807   0.01706   0.01132  -0.0818  0.9319  0.0133  -4.5939   0.0000   0.0000   0.0000   0.0702
  -7.700  -0.4727   0.01677   0.01101  -0.0814  0.9311  0.0135  -4.5031   0.0000   0.0000   0.0000   0.0683
  -7.600  -0.4649   0.01652   0.01074  -0.0809  0.9301  0.0137  -4.4129   0.0000   0.0000   0.0000   0.0665
  -7.500  -0.4575   0.01631   0.01049  -0.0803  0.9289  0.0139  -4.3250   0.0000   0.0000   0.0000   0.0649
  -7.400  -0.4512   0.01617   0.01033  -0.0795  0.9270  0.0140  -4.2434   0.0000   0.0000   0.0000   0.0643
  -7.300  -0.4491   0.01621   0.01035  -0.0778  0.9244  0.0142  -4.1821   0.0000   0.0000   0.0000   0.0674
  -7.200  -0.4432   0.01599   0.01011  -0.0769  0.9239  0.0144  -4.1031   0.0000   0.0000   0.0000   0.0673
  -7.100  -0.4375   0.01579   0.00989  -0.0759  0.9234  0.0146  -4.0259   0.0000   0.0000   0.0000   0.0674
  -7.000  -0.4320   0.01561   0.00968  -0.0749  0.9229  0.0148  -3.9494   0.0000   0.0000   0.0000   0.0676
  -6.900  -0.4265   0.01542   0.00947  -0.0738  0.9222  0.0150  -3.8736   0.0000   0.0000   0.0000   0.0679
  -6.800  -0.4211   0.01525   0.00928  -0.0728  0.9215  0.0152  -3.7985   0.0000   0.0000   0.0000   0.0683
  -6.700  -0.4156   0.01509   0.00909  -0.0717  0.9208  0.0154  -3.7235   0.0000   0.0000   0.0000   0.0687
  -6.600  -0.4101   0.01493   0.00891  -0.0706  0.9200  0.0157  -3.6480   0.0000   0.0000   0.0000   0.0690
  -6.500  -0.4044   0.01479   0.00875  -0.0696  0.9191  0.0159  -3.5713   0.0000   0.0000   0.0000   0.0691
  -6.400  -0.3979   0.01468   0.00861  -0.0687  0.9182  0.0161  -3.4886   0.0000   0.0000   0.0000   0.0686
  -6.300  -0.3905   0.01459   0.00851  -0.0680  0.9173  0.0164  -3.4035   0.0000   0.0000   0.0000   0.0672
  -6.200  -0.3859   0.01434   0.00822  -0.0668  0.9161  0.0167  -3.3518   0.0000   0.0000   0.0000   0.0684
  -6.100  -0.3828   0.01400   0.00784  -0.0653  0.9148  0.0172  -3.3104   0.0000   0.0000   0.0000   0.0711
  -6.000  -0.3771   0.01379   0.00763  -0.0642  0.9137  0.0177  -3.2455   0.0000   0.0000   0.0000   0.0713
  -5.900  -0.3705   0.01365   0.00748  -0.0634  0.9127  0.0182  -3.1732   0.0000   0.0000   0.0000   0.0705
  -5.800  -0.3634   0.01352   0.00733  -0.0627  0.9118  0.0186  -3.1001   0.0000   0.0000   0.0000   0.0693
  -5.700  -0.3559   0.01339   0.00719  -0.0620  0.9109  0.0191  -3.0269   0.0000   0.0000   0.0000   0.0676
  -5.600  -0.3480   0.01325   0.00704  -0.0614  0.9100  0.0196  -2.9527   0.0000   0.0000   0.0000   0.0653
  -5.500  -0.3395   0.01312   0.00688  -0.0609  0.9092  0.0202  -2.8774   0.0000   0.0000   0.0000   0.0625
  -5.400  -0.3306   0.01299   0.00673  -0.0605  0.9084  0.0208  -2.8000   0.0000   0.0000   0.0000   0.0588
  -5.300  -0.3211   0.01287   0.00659  -0.0602  0.9076  0.0213  -2.7195   0.0000   0.0000   0.0000   0.0543
  -5.200  -0.3135   0.01261   0.00631  -0.0595  0.9067  0.0223  -2.6575   0.0000   0.0000   0.0000   0.0519
  -5.100  -0.3046   0.01243   0.00612  -0.0591  0.9060  0.0236  -2.5814   0.0000   0.0000   0.0000   0.0477
  -5.000  -0.2950   0.01230   0.00598  -0.0589  0.9053  0.0249  -2.4998   0.0000   0.0000   0.0000   0.0422
  -4.900  -0.2851   0.01219   0.00585  -0.0587  0.9046  0.0264  -2.4177   0.0000   0.0000   0.0000   0.0358
  -4.800  -0.2756   0.01201   0.00567  -0.0584  0.9039  0.0287  -2.3429   0.0000   0.0000   0.0000   0.0298
  -4.700  -0.2657   0.01185   0.00551  -0.0582  0.9033  0.0319  -2.2634   0.0000   0.0000   0.0000   0.0226
  -4.600  -0.2560   0.01164   0.00533  -0.0579  0.9025  0.0378  -2.1888   0.0000   0.0000   0.0000   0.0151
  -4.500  -0.2477   0.01133   0.00511  -0.0575  0.9017  0.0578  -2.1200   0.0000   0.0000   0.0000   0.0094
  -4.400  -0.2418   0.01087   0.00490  -0.0566  0.9007  0.1116  -2.0579   0.0000   0.0000   0.0000   0.0073
  -4.300  -0.2334   0.01058   0.00477  -0.0562  0.8998  0.1474  -1.9890   0.0000   0.0000   0.0000   0.0007
  -4.200  -0.2239   0.01039   0.00467  -0.0560  0.8990  0.1712  -1.9181   0.0000   0.0000   0.0000  -0.0086
  -4.100  -0.2143   0.01023   0.00459  -0.0557  0.8980  0.1921  -1.8467   0.0000   0.0000   0.0000  -0.0189
  -4.000  -0.2051   0.01012   0.00454  -0.0554  0.8968  0.2113  -1.7766   0.0000   0.0000   0.0000  -0.0293
  -3.900  -0.1974   0.01010   0.00458  -0.0548  0.8950  0.2288  -1.7121   0.0000   0.0000   0.0000  -0.0368
  -3.800  -0.1916   0.01011   0.00465  -0.0538  0.8932  0.2447  -1.6546   0.0000   0.0000   0.0000  -0.0399
  -3.700  -0.1838   0.00997   0.00457  -0.0532  0.8926  0.2627  -1.5907   0.0000   0.0000   0.0000  -0.0486
  -3.600  -0.1762   0.00983   0.00450  -0.0526  0.8919  0.2813  -1.5280   0.0000   0.0000   0.0000  -0.0575
  -3.500  -0.1688   0.00969   0.00443  -0.0519  0.8911  0.3013  -1.4666   0.0000   0.0000   0.0000  -0.0665
  -3.400  -0.1619   0.00955   0.00437  -0.0511  0.8901  0.3251  -1.4073   0.0000   0.0000   0.0000  -0.0750
  -3.300  -0.1553   0.00939   0.00431  -0.0502  0.8891  0.3527  -1.3497   0.0000   0.0000   0.0000  -0.0829
  -3.200  -0.1496   0.00921   0.00426  -0.0492  0.8879  0.3860  -1.2957   0.0000   0.0000   0.0000  -0.0882
  -3.100  -0.1447   0.00900   0.00420  -0.0480  0.8865  0.4261  -1.2445   0.0000   0.0000   0.0000  -0.0910
  -3.000  -0.1407   0.00879   0.00415  -0.0466  0.8851  0.4706  -1.1962   0.0000   0.0000   0.0000  -0.0907
  -2.900  -0.1367   0.00858   0.00411  -0.0451  0.8836  0.5151  -1.1486   0.0000   0.0000   0.0000  -0.0896
  -2.800  -0.1323   0.00839   0.00407  -0.0438  0.8822  0.5577  -1.1000   0.0000   0.0000   0.0000  -0.0901
  -2.700  -0.1278   0.00820   0.00403  -0.0424  0.8809  0.5961  -1.0515   0.0000   0.0000   0.0000  -0.0908
  -2.600  -0.1217   0.00804   0.00398  -0.0412  0.8796  0.6303  -1.0012   0.0000   0.0000   0.0000  -0.0982
  -2.500  -0.1149   0.00789   0.00394  -0.0403  0.8785  0.6590  -0.9532   0.0000   0.0000   0.0000  -0.1104
  -2.400  -0.1067   0.00777   0.00389  -0.0396  0.8776  0.6823  -0.9023   0.0000   0.0000   0.0000  -0.1314
  -2.300  -0.0977   0.00767   0.00385  -0.0392  0.8767  0.7001  -0.8500   0.0000   0.0000   0.0000  -0.1610
  -2.200  -0.0878   0.00758   0.00381  -0.0389  0.8759  0.7159  -0.7963   0.0000   0.0000   0.0000  -0.2033
  -2.100  -0.0777   0.00749   0.00376  -0.0386  0.8751  0.7324  -0.7427   0.0000   0.0000   0.0000  -0.2587
  -2.000  -0.0673   0.00740   0.00372  -0.0384  0.8744  0.7477  -0.6893   0.0000   0.0000   0.0000  -0.3333
  -1.800  -0.0451   0.00724   0.00364  -0.0383  0.8730  0.7769  -0.5812   0.0000   0.0000   0.0000  -0.6167
  -1.700  -0.0334   0.00718   0.00360  -0.0384  0.8723  0.7899  -0.5330   0.0000   0.0000   0.0000  -0.9204
  -1.600  -0.0214   0.00712   0.00358  -0.0385  0.8716  0.8034  -0.4855   0.0000   0.0000   0.0000  -1.5806
  -1.500  -0.0094   0.00707   0.00356  -0.0387  0.8710  0.8152  -0.4507   0.0000   0.0000   0.0000  -3.9581
  -1.400   0.0036   0.00703   0.00356  -0.0391  0.8704  0.8261  -0.4342   0.0000   0.0000   0.0000  11.2640
  -1.300   0.0156   0.00701   0.00354  -0.0392  0.8697  0.8363  -0.4193   0.0000   0.0000   0.0000   2.7951
  -1.200   0.0293   0.00700   0.00354  -0.0397  0.8690  0.8445  -0.4035   0.0000   0.0000   0.0000   1.6254
  -1.100   0.0428   0.00700   0.00356  -0.0402  0.8682  0.8529  -0.3878   0.0000   0.0000   0.0000   1.1996
  -1.000   0.0544   0.00702   0.00358  -0.0403  0.8671  0.8607  -0.3762   0.0000   0.0000   0.0000   0.9984
  -0.900   0.0646   0.00712   0.00368  -0.0401  0.8653  0.8669  -0.3806   0.0000   0.0000   0.0000   0.8768
  -0.800   0.0790   0.00711   0.00369  -0.0408  0.8648  0.8721  -0.3869   0.0000   0.0000   0.0000   0.7708
  -0.700   0.0924   0.00711   0.00370  -0.0413  0.8642  0.8774  -0.3930   0.0000   0.0000   0.0000   0.7000
  -0.600   0.1040   0.00712   0.00371  -0.0414  0.8633  0.8829  -0.3984   0.0000   0.0000   0.0000   0.6503
  -0.500   0.1123   0.00711   0.00371  -0.0407  0.8622  0.8885  -0.4024   0.0000   0.0000   0.0000   0.6145
  -0.400   0.1177   0.00710   0.00370  -0.0395  0.8606  0.8937  -0.4052   0.0000   0.0000   0.0000   0.5865
  -0.300   0.1335   0.00711   0.00372  -0.0405  0.8597  0.8968  -0.4123   0.0000   0.0000   0.0000   0.5541
  -0.200   0.1493   0.00713   0.00374  -0.0415  0.8588  0.8995  -0.4195   0.0000   0.0000   0.0000   0.5284
  -0.100   0.1650   0.00714   0.00376  -0.0425  0.8579  0.9020  -0.4266   0.0000   0.0000   0.0000   0.5077
   0.000   0.1804   0.00716   0.00378  -0.0434  0.8569  0.9045  -0.4336   0.0000   0.0000   0.0000   0.4905
   0.100   0.1943   0.00718   0.00380  -0.0440  0.8558  0.9071  -0.4403   0.0000   0.0000   0.0000   0.4760
   0.200   0.2077   0.00719   0.00381  -0.0445  0.8547  0.9097  -0.4467   0.0000   0.0000   0.0000   0.4634
   0.300   0.2208   0.00720   0.00382  -0.0448  0.8535  0.9125  -0.4531   0.0000   0.0000   0.0000   0.4523
   0.400   0.2333   0.00719   0.00381  -0.0451  0.8521  0.9154  -0.4592   0.0000   0.0000   0.0000   0.4422
   0.500   0.2443   0.00716   0.00377  -0.0449  0.8505  0.9187  -0.4649   0.0000   0.0000   0.0000   0.4327
   0.600   0.2508   0.00711   0.00371  -0.0437  0.8484  0.9229  -0.4706   0.0000   0.0000   0.0000   0.4229
   0.700   0.2641   0.00706   0.00365  -0.0440  0.8466  0.9259  -0.4838   0.0000   0.0000   0.0000   0.4151
   0.800   0.2867   0.00701   0.00360  -0.0463  0.8448  0.9277  -0.5026   0.0000   0.0000   0.0000   0.4100
   0.900   0.3085   0.00699   0.00356  -0.0484  0.8428  0.9289  -0.5216   0.0000   0.0000   0.0000   0.4054
   1.000   0.3288   0.00699   0.00354  -0.0503  0.8405  0.9296  -0.5401   0.0000   0.0000   0.0000   0.4013
   1.100   0.3461   0.00700   0.00355  -0.0516  0.8379  0.9302  -0.5567   0.0000   0.0000   0.0000   0.3973
   1.200   0.3608   0.00699   0.00355  -0.0524  0.8356  0.9309  -0.5717   0.0000   0.0000   0.0000   0.3933
   1.300   0.3757   0.00699   0.00356  -0.0532  0.8329  0.9315  -0.5871   0.0000   0.0000   0.0000   0.3895
   1.400   0.3906   0.00699   0.00356  -0.0540  0.8302  0.9321  -0.6033   0.0000   0.0000   0.0000   0.3861
   1.500   0.4057   0.00699   0.00357  -0.0548  0.8277  0.9327  -0.6197   0.0000   0.0000   0.0000   0.3830
   1.600   0.4208   0.00699   0.00357  -0.0557  0.8254  0.9333  -0.6361   0.0000   0.0000   0.0000   0.3801
   1.700   0.4358   0.00698   0.00357  -0.0565  0.8230  0.9339  -0.6526   0.0000   0.0000   0.0000   0.3774
   1.800   0.4508   0.00697   0.00356  -0.0574  0.8206  0.9346  -0.6693   0.0000   0.0000   0.0000   0.3749
   1.900   0.4660   0.00696   0.00354  -0.0583  0.8181  0.9352  -0.6871   0.0000   0.0000   0.0000   0.3725
   2.000   0.4814   0.00695   0.00352  -0.0592  0.8155  0.9358  -0.7051   0.0000   0.0000   0.0000   0.3703
   2.100   0.4967   0.00695   0.00351  -0.0601  0.8128  0.9364  -0.7231   0.0000   0.0000   0.0000   0.3683
   2.200   0.5092   0.00698   0.00358  -0.0604  0.8096  0.9374  -0.7390   0.0000   0.0000   0.0000   0.3659
   2.300   0.5217   0.00701   0.00363  -0.0607  0.8055  0.9384  -0.7553   0.0000   0.0000   0.0000   0.3636
   2.400   0.5345   0.00703   0.00366  -0.0611  0.8011  0.9394  -0.7727   0.0000   0.0000   0.0000   0.3614
   2.500   0.5477   0.00703   0.00367  -0.0615  0.7965  0.9405  -0.7932   0.0000   0.0000   0.0000   0.3594
   2.600   0.5612   0.00703   0.00366  -0.0620  0.7920  0.9415  -0.8480   0.0000   0.0000   0.0000   0.3575
   2.700   0.5746   0.00703   0.00364  -0.0625  0.7872  0.9425  -0.9084   0.0000   0.0000   0.0000   0.3556
   2.800   0.5852   0.00707   0.00370  -0.0624  0.7812  0.9441  -0.9628   0.0000   0.0000   0.0000   0.3534
   2.900   0.5958   0.00710   0.00374  -0.0623  0.7738  0.9457  -1.0179   0.0000   0.0000   0.0000   0.3512
   3.000   0.6063   0.00713   0.00374  -0.0621  0.7661  0.9473  -1.0738   0.0000   0.0000   0.0000   0.3490
   3.100   0.6157   0.00717   0.00377  -0.0617  0.7584  0.9493  -1.1272   0.0000   0.0000   0.0000   0.3467
   3.200   0.6223   0.00724   0.00383  -0.0607  0.7484  0.9518  -1.1744   0.0000   0.0000   0.0000   0.3439
   3.300   0.6255   0.00736   0.00388  -0.0588  0.7366  0.9548  -1.2131   0.0000   0.0000   0.0000   0.3404
   3.400   0.6250   0.00753   0.00403  -0.0562  0.7238  0.9579  -1.2441   0.0000   0.0000   0.0000   0.3362
   3.500   0.6263   0.00776   0.00417  -0.0540  0.7073  0.9596  -1.2831   0.0000   0.0000   0.0000   0.3323
   3.600   0.6362   0.00778   0.00408  -0.0537  0.6817  0.9610  -1.3475   0.0000   0.0000   0.0000   0.3305
   3.700   0.6456   0.00791   0.00408  -0.0534  0.6540  0.9621  -1.4112   0.0000   0.0000   0.0000   0.3287
   3.800   0.6545   0.00808   0.00414  -0.0531  0.6266  0.9631  -1.4740   0.0000   0.0000   0.0000   0.3269
   3.900   0.6631   0.00827   0.00421  -0.0526  0.6000  0.9641  -1.5366   0.0000   0.0000   0.0000   0.3252
   4.000   0.6713   0.00847   0.00430  -0.0521  0.5732  0.9652  -1.5986   0.0000   0.0000   0.0000   0.3234
   4.100   0.6788   0.00870   0.00440  -0.0515  0.5438  0.9664  -1.6589   0.0000   0.0000   0.0000   0.3215
   4.200   0.6844   0.00896   0.00452  -0.0505  0.5116  0.9679  -1.7140   0.0000   0.0000   0.0000   0.3194
   4.300   0.6885   0.00920   0.00463  -0.0492  0.4788  0.9697  -1.7646   0.0000   0.0000   0.0000   0.3169
   4.400   0.6922   0.00950   0.00475  -0.0479  0.4418  0.9717  -1.8137   0.0000   0.0000   0.0000   0.3145
   4.500   0.6969   0.00982   0.00489  -0.0468  0.4004  0.9736  -1.8666   0.0000   0.0000   0.0000   0.3124
   4.600   0.7024   0.01015   0.00504  -0.0460  0.3602  0.9754  -1.9225   0.0000   0.0000   0.0000   0.3106
   4.700   0.7089   0.01047   0.00519  -0.0453  0.3240  0.9772  -1.9816   0.0000   0.0000   0.0000   0.3089
   4.900   0.7240   0.01101   0.00547  -0.0444  0.2670  0.9804  -2.1124   0.0000   0.0000   0.0000   0.3062
   5.000   0.7326   0.01123   0.00559  -0.0442  0.2448  0.9820  -2.1882   0.0000   0.0000   0.0000   0.3050
   5.100   0.7415   0.01143   0.00570  -0.0440  0.2254  0.9834  -2.2660   0.0000   0.0000   0.0000   0.3040
   5.200   0.7505   0.01163   0.00582  -0.0438  0.2069  0.9849  -2.3444   0.0000   0.0000   0.0000   0.3029
   5.300   0.7592   0.01184   0.00594  -0.0435  0.1880  0.9863  -2.4223   0.0000   0.0000   0.0000   0.3018
   5.400   0.7673   0.01208   0.00607  -0.0432  0.1669  0.9877  -2.4984   0.0000   0.0000   0.0000   0.3007
   5.500   0.7751   0.01236   0.00622  -0.0428  0.1405  0.9892  -2.5725   0.0000   0.0000   0.0000   0.2996
   5.600   0.7806   0.01277   0.00642  -0.0421  0.1017  0.9908  -2.6366   0.0000   0.0000   0.0000   0.2981
   5.700   0.7837   0.01335   0.00673  -0.0410  0.0554  0.9924  -2.6893   0.0000   0.0000   0.0000   0.2964
   5.800   0.7907   0.01371   0.00697  -0.0404  0.0377  0.9936  -2.7562   0.0000   0.0000   0.0000   0.2952
   5.900   0.7998   0.01393   0.00717  -0.0402  0.0316  0.9946  -2.8314   0.0000   0.0000   0.0000   0.2942
   6.000   0.8092   0.01414   0.00737  -0.0401  0.0283  0.9955  -2.9096   0.0000   0.0000   0.0000   0.2934
   6.100   0.8188   0.01433   0.00756  -0.0400  0.0262  0.9963  -2.9862   0.0000   0.0000   0.0000   0.2925
   6.200   0.8289   0.01448   0.00773  -0.0399  0.0248  0.9970  -3.0693   0.0000   0.0000   0.0000   0.2918
   6.300   0.8389   0.01465   0.00790  -0.0399  0.0234  0.9977  -3.1528   0.0000   0.0000   0.0000   0.2911
   6.400   0.8482   0.01489   0.00815  -0.0398  0.0221  0.9984  -3.2327   0.0000   0.0000   0.0000   0.2903
   6.500   0.8572   0.01515   0.00843  -0.0395  0.0211  0.9990  -3.3165   0.0000   0.0000   0.0000   0.2894
   6.600   0.8678   0.01528   0.00859  -0.0396  0.0205  0.9995  -3.4152   0.0000   0.0000   0.0000   0.2889
   6.700   0.8782   0.01544   0.00876  -0.0397  0.0198  0.9999  -3.5145   0.0000   0.0000   0.0000   0.2883
   6.800   0.8833   0.01557   0.00891  -0.0386  0.0192  1.0000  -3.5902   0.0000   0.0000   0.0000   0.2867
   6.900   0.8865   0.01571   0.00905  -0.0372  0.0188  1.0000  -3.6583   0.0000   0.0000   0.0000   0.2849
   7.000   0.8893   0.01585   0.00921  -0.0357  0.0183  1.0000  -3.7255   0.0000   0.0000   0.0000   0.2830
   7.100   0.8917   0.01601   0.00939  -0.0342  0.0179  1.0000  -3.7911   0.0000   0.0000   0.0000   0.2810
   7.200   0.8935   0.01621   0.00960  -0.0326  0.0175  1.0000  -3.8516   0.0000   0.0000   0.0000   0.2790
   7.300   0.8944   0.01647   0.00987  -0.0308  0.0170  1.0000  -3.9032   0.0000   0.0000   0.0000   0.2768
   7.400   0.8938   0.01681   0.01025  -0.0287  0.0166  1.0000  -3.9415   0.0000   0.0000   0.0000   0.2744
   7.500   0.8951   0.01707   0.01053  -0.0270  0.0164  1.0000  -3.9929   0.0000   0.0000   0.0000   0.2723
   7.600   0.8988   0.01722   0.01070  -0.0257  0.0162  1.0000  -4.0633   0.0000   0.0000   0.0000   0.2707
   7.700   0.9023   0.01738   0.01088  -0.0243  0.0161  1.0000  -4.1322   0.0000   0.0000   0.0000   0.2690
   7.800   0.9056   0.01756   0.01108  -0.0230  0.0159  1.0000  -4.1998   0.0000   0.0000   0.0000   0.2673
   7.900   0.9086   0.01775   0.01129  -0.0216  0.0156  1.0000  -4.2661   0.0000   0.0000   0.0000   0.2656
   8.000   0.9114   0.01795   0.01152  -0.0202  0.0154  1.0000  -4.3305   0.0000   0.0000   0.0000   0.2638
   8.100   0.9139   0.01816   0.01176  -0.0187  0.0152  1.0000  -4.3941   0.0000   0.0000   0.0000   0.2620
   8.200   0.9165   0.01838   0.01200  -0.0173  0.0150  1.0000  -4.4578   0.0000   0.0000   0.0000   0.2603
   8.300   0.9191   0.01860   0.01224  -0.0159  0.0148  1.0000  -4.5222   0.0000   0.0000   0.0000   0.2586
   8.400   0.9219   0.01883   0.01249  -0.0145  0.0146  1.0000  -4.5877   0.0000   0.0000   0.0000   0.2569
   8.500   0.9248   0.01907   0.01275  -0.0132  0.0144  1.0000  -4.6542   0.0000   0.0000   0.0000   0.2553
   8.600   0.9279   0.01930   0.01300  -0.0119  0.0142  1.0000  -4.7229   0.0000   0.0000   0.0000   0.2537
   8.700   0.9312   0.01953   0.01324  -0.0106  0.0140  1.0000  -4.7939   0.0000   0.0000   0.0000   0.2522
   8.800   0.9344   0.01976   0.01350  -0.0093  0.0138  1.0000  -4.8668   0.0000   0.0000   0.0000   0.2507
   8.900   0.9377   0.02000   0.01375  -0.0081  0.0136  1.0000  -4.9406   0.0000   0.0000   0.0000   0.2492
   9.000   0.9407   0.02025   0.01402  -0.0068  0.0133  1.0000  -5.0134   0.0000   0.0000   0.0000   0.2477
   9.100   0.9431   0.02056   0.01433  -0.0055  0.0131  1.0000  -5.0809   0.0000   0.0000   0.0000   0.2462
   9.200   0.9445   0.02094   0.01474  -0.0040  0.0129  1.0000  -5.1462   0.0000   0.0000   0.0000   0.2444
   9.300   0.9448   0.02148   0.01530  -0.0024  0.0127  1.0000  -5.1962   0.0000   0.0000   0.0000   0.2426
   9.400   0.9451   0.02232   0.01618  -0.0008  0.0124  1.0000  -5.2235   0.0000   0.0000   0.0000   0.2408
   9.500   0.9492   0.02251   0.01640   0.0003  0.0123  1.0000  -5.3118   0.0000   0.0000   0.0000   0.2395
   9.600   0.9534   0.02275   0.01667   0.0013  0.0122  1.0000  -5.3970   0.0000   0.0000   0.0000   0.2383
   9.700   0.9576   0.02301   0.01696   0.0024  0.0121  1.0000  -5.4812   0.0000   0.0000   0.0000   0.2371
   9.800   0.9618   0.02330   0.01728   0.0034  0.0120  1.0000  -5.5646   0.0000   0.0000   0.0000   0.2359
   9.900   0.9660   0.02360   0.01762   0.0044  0.0119  1.0000  -5.6473   0.0000   0.0000   0.0000   0.2347
  10.000   0.9703   0.02393   0.01797   0.0054  0.0118  1.0000  -5.7295   0.0000   0.0000   0.0000   0.2336
  10.100   0.9747   0.02427   0.01835   0.0064  0.0116  1.0000  -5.8113   0.0000   0.0000   0.0000   0.2325
  10.200   0.9791   0.02462   0.01874   0.0073  0.0115  1.0000  -5.8929   0.0000   0.0000   0.0000   0.2314
  10.300   0.9836   0.02499   0.01914   0.0083  0.0114  1.0000  -5.9744   0.0000   0.0000   0.0000   0.2304
  10.400   0.9881   0.02538   0.01957   0.0092  0.0113  1.0000  -6.0559   0.0000   0.0000   0.0000   0.2294
  10.500   0.9926   0.02577   0.02001   0.0101  0.0112  1.0000  -6.1372   0.0000   0.0000   0.0000   0.2284
  10.600   0.9971   0.02618   0.02045   0.0110  0.0110  1.0000  -6.2183   0.0000   0.0000   0.0000   0.2274
  10.700   1.0016   0.02659   0.02091   0.0119  0.0109  1.0000  -6.2993   0.0000   0.0000   0.0000   0.2264
  10.800   1.0060   0.02702   0.02138   0.0128  0.0108  1.0000  -6.3797   0.0000   0.0000   0.0000   0.2255
  10.900   1.0103   0.02746   0.02186   0.0136  0.0107  1.0000  -6.4597   0.0000   0.0000   0.0000   0.2245
  11.000   1.0144   0.02791   0.02235   0.0145  0.0106  1.0000  -6.5390   0.0000   0.0000   0.0000   0.2235
  11.100   1.0184   0.02838   0.02286   0.0154  0.0105  1.0000  -6.6179   0.0000   0.0000   0.0000   0.2226
  11.200   1.0222   0.02885   0.02337   0.0163  0.0104  1.0000  -6.6963   0.0000   0.0000   0.0000   0.2216
  11.300   1.0259   0.02932   0.02388   0.0173  0.0103  1.0000  -6.7753   0.0000   0.0000   0.0000   0.2206
  11.400   1.0291   0.02977   0.02438   0.0182  0.0102  1.0000  -6.8556   0.0000   0.0000   0.0000   0.2197
  11.500   1.0320   0.03023   0.02488   0.0192  0.0101  1.0000  -6.9352   0.0000   0.0000   0.0000   0.2186
  11.600   1.0347   0.03068   0.02537   0.0201  0.0100  1.0000  -7.0166   0.0000   0.0000   0.0000   0.2176
  11.700   1.0372   0.03113   0.02585   0.0211  0.0099  1.0000  -7.0996   0.0000   0.0000   0.0000   0.2166
  11.800   1.0396   0.03158   0.02634   0.0220  0.0098  1.0000  -7.1839   0.0000   0.0000   0.0000   0.2155
  11.900   1.0420   0.03205   0.02685   0.0230  0.0097  1.0000  -7.2692   0.0000   0.0000   0.0000   0.2146
  12.000   1.0443   0.03257   0.02739   0.0239  0.0096  1.0000  -7.3524   0.0000   0.0000   0.0000   0.2136
  12.100   1.0462   0.03316   0.02801   0.0248  0.0095  1.0000  -7.4300   0.0000   0.0000   0.0000   0.2126
  12.200   1.0480   0.03388   0.02879   0.0257  0.0094  1.0000  -7.4974   0.0000   0.0000   0.0000   0.2116
  12.300   1.0493   0.03486   0.02983   0.0266  0.0093  1.0000  -7.5422   0.0000   0.0000   0.0000   0.2106
  12.400   1.0489   0.03626   0.03134   0.0277  0.0091  1.0000  -7.5443   0.0000   0.0000   0.0000   0.2095
  12.500   1.0461   0.03788   0.03310   0.0289  0.0091  1.0000  -7.5118   0.0000   0.0000   0.0000   0.2081
  12.600   1.0423   0.03935   0.03469   0.0303  0.0090  1.0000  -7.4839   0.0000   0.0000   0.0000   0.2066
  12.700   1.0378   0.04075   0.03620   0.0316  0.0090  1.0000  -7.4577   0.0000   0.0000   0.0000   0.2050
  12.800   1.0345   0.04156   0.03709   0.0329  0.0090  1.0000  -7.4797   0.0000   0.0000   0.0000   0.2035
  12.900   1.0315   0.04223   0.03783   0.0341  0.0090  1.0000  -7.5153   0.0000   0.0000   0.0000   0.2021
  13.000   1.0286   0.04300   0.03867   0.0352  0.0089  1.0000  -7.5449   0.0000   0.0000   0.0000   0.2007
  13.100   1.0256   0.04384   0.03959   0.0363  0.0089  1.0000  -7.5695   0.0000   0.0000   0.0000   0.1994
  13.200   1.0218   0.04477   0.04059   0.0373  0.0089  1.0000  -7.5862   0.0000   0.0000   0.0000   0.1980
  13.300   1.0177   0.04576   0.04166   0.0383  0.0089  1.0000  -7.5983   0.0000   0.0000   0.0000   0.1967
  13.400   1.0135   0.04681   0.04278   0.0393  0.0089  1.0000  -7.6118   0.0000   0.0000   0.0000   0.1955
  13.500   1.0086   0.04793   0.04398   0.0402  0.0088  1.0000  -7.6206   0.0000   0.0000   0.0000   0.1942
  13.600   1.0036   0.04911   0.04523   0.0410  0.0088  1.0000  -7.6263   0.0000   0.0000   0.0000   0.1930
  13.700   0.9982   0.05036   0.04656   0.0417  0.0088  1.0000  -7.6276   0.0000   0.0000   0.0000   0.1918
  13.800   0.9923   0.05169   0.04796   0.0424  0.0088  1.0000  -7.6237   0.0000   0.0000   0.0000   0.1907
  13.900   0.9863   0.05307   0.04943   0.0430  0.0088  1.0000  -7.6167   0.0000   0.0000   0.0000   0.1896
  14.000   0.9797   0.05454   0.05097   0.0435  0.0088  1.0000  -7.6040   0.0000   0.0000   0.0000   0.1886
  14.100   0.9730   0.05607   0.05257   0.0439  0.0088  1.0000  -7.5882   0.0000   0.0000   0.0000   0.1876
  14.200   0.9658   0.05768   0.05426   0.0442  0.0088  1.0000  -7.5670   0.0000   0.0000   0.0000   0.1868
  14.300   0.9585   0.05939   0.05604   0.0444  0.0088  1.0000  -7.5424   0.0000   0.0000   0.0000   0.1860
  14.400   0.9508   0.06119   0.05791   0.0444  0.0088  1.0000  -7.5130   0.0000   0.0000   0.0000   0.1854
  14.500   0.9428   0.06310   0.05989   0.0443  0.0088  1.0000  -7.4786   0.0000   0.0000   0.0000   0.1849
  14.600   0.9346   0.06512   0.06198   0.0441  0.0089  1.0000  -7.4393   0.0000   0.0000   0.0000   0.1845
  14.700   0.9259   0.06726   0.06419   0.0437  0.0089  1.0000  -7.3927   0.0000   0.0000   0.0000   0.1842
  14.800   0.9165   0.06959   0.06658   0.0432  0.0089  1.0000  -7.3352   0.0000   0.0000   0.0000   0.1841
  15.000   0.8988   0.07462   0.07172   0.0420  0.0090  1.0000  -7.2003   0.0000   0.0000   0.0000   0.1840
  15.100   0.8927   0.07664   0.07379   0.0412  0.0090  1.0000  -7.1822   0.0000   0.0000   0.0000   0.1843
  15.200   0.8867   0.07872   0.07593   0.0403  0.0090  1.0000  -7.1624   0.0000   0.0000   0.0000   0.1848
  15.300   0.8807   0.08088   0.07813   0.0393  0.0091  1.0000  -7.1408   0.0000   0.0000   0.0000   0.1854
  15.400   0.8748   0.08311   0.08041   0.0383  0.0091  1.0000  -7.1169   0.0000   0.0000   0.0000   0.1861
  15.500   0.8688   0.08541   0.08276   0.0371  0.0091  1.0000  -7.0903   0.0000   0.0000   0.0000   0.1869
  15.600   0.8629   0.08779   0.08519   0.0358  0.0091  1.0000  -7.0610   0.0000   0.0000   0.0000   0.1879
  15.700   0.8571   0.09025   0.08770   0.0344  0.0091  1.0000  -7.0286   0.0000   0.0000   0.0000   0.1890
  15.800   0.8512   0.09280   0.09030   0.0329  0.0091  1.0000  -6.9924   0.0000   0.0000   0.0000   0.1903
  15.900   0.8454   0.09546   0.09300   0.0313  0.0091  1.0000  -6.9516   0.0000   0.0000   0.0000   0.1917
  16.000   0.8394   0.09823   0.09582   0.0296  0.0091  1.0000  -6.9048   0.0000   0.0000   0.0000   0.1932
  16.100   0.8333   0.10115   0.09879   0.0277  0.0092  1.0000  -6.8495   0.0000   0.0000   0.0000   0.1950
  16.200   0.8268   0.10428   0.10198   0.0258  0.0092  1.0000  -6.7801   0.0000   0.0000   0.0000   0.1969
  16.300   0.8190   0.10790   0.10566   0.0234  0.0093  1.0000  -6.6770   0.0000   0.0000   0.0000   0.1993
  16.400   0.6660   0.15933   0.15730  -0.0010  0.0152  1.0000  -2.7358   0.0000   0.0000   0.0000   0.2318
  16.500   0.6660   0.16136   0.15932  -0.0020  0.0149  1.0000  -2.6915   0.0000   0.0000   0.0000   0.2331
  16.600   0.6664   0.16316   0.16111  -0.0028  0.0146  1.0000  -2.6633   0.0000   0.0000   0.0000   0.2342
  16.700   0.6671   0.16484   0.16279  -0.0035  0.0144  1.0000  -2.6437   0.0000   0.0000   0.0000   0.2352
  16.800   0.6680   0.16642   0.16437  -0.0042  0.0142  1.0000  -2.6309   0.0000   0.0000   0.0000   0.2361
  16.900   0.6691   0.16792   0.16587  -0.0049  0.0140  1.0000  -2.6238   0.0000   0.0000   0.0000   0.2369
  17.000   0.6703   0.16934   0.16729  -0.0056  0.0138  1.0000  -2.6218   0.0000   0.0000   0.0000   0.2377
  17.100   0.6717   0.17070   0.16865  -0.0062  0.0137  1.0000  -2.6247   0.0000   0.0000   0.0000   0.2385
  17.200   0.6733   0.17199   0.16994  -0.0068  0.0135  1.0000  -2.6325   0.0000   0.0000   0.0000   0.2392
  17.300   0.6750   0.17322   0.17116  -0.0073  0.0134  1.0000  -2.6451   0.0000   0.0000   0.0000   0.2398
  17.400   0.6769   0.17439   0.17233  -0.0078  0.0133  1.0000  -2.6626   0.0000   0.0000   0.0000   0.2404
  17.500   0.6789   0.17549   0.17344  -0.0083  0.0132  1.0000  -2.6851   0.0000   0.0000   0.0000   0.2409
  17.600   0.6810   0.17655   0.17449  -0.0088  0.0131  1.0000  -2.7114   0.0000   0.0000   0.0000   0.2414
  17.700   0.6832   0.17756   0.17550  -0.0093  0.0130  1.0000  -2.7423   0.0000   0.0000   0.0000   0.2418
  17.800   0.6854   0.17853   0.17648  -0.0097  0.0129  1.0000  -2.7756   0.0000   0.0000   0.0000   0.2422
  17.900   0.6877   0.17946   0.17740  -0.0101  0.0128  1.0000  -2.8138   0.0000   0.0000   0.0000   0.2426
  18.000   0.6899   0.18041   0.17836  -0.0105  0.0127  1.0000  -2.8497   0.0000   0.0000   0.0000   0.2429
  18.100   0.6920   0.18132   0.17927  -0.0109  0.0127  1.0000  -2.8901   0.0000   0.0000   0.0000   0.2432
  18.200   0.6892   0.18358   0.18152  -0.0115  0.0124  1.0000  -2.8181   0.0000   0.0000   0.0000   0.2440
  18.300   0.6905   0.18525   0.18318  -0.0123  0.0124  1.0000  -2.7823   0.0000   0.0000   0.0000   0.2449
  18.400   0.6919   0.18690   0.18483  -0.0130  0.0123  1.0000  -2.7469   0.0000   0.0000   0.0000   0.2459
  18.500   0.6933   0.18853   0.18645  -0.0138  0.0123  1.0000  -2.7116   0.0000   0.0000   0.0000   0.2468
  18.600   0.6948   0.19014   0.18807  -0.0146  0.0123  1.0000  -2.6757   0.0000   0.0000   0.0000   0.2478
  18.700   0.6963   0.19175   0.18968  -0.0154  0.0123  1.0000  -2.6383   0.0000   0.0000   0.0000   0.2487
  18.800   0.6977   0.19348   0.19140  -0.0163  0.0122  1.0000  -2.5867   0.0000   0.0000   0.0000   0.2499
  18.900   0.6974   0.19613   0.19404  -0.0179  0.0120  1.0000  -2.4296   0.0000   0.0000   0.0000   0.2521
  19.000   0.6975   0.19851   0.19641  -0.0192  0.0114  1.0000  -2.3007   0.0000   0.0000   0.0000   0.2540
  19.100   0.6993   0.19995   0.19785  -0.0199  0.0111  1.0000  -2.2746   0.0000   0.0000   0.0000   0.2548
  19.200   0.7011   0.20127   0.19917  -0.0206  0.0109  1.0000  -2.2596   0.0000   0.0000   0.0000   0.2556
  19.300   0.7031   0.20255   0.20045  -0.0213  0.0107  1.0000  -2.2501   0.0000   0.0000   0.0000   0.2562
  19.400   0.7051   0.20378   0.20168  -0.0219  0.0105  1.0000  -2.2445   0.0000   0.0000   0.0000   0.2569
  19.500   0.7072   0.20497   0.20287  -0.0225  0.0104  1.0000  -2.2422   0.0000   0.0000   0.0000   0.2575
  19.600   0.7093   0.20614   0.20403  -0.0231  0.0102  1.0000  -2.2429   0.0000   0.0000   0.0000   0.2581
  19.700   0.7115   0.20726   0.20516  -0.0237  0.0101  1.0000  -2.2473   0.0000   0.0000   0.0000   0.2586
  19.800   0.7137   0.20835   0.20625  -0.0243  0.0100  1.0000  -2.2611   0.0000   0.0000   0.0000   0.2592
  19.900   0.7160   0.20941   0.20732  -0.0249  0.0099  1.0000  -2.2779   0.0000   0.0000   0.0000   0.2597
  20.000   0.7183   0.21044   0.20834  -0.0254  0.0098  1.0000  -2.2977   0.0000   0.0000   0.0000   0.2601
  20.100   0.7207   0.21143   0.20934  -0.0260  0.0097  1.0000  -2.3210   0.0000   0.0000   0.0000   0.2606
  20.200   0.7231   0.21239   0.21029  -0.0265  0.0096  1.0000  -2.3481   0.0000   0.0000   0.0000   0.2610
  20.300   0.7256   0.21332   0.21122  -0.0270  0.0095  1.0000  -2.3792   0.0000   0.0000   0.0000   0.2614
  20.400   0.7282   0.21420   0.21211  -0.0274  0.0094  1.0000  -2.4148   0.0000   0.0000   0.0000   0.2617
  20.500   0.7309   0.21504   0.21294  -0.0279  0.0094  1.0000  -2.4557   0.0000   0.0000   0.0000   0.2619
  20.600   0.7337   0.21583   0.21374  -0.0283  0.0093  1.0000  -2.5033   0.0000   0.0000   0.0000   0.2621
  20.700   0.7367   0.21657   0.21448  -0.0286  0.0092  1.0000  -2.5592   0.0000   0.0000   0.0000   0.2621
  20.800   0.7395   0.21737   0.21529  -0.0289  0.0092  1.0000  -2.6113   0.0000   0.0000   0.0000   0.2622
  20.900   0.5822   0.21696   0.21507  -0.0256  0.0094  1.0000  -1.7107   0.0000   0.0000   0.0000   0.2748
  21.000   0.5853   0.21807   0.21619  -0.0265  0.0093  1.0000  -1.7448   0.0000   0.0000   0.0000   0.2760
  21.100   0.5887   0.21914   0.21727  -0.0274  0.0093  1.0000  -1.7866   0.0000   0.0000   0.0000   0.2770
  21.200   0.5925   0.22018   0.21831  -0.0281  0.0092  1.0000  -1.8407   0.0000   0.0000   0.0000   0.2778
  21.700   0.6046   0.22870   0.22686  -0.0339  0.0090  1.0000  -1.7671   0.0000   0.0000   0.0000   0.2859
  21.800   0.6066   0.23040   0.22856  -0.0351  0.0089  1.0000  -1.7344   0.0000   0.0000   0.0000   0.2877
  21.900   0.6084   0.23214   0.23030  -0.0364  0.0089  1.0000  -1.6969   0.0000   0.0000   0.0000   0.2896
  22.000   0.6099   0.23395   0.23212  -0.0378  0.0089  1.0000  -1.6480   0.0000   0.0000   0.0000   0.2917
  22.100   0.6113   0.23584   0.23402  -0.0392  0.0088  1.0000  -1.5882   0.0000   0.0000   0.0000   0.2938
  22.200   0.6127   0.23796   0.23614  -0.0406  0.0086  1.0000  -1.5004   0.0000   0.0000   0.0000   0.2960
  22.300   0.6150   0.23983   0.23801  -0.0418  0.0083  1.0000  -1.4520   0.0000   0.0000   0.0000   0.2977
  22.400   0.6175   0.24145   0.23963  -0.0429  0.0080  1.0000  -1.4366   0.0000   0.0000   0.0000   0.2991
  22.500   0.6200   0.24300   0.24119  -0.0440  0.0078  1.0000  -1.4293   0.0000   0.0000   0.0000   0.3004
  22.600   0.6226   0.24452   0.24271  -0.0450  0.0076  1.0000  -1.4253   0.0000   0.0000   0.0000   0.3017
  22.700   0.6251   0.24604   0.24424  -0.0461  0.0074  1.0000  -1.4228   0.0000   0.0000   0.0000   0.3030
  22.800   0.6277   0.24754   0.24574  -0.0471  0.0073  1.0000  -1.4218   0.0000   0.0000   0.0000   0.3042
  22.900   0.6303   0.24903   0.24724  -0.0482  0.0072  1.0000  -1.4226   0.0000   0.0000   0.0000   0.3054
  23.000   0.6328   0.25050   0.24872  -0.0492  0.0071  1.0000  -1.4253   0.0000   0.0000   0.0000   0.3066
  23.100   0.6354   0.25197   0.25019  -0.0503  0.0070  1.0000  -1.4301   0.0000   0.0000   0.0000   0.3078
  23.200   0.6380   0.25340   0.25163  -0.0513  0.0069  1.0000  -1.4370   0.0000   0.0000   0.0000   0.3089
  23.300   0.6405   0.25482   0.25306  -0.0523  0.0068  1.0000  -1.4465   0.0000   0.0000   0.0000   0.3100
  23.400   0.6431   0.25624   0.25448  -0.0533  0.0067  1.0000  -1.4587   0.0000   0.0000   0.0000   0.3111
  23.500   0.6457   0.25762   0.25587  -0.0543  0.0066  1.0000  -1.4739   0.0000   0.0000   0.0000   0.3121
  23.600   0.6484   0.25899   0.25724  -0.0553  0.0066  1.0000  -1.4929   0.0000   0.0000   0.0000   0.3131
  23.700   0.6510   0.26033   0.25859  -0.0562  0.0065  1.0000  -1.5179   0.0000   0.0000   0.0000   0.3140
  23.800   0.6538   0.26166   0.25993  -0.0571  0.0065  1.0000  -1.5512   0.0000   0.0000   0.0000   0.3148
  23.900   0.6568   0.26299   0.26127  -0.0580  0.0064  1.0000  -1.5920   0.0000   0.0000   0.0000   0.3155
  24.000   0.6605   0.26441   0.26269  -0.0587  0.0063  1.0000  -1.6510   0.0000   0.0000   0.0000   0.3159
  24.100   0.6633   0.26647   0.26475  -0.0597  0.0063  1.0000  -1.6522   0.0000   0.0000   0.0000   0.3168
  24.200   0.6653   0.26824   0.26653  -0.0608  0.0063  1.0000  -1.6307   0.0000   0.0000   0.0000   0.3181
  24.300   0.6672   0.27005   0.26834  -0.0619  0.0063  1.0000  -1.6069   0.0000   0.0000   0.0000   0.3194
  24.400   0.6690   0.27188   0.27018  -0.0631  0.0063  1.0000  -1.5779   0.0000   0.0000   0.0000   0.3208
  24.500   0.6708   0.27372   0.27202  -0.0643  0.0063  1.0000  -1.5485   0.0000   0.0000   0.0000   0.3222
  24.600   0.6726   0.27556   0.27387  -0.0654  0.0062  1.0000  -1.5192   0.0000   0.0000   0.0000   0.3235
  24.700   0.6745   0.27741   0.27572  -0.0665  0.0062  1.0000  -1.4895   0.0000   0.0000   0.0000   0.3248
  24.800   0.6764   0.27927   0.27758  -0.0677  0.0062  1.0000  -1.4588   0.0000   0.0000   0.0000   0.3261
  24.900   0.6783   0.28115   0.27947  -0.0688  0.0062  1.0000  -1.4260   0.0000   0.0000   0.0000   0.3273
  25.000   0.6803   0.28307   0.28138  -0.0699  0.0061  1.0000  -1.3902   0.0000   0.0000   0.0000   0.3285
  25.100   0.6825   0.28499   0.28331  -0.0709  0.0060  1.0000  -1.3542   0.0000   0.0000   0.0000   0.3297
  25.200   0.6848   0.28685   0.28518  -0.0719  0.0059  1.0000  -1.3284   0.0000   0.0000   0.0000   0.3307
  25.300   0.6871   0.28863   0.28696  -0.0729  0.0057  1.0000  -1.3135   0.0000   0.0000   0.0000   0.3316
  25.400   0.6894   0.29037   0.28871  -0.0739  0.0056  1.0000  -1.3049   0.0000   0.0000   0.0000   0.3325
  25.500   0.6916   0.29205   0.29040  -0.0749  0.0054  1.0000  -1.2999   0.0000   0.0000   0.0000   0.3335
  25.600   0.6938   0.29374   0.29209  -0.0759  0.0053  1.0000  -1.2973   0.0000   0.0000   0.0000   0.3343
  25.700   0.6960   0.29541   0.29376  -0.0768  0.0052  1.0000  -1.2967   0.0000   0.0000   0.0000   0.3352
  25.800   0.6982   0.29706   0.29542  -0.0778  0.0051  1.0000  -1.2977   0.0000   0.0000   0.0000   0.3361
  25.900   0.7004   0.29870   0.29707  -0.0788  0.0049  1.0000  -1.3000   0.0000   0.0000   0.0000   0.3369
  26.000   0.7025   0.30034   0.29871  -0.0797  0.0049  1.0000  -1.3030   0.0000   0.0000   0.0000   0.3378
  26.100   0.7047   0.30197   0.30035  -0.0807  0.0048  1.0000  -1.3061   0.0000   0.0000   0.0000   0.3386
  26.200   0.7068   0.30359   0.30197  -0.0817  0.0047  1.0000  -1.3103   0.0000   0.0000   0.0000   0.3394
  26.300   0.7089   0.30520   0.30358  -0.0826  0.0046  1.0000  -1.3158   0.0000   0.0000   0.0000   0.3402
  26.400   0.7110   0.30679   0.30518  -0.0836  0.0046  1.0000  -1.3227   0.0000   0.0000   0.0000   0.3410
  26.500   0.7131   0.30837   0.30677  -0.0845  0.0045  1.0000  -1.3312   0.0000   0.0000   0.0000   0.3417
  26.600   0.7152   0.30997   0.30837  -0.0854  0.0045  1.0000  -1.3416   0.0000   0.0000   0.0000   0.3425
  26.700   0.7172   0.31153   0.30994  -0.0864  0.0044  1.0000  -1.3541   0.0000   0.0000   0.0000   0.3432
  26.800   0.7192   0.31307   0.31149  -0.0873  0.0044  1.0000  -1.3691   0.0000   0.0000   0.0000   0.3439
  26.900   0.7213   0.31461   0.31303  -0.0882  0.0043  1.0000  -1.3870   0.0000   0.0000   0.0000   0.3446
  27.000   0.7233   0.31613   0.31456  -0.0891  0.0043  1.0000  -1.4085   0.0000   0.0000   0.0000   0.3453
  27.100   0.7255   0.31767   0.31610  -0.0900  0.0043  1.0000  -1.4345   0.0000   0.0000   0.0000   0.3459
  27.200   0.7278   0.31926   0.31770  -0.0908  0.0042  1.0000  -1.4678   0.0000   0.0000   0.0000   0.3463
  28.300   0.7470   0.34048   0.33897  -0.1012  0.0041  1.0000  -1.2632   0.0000   0.0000   0.0000   0.3552
  28.400   0.7489   0.34244   0.34092  -0.1021  0.0041  1.0000  -1.2442   0.0000   0.0000   0.0000   0.3559
  28.500   0.7507   0.34438   0.34287  -0.1030  0.0040  1.0000  -1.2270   0.0000   0.0000   0.0000   0.3565
  28.600   0.7525   0.34629   0.34478  -0.1039  0.0039  1.0000  -1.2135   0.0000   0.0000   0.0000   0.3572
  28.700   0.7543   0.34816   0.34666  -0.1048  0.0039  1.0000  -1.2043   0.0000   0.0000   0.0000   0.3578
  28.800   0.7561   0.35001   0.34851  -0.1057  0.0038  1.0000  -1.1984   0.0000   0.0000   0.0000   0.3585
  28.900   0.7578   0.35181   0.35032  -0.1066  0.0037  1.0000  -1.1945   0.0000   0.0000   0.0000   0.3591
  29.000   0.7595   0.35364   0.35215  -0.1074  0.0036  1.0000  -1.1920   0.0000   0.0000   0.0000   0.3597
  29.100   0.7611   0.35545   0.35397  -0.1083  0.0036  1.0000  -1.1904   0.0000   0.0000   0.0000   0.3603
  29.200   0.7628   0.35724   0.35577  -0.1092  0.0035  1.0000  -1.1896   0.0000   0.0000   0.0000   0.3609
  29.300   0.7644   0.35903   0.35756  -0.1100  0.0034  1.0000  -1.1895   0.0000   0.0000   0.0000   0.3615
  29.400   0.7660   0.36081   0.35935  -0.1109  0.0033  1.0000  -1.1903   0.0000   0.0000   0.0000   0.3621
  29.500   0.7676   0.36257   0.36111  -0.1118  0.0033  1.0000  -1.1919   0.0000   0.0000   0.0000   0.3627
  29.600   0.7691   0.36432   0.36287  -0.1126  0.0032  1.0000  -1.1944   0.0000   0.0000   0.0000   0.3633
  29.700   0.7707   0.36607   0.36462  -0.1135  0.0031  1.0000  -1.1975   0.0000   0.0000   0.0000   0.3639
  29.800   0.7722   0.36781   0.36636  -0.1143  0.0031  1.0000  -1.2012   0.0000   0.0000   0.0000   0.3644
  29.900   0.7737   0.36954   0.36810  -0.1152  0.0030  1.0000  -1.2052   0.0000   0.0000   0.0000   0.3650
  30.000   0.7752   0.37127   0.36983  -0.1161  0.0030  1.0000  -1.2092   0.0000   0.0000   0.0000   0.3656


