xflr5 v6.61

 Calculated polar for: MH 16

 1 1 Reynolds number fixed          Mach number fixed         

 xtrf =   1.000 (top)        1.000 (bottom)
 Mach =   0.000     Re =     1.000 e 6     Ncrit =   9.000

  alpha     CL        CD       CDp       Cm    Top Xtr Bot Xtr   Cpmin    Chinge    XCp    
 ------- -------- --------- --------- -------- ------- ------- -------- --------- ---------
 -10.000  -0.5860   0.02151   0.01713  -0.1035  0.9421  0.0087  -6.4081   0.0000   0.0000   0.0000   0.0618
  -9.900  -0.5831   0.02107   0.01663  -0.1023  0.9406  0.0087  -6.3517   0.0000   0.0000   0.0000   0.0631
  -9.800  -0.5799   0.02067   0.01616  -0.1011  0.9390  0.0088  -6.2910   0.0000   0.0000   0.0000   0.0644
  -9.700  -0.5765   0.02030   0.01572  -0.0999  0.9374  0.0088  -6.2265   0.0000   0.0000   0.0000   0.0656
  -9.600  -0.5730   0.01997   0.01533  -0.0987  0.9356  0.0088  -6.1585   0.0000   0.0000   0.0000   0.0667
  -9.500  -0.5693   0.01968   0.01498  -0.0974  0.9338  0.0089  -6.0875   0.0000   0.0000   0.0000   0.0678
  -9.400  -0.5658   0.01944   0.01469  -0.0962  0.9318  0.0089  -6.0144   0.0000   0.0000   0.0000   0.0691
  -9.300  -0.5626   0.01926   0.01446  -0.0949  0.9298  0.0090  -5.9400   0.0000   0.0000   0.0000   0.0706
  -9.200  -0.5598   0.01914   0.01430  -0.0934  0.9274  0.0090  -5.8647   0.0000   0.0000   0.0000   0.0725
  -9.100  -0.5529   0.01834   0.01340  -0.0930  0.9259  0.0091  -5.8205   0.0000   0.0000   0.0000   0.0711
  -9.000  -0.5429   0.01701   0.01196  -0.0935  0.9251  0.0092  -5.7977   0.0000   0.0000   0.0000   0.0672
  -8.900  -0.5381   0.01641   0.01131  -0.0925  0.9243  0.0094  -5.7445   0.0000   0.0000   0.0000   0.0675
  -8.800  -0.5341   0.01601   0.01086  -0.0914  0.9238  0.0095  -5.6774   0.0000   0.0000   0.0000   0.0685
  -8.700  -0.5303   0.01572   0.01055  -0.0901  0.9233  0.0096  -5.5996   0.0000   0.0000   0.0000   0.0697
  -8.600  -0.5264   0.01551   0.01032  -0.0888  0.9228  0.0098  -5.5145   0.0000   0.0000   0.0000   0.0710
  -8.500  -0.5224   0.01535   0.01015  -0.0875  0.9221  0.0099  -5.4260   0.0000   0.0000   0.0000   0.0723
  -8.400  -0.5185   0.01522   0.01000  -0.0862  0.9215  0.0100  -5.3364   0.0000   0.0000   0.0000   0.0737
  -8.300  -0.5142   0.01510   0.00986  -0.0850  0.9207  0.0102  -5.2461   0.0000   0.0000   0.0000   0.0749
  -8.200  -0.5095   0.01497   0.00971  -0.0838  0.9200  0.0103  -5.1543   0.0000   0.0000   0.0000   0.0757
  -8.100  -0.5041   0.01483   0.00955  -0.0828  0.9192  0.0105  -5.0610   0.0000   0.0000   0.0000   0.0760
  -8.000  -0.4980   0.01467   0.00937  -0.0819  0.9185  0.0106  -4.9671   0.0000   0.0000   0.0000   0.0759
  -7.900  -0.4917   0.01449   0.00917  -0.0811  0.9177  0.0108  -4.8748   0.0000   0.0000   0.0000   0.0756
  -7.800  -0.4854   0.01430   0.00895  -0.0802  0.9169  0.0110  -4.7851   0.0000   0.0000   0.0000   0.0752
  -7.700  -0.4791   0.01410   0.00873  -0.0794  0.9161  0.0111  -4.6976   0.0000   0.0000   0.0000   0.0749
  -7.600  -0.4727   0.01391   0.00852  -0.0785  0.9153  0.0112  -4.6100   0.0000   0.0000   0.0000   0.0746
  -7.500  -0.4663   0.01373   0.00830  -0.0777  0.9145  0.0114  -4.5219   0.0000   0.0000   0.0000   0.0741
  -7.400  -0.4597   0.01355   0.00809  -0.0769  0.9137  0.0115  -4.4334   0.0000   0.0000   0.0000   0.0736
  -7.300  -0.4530   0.01337   0.00789  -0.0761  0.9128  0.0117  -4.3441   0.0000   0.0000   0.0000   0.0729
  -7.200  -0.4461   0.01320   0.00770  -0.0753  0.9119  0.0118  -4.2538   0.0000   0.0000   0.0000   0.0721
  -7.100  -0.4390   0.01304   0.00751  -0.0746  0.9110  0.0120  -4.1621   0.0000   0.0000   0.0000   0.0711
  -7.000  -0.4316   0.01289   0.00734  -0.0739  0.9101  0.0121  -4.0688   0.0000   0.0000   0.0000   0.0698
  -6.900  -0.4240   0.01275   0.00718  -0.0732  0.9093  0.0122  -3.9737   0.0000   0.0000   0.0000   0.0683
  -6.800  -0.4160   0.01263   0.00704  -0.0727  0.9085  0.0123  -3.8765   0.0000   0.0000   0.0000   0.0664
  -6.700  -0.4092   0.01245   0.00683  -0.0719  0.9078  0.0124  -3.7915   0.0000   0.0000   0.0000   0.0655
  -6.600  -0.4060   0.01205   0.00638  -0.0704  0.9068  0.0128  -3.7429   0.0000   0.0000   0.0000   0.0679
  -6.500  -0.4003   0.01180   0.00610  -0.0694  0.9060  0.0131  -3.6693   0.0000   0.0000   0.0000   0.0680
  -6.400  -0.3931   0.01163   0.00591  -0.0687  0.9052  0.0135  -3.5931   0.0000   0.0000   0.0000   0.0667
  -6.300  -0.3852   0.01149   0.00577  -0.0681  0.9045  0.0138  -3.5096   0.0000   0.0000   0.0000   0.0646
  -6.200  -0.3769   0.01138   0.00564  -0.0676  0.9039  0.0141  -3.4232   0.0000   0.0000   0.0000   0.0621
  -6.100  -0.3684   0.01128   0.00552  -0.0671  0.9032  0.0145  -3.3356   0.0000   0.0000   0.0000   0.0592
  -6.000  -0.3598   0.01118   0.00542  -0.0667  0.9025  0.0150  -3.2488   0.0000   0.0000   0.0000   0.0561
  -5.900  -0.3511   0.01109   0.00531  -0.0662  0.9017  0.0154  -3.1632   0.0000   0.0000   0.0000   0.0528
  -5.800  -0.3424   0.01100   0.00520  -0.0658  0.9009  0.0158  -3.0787   0.0000   0.0000   0.0000   0.0493
  -5.700  -0.3336   0.01092   0.00511  -0.0654  0.9000  0.0162  -2.9944   0.0000   0.0000   0.0000   0.0455
  -5.600  -0.3247   0.01086   0.00503  -0.0650  0.8990  0.0164  -2.9098   0.0000   0.0000   0.0000   0.0413
  -5.500  -0.3177   0.01068   0.00482  -0.0642  0.8978  0.0171  -2.8476   0.0000   0.0000   0.0000   0.0395
  -5.400  -0.3101   0.01058   0.00470  -0.0635  0.8965  0.0180  -2.7756   0.0000   0.0000   0.0000   0.0366
  -5.300  -0.3024   0.01057   0.00469  -0.0629  0.8948  0.0187  -2.6982   0.0000   0.0000   0.0000   0.0334
  -5.200  -0.2946   0.01057   0.00469  -0.0623  0.8935  0.0195  -2.6200   0.0000   0.0000   0.0000   0.0299
  -5.100  -0.2855   0.01047   0.00458  -0.0620  0.8932  0.0203  -2.5375   0.0000   0.0000   0.0000   0.0244
  -5.000  -0.2762   0.01039   0.00448  -0.0616  0.8928  0.0211  -2.4546   0.0000   0.0000   0.0000   0.0182
  -4.900  -0.2677   0.01024   0.00432  -0.0611  0.8924  0.0228  -2.3815   0.0000   0.0000   0.0000   0.0131
  -4.800  -0.2590   0.01011   0.00420  -0.0607  0.8919  0.0248  -2.3030   0.0000   0.0000   0.0000   0.0071
  -4.700  -0.2498   0.01001   0.00410  -0.0603  0.8913  0.0268  -2.2219   0.0000   0.0000   0.0000  -0.0002
  -4.600  -0.2415   0.00985   0.00396  -0.0597  0.8905  0.0318  -2.1486   0.0000   0.0000   0.0000  -0.0061
  -4.500  -0.2336   0.00967   0.00382  -0.0591  0.8896  0.0416  -2.0759   0.0000   0.0000   0.0000  -0.0119
  -4.400  -0.2278   0.00937   0.00366  -0.0581  0.8885  0.0697  -2.0128   0.0000   0.0000   0.0000  -0.0141
  -4.300  -0.2221   0.00907   0.00352  -0.0572  0.8874  0.1065  -1.9558   0.0000   0.0000   0.0000  -0.0162
  -4.200  -0.2148   0.00886   0.00342  -0.0565  0.8862  0.1332  -1.8925   0.0000   0.0000   0.0000  -0.0216
  -4.100  -0.2066   0.00871   0.00334  -0.0559  0.8852  0.1527  -1.8254   0.0000   0.0000   0.0000  -0.0297
  -4.000  -0.1981   0.00857   0.00326  -0.0555  0.8842  0.1696  -1.7575   0.0000   0.0000   0.0000  -0.0391
  -3.900  -0.1892   0.00845   0.00319  -0.0551  0.8833  0.1848  -1.6889   0.0000   0.0000   0.0000  -0.0502
  -3.800  -0.1802   0.00834   0.00313  -0.0547  0.8824  0.1998  -1.6204   0.0000   0.0000   0.0000  -0.0628
  -3.700  -0.1713   0.00823   0.00307  -0.0543  0.8815  0.2156  -1.5526   0.0000   0.0000   0.0000  -0.0768
  -3.600  -0.1623   0.00811   0.00302  -0.0539  0.8807  0.2323  -1.4858   0.0000   0.0000   0.0000  -0.0920
  -3.500  -0.1534   0.00799   0.00296  -0.0536  0.8798  0.2496  -1.4195   0.0000   0.0000   0.0000  -0.1092
  -3.400  -0.1444   0.00787   0.00289  -0.0532  0.8789  0.2673  -1.3537   0.0000   0.0000   0.0000  -0.1288
  -3.300  -0.1353   0.00775   0.00284  -0.0529  0.8781  0.2855  -1.2887   0.0000   0.0000   0.0000  -0.1511
  -3.200  -0.1263   0.00762   0.00278  -0.0525  0.8773  0.3058  -1.2247   0.0000   0.0000   0.0000  -0.1763
  -3.100  -0.1178   0.00748   0.00271  -0.0520  0.8764  0.3323  -1.1628   0.0000   0.0000   0.0000  -0.2031
  -3.000  -0.1102   0.00727   0.00264  -0.0514  0.8756  0.3683  -1.1049   0.0000   0.0000   0.0000  -0.2278
  -2.900  -0.1033   0.00705   0.00257  -0.0506  0.8746  0.4118  -1.0495   0.0000   0.0000   0.0000  -0.2520
  -2.800  -0.0969   0.00682   0.00251  -0.0497  0.8737  0.4599  -0.9969   0.0000   0.0000   0.0000  -0.2756
  -2.700  -0.0907   0.00661   0.00246  -0.0488  0.8728  0.5071  -0.9508   0.0000   0.0000   0.0000  -0.3005
  -2.600  -0.0845   0.00642   0.00242  -0.0478  0.8718  0.5499  -0.9053   0.0000   0.0000   0.0000  -0.3284
  -2.500  -0.0775   0.00627   0.00239  -0.0469  0.8707  0.5846  -0.8582   0.0000   0.0000   0.0000  -0.3689
  -2.400  -0.0700   0.00616   0.00237  -0.0462  0.8696  0.6120  -0.8101   0.0000   0.0000   0.0000  -0.4246
  -2.200  -0.0528   0.00609   0.00240  -0.0452  0.8666  0.6489  -0.7108   0.0000   0.0000   0.0000  -0.6238
  -2.100  -0.0442   0.00609   0.00244  -0.0447  0.8651  0.6634  -0.6622   0.0000   0.0000   0.0000  -0.7824
  -2.000  -0.0351   0.00601   0.00241  -0.0443  0.8647  0.6790  -0.6129   0.0000   0.0000   0.0000  -1.0370
  -1.900  -0.0262   0.00593   0.00238  -0.0438  0.8642  0.6934  -0.5650   0.0000   0.0000   0.0000  -1.4540
  -1.800  -0.0168   0.00587   0.00235  -0.0435  0.8636  0.7079  -0.5224   0.0000   0.0000   0.0000  -2.3867
  -1.700  -0.0079   0.00579   0.00233  -0.0430  0.8629  0.7219  -0.4814   0.0000   0.0000   0.0000  -5.2783
  -1.600   0.0018   0.00574   0.00231  -0.0427  0.8622  0.7348  -0.4497   0.0000   0.0000   0.0000  24.0665
  -1.500   0.0109   0.00567   0.00229  -0.0423  0.8614  0.7480  -0.4360   0.0000   0.0000   0.0000   4.1754
  -1.400   0.0207   0.00562   0.00226  -0.0420  0.8605  0.7609  -0.4223   0.0000   0.0000   0.0000   2.3010
  -1.300   0.0301   0.00555   0.00225  -0.0416  0.8595  0.7743  -0.4094   0.0000   0.0000   0.0000   1.6485
  -1.200   0.0402   0.00551   0.00223  -0.0414  0.8585  0.7866  -0.3961   0.0000   0.0000   0.0000   1.2905
  -1.100   0.0502   0.00545   0.00222  -0.0411  0.8575  0.7984  -0.3830   0.0000   0.0000   0.0000   1.0776
  -1.000   0.0606   0.00541   0.00221  -0.0409  0.8565  0.8098  -0.3808   0.0000   0.0000   0.0000   0.9319
  -0.900   0.0713   0.00537   0.00220  -0.0408  0.8555  0.8202  -0.3856   0.0000   0.0000   0.0000   0.8276
  -0.800   0.0822   0.00533   0.00220  -0.0408  0.8545  0.8310  -0.3905   0.0000   0.0000   0.0000   0.7498
  -0.700   0.0932   0.00530   0.00218  -0.0407  0.8534  0.8396  -0.3955   0.0000   0.0000   0.0000   0.6900
  -0.600   0.1050   0.00527   0.00218  -0.0409  0.8524  0.8477  -0.4011   0.0000   0.0000   0.0000   0.6412
  -0.500   0.1166   0.00524   0.00217  -0.0409  0.8514  0.8555  -0.4065   0.0000   0.0000   0.0000   0.6026
  -0.400   0.1279   0.00522   0.00215  -0.0410  0.8503  0.8624  -0.4118   0.0000   0.0000   0.0000   0.5714
  -0.300   0.1397   0.00520   0.00214  -0.0411  0.8493  0.8681  -0.4173   0.0000   0.0000   0.0000   0.5448
  -0.200   0.1527   0.00518   0.00214  -0.0415  0.8484  0.8737  -0.4233   0.0000   0.0000   0.0000   0.5220
  -0.100   0.1652   0.00517   0.00214  -0.0418  0.8474  0.8789  -0.4292   0.0000   0.0000   0.0000   0.5029
   0.000   0.1771   0.00516   0.00212  -0.0419  0.8464  0.8840  -0.4348   0.0000   0.0000   0.0000   0.4864
   0.100   0.1883   0.00514   0.00210  -0.0419  0.8450  0.8886  -0.4402   0.0000   0.0000   0.0000   0.4720
   0.200   0.1991   0.00511   0.00205  -0.0418  0.8431  0.8924  -0.4456   0.0000   0.0000   0.0000   0.4592
   0.300   0.2119   0.00511   0.00204  -0.0421  0.8404  0.8959  -0.4519   0.0000   0.0000   0.0000   0.4480
   0.400   0.2254   0.00511   0.00204  -0.0426  0.8380  0.8993  -0.4584   0.0000   0.0000   0.0000   0.4381
   0.500   0.2380   0.00507   0.00203  -0.0429  0.8361  0.9025  -0.4646   0.0000   0.0000   0.0000   0.4291
   0.600   0.2506   0.00505   0.00201  -0.0432  0.8335  0.9056  -0.4716   0.0000   0.0000   0.0000   0.4210
   0.700   0.2630   0.00503   0.00200  -0.0434  0.8307  0.9086  -0.4840   0.0000   0.0000   0.0000   0.4136
   0.800   0.2743   0.00502   0.00199  -0.0434  0.8278  0.9118  -0.4959   0.0000   0.0000   0.0000   0.4066
   0.900   0.2850   0.00501   0.00198  -0.0432  0.8248  0.9153  -0.5076   0.0000   0.0000   0.0000   0.4000
   1.000   0.2947   0.00501   0.00197  -0.0428  0.8218  0.9193  -0.5193   0.0000   0.0000   0.0000   0.3935
   1.100   0.3027   0.00503   0.00197  -0.0420  0.8189  0.9230  -0.5300   0.0000   0.0000   0.0000   0.3868
   1.200   0.3139   0.00505   0.00198  -0.0419  0.8161  0.9264  -0.5426   0.0000   0.0000   0.0000   0.3816
   1.300   0.3311   0.00509   0.00202  -0.0433  0.8135  0.9296  -0.5591   0.0000   0.0000   0.0000   0.3786
   1.400   0.3471   0.00514   0.00208  -0.0443  0.8116  0.9316  -0.5749   0.0000   0.0000   0.0000   0.3755
   1.500   0.3619   0.00518   0.00214  -0.0452  0.8094  0.9330  -0.5909   0.0000   0.0000   0.0000   0.3725
   1.600   0.3756   0.00522   0.00218  -0.0457  0.8066  0.9340  -0.6062   0.0000   0.0000   0.0000   0.3694
   1.700   0.3890   0.00524   0.00222  -0.0462  0.8033  0.9349  -0.6214   0.0000   0.0000   0.0000   0.3664
   1.800   0.4026   0.00527   0.00225  -0.0468  0.7996  0.9357  -0.6368   0.0000   0.0000   0.0000   0.3637
   1.900   0.4166   0.00529   0.00226  -0.0474  0.7959  0.9364  -0.6525   0.0000   0.0000   0.0000   0.3613
   2.000   0.4310   0.00532   0.00227  -0.0482  0.7919  0.9370  -0.6692   0.0000   0.0000   0.0000   0.3591
   2.100   0.4453   0.00534   0.00228  -0.0489  0.7874  0.9376  -0.6863   0.0000   0.0000   0.0000   0.3570
   2.200   0.4591   0.00537   0.00232  -0.0495  0.7832  0.9382  -0.7031   0.0000   0.0000   0.0000   0.3550
   2.300   0.4728   0.00540   0.00235  -0.0501  0.7777  0.9388  -0.7198   0.0000   0.0000   0.0000   0.3531
   2.400   0.4862   0.00544   0.00238  -0.0506  0.7712  0.9395  -0.7365   0.0000   0.0000   0.0000   0.3511
   2.500   0.4992   0.00548   0.00239  -0.0510  0.7640  0.9402  -0.7535   0.0000   0.0000   0.0000   0.3492
   2.600   0.5120   0.00553   0.00243  -0.0514  0.7567  0.9410  -0.7708   0.0000   0.0000   0.0000   0.3473
   2.700   0.5242   0.00558   0.00246  -0.0517  0.7468  0.9419  -0.7940   0.0000   0.0000   0.0000   0.3454
   2.900   0.5468   0.00572   0.00253  -0.0518  0.7262  0.9440  -0.9004   0.0000   0.0000   0.0000   0.3413
   3.000   0.5566   0.00582   0.00258  -0.0515  0.7136  0.9453  -0.9529   0.0000   0.0000   0.0000   0.3391
   3.100   0.5661   0.00592   0.00265  -0.0512  0.7019  0.9468  -1.0051   0.0000   0.0000   0.0000   0.3368
   3.200   0.5737   0.00604   0.00271  -0.0504  0.6882  0.9485  -1.0535   0.0000   0.0000   0.0000   0.3342
   3.300   0.5798   0.00617   0.00279  -0.0493  0.6739  0.9506  -1.0984   0.0000   0.0000   0.0000   0.3313
   3.400   0.5808   0.00635   0.00290  -0.0471  0.6572  0.9536  -1.1311   0.0000   0.0000   0.0000   0.3272
   3.500   0.5814   0.00652   0.00301  -0.0447  0.6410  0.9563  -1.1628   0.0000   0.0000   0.0000   0.3230
   3.600   0.5804   0.00672   0.00316  -0.0420  0.6252  0.9584  -1.1906   0.0000   0.0000   0.0000   0.3184
   3.700   0.5804   0.00693   0.00328  -0.0396  0.6068  0.9600  -1.2223   0.0000   0.0000   0.0000   0.3141
   3.800   0.5877   0.00704   0.00329  -0.0389  0.5825  0.9616  -1.2779   0.0000   0.0000   0.0000   0.3120
   3.900   0.5952   0.00720   0.00336  -0.0383  0.5586  0.9628  -1.3350   0.0000   0.0000   0.0000   0.3100
   4.000   0.6012   0.00737   0.00344  -0.0373  0.5357  0.9639  -1.3881   0.0000   0.0000   0.0000   0.3077
   4.100   0.6074   0.00758   0.00354  -0.0364  0.5096  0.9651  -1.4420   0.0000   0.0000   0.0000   0.3054
   4.200   0.6143   0.00782   0.00366  -0.0357  0.4773  0.9661  -1.4989   0.0000   0.0000   0.0000   0.3036
   4.300   0.6202   0.00813   0.00380  -0.0349  0.4385  0.9672  -1.5532   0.0000   0.0000   0.0000   0.3016
   4.400   0.6263   0.00848   0.00396  -0.0341  0.3947  0.9683  -1.6082   0.0000   0.0000   0.0000   0.2997
   4.500   0.6329   0.00884   0.00413  -0.0335  0.3517  0.9695  -1.6651   0.0000   0.0000   0.0000   0.2981
   4.600   0.6406   0.00916   0.00428  -0.0331  0.3156  0.9706  -1.7264   0.0000   0.0000   0.0000   0.2967
   4.700   0.6494   0.00942   0.00442  -0.0329  0.2876  0.9716  -1.7915   0.0000   0.0000   0.0000   0.2956
   4.800   0.6588   0.00965   0.00455  -0.0328  0.2639  0.9726  -1.8595   0.0000   0.0000   0.0000   0.2947
   4.900   0.6686   0.00985   0.00466  -0.0328  0.2442  0.9736  -1.9298   0.0000   0.0000   0.0000   0.2938
   5.000   0.6787   0.01004   0.00477  -0.0328  0.2272  0.9746  -2.0013   0.0000   0.0000   0.0000   0.2930
   5.100   0.6886   0.01022   0.00488  -0.0328  0.2111  0.9757  -2.0743   0.0000   0.0000   0.0000   0.2922
   5.200   0.6986   0.01040   0.00500  -0.0328  0.1952  0.9767  -2.1550   0.0000   0.0000   0.0000   0.2914
   5.300   0.7083   0.01059   0.00512  -0.0327  0.1786  0.9778  -2.2358   0.0000   0.0000   0.0000   0.2906
   5.400   0.7176   0.01080   0.00524  -0.0326  0.1603  0.9790  -2.3159   0.0000   0.0000   0.0000   0.2898
   5.500   0.7261   0.01105   0.00538  -0.0323  0.1383  0.9802  -2.3929   0.0000   0.0000   0.0000   0.2888
   5.600   0.7336   0.01136   0.00555  -0.0319  0.1109  0.9816  -2.4660   0.0000   0.0000   0.0000   0.2877
   5.700   0.7394   0.01177   0.00577  -0.0312  0.0756  0.9831  -2.5318   0.0000   0.0000   0.0000   0.2863
   5.800   0.7454   0.01219   0.00602  -0.0305  0.0459  0.9845  -2.5978   0.0000   0.0000   0.0000   0.2850
   5.900   0.7537   0.01246   0.00622  -0.0302  0.0332  0.9857  -2.6736   0.0000   0.0000   0.0000   0.2840
   6.000   0.7631   0.01265   0.00638  -0.0301  0.0280  0.9868  -2.7540   0.0000   0.0000   0.0000   0.2832
   6.100   0.7733   0.01280   0.00652  -0.0301  0.0253  0.9878  -2.8378   0.0000   0.0000   0.0000   0.2826
   6.200   0.7832   0.01296   0.00668  -0.0300  0.0232  0.9887  -2.9222   0.0000   0.0000   0.0000   0.2820
   6.300   0.7926   0.01316   0.00688  -0.0299  0.0212  0.9897  -2.9996   0.0000   0.0000   0.0000   0.2812
   6.400   0.8030   0.01327   0.00701  -0.0299  0.0204  0.9906  -3.0879   0.0000   0.0000   0.0000   0.2806
   6.500   0.8131   0.01340   0.00714  -0.0299  0.0195  0.9914  -3.1756   0.0000   0.0000   0.0000   0.2801
   6.600   0.8229   0.01354   0.00729  -0.0298  0.0186  0.9922  -3.2638   0.0000   0.0000   0.0000   0.2794
   6.700   0.8321   0.01372   0.00747  -0.0296  0.0177  0.9930  -3.3589   0.0000   0.0000   0.0000   0.2787
   6.800   0.8397   0.01401   0.00778  -0.0291  0.0165  0.9938  -3.4371   0.0000   0.0000   0.0000   0.2777
   6.900   0.8496   0.01412   0.00791  -0.0291  0.0162  0.9945  -3.5394   0.0000   0.0000   0.0000   0.2771
   7.000   0.8593   0.01425   0.00805  -0.0290  0.0158  0.9951  -3.6408   0.0000   0.0000   0.0000   0.2765
   7.100   0.8688   0.01440   0.00821  -0.0289  0.0154  0.9958  -3.7408   0.0000   0.0000   0.0000   0.2759
   7.200   0.8782   0.01455   0.00838  -0.0287  0.0150  0.9963  -3.8406   0.0000   0.0000   0.0000   0.2753
   7.300   0.8873   0.01471   0.00856  -0.0286  0.0146  0.9969  -3.9409   0.0000   0.0000   0.0000   0.2746
   7.400   0.8964   0.01487   0.00873  -0.0284  0.0142  0.9973  -4.0418   0.0000   0.0000   0.0000   0.2740
   7.500   0.9052   0.01504   0.00891  -0.0281  0.0138  0.9978  -4.1425   0.0000   0.0000   0.0000   0.2733
   7.600   0.9136   0.01524   0.00912  -0.0278  0.0134  0.9982  -4.2402   0.0000   0.0000   0.0000   0.2726
   7.700   0.9214   0.01550   0.00940  -0.0274  0.0130  0.9987  -4.3307   0.0000   0.0000   0.0000   0.2718
   7.800   0.9276   0.01590   0.00984  -0.0268  0.0126  0.9991  -4.4025   0.0000   0.0000   0.0000   0.2708
   7.900   0.9345   0.01626   0.01024  -0.0263  0.0123  0.9995  -4.4809   0.0000   0.0000   0.0000   0.2699
   8.000   0.9443   0.01642   0.01041  -0.0262  0.0122  0.9998  -4.5895   0.0000   0.0000   0.0000   0.2695
   8.100   0.9515   0.01657   0.01058  -0.0257  0.0121  1.0000  -4.6853   0.0000   0.0000   0.0000   0.2685
   8.200   0.9553   0.01671   0.01074  -0.0244  0.0119  1.0000  -4.7637   0.0000   0.0000   0.0000   0.2670
   8.300   0.9591   0.01686   0.01090  -0.0232  0.0118  1.0000  -4.8422   0.0000   0.0000   0.0000   0.2655
   8.400   0.9626   0.01702   0.01108  -0.0219  0.0116  1.0000  -4.9198   0.0000   0.0000   0.0000   0.2639
   8.500   0.9658   0.01718   0.01127  -0.0205  0.0114  1.0000  -4.9959   0.0000   0.0000   0.0000   0.2624
   8.600   0.9689   0.01736   0.01146  -0.0192  0.0112  1.0000  -5.0717   0.0000   0.0000   0.0000   0.2608
   8.700   0.9720   0.01754   0.01166  -0.0179  0.0111  1.0000  -5.1480   0.0000   0.0000   0.0000   0.2592
   8.800   0.9752   0.01772   0.01187  -0.0166  0.0109  1.0000  -5.2248   0.0000   0.0000   0.0000   0.2577
   8.900   0.9784   0.01792   0.01208  -0.0152  0.0107  1.0000  -5.3013   0.0000   0.0000   0.0000   0.2562
   9.000   0.9816   0.01812   0.01230  -0.0140  0.0106  1.0000  -5.3785   0.0000   0.0000   0.0000   0.2547
   9.100   0.9849   0.01832   0.01251  -0.0127  0.0105  1.0000  -5.4636   0.0000   0.0000   0.0000   0.2533
   9.200   0.9883   0.01852   0.01274  -0.0115  0.0103  1.0000  -5.5521   0.0000   0.0000   0.0000   0.2518
   9.300   0.9917   0.01873   0.01296  -0.0102  0.0102  1.0000  -5.6411   0.0000   0.0000   0.0000   0.2504
   9.400   0.9949   0.01895   0.01319  -0.0090  0.0101  1.0000  -5.7301   0.0000   0.0000   0.0000   0.2490
   9.500   0.9980   0.01918   0.01344  -0.0077  0.0099  1.0000  -5.8181   0.0000   0.0000   0.0000   0.2476
   9.600   1.0005   0.01943   0.01371  -0.0064  0.0098  1.0000  -5.9019   0.0000   0.0000   0.0000   0.2461
   9.700   1.0024   0.01972   0.01402  -0.0049  0.0097  1.0000  -5.9806   0.0000   0.0000   0.0000   0.2445
   9.800   1.0037   0.02005   0.01437  -0.0034  0.0096  1.0000  -6.0534   0.0000   0.0000   0.0000   0.2429
   9.900   1.0045   0.02044   0.01479  -0.0019  0.0094  1.0000  -6.1184   0.0000   0.0000   0.0000   0.2412
  10.000   1.0044   0.02092   0.01530  -0.0002  0.0093  1.0000  -6.1718   0.0000   0.0000   0.0000   0.2394
  10.100   1.0032   0.02155   0.01598   0.0016  0.0091  1.0000  -6.2071   0.0000   0.0000   0.0000   0.2374
  10.200   1.0019   0.02233   0.01681   0.0034  0.0090  1.0000  -6.2306   0.0000   0.0000   0.0000   0.2355
  10.300   1.0062   0.02254   0.01705   0.0044  0.0090  1.0000  -6.3276   0.0000   0.0000   0.0000   0.2344
  10.400   1.0103   0.02278   0.01732   0.0054  0.0089  1.0000  -6.4233   0.0000   0.0000   0.0000   0.2333
  10.500   1.0143   0.02303   0.01760   0.0064  0.0089  1.0000  -6.5177   0.0000   0.0000   0.0000   0.2322
  10.600   1.0181   0.02330   0.01790   0.0075  0.0088  1.0000  -6.6098   0.0000   0.0000   0.0000   0.2310
  10.700   1.0215   0.02360   0.01822   0.0085  0.0087  1.0000  -6.6989   0.0000   0.0000   0.0000   0.2299
  10.800   1.0248   0.02391   0.01856   0.0096  0.0087  1.0000  -6.7863   0.0000   0.0000   0.0000   0.2287
  10.900   1.0280   0.02423   0.01892   0.0107  0.0086  1.0000  -6.8730   0.0000   0.0000   0.0000   0.2276
  11.000   1.0312   0.02458   0.01930   0.0117  0.0085  1.0000  -6.9593   0.0000   0.0000   0.0000   0.2264
  11.100   1.0345   0.02492   0.01968   0.0128  0.0085  1.0000  -7.0462   0.0000   0.0000   0.0000   0.2253
  11.200   1.0379   0.02527   0.02006   0.0138  0.0084  1.0000  -7.1347   0.0000   0.0000   0.0000   0.2243
  11.300   1.0413   0.02562   0.02044   0.0148  0.0083  1.0000  -7.2244   0.0000   0.0000   0.0000   0.2232
  11.400   1.0448   0.02597   0.02083   0.0157  0.0082  1.0000  -7.3153   0.0000   0.0000   0.0000   0.2222
  11.500   1.0483   0.02633   0.02122   0.0167  0.0081  1.0000  -7.4074   0.0000   0.0000   0.0000   0.2212
  11.600   1.0517   0.02669   0.02161   0.0176  0.0080  1.0000  -7.5004   0.0000   0.0000   0.0000   0.2202
  11.700   1.0550   0.02706   0.02202   0.0185  0.0079  1.0000  -7.5927   0.0000   0.0000   0.0000   0.2193
  11.800   1.0579   0.02745   0.02244   0.0195  0.0078  1.0000  -7.6837   0.0000   0.0000   0.0000   0.2183
  11.900   1.0607   0.02784   0.02287   0.0204  0.0077  1.0000  -7.7749   0.0000   0.0000   0.0000   0.2173
  12.000   1.0635   0.02824   0.02330   0.0213  0.0076  1.0000  -7.8672   0.0000   0.0000   0.0000   0.2163
  12.100   1.0664   0.02865   0.02374   0.0222  0.0076  1.0000  -7.9587   0.0000   0.0000   0.0000   0.2154
  12.200   1.0692   0.02907   0.02420   0.0231  0.0075  1.0000  -8.0500   0.0000   0.0000   0.0000   0.2144
  12.300   1.0720   0.02951   0.02468   0.0240  0.0074  1.0000  -8.1401   0.0000   0.0000   0.0000   0.2135
  12.400   1.0747   0.02997   0.02517   0.0248  0.0073  1.0000  -8.2298   0.0000   0.0000   0.0000   0.2126
  12.500   1.0772   0.03043   0.02567   0.0257  0.0073  1.0000  -8.3185   0.0000   0.0000   0.0000   0.2117
  12.600   1.0791   0.03092   0.02619   0.0266  0.0072  1.0000  -8.4042   0.0000   0.0000   0.0000   0.2108
  12.700   1.0809   0.03141   0.02672   0.0275  0.0072  1.0000  -8.4893   0.0000   0.0000   0.0000   0.2098
  12.800   1.0827   0.03191   0.02725   0.0283  0.0071  1.0000  -8.5753   0.0000   0.0000   0.0000   0.2089
  12.900   1.0846   0.03242   0.02780   0.0292  0.0070  1.0000  -8.6622   0.0000   0.0000   0.0000   0.2080
  13.000   1.0864   0.03295   0.02836   0.0300  0.0070  1.0000  -8.7490   0.0000   0.0000   0.0000   0.2071
  13.100   1.0881   0.03349   0.02894   0.0308  0.0069  1.0000  -8.8348   0.0000   0.0000   0.0000   0.2062
  13.200   1.0891   0.03408   0.02957   0.0316  0.0069  1.0000  -8.9146   0.0000   0.0000   0.0000   0.2053
  13.300   1.0898   0.03471   0.03023   0.0325  0.0068  1.0000  -8.9901   0.0000   0.0000   0.0000   0.2044
  13.400   1.0903   0.03537   0.03093   0.0333  0.0068  1.0000  -9.0629   0.0000   0.0000   0.0000   0.2035
  13.500   1.0906   0.03607   0.03168   0.0341  0.0067  1.0000  -9.1318   0.0000   0.0000   0.0000   0.2026
  13.600   1.0906   0.03683   0.03248   0.0349  0.0067  1.0000  -9.1942   0.0000   0.0000   0.0000   0.2016
  13.700   1.0896   0.03768   0.03338   0.0358  0.0066  1.0000  -9.2446   0.0000   0.0000   0.0000   0.2007
  13.800   1.0878   0.03863   0.03438   0.0366  0.0066  1.0000  -9.2825   0.0000   0.0000   0.0000   0.1996
  13.900   1.0853   0.03967   0.03549   0.0375  0.0065  1.0000  -9.3090   0.0000   0.0000   0.0000   0.1986
  14.000   1.0820   0.04081   0.03671   0.0384  0.0065  1.0000  -9.3216   0.0000   0.0000   0.0000   0.1975
  14.100   1.0775   0.04209   0.03807   0.0393  0.0065  1.0000  -9.3182   0.0000   0.0000   0.0000   0.1963
  14.200   1.0719   0.04348   0.03955   0.0401  0.0064  1.0000  -9.3016   0.0000   0.0000   0.0000   0.1951
  14.300   1.0658   0.04499   0.04115   0.0409  0.0064  1.0000  -9.2828   0.0000   0.0000   0.0000   0.1940
  14.400   1.0588   0.04659   0.04284   0.0417  0.0064  1.0000  -9.2569   0.0000   0.0000   0.0000   0.1928
  14.500   1.0513   0.04825   0.04460   0.0423  0.0064  1.0000  -9.2253   0.0000   0.0000   0.0000   0.1917
  14.600   1.0436   0.04998   0.04642   0.0429  0.0063  1.0000  -9.1903   0.0000   0.0000   0.0000   0.1907
  14.700   1.0357   0.05174   0.04827   0.0433  0.0063  1.0000  -9.1543   0.0000   0.0000   0.0000   0.1897
  14.800   1.0277   0.05354   0.05016   0.0436  0.0063  1.0000  -9.1177   0.0000   0.0000   0.0000   0.1889
  14.900   1.0198   0.05539   0.05209   0.0438  0.0063  1.0000  -9.0814   0.0000   0.0000   0.0000   0.1882
  15.000   1.0119   0.05730   0.05408   0.0438  0.0063  1.0000  -9.0458   0.0000   0.0000   0.0000   0.1876
  15.100   1.0041   0.05925   0.05611   0.0437  0.0063  1.0000  -9.0102   0.0000   0.0000   0.0000   0.1871
  15.200   0.9964   0.06124   0.05817   0.0435  0.0063  1.0000  -8.9761   0.0000   0.0000   0.0000   0.1867
  15.300   0.9892   0.06324   0.06024   0.0431  0.0063  1.0000  -8.9470   0.0000   0.0000   0.0000   0.1865
  15.400   0.9833   0.06510   0.06216   0.0427  0.0063  1.0000  -8.9368   0.0000   0.0000   0.0000   0.1864
  15.500   0.9765   0.06714   0.06426   0.0422  0.0063  1.0000  -8.9130   0.0000   0.0000   0.0000   0.1864
  15.600   0.9694   0.06929   0.06648   0.0415  0.0063  1.0000  -8.8816   0.0000   0.0000   0.0000   0.1866
  15.700   0.9617   0.07163   0.06887   0.0407  0.0063  1.0000  -8.8378   0.0000   0.0000   0.0000   0.1868
  16.400   0.6274   0.15452   0.15293   0.0059  0.0097  1.0000  -3.5684   0.0000   0.0000   0.0000   0.2220
  16.500   0.6263   0.15583   0.15425   0.0055  0.0096  1.0000  -3.5882   0.0000   0.0000   0.0000   0.2226
  16.600   0.6251   0.15711   0.15553   0.0050  0.0096  1.0000  -3.6070   0.0000   0.0000   0.0000   0.2232
  16.700   0.6238   0.15835   0.15677   0.0046  0.0095  1.0000  -3.6258   0.0000   0.0000   0.0000   0.2238
  16.800   0.6223   0.15958   0.15799   0.0042  0.0094  1.0000  -3.6449   0.0000   0.0000   0.0000   0.2243
  16.900   0.6206   0.16078   0.15919   0.0037  0.0093  1.0000  -3.6668   0.0000   0.0000   0.0000   0.2250
  17.000   0.7163   0.14071   0.13910   0.0096  0.0074  1.0000  -5.7057   0.0000   0.0000   0.0000   0.2152
  17.100   0.7254   0.13989   0.13828   0.0100  0.0073  1.0000  -5.9262   0.0000   0.0000   0.0000   0.2145
  17.200   0.7334   0.13935   0.13772   0.0102  0.0072  1.0000  -6.1278   0.0000   0.0000   0.0000   0.2140
  17.300   0.7404   0.13907   0.13742   0.0104  0.0071  1.0000  -6.3104   0.0000   0.0000   0.0000   0.2136
  17.400   0.7511   0.13797   0.13629   0.0109  0.0070  1.0000  -6.5655   0.0000   0.0000   0.0000   0.2128
  17.500   0.7643   0.13632   0.13460   0.0117  0.0069  1.0000  -6.8695   0.0000   0.0000   0.0000   0.2116
  17.700   0.5492   0.17916   0.17753  -0.0003  0.0105  1.0000  -2.1247   0.0000   0.0000   0.0000   0.2332
  17.800   0.5477   0.17985   0.17822  -0.0004  0.0104  1.0000  -2.1096   0.0000   0.0000   0.0000   0.2333
  17.900   0.5462   0.18052   0.17889  -0.0004  0.0103  1.0000  -2.0978   0.0000   0.0000   0.0000   0.2334
  18.000   0.5449   0.18116   0.17953  -0.0004  0.0102  1.0000  -2.0889   0.0000   0.0000   0.0000   0.2333
  18.100   0.5436   0.18177   0.18014  -0.0004  0.0101  1.0000  -2.0832   0.0000   0.0000   0.0000   0.2332
  18.200   0.5425   0.18236   0.18072  -0.0004  0.0100  1.0000  -2.0817   0.0000   0.0000   0.0000   0.2331
  18.300   0.5417   0.18292   0.18128  -0.0003  0.0099  1.0000  -2.0846   0.0000   0.0000   0.0000   0.2329
  18.400   0.5411   0.18348   0.18183  -0.0003  0.0098  1.0000  -2.0920   0.0000   0.0000   0.0000   0.2329
  18.500   0.5408   0.18401   0.18237  -0.0004  0.0097  1.0000  -2.1045   0.0000   0.0000   0.0000   0.2329
  18.600   0.5411   0.18458   0.18294  -0.0005  0.0096  1.0000  -2.1234   0.0000   0.0000   0.0000   0.2330
  18.700   0.5420   0.18516   0.18352  -0.0008  0.0095  1.0000  -2.1496   0.0000   0.0000   0.0000   0.2334
  18.800   0.5433   0.18577   0.18413  -0.0012  0.0095  1.0000  -2.1806   0.0000   0.0000   0.0000   0.2340
  18.900   0.5450   0.18644   0.18480  -0.0017  0.0094  1.0000  -2.2149   0.0000   0.0000   0.0000   0.2349
  19.000   0.5468   0.18715   0.18552  -0.0024  0.0093  1.0000  -2.2500   0.0000   0.0000   0.0000   0.2359
  19.100   0.5488   0.18789   0.18626  -0.0030  0.0092  1.0000  -2.2884   0.0000   0.0000   0.0000   0.2370
  19.200   0.5463   0.19032   0.18868  -0.0047  0.0090  1.0000  -2.1611   0.0000   0.0000   0.0000   0.2401
  19.300   0.5478   0.19180   0.19017  -0.0058  0.0090  1.0000  -2.1278   0.0000   0.0000   0.0000   0.2421
  19.400   0.5494   0.19331   0.19167  -0.0069  0.0090  1.0000  -2.0952   0.0000   0.0000   0.0000   0.2441
  19.500   0.5512   0.19482   0.19320  -0.0081  0.0090  1.0000  -2.0629   0.0000   0.0000   0.0000   0.2462
  19.600   0.5530   0.19635   0.19473  -0.0093  0.0090  1.0000  -2.0307   0.0000   0.0000   0.0000   0.2483
  19.700   0.5549   0.19790   0.19628  -0.0105  0.0089  1.0000  -1.9983   0.0000   0.0000   0.0000   0.2504
  19.800   0.5569   0.19945   0.19783  -0.0118  0.0089  1.0000  -1.9651   0.0000   0.0000   0.0000   0.2525
  19.900   0.5590   0.20102   0.19940  -0.0130  0.0089  1.0000  -1.9302   0.0000   0.0000   0.0000   0.2546
  20.000   0.5605   0.20283   0.20122  -0.0144  0.0088  1.0000  -1.8672   0.0000   0.0000   0.0000   0.2571
  20.100   0.5602   0.20565   0.20405  -0.0164  0.0084  1.0000  -1.6949   0.0000   0.0000   0.0000   0.2608
  20.200   0.5624   0.20734   0.20573  -0.0176  0.0080  1.0000  -1.6623   0.0000   0.0000   0.0000   0.2630
  20.300   0.5648   0.20883   0.20723  -0.0188  0.0078  1.0000  -1.6514   0.0000   0.0000   0.0000   0.2649
  20.400   0.5673   0.21026   0.20867  -0.0200  0.0076  1.0000  -1.6470   0.0000   0.0000   0.0000   0.2667
  20.500   0.5698   0.21167   0.21008  -0.0211  0.0074  1.0000  -1.6464   0.0000   0.0000   0.0000   0.2685
  20.600   0.5724   0.21306   0.21148  -0.0223  0.0073  1.0000  -1.6490   0.0000   0.0000   0.0000   0.2702
  20.700   0.5751   0.21442   0.21284  -0.0234  0.0072  1.0000  -1.6545   0.0000   0.0000   0.0000   0.2719
  20.800   0.5777   0.21576   0.21419  -0.0245  0.0071  1.0000  -1.6627   0.0000   0.0000   0.0000   0.2735
  20.900   0.5805   0.21708   0.21551  -0.0256  0.0070  1.0000  -1.6735   0.0000   0.0000   0.0000   0.2751
  21.000   0.5832   0.21838   0.21682  -0.0267  0.0069  1.0000  -1.6871   0.0000   0.0000   0.0000   0.2766
  21.100   0.5860   0.21966   0.21810  -0.0278  0.0068  1.0000  -1.7037   0.0000   0.0000   0.0000   0.2781
  21.200   0.5888   0.22092   0.21937  -0.0289  0.0067  1.0000  -1.7231   0.0000   0.0000   0.0000   0.2796
  21.300   0.5917   0.22217   0.22062  -0.0299  0.0067  1.0000  -1.7455   0.0000   0.0000   0.0000   0.2810
  21.400   0.5946   0.22339   0.22184  -0.0309  0.0066  1.0000  -1.7713   0.0000   0.0000   0.0000   0.2823
  21.500   0.5976   0.22458   0.22304  -0.0320  0.0065  1.0000  -1.8008   0.0000   0.0000   0.0000   0.2836
  21.600   0.6007   0.22575   0.22422  -0.0329  0.0065  1.0000  -1.8350   0.0000   0.0000   0.0000   0.2848
  21.700   0.6040   0.22688   0.22535  -0.0339  0.0064  1.0000  -1.8767   0.0000   0.0000   0.0000   0.2859
  22.200   0.6160   0.23563   0.23412  -0.0398  0.0063  1.0000  -1.7809   0.0000   0.0000   0.0000   0.2939
  22.300   0.6183   0.23731   0.23581  -0.0410  0.0062  1.0000  -1.7570   0.0000   0.0000   0.0000   0.2955
  22.400   0.6205   0.23908   0.23758  -0.0422  0.0062  1.0000  -1.7245   0.0000   0.0000   0.0000   0.2972
  22.500   0.6225   0.24092   0.23942  -0.0435  0.0062  1.0000  -1.6826   0.0000   0.0000   0.0000   0.2989
  22.600   0.6244   0.24282   0.24132  -0.0448  0.0062  1.0000  -1.6332   0.0000   0.0000   0.0000   0.3007
  22.700   0.6263   0.24483   0.24333  -0.0461  0.0061  1.0000  -1.5691   0.0000   0.0000   0.0000   0.3025
  22.800   0.6285   0.24702   0.24553  -0.0473  0.0059  1.0000  -1.4808   0.0000   0.0000   0.0000   0.3043
  22.900   0.6311   0.24880   0.24731  -0.0485  0.0056  1.0000  -1.4477   0.0000   0.0000   0.0000   0.3057
  23.000   0.6336   0.25045   0.24896  -0.0495  0.0055  1.0000  -1.4318   0.0000   0.0000   0.0000   0.3070
  23.100   0.6362   0.25205   0.25058  -0.0506  0.0053  1.0000  -1.4212   0.0000   0.0000   0.0000   0.3083
  23.200   0.6387   0.25363   0.25216  -0.0517  0.0052  1.0000  -1.4138   0.0000   0.0000   0.0000   0.3095
  23.300   0.6413   0.25519   0.25373  -0.0528  0.0051  1.0000  -1.4089   0.0000   0.0000   0.0000   0.3107
  23.400   0.6438   0.25674   0.25528  -0.0538  0.0049  1.0000  -1.4112   0.0000   0.0000   0.0000   0.3119
  23.500   0.6463   0.25827   0.25681  -0.0549  0.0049  1.0000  -1.4188   0.0000   0.0000   0.0000   0.3130
  23.600   0.6489   0.25979   0.25833  -0.0559  0.0048  1.0000  -1.4282   0.0000   0.0000   0.0000   0.3141
  23.700   0.6514   0.26129   0.25984  -0.0570  0.0047  1.0000  -1.4394   0.0000   0.0000   0.0000   0.3152
  23.800   0.6539   0.26277   0.26133  -0.0580  0.0046  1.0000  -1.4525   0.0000   0.0000   0.0000   0.3163
  23.900   0.6564   0.26424   0.26280  -0.0590  0.0046  1.0000  -1.4675   0.0000   0.0000   0.0000   0.3174
  24.000   0.6589   0.26569   0.26425  -0.0600  0.0045  1.0000  -1.4847   0.0000   0.0000   0.0000   0.3184
  24.100   0.6615   0.26714   0.26571  -0.0611  0.0045  1.0000  -1.5041   0.0000   0.0000   0.0000   0.3194
  24.200   0.6640   0.26856   0.26714  -0.0621  0.0044  1.0000  -1.5258   0.0000   0.0000   0.0000   0.3204
  24.300   0.6665   0.26996   0.26855  -0.0630  0.0044  1.0000  -1.5500   0.0000   0.0000   0.0000   0.3213
  24.400   0.6690   0.27135   0.26994  -0.0640  0.0043  1.0000  -1.5771   0.0000   0.0000   0.0000   0.3222
  24.500   0.6716   0.27273   0.27132  -0.0650  0.0043  1.0000  -1.6080   0.0000   0.0000   0.0000   0.3230
  24.600   0.6743   0.27411   0.27270  -0.0659  0.0043  1.0000  -1.6446   0.0000   0.0000   0.0000   0.3238
  24.700   0.6772   0.27601   0.27461  -0.0668  0.0042  1.0000  -1.6689   0.0000   0.0000   0.0000   0.3245
  24.800   0.6794   0.27779   0.27639  -0.0678  0.0042  1.0000  -1.6558   0.0000   0.0000   0.0000   0.3256
  24.900   0.6816   0.27957   0.27818  -0.0689  0.0042  1.0000  -1.6425   0.0000   0.0000   0.0000   0.3267
  25.000   0.6838   0.28136   0.27997  -0.0700  0.0042  1.0000  -1.6290   0.0000   0.0000   0.0000   0.3277
  25.100   0.6858   0.28321   0.28182  -0.0710  0.0042  1.0000  -1.6074   0.0000   0.0000   0.0000   0.3289
  25.200   0.6877   0.28510   0.28372  -0.0721  0.0042  1.0000  -1.5811   0.0000   0.0000   0.0000   0.3301
  25.300   0.6897   0.28700   0.28562  -0.0732  0.0042  1.0000  -1.5528   0.0000   0.0000   0.0000   0.3312
  25.400   0.6916   0.28892   0.28755  -0.0743  0.0041  1.0000  -1.5230   0.0000   0.0000   0.0000   0.3324
  25.500   0.6936   0.29084   0.28947  -0.0754  0.0041  1.0000  -1.4922   0.0000   0.0000   0.0000   0.3335
  25.600   0.6956   0.29276   0.29140  -0.0765  0.0041  1.0000  -1.4628   0.0000   0.0000   0.0000   0.3346
  25.700   0.6977   0.29468   0.29332  -0.0775  0.0041  1.0000  -1.4320   0.0000   0.0000   0.0000   0.3357
  25.800   0.6999   0.29666   0.29530  -0.0786  0.0040  1.0000  -1.3957   0.0000   0.0000   0.0000   0.3367
  25.900   0.7021   0.29867   0.29731  -0.0796  0.0040  1.0000  -1.3546   0.0000   0.0000   0.0000   0.3376
  26.000   0.7044   0.30058   0.29923  -0.0805  0.0038  1.0000  -1.3256   0.0000   0.0000   0.0000   0.3385
  26.100   0.7066   0.30238   0.30104  -0.0815  0.0037  1.0000  -1.3102   0.0000   0.0000   0.0000   0.3394
  26.200   0.7087   0.30415   0.30281  -0.0825  0.0036  1.0000  -1.3003   0.0000   0.0000   0.0000   0.3402
  26.300   0.7109   0.30587   0.30454  -0.0834  0.0035  1.0000  -1.2931   0.0000   0.0000   0.0000   0.3410
  26.400   0.7130   0.30760   0.30627  -0.0844  0.0034  1.0000  -1.2877   0.0000   0.0000   0.0000   0.3419
  26.500   0.7151   0.30932   0.30799  -0.0854  0.0033  1.0000  -1.2838   0.0000   0.0000   0.0000   0.3427
  26.600   0.7172   0.31102   0.30969  -0.0863  0.0032  1.0000  -1.2814   0.0000   0.0000   0.0000   0.3434
  26.700   0.7192   0.31270   0.31138  -0.0873  0.0032  1.0000  -1.2803   0.0000   0.0000   0.0000   0.3442
  26.800   0.7213   0.31438   0.31306  -0.0882  0.0031  1.0000  -1.2806   0.0000   0.0000   0.0000   0.3450
  26.900   0.7233   0.31604   0.31473  -0.0892  0.0030  1.0000  -1.2824   0.0000   0.0000   0.0000   0.3458
  27.000   0.7253   0.31769   0.31638  -0.0901  0.0030  1.0000  -1.2858   0.0000   0.0000   0.0000   0.3465
  27.100   0.7273   0.31932   0.31802  -0.0910  0.0029  1.0000  -1.2908   0.0000   0.0000   0.0000   0.3472
  27.200   0.7293   0.32094   0.31964  -0.0920  0.0029  1.0000  -1.2975   0.0000   0.0000   0.0000   0.3480
  27.300   0.7312   0.32257   0.32128  -0.0929  0.0028  1.0000  -1.3061   0.0000   0.0000   0.0000   0.3487
  27.400   0.7331   0.32416   0.32287  -0.0938  0.0028  1.0000  -1.3165   0.0000   0.0000   0.0000   0.3494
  27.500   0.7350   0.32574   0.32446  -0.0948  0.0028  1.0000  -1.3337   0.0000   0.0000   0.0000   0.3501
  27.600   0.7369   0.32731   0.32603  -0.0957  0.0028  1.0000  -1.3532   0.0000   0.0000   0.0000   0.3508
  27.700   0.7388   0.32887   0.32759  -0.0966  0.0027  1.0000  -1.3746   0.0000   0.0000   0.0000   0.3514
  27.800   0.7406   0.33041   0.32914  -0.0975  0.0027  1.0000  -1.3983   0.0000   0.0000   0.0000   0.3521
  27.900   0.7425   0.33196   0.33070  -0.0984  0.0027  1.0000  -1.4252   0.0000   0.0000   0.0000   0.3527
  28.000   0.7445   0.33354   0.33229  -0.0992  0.0027  1.0000  -1.4575   0.0000   0.0000   0.0000   0.3532
  28.900   0.9108   0.29894   0.29727  -0.0839  0.0026  1.0000  -2.3830   0.0000   0.0000   0.0000   0.2977


