xflr5 v6.61

 Calculated polar for: MH 16

 1 1 Reynolds number fixed          Mach number fixed         

 xtrf =   1.000 (top)        1.000 (bottom)
 Mach =   0.000     Re =     0.100 e 6     Ncrit =   9.000

  alpha     CL        CD       CDp       Cm    Top Xtr Bot Xtr   Cpmin    Chinge    XCp    
 ------- -------- --------- --------- -------- ------- ------- -------- --------- ---------
 -10.000  -0.5364   0.10887   0.10445  -0.0361  1.0000  0.1367  -1.9902   0.0000   0.0000   0.0000   0.1733
  -9.900  -0.5075   0.10711   0.10265  -0.0320  1.0000  0.1392  -1.8571   0.0000   0.0000   0.0000   0.1773
  -9.800  -0.5000   0.10619   0.10171  -0.0306  1.0000  0.1409  -1.8193   0.0000   0.0000   0.0000   0.1791
  -9.700  -0.4984   0.10517   0.10070  -0.0299  1.0000  0.1425  -1.8079   0.0000   0.0000   0.0000   0.1804
  -9.600  -0.4999   0.10408   0.09962  -0.0296  1.0000  0.1443  -1.8094   0.0000   0.0000   0.0000   0.1814
  -9.500  -0.5049   0.10291   0.09847  -0.0296  1.0000  0.1464  -1.8252   0.0000   0.0000   0.0000   0.1821
  -9.400  -0.5214   0.10162   0.09723  -0.0309  1.0000  0.1492  -1.8861   0.0000   0.0000   0.0000   0.1818
  -9.300  -0.5492   0.10010   0.09579  -0.0335  1.0000  0.1504  -1.9879   0.0000   0.0000   0.0000   0.1807
  -9.200  -0.5687   0.09841   0.09415  -0.0351  1.0000  0.1507  -2.0553   0.0000   0.0000   0.0000   0.1803
  -9.100  -0.5856   0.09680   0.09256  -0.0361  1.0000  0.1508  -2.1088   0.0000   0.0000   0.0000   0.1807
  -9.000  -0.5409   0.09575   0.09146  -0.0305  1.0000  0.1540  -1.9433   0.0000   0.0000   0.0000   0.1854
  -8.900  -0.5363   0.09477   0.09048  -0.0293  1.0000  0.1554  -1.9193   0.0000   0.0000   0.0000   0.1872
  -8.800  -0.5361   0.09371   0.08943  -0.0286  1.0000  0.1569  -1.9116   0.0000   0.0000   0.0000   0.1886
  -8.700  -0.5394   0.09254   0.08828  -0.0283  1.0000  0.1586  -1.9168   0.0000   0.0000   0.0000   0.1897
  -8.600  -0.5468   0.09125   0.08701  -0.0283  1.0000  0.1606  -1.9361   0.0000   0.0000   0.0000   0.1906
  -8.500  -0.5636   0.08971   0.08552  -0.0292  1.0000  0.1628  -1.9854   0.0000   0.0000   0.0000   0.1908
  -8.400  -0.5917   0.08813   0.08398  -0.0305  1.0000  0.1642  -2.0648   0.0000   0.0000   0.0000   0.1915
  -6.500  -0.7851   0.05242   0.04641  -0.0018  1.0000  0.0863  -3.1003   0.0000   0.0000   0.0000   0.2423
  -6.400  -0.7884   0.04916   0.04292   0.0002  1.0000  0.0785  -3.1974   0.0000   0.0000   0.0000   0.2449
  -6.200  -0.7931   0.04518   0.03801   0.0058  1.0000  0.0660  -3.4233   0.0000   0.0000   0.0000   0.2520
  -6.100  -0.7882   0.04373   0.03657   0.0066  1.0000  0.0653  -3.4005   0.0000   0.0000   0.0000   0.2531
  -6.000  -0.7846   0.04243   0.03522   0.0077  1.0000  0.0643  -3.3882   0.0000   0.0000   0.0000   0.2546
  -5.900  -0.7816   0.04117   0.03383   0.0091  1.0000  0.0631  -3.3880   0.0000   0.0000   0.0000   0.2564
  -5.800  -0.7789   0.03987   0.03234   0.0106  1.0000  0.0617  -3.4002   0.0000   0.0000   0.0000   0.2585
  -5.700  -0.7766   0.03846   0.03064   0.0124  1.0000  0.0600  -3.4351   0.0000   0.0000   0.0000   0.2609
  -5.600  -0.7760   0.03743   0.02901   0.0151  1.0000  0.0578  -3.5138   0.0000   0.0000   0.0000   0.2645
  -5.500  -0.7708   0.03714   0.02847   0.0166  1.0000  0.0572  -3.5003   0.0000   0.0000   0.0000   0.2666
  -5.400  -0.7649   0.03602   0.02725   0.0175  1.0000  0.0569  -3.4779   0.0000   0.0000   0.0000   0.2680
  -5.300  -0.7590   0.03505   0.02618   0.0184  1.0000  0.0567  -3.4548   0.0000   0.0000   0.0000   0.2694
  -5.200  -0.7528   0.03416   0.02518   0.0194  1.0000  0.0566  -3.4307   0.0000   0.0000   0.0000   0.2710
  -5.100  -0.7465   0.03334   0.02424   0.0204  1.0000  0.0565  -3.4050   0.0000   0.0000   0.0000   0.2725
  -5.000  -0.7399   0.03258   0.02335   0.0213  1.0000  0.0565  -3.3774   0.0000   0.0000   0.0000   0.2741
  -4.900  -0.7331   0.03190   0.02254   0.0222  1.0000  0.0566  -3.3477   0.0000   0.0000   0.0000   0.2757
  -4.800  -0.7268   0.03141   0.02188   0.0232  1.0000  0.0571  -3.3161   0.0000   0.0000   0.0000   0.2774
  -4.700  -0.7190   0.03040   0.02087   0.0237  1.0000  0.0580  -3.2729   0.0000   0.0000   0.0000   0.2785
  -4.600  -0.7117   0.02971   0.02020   0.0242  1.0000  0.0592  -3.2165   0.0000   0.0000   0.0000   0.2796
  -4.500  -0.7045   0.02920   0.01968   0.0248  1.0000  0.0604  -3.1623   0.0000   0.0000   0.0000   0.2809
  -4.400  -0.6969   0.02871   0.01915   0.0255  1.0000  0.0615  -3.1128   0.0000   0.0000   0.0000   0.2823
  -4.300  -0.6891   0.02820   0.01859   0.0262  1.0000  0.0624  -3.0675   0.0000   0.0000   0.0000   0.2837
  -4.200  -0.6811   0.02770   0.01803   0.0268  1.0000  0.0632  -3.0240   0.0000   0.0000   0.0000   0.2852
  -4.100  -0.6732   0.02723   0.01750   0.0275  1.0000  0.0640  -2.9802   0.0000   0.0000   0.0000   0.2867
  -4.000  -0.6654   0.02680   0.01701   0.0282  1.0000  0.0650  -2.9415   0.0000   0.0000   0.0000   0.2883
  -3.900  -0.6577   0.02642   0.01654   0.0289  1.0000  0.0660  -2.9102   0.0000   0.0000   0.0000   0.2899
  -3.800  -0.6505   0.02589   0.01603   0.0296  1.0000  0.0673  -2.8767   0.0000   0.0000   0.0000   0.2916
  -3.700  -0.6445   0.02540   0.01563   0.0304  1.0000  0.0690  -2.8358   0.0000   0.0000   0.0000   0.2933
  -3.600  -0.6386   0.02507   0.01533   0.0312  1.0000  0.0714  -2.7927   0.0000   0.0000   0.0000   0.2951
  -3.500  -0.6326   0.02479   0.01503   0.0321  1.0000  0.0744  -2.7532   0.0000   0.0000   0.0000   0.2971
  -3.400  -0.6269   0.02447   0.01469   0.0331  1.0000  0.0773  -2.7183   0.0000   0.0000   0.0000   0.2992
  -3.300  -0.6225   0.02409   0.01439   0.0342  1.0000  0.0805  -2.6786   0.0000   0.0000   0.0000   0.3014
  -3.200  -0.6174   0.02380   0.01410   0.0353  1.0000  0.0842  -2.6436   0.0000   0.0000   0.0000   0.3036
  -3.100  -0.6125   0.02350   0.01378   0.0364  1.0000  0.0882  -2.6145   0.0000   0.0000   0.0000   0.3061
  -3.000  -0.6083   0.02316   0.01351   0.0376  1.0000  0.0934  -2.5811   0.0000   0.0000   0.0000   0.3085
  -2.900  -0.6040   0.02283   0.01323   0.0389  1.0000  0.1012  -2.5534   0.0000   0.0000   0.0000   0.3111
  -2.800  -0.6001   0.02245   0.01298   0.0401  1.0000  0.1153  -2.5266   0.0000   0.0000   0.0000   0.3137
  -2.700  -0.5981   0.02179   0.01273   0.0418  1.0000  0.1566  -2.5203   0.0000   0.0000   0.0000   0.3168
  -2.600  -0.6004   0.02074   0.01257   0.0440  1.0000  0.2900  -2.5286   0.0000   0.0000   0.0000   0.3203
  -2.500  -0.4589   0.02270   0.01723   0.0225  1.0000  0.8918  -1.9824   0.0000   0.0000   0.0000   0.2957
  -2.400  -0.4185   0.02469   0.01903   0.0185  1.0000  0.9207  -1.8045   0.0000   0.0000   0.0000   0.2908
  -2.300  -0.3892   0.02557   0.01972   0.0153  1.0000  0.9303  -1.6707   0.0000   0.0000   0.0000   0.2858
  -2.200  -0.3570   0.02638   0.02037   0.0114  1.0000  0.9383  -1.5295   0.0000   0.0000   0.0000   0.2783
  -2.100  -0.3329   0.02711   0.02096   0.0089  1.0000  0.9475  -1.4172   0.0000   0.0000   0.0000   0.2729
  -2.000  -0.3202   0.02787   0.02163   0.0085  1.0000  0.9577  -1.3428   0.0000   0.0000   0.0000   0.2727
  -1.900  -0.2904   0.02849   0.02212   0.0046  1.0000  0.9642  -1.2166   0.0000   0.0000   0.0000   0.2620
  -1.800  -0.2580   0.02906   0.02255   0.0002  1.0000  0.9709  -1.0905   0.0000   0.0000   0.0000   0.2465
  -1.700  -0.2292   0.02971   0.02308  -0.0037  1.0000  0.9783  -0.9860   0.0000   0.0000   0.0000   0.2296
  -1.600  -0.2025   0.03050   0.02377  -0.0071  1.0000  0.9857  -0.8893   0.0000   0.0000   0.0000   0.2101
  -1.500  -0.1768   0.03151   0.02469  -0.0104  1.0000  0.9924  -0.7974   0.0000   0.0000   0.0000   0.1862
  -1.400  -0.1514   0.03284   0.02592  -0.0137  1.0000  0.9977  -0.7079   0.0000   0.0000   0.0000   0.1544
  -1.300  -0.1371   0.03365   0.02668  -0.0149  1.0000  1.0000  -0.6482   0.0000   0.0000   0.0000   0.1355
  -1.200  -0.1362   0.03349   0.02647  -0.0139  1.0000  1.0000  -0.6253   0.0000   0.0000   0.0000   0.1430
  -1.100  -0.1352   0.03334   0.02629  -0.0128  1.0000  1.0000  -0.6025   0.0000   0.0000   0.0000   0.1506
  -1.000  -0.1340   0.03321   0.02613  -0.0117  1.0000  1.0000  -0.5794   0.0000   0.0000   0.0000   0.1581
  -0.900  -0.1326   0.03311   0.02598  -0.0106  1.0000  1.0000  -0.5560   0.0000   0.0000   0.0000   0.1655
  -0.800  -0.1311   0.03302   0.02586  -0.0095  1.0000  1.0000  -0.5323   0.0000   0.0000   0.0000   0.1730
  -0.700  -0.1137   0.03210   0.02488  -0.0113  0.9964  1.0000  -0.4756   0.0000   0.0000   0.0000   0.1459
  -0.600  -0.0956   0.03147   0.02419  -0.0132  0.9914  1.0000  -0.4506   0.0000   0.0000   0.0000   0.1069
  -0.500  -0.0818   0.03117   0.02383  -0.0144  0.9871  1.0000  -0.4351   0.0000   0.0000   0.0000   0.0695
  -0.400  -0.0682   0.03099   0.02361  -0.0154  0.9829  1.0000  -0.4198   0.0000   0.0000   0.0000   0.0184
  -0.300  -0.0540   0.03091   0.02348  -0.0166  0.9788  1.0000  -0.4041   0.0000   0.0000   0.0000  -0.0639
  -0.200  -0.0386   0.03091   0.02344  -0.0180  0.9747  1.0000  -0.3884   0.0000   0.0000   0.0000  -0.2233
  -0.100  -0.0219   0.03101   0.02350  -0.0197  0.9709  1.0000  -0.3721   0.0000   0.0000   0.0000  -0.6575
   0.000  -0.0038   0.03123   0.02368  -0.0216  0.9675  1.0000  -0.3549   0.0000   0.0000   0.0000  -5.4849
   0.100   0.0158   0.03161   0.02402  -0.0237  0.9645  1.0000  -0.3368   0.0000   0.0000   0.0000   1.7565
   0.200   0.0372   0.03225   0.02463  -0.0262  0.9619  1.0000  -0.3236   0.0000   0.0000   0.0000   0.9559
   0.300   0.0537   0.03273   0.02508  -0.0277  0.9583  1.0000  -0.3310   0.0000   0.0000   0.0000   0.7659
   0.400   0.0464   0.03151   0.02384  -0.0246  0.9517  1.0000  -0.3277   0.0000   0.0000   0.0000   0.7801
   0.500   0.0515   0.03124   0.02355  -0.0239  0.9469  1.0000  -0.3302   0.0000   0.0000   0.0000   0.7136
   0.600   0.0604   0.03116   0.02345  -0.0240  0.9425  1.0000  -0.3346   0.0000   0.0000   0.0000   0.6447
   0.700   0.0720   0.03117   0.02344  -0.0245  0.9386  1.0000  -0.3430   0.0000   0.0000   0.0000   0.5875
   0.800   0.0857   0.03126   0.02351  -0.0254  0.9351  1.0000  -0.3539   0.0000   0.0000   0.0000   0.5433
   0.900   0.1014   0.03142   0.02365  -0.0266  0.9320  1.0000  -0.3666   0.0000   0.0000   0.0000   0.5096
   1.000   0.1192   0.03169   0.02390  -0.0282  0.9294  1.0000  -0.3807   0.0000   0.0000   0.0000   0.4840
   1.100   0.1391   0.03209   0.02429  -0.0302  0.9271  1.0000  -0.3963   0.0000   0.0000   0.0000   0.4644
   1.200   0.1611   0.03272   0.02492  -0.0326  0.9251  1.0000  -0.4140   0.0000   0.0000   0.0000   0.4496
   1.300   0.1445   0.03177   0.02395  -0.0278  0.9165  1.0000  -0.4075   0.0000   0.0000   0.0000   0.4392
   1.400   0.1493   0.03165   0.02383  -0.0270  0.9114  1.0000  -0.4144   0.0000   0.0000   0.0000   0.4274
   1.500   0.1590   0.03165   0.02383  -0.0271  0.9073  1.0000  -0.4244   0.0000   0.0000   0.0000   0.4166
   1.600   0.1718   0.03172   0.02389  -0.0277  0.9038  1.0000  -0.4365   0.0000   0.0000   0.0000   0.4074
   1.700   0.1871   0.03184   0.02401  -0.0287  0.9008  1.0000  -0.4505   0.0000   0.0000   0.0000   0.3998
   1.800   0.2048   0.03202   0.02419  -0.0302  0.8982  1.0000  -0.4668   0.0000   0.0000   0.0000   0.3937
   1.900   0.2248   0.03227   0.02445  -0.0320  0.8961  1.0000  -0.4847   0.0000   0.0000   0.0000   0.3888
   2.000   0.2467   0.03261   0.02480  -0.0342  0.8943  1.0000  -0.5039   0.0000   0.0000   0.0000   0.3851
   2.100   0.2278   0.03214   0.02432  -0.0292  0.8849  1.0000  -0.4953   0.0000   0.0000   0.0000   0.3739
   2.200   0.2338   0.03211   0.02429  -0.0285  0.8799  1.0000  -0.5037   0.0000   0.0000   0.0000   0.3677
   2.300   0.2456   0.03213   0.02433  -0.0288  0.8760  1.0000  -0.5166   0.0000   0.0000   0.0000   0.3632
   2.400   0.2611   0.03218   0.02439  -0.0298  0.8727  1.0000  -0.5327   0.0000   0.0000   0.0000   0.3598
   2.500   0.2796   0.03225   0.02447  -0.0312  0.8700  1.0000  -0.5510   0.0000   0.0000   0.0000   0.3575
   2.600   0.3011   0.03233   0.02458  -0.0332  0.8678  1.0000  -0.5718   0.0000   0.0000   0.0000   0.3560
   2.700   0.3280   0.03240   0.02470  -0.0360  0.8658  1.0000  -0.5969   0.0000   0.0000   0.0000   0.3555
   2.800   0.3053   0.03219   0.02446  -0.0303  0.8546  1.0000  -0.5847   0.0000   0.0000   0.0000   0.3447
   2.900   0.3193   0.03204   0.02433  -0.0307  0.8492  1.0000  -0.6010   0.0000   0.0000   0.0000   0.3418
   3.000   0.3415   0.03182   0.02414  -0.0325  0.8451  1.0000  -0.6243   0.0000   0.0000   0.0000   0.3407
   3.100   0.3701   0.03151   0.02388  -0.0352  0.8420  1.0000  -0.6530   0.0000   0.0000   0.0000   0.3408
   3.200   0.4012   0.03118   0.02362  -0.0384  0.8396  1.0000  -0.6842   0.0000   0.0000   0.0000   0.3413
   3.300   0.3818   0.03131   0.02371  -0.0334  0.8292  1.0000  -0.6739   0.0000   0.0000   0.0000   0.3327
   3.400   0.3941   0.03112   0.02356  -0.0334  0.8238  1.0000  -0.6905   0.0000   0.0000   0.0000   0.3302
   3.500   0.4133   0.03087   0.02336  -0.0346  0.8201  1.0000  -0.7132   0.0000   0.0000   0.0000   0.3291
   3.600   0.4351   0.03057   0.02312  -0.0362  0.8174  1.0000  -0.7421   0.0000   0.0000   0.0000   0.3286
   3.700   0.4591   0.03025   0.02285  -0.0382  0.8152  1.0000  -0.8182   0.0000   0.0000   0.0000   0.3285
   3.800   0.4848   0.02990   0.02257  -0.0404  0.8136  1.0000  -0.9021   0.0000   0.0000   0.0000   0.3286
   4.000   0.4736   0.03009   0.02277  -0.0348  0.7972  1.0000  -0.9252   0.0000   0.0000   0.0000   0.3185
   4.100   0.4929   0.02974   0.02251  -0.0359  0.7940  1.0000  -1.0023   0.0000   0.0000   0.0000   0.3178
   4.200   0.5154   0.02932   0.02217  -0.0375  0.7916  1.0000  -1.0896   0.0000   0.0000   0.0000   0.3177
   4.300   0.5395   0.02884   0.02177  -0.0393  0.7895  1.0000  -1.1827   0.0000   0.0000   0.0000   0.3177
   4.400   0.5652   0.02829   0.02131  -0.0413  0.7878  1.0000  -1.2823   0.0000   0.0000   0.0000   0.3179
   4.600   0.5561   0.02852   0.02158  -0.0359  0.7706  1.0000  -1.3145   0.0000   0.0000   0.0000   0.3092
   4.700   0.5773   0.02799   0.02115  -0.0371  0.7676  1.0000  -1.4141   0.0000   0.0000   0.0000   0.3089
   4.800   0.6018   0.02732   0.02059  -0.0387  0.7652  1.0000  -1.5265   0.0000   0.0000   0.0000   0.3089
   4.900   0.6287   0.02652   0.01991  -0.0406  0.7633  1.0000  -1.6491   0.0000   0.0000   0.0000   0.3092
   5.100   0.6271   0.02658   0.02004  -0.0362  0.7465  1.0000  -1.7127   0.0000   0.0000   0.0000   0.3021
   5.200   0.6492   0.02581   0.01938  -0.0373  0.7429  1.0000  -1.8229   0.0000   0.0000   0.0000   0.3017
   5.300   0.6748   0.02484   0.01854  -0.0387  0.7402  1.0000  -1.9471   0.0000   0.0000   0.0000   0.3017
   5.400   0.7035   0.02369   0.01757  -0.0405  0.7378  1.0000  -2.0840   0.0000   0.0000   0.0000   0.3019
   5.500   0.6979   0.02388   0.01777  -0.0375  0.7276  1.0000  -2.1009   0.0000   0.0000   0.0000   0.2979
   5.600   0.7136   0.02307   0.01707  -0.0372  0.7195  1.0000  -2.2019   0.0000   0.0000   0.0000   0.2962
   5.700   0.7481   0.02096   0.01507  -0.0387  0.7028  1.0000  -2.3874   0.0000   0.0000   0.0000   0.2957
   5.800   0.7890   0.01879   0.01284  -0.0410  0.6539  1.0000  -2.6020   0.0000   0.0000   0.0000   0.2959
   5.900   0.8164   0.01814   0.01201  -0.0427  0.5989  1.0000  -2.7555   0.0000   0.0000   0.0000   0.2962
   6.000   0.8329   0.01807   0.01171  -0.0430  0.5407  1.0000  -2.8630   0.0000   0.0000   0.0000   0.2954
   6.100   0.8365   0.01827   0.01167  -0.0412  0.4926  1.0000  -2.9190   0.0000   0.0000   0.0000   0.2930
   6.200   0.8353   0.01856   0.01172  -0.0387  0.4495  1.0000  -2.9556   0.0000   0.0000   0.0000   0.2899
   6.300   0.8318   0.01891   0.01182  -0.0359  0.4100  1.0000  -2.9823   0.0000   0.0000   0.0000   0.2866
   6.400   0.8269   0.01932   0.01198  -0.0329  0.3734  1.0000  -3.0030   0.0000   0.0000   0.0000   0.2831
   6.500   0.8215   0.01976   0.01218  -0.0299  0.3376  1.0000  -3.0204   0.0000   0.0000   0.0000   0.2796
   6.600   0.8158   0.02026   0.01243  -0.0269  0.3015  1.0000  -3.0344   0.0000   0.0000   0.0000   0.2761
   6.700   0.8095   0.02083   0.01273  -0.0239  0.2628  1.0000  -3.0432   0.0000   0.0000   0.0000   0.2725
   6.800   0.8021   0.02150   0.01308  -0.0208  0.2187  1.0000  -3.0442   0.0000   0.0000   0.0000   0.2688
   6.900   0.7942   0.02231   0.01349  -0.0177  0.1671  1.0000  -3.0363   0.0000   0.0000   0.0000   0.2650
   7.000   0.7885   0.02314   0.01395  -0.0150  0.1282  1.0000  -3.0291   0.0000   0.0000   0.0000   0.2615
   7.100   0.7855   0.02383   0.01440  -0.0127  0.1110  1.0000  -3.0343   0.0000   0.0000   0.0000   0.2586
   7.200   0.7851   0.02438   0.01485  -0.0107  0.1006  1.0000  -3.0477   0.0000   0.0000   0.0000   0.2559
   7.300   0.7855   0.02488   0.01530  -0.0089  0.0937  1.0000  -3.0714   0.0000   0.0000   0.0000   0.2535
   7.400   0.7860   0.02538   0.01574  -0.0072  0.0887  1.0000  -3.1027   0.0000   0.0000   0.0000   0.2512
   7.500   0.7875   0.02586   0.01620  -0.0055  0.0844  1.0000  -3.1339   0.0000   0.0000   0.0000   0.2490
   7.600   0.7898   0.02629   0.01662  -0.0041  0.0802  1.0000  -3.1724   0.0000   0.0000   0.0000   0.2470
   7.700   0.7911   0.02684   0.01708  -0.0026  0.0771  1.0000  -3.2113   0.0000   0.0000   0.0000   0.2450
   7.800   0.7953   0.02728   0.01755  -0.0014  0.0739  1.0000  -3.2522   0.0000   0.0000   0.0000   0.2434
   7.900   0.8000   0.02773   0.01801  -0.0004  0.0712  1.0000  -3.2968   0.0000   0.0000   0.0000   0.2419
   8.000   0.8054   0.02825   0.01849   0.0006  0.0690  1.0000  -3.3453   0.0000   0.0000   0.0000   0.2407
   8.100   0.8155   0.02906   0.01919   0.0006  0.0668  1.0000  -3.4081   0.0000   0.0000   0.0000   0.2405
   8.200   0.8290   0.02970   0.01987   0.0004  0.0650  1.0000  -3.4695   0.0000   0.0000   0.0000   0.2407
   8.300   0.8439   0.03037   0.02059   0.0000  0.0630  1.0000  -3.5366   0.0000   0.0000   0.0000   0.2411
   8.400   0.8584   0.03106   0.02130  -0.0005  0.0608  1.0000  -3.6101   0.0000   0.0000   0.0000   0.2417
   8.500   0.8972   0.03289   0.02296  -0.0056  0.0568  1.0000  -3.7651   0.0000   0.0000   0.0000   0.2472
   8.600   0.9120   0.03367   0.02390  -0.0061  0.0557  1.0000  -3.8230   0.0000   0.0000   0.0000   0.2476
   8.700   0.9419   0.03521   0.02563  -0.0093  0.0546  1.0000  -3.9079   0.0000   0.0000   0.0000   0.2507
   8.800   0.9619   0.03652   0.02710  -0.0107  0.0541  1.0000  -3.9865   0.0000   0.0000   0.0000   0.2519
   8.900   0.9760   0.03770   0.02844  -0.0111  0.0538  1.0000  -4.0445   0.0000   0.0000   0.0000   0.2521
   9.000   0.9870   0.03887   0.02979  -0.0110  0.0537  1.0000  -4.0906   0.0000   0.0000   0.0000   0.2518
   9.100   0.9951   0.03996   0.03104  -0.0104  0.0536  1.0000  -4.1285   0.0000   0.0000   0.0000   0.2510
   9.200   1.0009   0.04098   0.03221  -0.0095  0.0534  1.0000  -4.1612   0.0000   0.0000   0.0000   0.2499
   9.300   1.0050   0.04194   0.03332  -0.0083  0.0531  1.0000  -4.1902   0.0000   0.0000   0.0000   0.2486
   9.400   1.0080   0.04288   0.03440  -0.0070  0.0528  1.0000  -4.2170   0.0000   0.0000   0.0000   0.2472
   9.500   1.0102   0.04381   0.03545  -0.0056  0.0525  1.0000  -4.2417   0.0000   0.0000   0.0000   0.2456
   9.600   1.0117   0.04474   0.03652  -0.0040  0.0522  1.0000  -4.2638   0.0000   0.0000   0.0000   0.2440
   9.700   1.0125   0.04570   0.03761  -0.0024  0.0520  1.0000  -4.2812   0.0000   0.0000   0.0000   0.2423
   9.800   1.0123   0.04672   0.03877  -0.0007  0.0520  1.0000  -4.2910   0.0000   0.0000   0.0000   0.2405
   9.900   1.0111   0.04779   0.03999   0.0012  0.0523  1.0000  -4.2919   0.0000   0.0000   0.0000   0.2385
  10.000   1.0090   0.04893   0.04129   0.0032  0.0527  1.0000  -4.2856   0.0000   0.0000   0.0000   0.2364
  10.100   1.0065   0.05012   0.04263   0.0052  0.0532  1.0000  -4.2773   0.0000   0.0000   0.0000   0.2343
  10.200   1.0041   0.05133   0.04396   0.0072  0.0537  1.0000  -4.2707   0.0000   0.0000   0.0000   0.2323
  10.300   1.0013   0.05251   0.04526   0.0091  0.0542  1.0000  -4.2657   0.0000   0.0000   0.0000   0.2302
  10.400   0.9984   0.05369   0.04654   0.0111  0.0547  1.0000  -4.2624   0.0000   0.0000   0.0000   0.2281
  10.500   0.9954   0.05487   0.04782   0.0129  0.0552  1.0000  -4.2602   0.0000   0.0000   0.0000   0.2261
  10.600   0.9941   0.05624   0.04926   0.0144  0.0557  1.0000  -4.2638   0.0000   0.0000   0.0000   0.2245
  10.700   1.0005   0.05844   0.05150   0.0144  0.0564  1.0000  -4.2866   0.0000   0.0000   0.0000   0.2245
  10.800   1.0063   0.05993   0.05308   0.0151  0.0577  1.0000  -4.3021   0.0000   0.0000   0.0000   0.2239
  10.900   0.9891   0.05989   0.05317   0.0193  0.0580  1.0000  -4.2582   0.0000   0.0000   0.0000   0.2191
  11.000   0.9700   0.06005   0.05350   0.0236  0.0585  1.0000  -4.1974   0.0000   0.0000   0.0000   0.2143
  11.100   0.9499   0.06068   0.05432   0.0275  0.0593  1.0000  -4.1174   0.0000   0.0000   0.0000   0.2095
  11.200   0.9334   0.06178   0.05558   0.0305  0.0602  1.0000  -4.0466   0.0000   0.0000   0.0000   0.2056
  11.300   0.9197   0.06304   0.05697   0.0329  0.0610  1.0000  -3.9916   0.0000   0.0000   0.0000   0.2024
  11.400   0.9077   0.06435   0.05839   0.0348  0.0617  1.0000  -3.9482   0.0000   0.0000   0.0000   0.1996
  11.500   0.8974   0.06571   0.05984   0.0365  0.0624  1.0000  -3.9126   0.0000   0.0000   0.0000   0.1972
  11.600   0.8882   0.06713   0.06133   0.0379  0.0631  1.0000  -3.8836   0.0000   0.0000   0.0000   0.1950
  11.700   0.8808   0.06862   0.06288   0.0390  0.0638  1.0000  -3.8615   0.0000   0.0000   0.0000   0.1933
  11.800   0.8781   0.07034   0.06463   0.0397  0.0648  1.0000  -3.8566   0.0000   0.0000   0.0000   0.1922
  11.900   0.8760   0.07216   0.06655   0.0405  0.0679  1.0000  -3.8205   0.0000   0.0000   0.0000   0.1911
  12.000   0.8584   0.07353   0.06803   0.0419  0.0683  1.0000  -3.7566   0.0000   0.0000   0.0000   0.1883
  12.100   0.8413   0.07515   0.06975   0.0429  0.0687  1.0000  -3.6921   0.0000   0.0000   0.0000   0.1860
  12.200   0.8250   0.07694   0.07162   0.0434  0.0690  1.0000  -3.6310   0.0000   0.0000   0.0000   0.1841
  12.300   0.8094   0.07889   0.07363   0.0437  0.0693  1.0000  -3.5710   0.0000   0.0000   0.0000   0.1826
  12.400   0.7940   0.08102   0.07582   0.0435  0.0695  1.0000  -3.5099   0.0000   0.0000   0.0000   0.1815
  12.500   0.7787   0.08336   0.07823   0.0430  0.0697  1.0000  -3.4455   0.0000   0.0000   0.0000   0.1809
  12.600   0.7632   0.08597   0.08088   0.0421  0.0700  1.0000  -3.3755   0.0000   0.0000   0.0000   0.1807
  12.700   0.7472   0.08894   0.08389   0.0406  0.0703  1.0000  -3.2963   0.0000   0.0000   0.0000   0.1812
  12.800   0.7297   0.09254   0.08753   0.0385  0.0707  1.0000  -3.1971   0.0000   0.0000   0.0000   0.1826
  12.900   0.7108   0.09725   0.09223   0.0356  0.0726  1.0000  -3.0611   0.0000   0.0000   0.0000   0.1852
  13.000   0.7063   0.09992   0.09490   0.0347  0.0743  1.0000  -3.0221   0.0000   0.0000   0.0000   0.1860
  13.100   0.6609   0.10677   0.10182   0.0340  0.0750  1.0000  -2.8432   0.0000   0.0000   0.0000   0.1843
  13.200   0.6686   0.10725   0.10230   0.0353  0.0758  1.0000  -2.9012   0.0000   0.0000   0.0000   0.1828
  13.300   0.5652   0.13746   0.13233   0.0140  0.1465  1.0000  -1.7360   0.0000   0.0000   0.0000   0.2118
  13.400   0.5617   0.13920   0.13406   0.0135  0.1449  1.0000  -1.7168   0.0000   0.0000   0.0000   0.2126
  13.500   0.5599   0.14084   0.13569   0.0131  0.1437  1.0000  -1.7061   0.0000   0.0000   0.0000   0.2130
  13.600   0.5593   0.14238   0.13723   0.0129  0.1425  1.0000  -1.7019   0.0000   0.0000   0.0000   0.2133
  13.700   0.5599   0.14385   0.13871   0.0129  0.1413  1.0000  -1.7042   0.0000   0.0000   0.0000   0.2133
  13.800   0.5619   0.14527   0.14013   0.0130  0.1403  1.0000  -1.7135   0.0000   0.0000   0.0000   0.2131
  13.900   0.5655   0.14667   0.14153   0.0133  0.1394  1.0000  -1.7312   0.0000   0.0000   0.0000   0.2127
  14.000   0.5725   0.14806   0.14295   0.0139  0.1384  1.0000  -1.7654   0.0000   0.0000   0.0000   0.2117
  14.100   0.6009   0.15009   0.14504   0.0171  0.1369  1.0000  -1.9062   0.0000   0.0000   0.0000   0.2076
  14.200   0.5845   0.15193   0.14685   0.0151  0.1366  1.0000  -1.8196   0.0000   0.0000   0.0000   0.2101
  14.300   0.5633   0.15356   0.14841   0.0126  0.1357  1.0000  -1.7095   0.0000   0.0000   0.0000   0.2135
  14.400   0.5468   0.15495   0.14977   0.0108  0.1331  1.0000  -1.6252   0.0000   0.0000   0.0000   0.2161
  14.500   0.5429   0.15628   0.15109   0.0103  0.1310  1.0000  -1.6048   0.0000   0.0000   0.0000   0.2168
  14.600   0.5420   0.15753   0.15234   0.0101  0.1292  1.0000  -1.6008   0.0000   0.0000   0.0000   0.2169
  14.700   0.5442   0.15870   0.15351   0.0103  0.1274  1.0000  -1.6130   0.0000   0.0000   0.0000   0.2166
  14.800   0.5545   0.15980   0.15466   0.0113  0.1253  1.0000  -1.6699   0.0000   0.0000   0.0000   0.2151
  14.900   0.6200   0.15542   0.15008   0.0052  0.1201  1.0000  -1.8292   0.0000   0.0000   0.0000   0.2250
  15.000   0.6184   0.15667   0.15131   0.0044  0.1178  1.0000  -1.8125   0.0000   0.0000   0.0000   0.2261
  15.100   0.6204   0.15784   0.15248   0.0041  0.1157  1.0000  -1.8185   0.0000   0.0000   0.0000   0.2264
  15.200   0.6248   0.15900   0.15365   0.0042  0.1140  1.0000  -1.8393   0.0000   0.0000   0.0000   0.2262
  15.300   0.6321   0.16022   0.15488   0.0048  0.1127  1.0000  -1.8781   0.0000   0.0000   0.0000   0.2252
  15.400   0.6457   0.16177   0.15648   0.0065  0.1115  1.0000  -1.9541   0.0000   0.0000   0.0000   0.2228
  15.500   0.6601   0.16435   0.15908   0.0082  0.1107  1.0000  -2.0276   0.0000   0.0000   0.0000   0.2204
  15.600   0.6461   0.16534   0.16000   0.0052  0.1102  1.0000  -1.9288   0.0000   0.0000   0.0000   0.2245
  15.700   0.6316   0.16613   0.16074   0.0022  0.1087  1.0000  -1.8275   0.0000   0.0000   0.0000   0.2288
  15.800   0.6274   0.16716   0.16175   0.0009  0.1066  1.0000  -1.7917   0.0000   0.0000   0.0000   0.2306
  15.900   0.6280   0.16831   0.16290   0.0003  0.1047  1.0000  -1.7849   0.0000   0.0000   0.0000   0.2313
  16.000   0.6304   0.16947   0.16405   0.0001  0.1031  1.0000  -1.7914   0.0000   0.0000   0.0000   0.2316
  16.100   0.6349   0.17064   0.16523   0.0001  0.1016  1.0000  -1.8116   0.0000   0.0000   0.0000   0.2314
  16.200   0.6431   0.17202   0.16664   0.0008  0.1003  1.0000  -1.8553   0.0000   0.0000   0.0000   0.2303
  16.300   0.6612   0.17428   0.16895   0.0031  0.0991  1.0000  -1.9639   0.0000   0.0000   0.0000   0.2269
  16.400   0.6652   0.17646   0.17111   0.0031  0.0985  1.0000  -1.9793   0.0000   0.0000   0.0000   0.2269
  16.500   0.6544   0.17710   0.17171   0.0005  0.0981  1.0000  -1.8886   0.0000   0.0000   0.0000   0.2304
  16.600   0.6439   0.17750   0.17207  -0.0019  0.0970  1.0000  -1.8032   0.0000   0.0000   0.0000   0.2339
  16.700   0.6403   0.17840   0.17294  -0.0033  0.0952  1.0000  -1.7656   0.0000   0.0000   0.0000   0.2358
  16.800   0.6408   0.17951   0.17404  -0.0040  0.0935  1.0000  -1.7595   0.0000   0.0000   0.0000   0.2367
  16.900   0.6429   0.18063   0.17516  -0.0043  0.0920  1.0000  -1.7670   0.0000   0.0000   0.0000   0.2371
  17.000   0.6465   0.18174   0.17628  -0.0045  0.0905  1.0000  -1.7877   0.0000   0.0000   0.0000   0.2371
  17.100   0.6531   0.18299   0.17755  -0.0040  0.0891  1.0000  -1.8340   0.0000   0.0000   0.0000   0.2363
  17.200   0.6790   0.18684   0.18148  -0.0004  0.0872  1.0000  -2.0231   0.0000   0.0000   0.0000   0.2309
  17.300   0.6720   0.18749   0.18209  -0.0024  0.0870  1.0000  -1.9531   0.0000   0.0000   0.0000   0.2337
  17.400   0.6644   0.18786   0.18243  -0.0045  0.0866  1.0000  -1.8823   0.0000   0.0000   0.0000   0.2365
  17.500   0.6577   0.18825   0.18278  -0.0064  0.0858  1.0000  -1.8169   0.0000   0.0000   0.0000   0.2392
  17.700   0.5516   0.19199   0.18690   0.0021  0.0871  1.0000  -1.5445   0.0000   0.0000   0.0000   0.2303
  17.800   0.5426   0.19112   0.18602   0.0001  0.0869  1.0000  -1.4751   0.0000   0.0000   0.0000   0.2340
  17.900   0.5347   0.19061   0.18551  -0.0019  0.0863  1.0000  -1.4072   0.0000   0.0000   0.0000   0.2378
  18.000   0.5302   0.19079   0.18569  -0.0036  0.0850  1.0000  -1.3585   0.0000   0.0000   0.0000   0.2410
  18.100   0.5298   0.19160   0.18650  -0.0047  0.0832  1.0000  -1.3407   0.0000   0.0000   0.0000   0.2430
  18.200   0.5312   0.19256   0.18747  -0.0055  0.0815  1.0000  -1.3390   0.0000   0.0000   0.0000   0.2443
  18.300   0.5340   0.19359   0.18851  -0.0060  0.0799  1.0000  -1.3500   0.0000   0.0000   0.0000   0.2452
  18.400   0.5390   0.19482   0.18976  -0.0062  0.0784  1.0000  -1.3817   0.0000   0.0000   0.0000   0.2453
  18.500   0.5656   0.20117   0.19616  -0.0031  0.0765  1.0000  -1.5630   0.0000   0.0000   0.0000   0.2392
  18.600   0.5583   0.20052   0.19550  -0.0052  0.0764  1.0000  -1.4972   0.0000   0.0000   0.0000   0.2429
  18.700   0.5516   0.20006   0.19504  -0.0073  0.0761  1.0000  -1.4322   0.0000   0.0000   0.0000   0.2468
  18.800   0.5463   0.19999   0.19497  -0.0093  0.0755  1.0000  -1.3716   0.0000   0.0000   0.0000   0.2505
  18.900   0.5441   0.20057   0.19555  -0.0108  0.0743  1.0000  -1.3321   0.0000   0.0000   0.0000   0.2534
  19.000   0.5446   0.20155   0.19654  -0.0119  0.0730  1.0000  -1.3162   0.0000   0.0000   0.0000   0.2553
  19.100   0.5462   0.20265   0.19764  -0.0128  0.0717  1.0000  -1.3109   0.0000   0.0000   0.0000   0.2568
  19.200   0.5484   0.20377   0.19878  -0.0135  0.0705  1.0000  -1.3122   0.0000   0.0000   0.0000   0.2580
  19.300   0.5512   0.20494   0.19996  -0.0142  0.0694  1.0000  -1.3201   0.0000   0.0000   0.0000   0.2589
  19.400   0.5550   0.20621   0.20124  -0.0146  0.0684  1.0000  -1.3376   0.0000   0.0000   0.0000   0.2595
  19.500   0.5609   0.20788   0.20294  -0.0147  0.0675  1.0000  -1.3739   0.0000   0.0000   0.0000   0.2593
  19.600   0.5802   0.21364   0.20872  -0.0128  0.0665  1.0000  -1.5031   0.0000   0.0000   0.0000   0.2548
  19.700   0.5750   0.21325   0.20833  -0.0147  0.0664  1.0000  -1.4438   0.0000   0.0000   0.0000   0.2585
  19.800   0.5704   0.21308   0.20816  -0.0167  0.0662  1.0000  -1.3859   0.0000   0.0000   0.0000   0.2620
  19.900   0.5670   0.21325   0.20833  -0.0185  0.0657  1.0000  -1.3320   0.0000   0.0000   0.0000   0.2654
  20.000   0.5655   0.21390   0.20898  -0.0201  0.0649  1.0000  -1.2917   0.0000   0.0000   0.0000   0.2682
  20.100   0.5661   0.21495   0.21004  -0.0213  0.0638  1.0000  -1.2709   0.0000   0.0000   0.0000   0.2701
  20.200   0.5676   0.21613   0.21122  -0.0222  0.0627  1.0000  -1.2610   0.0000   0.0000   0.0000   0.2717
  20.300   0.5697   0.21734   0.21245  -0.0231  0.0617  1.0000  -1.2567   0.0000   0.0000   0.0000   0.2730
  20.400   0.5721   0.21858   0.21370  -0.0239  0.0607  1.0000  -1.2569   0.0000   0.0000   0.0000   0.2741
  20.500   0.5750   0.21984   0.21497  -0.0246  0.0598  1.0000  -1.2622   0.0000   0.0000   0.0000   0.2751
  20.600   0.5784   0.22117   0.21632  -0.0252  0.0589  1.0000  -1.2753   0.0000   0.0000   0.0000   0.2757
  20.700   0.5834   0.22281   0.21798  -0.0255  0.0581  1.0000  -1.3103   0.0000   0.0000   0.0000   0.2757
  20.800   0.5999   0.22830   0.22350  -0.0239  0.0571  1.0000  -1.4426   0.0000   0.0000   0.0000   0.2716
  20.900   0.5962   0.22815   0.22335  -0.0258  0.0570  1.0000  -1.3904   0.0000   0.0000   0.0000   0.2749
  21.000   0.5931   0.22820   0.22341  -0.0276  0.0568  1.0000  -1.3397   0.0000   0.0000   0.0000   0.2782
  21.100   0.5909   0.22858   0.22378  -0.0293  0.0564  1.0000  -1.2928   0.0000   0.0000   0.0000   0.2812
  21.200   0.5902   0.22938   0.22458  -0.0308  0.0557  1.0000  -1.2582   0.0000   0.0000   0.0000   0.2837
  21.300   0.5912   0.23053   0.22574  -0.0319  0.0546  1.0000  -1.2420   0.0000   0.0000   0.0000   0.2854
  21.400   0.5930   0.23179   0.22702  -0.0329  0.0536  1.0000  -1.2367   0.0000   0.0000   0.0000   0.2868
  21.500   0.5952   0.23309   0.22833  -0.0338  0.0526  1.0000  -1.2373   0.0000   0.0000   0.0000   0.2880
  21.600   0.5977   0.23439   0.22965  -0.0346  0.0516  1.0000  -1.2425   0.0000   0.0000   0.0000   0.2890
  21.700   0.6005   0.23572   0.23099  -0.0354  0.0508  1.0000  -1.2525   0.0000   0.0000   0.0000   0.2899
  21.800   0.6037   0.23712   0.23240  -0.0361  0.0501  1.0000  -1.2685   0.0000   0.0000   0.0000   0.2905
  21.900   0.6076   0.23870   0.23400  -0.0366  0.0495  1.0000  -1.2934   0.0000   0.0000   0.0000   0.2909
  22.000   0.6138   0.24105   0.23636  -0.0367  0.0489  1.0000  -1.3422   0.0000   0.0000   0.0000   0.2903
  22.100   0.6232   0.24516   0.24048  -0.0363  0.0485  1.0000  -1.4089   0.0000   0.0000   0.0000   0.2886
  22.200   0.6213   0.24544   0.24077  -0.0379  0.0484  1.0000  -1.3655   0.0000   0.0000   0.0000   0.2913
  22.300   0.6199   0.24588   0.24122  -0.0395  0.0482  1.0000  -1.3237   0.0000   0.0000   0.0000   0.2939
  22.400   0.6191   0.24655   0.24188  -0.0410  0.0480  1.0000  -1.2850   0.0000   0.0000   0.0000   0.2963
  22.500   0.6191   0.24747   0.24281  -0.0424  0.0476  1.0000  -1.2524   0.0000   0.0000   0.0000   0.2984
  22.600   0.6200   0.24865   0.24400  -0.0436  0.0470  1.0000  -1.2299   0.0000   0.0000   0.0000   0.3001
  22.700   0.6216   0.24999   0.24535  -0.0446  0.0463  1.0000  -1.2169   0.0000   0.0000   0.0000   0.3015
  22.800   0.6236   0.25138   0.24675  -0.0456  0.0456  1.0000  -1.2095   0.0000   0.0000   0.0000   0.3027
  22.900   0.6257   0.25278   0.24817  -0.0465  0.0449  1.0000  -1.2055   0.0000   0.0000   0.0000   0.3038
  23.000   0.6279   0.25419   0.24958  -0.0474  0.0442  1.0000  -1.2039   0.0000   0.0000   0.0000   0.3049
  23.100   0.6303   0.25562   0.25103  -0.0483  0.0436  1.0000  -1.2046   0.0000   0.0000   0.0000   0.3058
  23.200   0.6327   0.25705   0.25247  -0.0491  0.0430  1.0000  -1.2079   0.0000   0.0000   0.0000   0.3067
  23.300   0.6353   0.25849   0.25393  -0.0499  0.0424  1.0000  -1.2144   0.0000   0.0000   0.0000   0.3075
  23.400   0.6382   0.25999   0.25545  -0.0506  0.0419  1.0000  -1.2254   0.0000   0.0000   0.0000   0.3081
  23.500   0.6415   0.26163   0.25711  -0.0512  0.0414  1.0000  -1.2437   0.0000   0.0000   0.0000   0.3085
  23.600   0.6461   0.26377   0.25927  -0.0516  0.0410  1.0000  -1.2780   0.0000   0.0000   0.0000   0.3084
  23.700   0.6555   0.26827   0.26377  -0.0512  0.0405  1.0000  -1.3544   0.0000   0.0000   0.0000   0.3064
  23.800   0.6544   0.26872   0.26423  -0.0527  0.0405  1.0000  -1.3131   0.0000   0.0000   0.0000   0.3087
  23.900   0.6536   0.26931   0.26482  -0.0541  0.0404  1.0000  -1.2730   0.0000   0.0000   0.0000   0.3109
  24.000   0.6533   0.27008   0.26560  -0.0555  0.0402  1.0000  -1.2350   0.0000   0.0000   0.0000   0.3130
  24.100   0.6536   0.27108   0.26661  -0.0569  0.0399  1.0000  -1.2013   0.0000   0.0000   0.0000   0.3148
  24.200   0.6546   0.27232   0.26785  -0.0580  0.0394  1.0000  -1.1753   0.0000   0.0000   0.0000   0.3164
  24.300   0.6561   0.27372   0.26927  -0.0591  0.0388  1.0000  -1.1601   0.0000   0.0000   0.0000   0.3176
  24.400   0.6580   0.27519   0.27075  -0.0600  0.0382  1.0000  -1.1554   0.0000   0.0000   0.0000   0.3187
  24.500   0.6600   0.27669   0.27226  -0.0610  0.0376  1.0000  -1.1543   0.0000   0.0000   0.0000   0.3196
  24.600   0.6621   0.27820   0.27378  -0.0619  0.0369  1.0000  -1.1556   0.0000   0.0000   0.0000   0.3206
  24.700   0.6642   0.27969   0.27528  -0.0627  0.0364  1.0000  -1.1588   0.0000   0.0000   0.0000   0.3214
  24.800   0.6665   0.28121   0.27682  -0.0636  0.0358  1.0000  -1.1639   0.0000   0.0000   0.0000   0.3222
  24.900   0.6688   0.28273   0.27835  -0.0644  0.0353  1.0000  -1.1710   0.0000   0.0000   0.0000   0.3230
  25.000   0.6711   0.28426   0.27990  -0.0652  0.0349  1.0000  -1.1802   0.0000   0.0000   0.0000   0.3237
  25.100   0.6737   0.28584   0.28149  -0.0660  0.0345  1.0000  -1.1928   0.0000   0.0000   0.0000   0.3243
  25.200   0.6765   0.28753   0.28320  -0.0667  0.0341  1.0000  -1.2108   0.0000   0.0000   0.0000   0.3247
  25.300   0.6799   0.28952   0.28520  -0.0673  0.0338  1.0000  -1.2387   0.0000   0.0000   0.0000   0.3248
  25.400   0.6856   0.29270   0.28841  -0.0674  0.0335  1.0000  -1.2928   0.0000   0.0000   0.0000   0.3240
  25.500   0.6888   0.29512   0.29083  -0.0681  0.0333  1.0000  -1.3038   0.0000   0.0000   0.0000   0.3244
  25.600   0.6887   0.29597   0.29169  -0.0694  0.0333  1.0000  -1.2743   0.0000   0.0000   0.0000   0.3261
  25.700   0.6890   0.29695   0.29267  -0.0706  0.0332  1.0000  -1.2464   0.0000   0.0000   0.0000   0.3277
  25.800   0.6895   0.29805   0.29378  -0.0718  0.0331  1.0000  -1.2206   0.0000   0.0000   0.0000   0.3293
  25.900   0.6903   0.29928   0.29502  -0.0730  0.0329  1.0000  -1.1975   0.0000   0.0000   0.0000   0.3306
  26.000   0.6915   0.30065   0.29640  -0.0741  0.0327  1.0000  -1.1780   0.0000   0.0000   0.0000   0.3319
  26.100   0.6929   0.30212   0.29788  -0.0751  0.0324  1.0000  -1.1631   0.0000   0.0000   0.0000   0.3329
  26.200   0.6946   0.30367   0.29943  -0.0760  0.0320  1.0000  -1.1524   0.0000   0.0000   0.0000   0.3339
  26.300   0.6964   0.30525   0.30103  -0.0770  0.0316  1.0000  -1.1450   0.0000   0.0000   0.0000   0.3348
  26.400   0.6982   0.30684   0.30263  -0.0779  0.0312  1.0000  -1.1398   0.0000   0.0000   0.0000   0.3356
  26.500   0.7001   0.30846   0.30426  -0.0788  0.0309  1.0000  -1.1360   0.0000   0.0000   0.0000   0.3364
  26.600   0.7020   0.31007   0.30589  -0.0797  0.0305  1.0000  -1.1334   0.0000   0.0000   0.0000   0.3372
  26.700   0.7039   0.31169   0.30752  -0.0805  0.0301  1.0000  -1.1317   0.0000   0.0000   0.0000   0.3379
  26.800   0.7058   0.31331   0.30915  -0.0814  0.0297  1.0000  -1.1310   0.0000   0.0000   0.0000   0.3387
  26.900   0.7077   0.31492   0.31078  -0.0822  0.0293  1.0000  -1.1312   0.0000   0.0000   0.0000   0.3394
  27.000   0.7096   0.31654   0.31240  -0.0831  0.0290  1.0000  -1.1326   0.0000   0.0000   0.0000   0.3400
  27.100   0.7116   0.31817   0.31405  -0.0839  0.0286  1.0000  -1.1357   0.0000   0.0000   0.0000   0.3407
  27.200   0.7136   0.31980   0.31569  -0.0847  0.0283  1.0000  -1.1410   0.0000   0.0000   0.0000   0.3413
  27.300   0.7157   0.32146   0.31736  -0.0855  0.0280  1.0000  -1.1492   0.0000   0.0000   0.0000   0.3418
  27.400   0.7179   0.32319   0.31911  -0.0863  0.0276  1.0000  -1.1620   0.0000   0.0000   0.0000   0.3423
  27.500   0.7206   0.32514   0.32109  -0.0869  0.0274  1.0000  -1.1827   0.0000   0.0000   0.0000   0.3425
  27.600   0.7243   0.32780   0.32377  -0.0873  0.0271  1.0000  -1.2205   0.0000   0.0000   0.0000   0.3422
  28.100   0.7301   0.33553   0.33153  -0.0923  0.0266  1.0000  -1.1352   0.0000   0.0000   0.0000   0.3471
  28.200   0.7313   0.33703   0.33303  -0.0933  0.0264  1.0000  -1.1153   0.0000   0.0000   0.0000   0.3480
  28.300   0.7327   0.33861   0.33462  -0.0942  0.0262  1.0000  -1.0995   0.0000   0.0000   0.0000   0.3489
  28.400   0.7342   0.34025   0.33628  -0.0951  0.0260  1.0000  -1.0885   0.0000   0.0000   0.0000   0.3497
  28.500   0.7357   0.34192   0.33796  -0.0960  0.0257  1.0000  -1.0846   0.0000   0.0000   0.0000   0.3504
  28.600   0.7373   0.34359   0.33964  -0.0969  0.0254  1.0000  -1.0823   0.0000   0.0000   0.0000   0.3511
  28.700   0.7389   0.34529   0.34135  -0.0977  0.0251  1.0000  -1.0810   0.0000   0.0000   0.0000   0.3518
  28.800   0.7405   0.34699   0.34307  -0.0986  0.0248  1.0000  -1.0805   0.0000   0.0000   0.0000   0.3524
  28.900   0.7421   0.34870   0.34478  -0.0994  0.0245  1.0000  -1.0806   0.0000   0.0000   0.0000   0.3530
  29.000   0.7437   0.35040   0.34650  -0.1003  0.0243  1.0000  -1.0812   0.0000   0.0000   0.0000   0.3537
  29.100   0.7453   0.35210   0.34821  -0.1011  0.0240  1.0000  -1.0822   0.0000   0.0000   0.0000   0.3543
  29.200   0.7468   0.35380   0.34992  -0.1019  0.0237  1.0000  -1.0838   0.0000   0.0000   0.0000   0.3549
  29.300   0.7484   0.35550   0.35163  -0.1027  0.0235  1.0000  -1.0858   0.0000   0.0000   0.0000   0.3554
  29.400   0.7500   0.35719   0.35334  -0.1036  0.0232  1.0000  -1.0883   0.0000   0.0000   0.0000   0.3560
  29.500   0.7515   0.35889   0.35505  -0.1044  0.0230  1.0000  -1.0915   0.0000   0.0000   0.0000   0.3566
  29.600   0.7531   0.36060   0.35678  -0.1052  0.0227  1.0000  -1.0954   0.0000   0.0000   0.0000   0.3571
  29.700   0.7547   0.36230   0.35850  -0.1060  0.0225  1.0000  -1.1004   0.0000   0.0000   0.0000   0.3576
  29.800   0.7562   0.36402   0.36023  -0.1068  0.0223  1.0000  -1.1066   0.0000   0.0000   0.0000   0.3582
  29.900   0.7578   0.36576   0.36198  -0.1075  0.0221  1.0000  -1.1144   0.0000   0.0000   0.0000   0.3586
  30.000   0.7595   0.36755   0.36378  -0.1083  0.0219  1.0000  -1.1247   0.0000   0.0000   0.0000   0.3591


