xflr5 v6.61

 Calculated polar for: MH 20

 1 1 Reynolds number fixed          Mach number fixed         

 xtrf =   1.000 (top)        1.000 (bottom)
 Mach =   0.000     Re =     0.688 e 6     Ncrit =   9.000

  alpha     CL        CD       CDp       Cm    Top Xtr Bot Xtr   Cpmin    Chinge    XCp    
 ------- -------- --------- --------- -------- ------- ------- -------- --------- ---------
 -10.000  -0.5516   0.11024   0.10854   0.0153  1.0000  0.0080  -2.5472   0.0000   0.0000   0.0000   0.2726
  -9.900  -0.5503   0.10867   0.10698   0.0145  1.0000  0.0081  -2.5489   0.0000   0.0000   0.0000   0.2714
  -9.800  -0.5489   0.10718   0.10549   0.0138  1.0000  0.0082  -2.5431   0.0000   0.0000   0.0000   0.2702
  -9.700  -0.5475   0.10567   0.10399   0.0131  1.0000  0.0083  -2.5386   0.0000   0.0000   0.0000   0.2690
  -9.600  -0.5462   0.10417   0.10249   0.0124  1.0000  0.0083  -2.5356   0.0000   0.0000   0.0000   0.2678
  -9.500  -0.5451   0.10266   0.10099   0.0116  1.0000  0.0084  -2.5342   0.0000   0.0000   0.0000   0.2666
  -9.400  -0.5440   0.10115   0.09949   0.0109  1.0000  0.0085  -2.5343   0.0000   0.0000   0.0000   0.2653
  -9.300  -0.5430   0.09963   0.09797   0.0101  1.0000  0.0086  -2.5358   0.0000   0.0000   0.0000   0.2640
  -9.200  -0.5420   0.09807   0.09642   0.0093  1.0000  0.0086  -2.5383   0.0000   0.0000   0.0000   0.2626
  -9.100  -0.5410   0.09650   0.09485   0.0084  1.0000  0.0087  -2.5422   0.0000   0.0000   0.0000   0.2611
  -9.000  -0.5401   0.09491   0.09327   0.0076  1.0000  0.0088  -2.5478   0.0000   0.0000   0.0000   0.2596
  -8.900  -0.5393   0.09331   0.09168   0.0067  1.0000  0.0089  -2.5546   0.0000   0.0000   0.0000   0.2580
  -8.800  -0.5387   0.09170   0.09008   0.0057  1.0000  0.0089  -2.5632   0.0000   0.0000   0.0000   0.2564
  -8.700  -0.5383   0.09008   0.08847   0.0048  1.0000  0.0090  -2.5739   0.0000   0.0000   0.0000   0.2547
  -8.600  -0.5380   0.08844   0.08684   0.0038  1.0000  0.0091  -2.5868   0.0000   0.0000   0.0000   0.2530
  -8.500  -0.5379   0.08678   0.08520   0.0028  1.0000  0.0091  -2.6019   0.0000   0.0000   0.0000   0.2511
  -8.400  -0.5379   0.08509   0.08352   0.0017  1.0000  0.0092  -2.6192   0.0000   0.0000   0.0000   0.2492
  -8.300  -0.5382   0.08336   0.08180   0.0005  1.0000  0.0092  -2.6392   0.0000   0.0000   0.0000   0.2470
  -8.200  -0.5387   0.08160   0.08005  -0.0008  1.0000  0.0093  -2.6627   0.0000   0.0000   0.0000   0.2448
  -8.100  -0.5398   0.07979   0.07826  -0.0022  1.0000  0.0093  -2.6907   0.0000   0.0000   0.0000   0.2422
  -8.000  -0.5413   0.07790   0.07639  -0.0038  1.0000  0.0093  -2.7249   0.0000   0.0000   0.0000   0.2393
  -7.900  -0.5403   0.07546   0.07392  -0.0073  0.9423  0.0093  -2.7684   0.0000   0.0000   0.0000   0.2329
  -7.800  -0.5453   0.07383   0.07221  -0.0082  0.9119  0.0093  -2.8166   0.0000   0.0000   0.0000   0.2315
  -7.700  -0.5484   0.07200   0.07033  -0.0093  0.8950  0.0093  -2.8609   0.0000   0.0000   0.0000   0.2296
  -7.600  -0.5498   0.07000   0.06828  -0.0107  0.8827  0.0093  -2.9028   0.0000   0.0000   0.0000   0.2272
  -7.500  -0.5501   0.06789   0.06612  -0.0122  0.8734  0.0094  -2.9431   0.0000   0.0000   0.0000   0.2245
  -7.400  -0.5501   0.06580   0.06398  -0.0135  0.8641  0.0094  -2.9811   0.0000   0.0000   0.0000   0.2222
  -7.300  -0.5496   0.06374   0.06185  -0.0147  0.8550  0.0094  -3.0166   0.0000   0.0000   0.0000   0.2202
  -7.200  -0.5484   0.06164   0.05968  -0.0158  0.8475  0.0095  -3.0492   0.0000   0.0000   0.0000   0.2181
  -7.100  -0.5463   0.05949   0.05749  -0.0169  0.8426  0.0096  -3.0791   0.0000   0.0000   0.0000   0.2159
  -7.000  -0.5439   0.05739   0.05534  -0.0178  0.8371  0.0097  -3.1058   0.0000   0.0000   0.0000   0.2141
  -6.900  -0.5411   0.05534   0.05321  -0.0186  0.8315  0.0098  -3.1298   0.0000   0.0000   0.0000   0.2126
  -6.800  -0.5380   0.05333   0.05113  -0.0192  0.8259  0.0099  -3.1510   0.0000   0.0000   0.0000   0.2113
  -6.700  -0.5345   0.05137   0.04908  -0.0196  0.8202  0.0100  -3.1695   0.0000   0.0000   0.0000   0.2102
  -6.600  -0.5307   0.04945   0.04707  -0.0200  0.8140  0.0102  -3.1855   0.0000   0.0000   0.0000   0.2092
  -6.500  -0.5263   0.04756   0.04508  -0.0203  0.8079  0.0104  -3.1991   0.0000   0.0000   0.0000   0.2084
  -6.400  -0.5214   0.04567   0.04311  -0.0206  0.8059  0.0106  -3.2096   0.0000   0.0000   0.0000   0.2075
  -6.300  -0.5161   0.04382   0.04118  -0.0207  0.8034  0.0108  -3.2185   0.0000   0.0000   0.0000   0.2068
  -6.200  -0.5106   0.04206   0.03932  -0.0208  0.8005  0.0111  -3.2239   0.0000   0.0000   0.0000   0.2062
  -6.100  -0.5047   0.04034   0.03751  -0.0207  0.7974  0.0114  -3.2275   0.0000   0.0000   0.0000   0.2058
  -6.000  -0.4985   0.03869   0.03575  -0.0206  0.7941  0.0117  -3.2282   0.0000   0.0000   0.0000   0.2055
  -5.900  -0.4921   0.03712   0.03408  -0.0205  0.7908  0.0121  -3.2256   0.0000   0.0000   0.0000   0.2053
  -5.800  -0.4853   0.03563   0.03247  -0.0202  0.7873  0.0125  -3.2203   0.0000   0.0000   0.0000   0.2052
  -5.700  -0.4781   0.03423   0.03095  -0.0199  0.7838  0.0130  -3.2105   0.0000   0.0000   0.0000   0.2052
  -5.600  -0.4705   0.03297   0.02957  -0.0196  0.7802  0.0136  -3.1941   0.0000   0.0000   0.0000   0.2053
  -5.500  -0.4624   0.03187   0.02835  -0.0192  0.7763  0.0143  -3.1689   0.0000   0.0000   0.0000   0.2053
  -5.400  -0.4428   0.03460   0.03116  -0.0191  0.7714  0.0171  -2.8844   0.0000   0.0000   0.0000   0.2038
  -5.300  -0.4325   0.03444   0.03090  -0.0188  0.7666  0.0174  -2.8135   0.0000   0.0000   0.0000   0.2034
  -5.000  -0.4305   0.01913   0.01416  -0.0141  0.7619  0.0081  -4.1496   0.0000   0.0000   0.0000   0.2138
  -4.900  -0.4193   0.01890   0.01386  -0.0139  0.7604  0.0075  -4.0779   0.0000   0.0000   0.0000   0.2136
  -4.800  -0.4083   0.01873   0.01365  -0.0137  0.7587  0.0072  -3.9708   0.0000   0.0000   0.0000   0.2132
  -4.700  -0.3975   0.01851   0.01340  -0.0135  0.7569  0.0070  -3.8664   0.0000   0.0000   0.0000   0.2127
  -4.600  -0.3868   0.01822   0.01307  -0.0133  0.7550  0.0069  -3.7711   0.0000   0.0000   0.0000   0.2123
  -4.500  -0.3763   0.01784   0.01263  -0.0131  0.7529  0.0068  -3.6888   0.0000   0.0000   0.0000   0.2120
  -4.400  -0.3660   0.01736   0.01202  -0.0128  0.7507  0.0067  -3.6221   0.0000   0.0000   0.0000   0.2118
  -4.300  -0.3578   0.01554   0.00997  -0.0120  0.7486  0.0064  -3.7528   0.0000   0.0000   0.0000   0.2131
  -4.200  -0.3477   0.01492   0.00926  -0.0117  0.7463  0.0065  -3.7030   0.0000   0.0000   0.0000   0.2131
  -4.100  -0.3371   0.01459   0.00886  -0.0115  0.7439  0.0065  -3.6091   0.0000   0.0000   0.0000   0.2128
  -4.000  -0.3268   0.01416   0.00836  -0.0112  0.7413  0.0066  -3.5276   0.0000   0.0000   0.0000   0.2125
  -3.900  -0.3174   0.01325   0.00733  -0.0107  0.7386  0.0067  -3.5189   0.0000   0.0000   0.0000   0.2131
  -3.800  -0.3091   0.01208   0.00599  -0.0099  0.7359  0.0071  -3.5517   0.0000   0.0000   0.0000   0.2146
  -3.700  -0.3003   0.01133   0.00511  -0.0094  0.7328  0.0076  -3.5295   0.0000   0.0000   0.0000   0.2156
  -3.600  -0.2907   0.01088   0.00456  -0.0089  0.7294  0.0080  -3.4656   0.0000   0.0000   0.0000   0.2161
  -3.500  -0.2806   0.01055   0.00414  -0.0086  0.7256  0.0083  -3.3871   0.0000   0.0000   0.0000   0.2162
  -3.400  -0.2703   0.01027   0.00377  -0.0083  0.7218  0.0086  -3.3064   0.0000   0.0000   0.0000   0.2162
  -3.300  -0.2598   0.01003   0.00344  -0.0080  0.7180  0.0092  -3.2264   0.0000   0.0000   0.0000   0.2160
  -3.200  -0.2490   0.00979   0.00314  -0.0078  0.7170  0.0103  -3.1490   0.0000   0.0000   0.0000   0.2157
  -3.100  -0.2383   0.00957   0.00288  -0.0075  0.7161  0.0125  -3.0687   0.0000   0.0000   0.0000   0.2153
  -3.000  -0.2275   0.00937   0.00267  -0.0073  0.7151  0.0175  -2.9819   0.0000   0.0000   0.0000   0.2147
  -2.900  -0.2179   0.00896   0.00248  -0.0070  0.7140  0.0547  -2.8814   0.0000   0.0000   0.0000   0.2145
  -2.800  -0.2076   0.00875   0.00238  -0.0069  0.7128  0.0779  -2.7326   0.0000   0.0000   0.0000   0.2134
  -2.700  -0.1971   0.00860   0.00230  -0.0068  0.7114  0.0966  -2.5995   0.0000   0.0000   0.0000   0.2120
  -2.600  -0.1864   0.00846   0.00222  -0.0068  0.7099  0.1140  -2.4681   0.0000   0.0000   0.0000   0.2104
  -2.500  -0.1761   0.00827   0.00215  -0.0067  0.7082  0.1412  -2.3392   0.0000   0.0000   0.0000   0.2088
  -2.400  -0.1657   0.00811   0.00209  -0.0066  0.7064  0.1666  -2.2099   0.0000   0.0000   0.0000   0.2069
  -2.300  -0.1550   0.00799   0.00202  -0.0065  0.7046  0.1855  -2.0805   0.0000   0.0000   0.0000   0.2046
  -2.200  -0.1446   0.00784   0.00196  -0.0064  0.7027  0.2129  -1.9545   0.0000   0.0000   0.0000   0.2023
  -2.100  -0.1338   0.00775   0.00190  -0.0064  0.7007  0.2285  -1.8276   0.0000   0.0000   0.0000   0.1991
  -2.000  -0.1234   0.00761   0.00184  -0.0063  0.6987  0.2564  -1.7053   0.0000   0.0000   0.0000   0.1958
  -1.900  -0.1129   0.00749   0.00179  -0.0062  0.6966  0.2832  -1.5845   0.0000   0.0000   0.0000   0.1918
  -1.800  -0.1028   0.00732   0.00174  -0.0060  0.6943  0.3197  -1.4686   0.0000   0.0000   0.0000   0.1879
  -1.700  -0.0930   0.00713   0.00168  -0.0058  0.6919  0.3648  -1.3580   0.0000   0.0000   0.0000   0.1836
  -1.600  -0.0833   0.00693   0.00161  -0.0056  0.6893  0.4134  -1.2507   0.0000   0.0000   0.0000   0.1789
  -1.500  -0.0740   0.00671   0.00156  -0.0053  0.6867  0.4713  -1.1452   0.0000   0.0000   0.0000   0.1743
  -1.400  -0.0651   0.00648   0.00153  -0.0049  0.6839  0.5358  -1.0439   0.0000   0.0000   0.0000   0.1703
  -1.300  -0.0567   0.00623   0.00150  -0.0044  0.6810  0.6017  -0.9473   0.0000   0.0000   0.0000   0.1683
  -1.200  -0.0481   0.00603   0.00148  -0.0038  0.6781  0.6579  -0.8516   0.0000   0.0000   0.0000   0.1653
  -1.100  -0.0396   0.00586   0.00147  -0.0032  0.6752  0.7117  -0.7584   0.0000   0.0000   0.0000   0.1628
  -1.000  -0.0312   0.00569   0.00147  -0.0026  0.6720  0.7661  -0.6676   0.0000   0.0000   0.0000   0.1611
  -0.900  -0.0222   0.00553   0.00149  -0.0020  0.6695  0.8202  -0.5764   0.0000   0.0000   0.0000   0.1533
  -0.800  -0.0102   0.00537   0.00150  -0.0019  0.6689  0.8747  -0.5351   0.0000   0.0000   0.0000   0.0440
  -0.700   0.0230   0.00534   0.00156  -0.0065  0.6680  0.9317  -0.4728   0.0000   0.0000   0.0000   0.5377
  -0.600   0.0479   0.00538   0.00158  -0.0094  0.6670  0.9502  -0.4233   0.0000   0.0000   0.0000   0.4474
  -0.500   0.0647   0.00542   0.00160  -0.0105  0.6659  0.9582  -0.4050   0.0000   0.0000   0.0000   0.4133
  -0.400   0.0784   0.00545   0.00161  -0.0110  0.6647  0.9656  -0.4144   0.0000   0.0000   0.0000   0.3905
  -0.200   0.1089   0.00552   0.00165  -0.0126  0.6623  0.9776  -0.4356   0.0000   0.0000   0.0000   0.3657
  -0.100   0.1255   0.00555   0.00166  -0.0138  0.6608  0.9818  -0.4476   0.0000   0.0000   0.0000   0.3593
   0.000   0.1398   0.00558   0.00166  -0.0144  0.6591  0.9851  -0.4585   0.0000   0.0000   0.0000   0.3525
   0.100   0.1544   0.00560   0.00166  -0.0151  0.6572  0.9878  -0.4697   0.0000   0.0000   0.0000   0.3473
   0.200   0.1738   0.00560   0.00164  -0.0169  0.6549  0.9900  -0.4833   0.0000   0.0000   0.0000   0.3465
   0.300   0.1921   0.00560   0.00162  -0.0185  0.6524  0.9926  -0.4966   0.0000   0.0000   0.0000   0.3453
   0.400   0.2089   0.00561   0.00160  -0.0197  0.6499  0.9949  -0.5089   0.0000   0.0000   0.0000   0.3433
   0.500   0.2243   0.00562   0.00159  -0.0206  0.6475  0.9966  -0.5206   0.0000   0.0000   0.0000   0.3409
   0.600   0.2413   0.00561   0.00156  -0.0220  0.6452  0.9981  -0.5332   0.0000   0.0000   0.0000   0.3398
   0.700   0.2593   0.00560   0.00153  -0.0235  0.6428  1.0000  -0.5476   0.0000   0.0000   0.0000   0.3393
   0.800   0.2698   0.00561   0.00151  -0.0234  0.6403  1.0000  -0.5580   0.0000   0.0000   0.0000   0.3352
   0.900   0.2802   0.00562   0.00150  -0.0232  0.6374  1.0000  -0.5684   0.0000   0.0000   0.0000   0.3315
   1.000   0.2907   0.00564   0.00148  -0.0231  0.6339  1.0000  -0.5788   0.0000   0.0000   0.0000   0.3280
   1.100   0.3013   0.00566   0.00148  -0.0230  0.6297  1.0000  -0.5893   0.0000   0.0000   0.0000   0.3248
   1.200   0.3118   0.00570   0.00149  -0.0229  0.6251  1.0000  -0.5998   0.0000   0.0000   0.0000   0.3219
   1.300   0.3225   0.00574   0.00151  -0.0228  0.6205  1.0000  -0.6104   0.0000   0.0000   0.0000   0.3191
   1.400   0.3331   0.00572   0.00150  -0.0227  0.6197  1.0000  -0.6210   0.0000   0.0000   0.0000   0.3165
   1.500   0.3437   0.00571   0.00149  -0.0226  0.6187  1.0000  -0.6317   0.0000   0.0000   0.0000   0.3140
   1.600   0.3543   0.00570   0.00148  -0.0225  0.6176  1.0000  -0.6439   0.0000   0.0000   0.0000   0.3117
   1.700   0.3650   0.00569   0.00148  -0.0224  0.6163  1.0000  -0.6563   0.0000   0.0000   0.0000   0.3095
   1.800   0.3757   0.00569   0.00148  -0.0223  0.6147  1.0000  -0.6687   0.0000   0.0000   0.0000   0.3075
   1.900   0.3864   0.00568   0.00149  -0.0222  0.6127  1.0000  -0.6812   0.0000   0.0000   0.0000   0.3055
   2.000   0.3971   0.00568   0.00149  -0.0221  0.6103  1.0000  -0.6937   0.0000   0.0000   0.0000   0.3037
   2.100   0.4077   0.00567   0.00148  -0.0220  0.6073  1.0000  -0.7062   0.0000   0.0000   0.0000   0.3019
   2.200   0.4184   0.00567   0.00148  -0.0219  0.6036  1.0000  -0.7208   0.0000   0.0000   0.0000   0.3002
   2.300   0.4290   0.00568   0.00148  -0.0218  0.5996  1.0000  -0.7355   0.0000   0.0000   0.0000   0.2986
   2.400   0.4396   0.00569   0.00147  -0.0217  0.5955  1.0000  -0.7502   0.0000   0.0000   0.0000   0.2970
   2.500   0.4502   0.00571   0.00148  -0.0216  0.5913  1.0000  -0.7649   0.0000   0.0000   0.0000   0.2956
   2.600   0.4608   0.00573   0.00148  -0.0215  0.5866  1.0000  -0.7805   0.0000   0.0000   0.0000   0.2942
   2.700   0.4714   0.00577   0.00149  -0.0214  0.5806  1.0000  -0.7980   0.0000   0.0000   0.0000   0.2928
   2.800   0.4820   0.00581   0.00151  -0.0213  0.5734  1.0000  -0.8154   0.0000   0.0000   0.0000   0.2916
   2.900   0.4927   0.00582   0.00153  -0.0212  0.5700  1.0000  -0.8331   0.0000   0.0000   0.0000   0.2904
   3.000   0.5035   0.00582   0.00154  -0.0211  0.5675  1.0000  -0.8509   0.0000   0.0000   0.0000   0.2892
   3.100   0.5142   0.00582   0.00156  -0.0210  0.5642  1.0000  -0.8688   0.0000   0.0000   0.0000   0.2881
   3.200   0.5249   0.00583   0.00158  -0.0209  0.5597  1.0000  -0.8892   0.0000   0.0000   0.0000   0.2870
   3.300   0.5356   0.00585   0.00159  -0.0208  0.5533  1.0000  -0.9108   0.0000   0.0000   0.0000   0.2860
   3.400   0.5461   0.00588   0.00160  -0.0207  0.5449  1.0000  -0.9325   0.0000   0.0000   0.0000   0.2849
   3.500   0.5566   0.00594   0.00162  -0.0206  0.5345  1.0000  -0.9541   0.0000   0.0000   0.0000   0.2839
   3.600   0.5671   0.00601   0.00164  -0.0205  0.5228  1.0000  -0.9776   0.0000   0.0000   0.0000   0.2830
   3.700   0.5778   0.00603   0.00167  -0.0204  0.5180  1.0000  -1.0048   0.0000   0.0000   0.0000   0.2821
   3.800   0.5885   0.00606   0.00170  -0.0203  0.5112  1.0000  -1.0321   0.0000   0.0000   0.0000   0.2813
   3.900   0.5990   0.00612   0.00173  -0.0202  0.5006  1.0000  -1.0658   0.0000   0.0000   0.0000   0.2804
   4.000   0.6093   0.00621   0.00176  -0.0201  0.4864  1.0000  -1.1060   0.0000   0.0000   0.0000   0.2796
   4.100   0.6198   0.00631   0.00181  -0.0201  0.4716  1.0000  -1.1551   0.0000   0.0000   0.0000   0.2788
   4.200   0.6303   0.00636   0.00185  -0.0200  0.4638  1.0000  -1.2057   0.0000   0.0000   0.0000   0.2780
   4.300   0.6408   0.00643   0.00191  -0.0199  0.4546  1.0000  -1.3224   0.0000   0.0000   0.0000   0.2773
   4.400   0.6512   0.00653   0.00198  -0.0198  0.4424  1.0000  -1.4425   0.0000   0.0000   0.0000   0.2766
   4.500   0.6614   0.00667   0.00205  -0.0197  0.4255  1.0000  -1.5650   0.0000   0.0000   0.0000   0.2759
   4.600   0.6719   0.00674   0.00211  -0.0196  0.4175  1.0000  -1.6928   0.0000   0.0000   0.0000   0.2752
   4.700   0.6823   0.00683   0.00218  -0.0195  0.4055  1.0000  -1.8226   0.0000   0.0000   0.0000   0.2745
   4.800   0.6924   0.00699   0.00227  -0.0194  0.3903  1.0000  -1.9535   0.0000   0.0000   0.0000   0.2739
   4.900   0.7026   0.00712   0.00236  -0.0193  0.3751  1.0000  -2.0876   0.0000   0.0000   0.0000   0.2733
   5.000   0.7130   0.00719   0.00243  -0.0192  0.3677  1.0000  -2.2264   0.0000   0.0000   0.0000   0.2726
   5.100   0.7232   0.00731   0.00251  -0.0191  0.3552  1.0000  -2.3662   0.0000   0.0000   0.0000   0.2720
   5.200   0.7328   0.00755   0.00264  -0.0190  0.3312  1.0000  -2.5044   0.0000   0.0000   0.0000   0.2714
   5.300   0.7429   0.00768   0.00273  -0.0189  0.3161  1.0000  -2.6489   0.0000   0.0000   0.0000   0.2708
   5.400   0.7524   0.00793   0.00286  -0.0187  0.2926  1.0000  -2.7909   0.0000   0.0000   0.0000   0.2703
   5.500   0.7624   0.00807   0.00300  -0.0186  0.2782  1.0000  -2.9432   0.0000   0.0000   0.0000   0.2697
   5.600   0.7722   0.00823   0.00310  -0.0185  0.2641  1.0000  -3.0939   0.0000   0.0000   0.0000   0.2691
   5.700   0.7817   0.00847   0.00325  -0.0183  0.2441  1.0000  -3.2427   0.0000   0.0000   0.0000   0.2685
   5.800   0.7917   0.00860   0.00336  -0.0182  0.2328  1.0000  -3.3977   0.0000   0.0000   0.0000   0.2680
   5.900   0.8009   0.00885   0.00351  -0.0180  0.2135  1.0000  -3.5490   0.0000   0.0000   0.0000   0.2674
   6.000   0.8104   0.00906   0.00366  -0.0179  0.1955  1.0000  -3.7035   0.0000   0.0000   0.0000   0.2668
   6.100   0.8191   0.00939   0.00385  -0.0177  0.1706  1.0000  -3.8531   0.0000   0.0000   0.0000   0.2662
   6.200   0.8279   0.00971   0.00405  -0.0175  0.1462  1.0000  -4.0041   0.0000   0.0000   0.0000   0.2657
   6.300   0.8361   0.01010   0.00429  -0.0172  0.1178  1.0000  -4.1515   0.0000   0.0000   0.0000   0.2650
   6.400   0.8441   0.01051   0.00455  -0.0169  0.0912  1.0000  -4.2975   0.0000   0.0000   0.0000   0.2644
   6.500   0.8519   0.01095   0.00482  -0.0166  0.0660  1.0000  -4.4411   0.0000   0.0000   0.0000   0.2638
   6.600   0.8595   0.01140   0.00512  -0.0162  0.0443  1.0000  -4.5816   0.0000   0.0000   0.0000   0.2631
   6.700   0.8674   0.01180   0.00543  -0.0159  0.0283  1.0000  -4.7195   0.0000   0.0000   0.0000   0.2624
   6.800   0.8753   0.01221   0.00576  -0.0154  0.0170  1.0000  -4.8337   0.0000   0.0000   0.0000   0.2616
   6.900   0.8843   0.01242   0.00598  -0.0151  0.0142  1.0000  -4.9846   0.0000   0.0000   0.0000   0.2610
   7.000   0.8898   0.01329   0.00696  -0.0141  0.0075  1.0000  -4.9469   0.0000   0.0000   0.0000   0.2596
   7.100   0.8973   0.01373   0.00748  -0.0135  0.0068  1.0000  -5.0425   0.0000   0.0000   0.0000   0.2587
   7.200   0.9063   0.01393   0.00770  -0.0132  0.0064  1.0000  -5.2035   0.0000   0.0000   0.0000   0.2581
   7.300   0.9146   0.01422   0.00803  -0.0128  0.0061  1.0000  -5.3417   0.0000   0.0000   0.0000   0.2574
   7.400   0.9224   0.01457   0.00843  -0.0123  0.0057  1.0000  -5.4646   0.0000   0.0000   0.0000   0.2566
   7.500   0.9299   0.01496   0.00888  -0.0117  0.0055  1.0000  -5.5793   0.0000   0.0000   0.0000   0.2558
   7.600   0.9370   0.01539   0.00937  -0.0111  0.0052  1.0000  -5.6886   0.0000   0.0000   0.0000   0.2549
   7.700   0.9437   0.01585   0.00989  -0.0104  0.0051  1.0000  -5.7938   0.0000   0.0000   0.0000   0.2540
   7.800   0.9503   0.01632   0.01042  -0.0097  0.0049  1.0000  -5.9004   0.0000   0.0000   0.0000   0.2531
   7.900   0.9569   0.01676   0.01092  -0.0090  0.0048  1.0000  -6.0173   0.0000   0.0000   0.0000   0.2522
   8.000   0.9637   0.01718   0.01138  -0.0084  0.0046  1.0000  -6.1465   0.0000   0.0000   0.0000   0.2514
   8.100   0.9707   0.01756   0.01179  -0.0078  0.0044  1.0000  -6.2894   0.0000   0.0000   0.0000   0.2506
   8.200   0.9779   0.01791   0.01217  -0.0073  0.0042  1.0000  -6.4455   0.0000   0.0000   0.0000   0.2499
   8.300   0.9851   0.01823   0.01252  -0.0068  0.0040  1.0000  -6.6115   0.0000   0.0000   0.0000   0.2492
   8.400   0.9923   0.01856   0.01287  -0.0063  0.0038  1.0000  -6.7805   0.0000   0.0000   0.0000   0.2485
   8.500   0.9991   0.01892   0.01326  -0.0057  0.0037  1.0000  -6.9412   0.0000   0.0000   0.0000   0.2478
   8.600   1.0052   0.01938   0.01377  -0.0051  0.0036  1.0000  -7.0741   0.0000   0.0000   0.0000   0.2470
   8.700   1.0107   0.01991   0.01435  -0.0043  0.0035  1.0000  -7.1888   0.0000   0.0000   0.0000   0.2461
   8.800   1.0161   0.02046   0.01494  -0.0035  0.0034  1.0000  -7.3006   0.0000   0.0000   0.0000   0.2452
   8.900   1.0213   0.02102   0.01556  -0.0028  0.0034  1.0000  -7.4091   0.0000   0.0000   0.0000   0.2443
   9.000   1.0264   0.02161   0.01621  -0.0020  0.0033  1.0000  -7.5137   0.0000   0.0000   0.0000   0.2434
   9.100   1.0313   0.02223   0.01688  -0.0012  0.0033  1.0000  -7.6136   0.0000   0.0000   0.0000   0.2425
   9.200   1.0360   0.02288   0.01759  -0.0004  0.0032  1.0000  -7.7079   0.0000   0.0000   0.0000   0.2416
   9.300   1.0405   0.02356   0.01833   0.0005  0.0032  1.0000  -7.7957   0.0000   0.0000   0.0000   0.2407
   9.400   1.0447   0.02429   0.01912   0.0013  0.0031  1.0000  -7.8759   0.0000   0.0000   0.0000   0.2397
   9.500   1.0486   0.02505   0.01995   0.0021  0.0031  1.0000  -7.9476   0.0000   0.0000   0.0000   0.2388
   9.600   1.0523   0.02586   0.02083   0.0030  0.0030  1.0000  -8.0104   0.0000   0.0000   0.0000   0.2379
   9.700   1.0555   0.02673   0.02188   0.0039  0.0030  1.0000  -8.0654   0.0000   0.0000   0.0000   0.2369
   9.800   1.0585   0.02762   0.02286   0.0048  0.0030  1.0000  -8.1117   0.0000   0.0000   0.0000   0.2360
   9.900   1.0610   0.02855   0.02387   0.0057  0.0029  1.0000  -8.1511   0.0000   0.0000   0.0000   0.2350
  10.000   1.0631   0.02950   0.02491   0.0066  0.0029  1.0000  -8.1836   0.0000   0.0000   0.0000   0.2340
  10.100   1.0646   0.03047   0.02597   0.0076  0.0029  1.0000  -8.2091   0.0000   0.0000   0.0000   0.2330
  10.200   1.0647   0.03141   0.02700   0.0088  0.0029  1.0000  -8.2258   0.0000   0.0000   0.0000   0.2317
  10.300   1.0640   0.03235   0.02802   0.0101  0.0029  1.0000  -8.2340   0.0000   0.0000   0.0000   0.2304
  10.400   1.0626   0.03334   0.02910   0.0113  0.0030  1.0000  -8.2322   0.0000   0.0000   0.0000   0.2292
  10.500   1.0608   0.03442   0.03028   0.0124  0.0030  1.0000  -8.2150   0.0000   0.0000   0.0000   0.2279
  10.600   1.0582   0.03566   0.03163   0.0135  0.0030  1.0000  -8.1683   0.0000   0.0000   0.0000   0.2268
  10.700   1.0535   0.03729   0.03341   0.0146  0.0031  1.0000  -8.0404   0.0000   0.0000   0.0000   0.2255
  10.800   1.0332   0.04186   0.03833   0.0167  0.0037  1.0000  -7.3293   0.0000   0.0000   0.0000   0.2232
  10.900   1.0171   0.04500   0.04168   0.0178  0.0040  1.0000  -6.9633   0.0000   0.0000   0.0000   0.2217
  11.000   1.0063   0.04725   0.04406   0.0183  0.0042  1.0000  -6.7888   0.0000   0.0000   0.0000   0.2209
  11.100   0.9968   0.04934   0.04626   0.0185  0.0043  1.0000  -6.6605   0.0000   0.0000   0.0000   0.2203
  11.200   0.9879   0.05136   0.04837   0.0185  0.0045  1.0000  -6.5625   0.0000   0.0000   0.0000   0.2200
  11.300   0.9794   0.05344   0.05053   0.0183  0.0046  1.0000  -6.4702   0.0000   0.0000   0.0000   0.2199
  11.400   0.9713   0.05549   0.05266   0.0180  0.0047  1.0000  -6.3959   0.0000   0.0000   0.0000   0.2200
  11.500   0.9633   0.05754   0.05478   0.0175  0.0047  1.0000  -6.3275   0.0000   0.0000   0.0000   0.2201
  11.600   0.9555   0.05957   0.05689   0.0169  0.0048  1.0000  -6.2697   0.0000   0.0000   0.0000   0.2205
  11.700   0.9478   0.06168   0.05905   0.0161  0.0049  1.0000  -6.2170   0.0000   0.0000   0.0000   0.2210
  11.800   0.9404   0.06389   0.06132   0.0152  0.0049  1.0000  -6.1617   0.0000   0.0000   0.0000   0.2216
  11.900   0.9334   0.06608   0.06348   0.0142  0.0049  1.0000  -6.1221   0.0000   0.0000   0.0000   0.2225
  12.000   0.9263   0.06842   0.06587   0.0130  0.0049  1.0000  -6.0734   0.0000   0.0000   0.0000   0.2235
  12.100   0.9193   0.07080   0.06832   0.0117  0.0050  1.0000  -6.0309   0.0000   0.0000   0.0000   0.2247
  12.200   0.9126   0.07326   0.07082   0.0102  0.0050  1.0000  -5.9901   0.0000   0.0000   0.0000   0.2260
  12.300   0.9060   0.07579   0.07341   0.0087  0.0050  1.0000  -5.9479   0.0000   0.0000   0.0000   0.2275
  12.400   0.8996   0.07839   0.07605   0.0070  0.0049  1.0000  -5.9110   0.0000   0.0000   0.0000   0.2292
  12.500   0.8933   0.08108   0.07878   0.0052  0.0049  1.0000  -5.8694   0.0000   0.0000   0.0000   0.2310
  12.600   0.8873   0.08384   0.08159   0.0033  0.0049  1.0000  -5.8331   0.0000   0.0000   0.0000   0.2329
  12.700   0.8813   0.08662   0.08441   0.0015  0.0049  1.0000  -5.7915   0.0000   0.0000   0.0000   0.2349
  12.800   0.8754   0.08945   0.08728  -0.0005  0.0048  1.0000  -5.7551   0.0000   0.0000   0.0000   0.2370
  12.900   0.8696   0.09241   0.09028  -0.0024  0.0048  1.0000  -5.7094   0.0000   0.0000   0.0000   0.2391
  13.000   0.8640   0.09555   0.09345  -0.0045  0.0048  1.0000  -5.6652   0.0000   0.0000   0.0000   0.2415
  13.100   0.8585   0.09881   0.09674  -0.0066  0.0047  1.0000  -5.6103   0.0000   0.0000   0.0000   0.2439
  13.200   0.8531   0.10223   0.10019  -0.0089  0.0047  1.0000  -5.5525   0.0000   0.0000   0.0000   0.2465
  13.300   0.8476   0.10579   0.10378  -0.0111  0.0046  1.0000  -5.4827   0.0000   0.0000   0.0000   0.2491
  13.400   0.8421   0.10952   0.10754  -0.0133  0.0046  1.0000  -5.3989   0.0000   0.0000   0.0000   0.2518
  13.500   0.8363   0.11351   0.11156  -0.0155  0.0046  1.0000  -5.2966   0.0000   0.0000   0.0000   0.2546
  13.600   0.8300   0.11780   0.11587  -0.0178  0.0046  1.0000  -5.1611   0.0000   0.0000   0.0000   0.2575
  13.700   0.8230   0.12254   0.12063  -0.0200  0.0046  1.0000  -4.9723   0.0000   0.0000   0.0000   0.2605
  13.800   0.8150   0.12787   0.12595  -0.0221  0.0047  1.0000  -4.7009   0.0000   0.0000   0.0000   0.2634
  13.900   0.8089   0.13224   0.13031  -0.0238  0.0048  1.0000  -4.4911   0.0000   0.0000   0.0000   0.2659
  14.000   0.8039   0.13610   0.13416  -0.0255  0.0050  1.0000  -4.3161   0.0000   0.0000   0.0000   0.2681
  14.100   0.7996   0.13967   0.13772  -0.0270  0.0051  1.0000  -4.1596   0.0000   0.0000   0.0000   0.2702
  14.200   0.7959   0.14304   0.14108  -0.0285  0.0052  1.0000  -4.0154   0.0000   0.0000   0.0000   0.2722
  14.300   0.7926   0.14627   0.14430  -0.0299  0.0054  1.0000  -3.8797   0.0000   0.0000   0.0000   0.2741
  14.400   0.7896   0.14940   0.14742  -0.0313  0.0056  1.0000  -3.7483   0.0000   0.0000   0.0000   0.2760
  14.500   0.7866   0.15251   0.15052  -0.0326  0.0058  1.0000  -3.6148   0.0000   0.0000   0.0000   0.2778
  14.600   0.7828   0.15583   0.15383  -0.0340  0.0061  1.0000  -3.4546   0.0000   0.0000   0.0000   0.2798
  14.700   0.7677   0.16192   0.15990  -0.0362  0.0069  1.0000  -2.9785   0.0000   0.0000   0.0000   0.2835
  14.800   0.7681   0.16407   0.16204  -0.0370  0.0069  1.0000  -2.9346   0.0000   0.0000   0.0000   0.2846
  14.900   0.7688   0.16618   0.16414  -0.0379  0.0069  1.0000  -2.8929   0.0000   0.0000   0.0000   0.2856
  15.000   0.7695   0.16817   0.16613  -0.0388  0.0069  1.0000  -2.8534   0.0000   0.0000   0.0000   0.2866
  15.100   0.7705   0.17005   0.16801  -0.0396  0.0069  1.0000  -2.8160   0.0000   0.0000   0.0000   0.2876
  15.200   0.7715   0.17189   0.16985  -0.0405  0.0069  1.0000  -2.7802   0.0000   0.0000   0.0000   0.2885
  15.300   0.7726   0.17372   0.17167  -0.0413  0.0069  1.0000  -2.7460   0.0000   0.0000   0.0000   0.2895
  15.400   0.7738   0.17554   0.17349  -0.0422  0.0069  1.0000  -2.7132   0.0000   0.0000   0.0000   0.2904
  15.500   0.7751   0.17738   0.17532  -0.0430  0.0069  1.0000  -2.6816   0.0000   0.0000   0.0000   0.2912
  15.600   0.7765   0.17921   0.17716  -0.0438  0.0069  1.0000  -2.6513   0.0000   0.0000   0.0000   0.2921
  15.700   0.7779   0.18106   0.17900  -0.0446  0.0069  1.0000  -2.6221   0.0000   0.0000   0.0000   0.2930
  15.800   0.7794   0.18291   0.18085  -0.0454  0.0069  1.0000  -2.5940   0.0000   0.0000   0.0000   0.2938
  15.900   0.7809   0.18476   0.18270  -0.0462  0.0069  1.0000  -2.5669   0.0000   0.0000   0.0000   0.2946
  16.000   0.7825   0.18662   0.18456  -0.0470  0.0069  1.0000  -2.5408   0.0000   0.0000   0.0000   0.2955
  16.100   0.7842   0.18849   0.18642  -0.0478  0.0069  1.0000  -2.5157   0.0000   0.0000   0.0000   0.2963
  16.200   0.7859   0.19035   0.18828  -0.0486  0.0069  1.0000  -2.4914   0.0000   0.0000   0.0000   0.2970
  16.300   0.7876   0.19222   0.19015  -0.0494  0.0069  1.0000  -2.4679   0.0000   0.0000   0.0000   0.2978
  16.400   0.7894   0.19409   0.19202  -0.0502  0.0069  1.0000  -2.4453   0.0000   0.0000   0.0000   0.2986
  16.500   0.7912   0.19597   0.19389  -0.0510  0.0069  1.0000  -2.4235   0.0000   0.0000   0.0000   0.2993
  16.600   0.7931   0.19785   0.19577  -0.0518  0.0069  1.0000  -2.4023   0.0000   0.0000   0.0000   0.3001
  16.700   0.7949   0.19973   0.19765  -0.0526  0.0069  1.0000  -2.3819   0.0000   0.0000   0.0000   0.3008
  16.800   0.7968   0.20161   0.19953  -0.0534  0.0069  1.0000  -2.3622   0.0000   0.0000   0.0000   0.3015
  16.900   0.7988   0.20350   0.20141  -0.0541  0.0069  1.0000  -2.3431   0.0000   0.0000   0.0000   0.3022
  17.000   0.8007   0.20538   0.20330  -0.0549  0.0069  1.0000  -2.3246   0.0000   0.0000   0.0000   0.3029
  17.100   0.8027   0.20727   0.20519  -0.0557  0.0069  1.0000  -2.3067   0.0000   0.0000   0.0000   0.3036
  17.200   0.8047   0.20917   0.20708  -0.0565  0.0069  1.0000  -2.2894   0.0000   0.0000   0.0000   0.3043
  17.300   0.8067   0.21106   0.20898  -0.0572  0.0069  1.0000  -2.2726   0.0000   0.0000   0.0000   0.3050
  17.400   0.8087   0.21296   0.21087  -0.0580  0.0069  1.0000  -2.2564   0.0000   0.0000   0.0000   0.3056
  17.500   0.8108   0.21486   0.21277  -0.0588  0.0069  1.0000  -2.2407   0.0000   0.0000   0.0000   0.3063
  17.600   0.8129   0.21677   0.21468  -0.0596  0.0069  1.0000  -2.2255   0.0000   0.0000   0.0000   0.3069
  17.700   0.8149   0.21867   0.21658  -0.0603  0.0069  1.0000  -2.2108   0.0000   0.0000   0.0000   0.3076
  17.800   0.8170   0.22058   0.21849  -0.0611  0.0069  1.0000  -2.1966   0.0000   0.0000   0.0000   0.3082
  17.900   0.8191   0.22249   0.22040  -0.0619  0.0069  1.0000  -2.1828   0.0000   0.0000   0.0000   0.3088
  18.000   0.8212   0.22440   0.22231  -0.0626  0.0069  1.0000  -2.1694   0.0000   0.0000   0.0000   0.3095
  18.100   0.8233   0.22632   0.22422  -0.0634  0.0068  1.0000  -2.1566   0.0000   0.0000   0.0000   0.3101
  18.200   0.8254   0.22823   0.22614  -0.0641  0.0068  1.0000  -2.1442   0.0000   0.0000   0.0000   0.3107
  18.300   0.8275   0.23015   0.22806  -0.0649  0.0068  1.0000  -2.1322   0.0000   0.0000   0.0000   0.3113
  18.400   0.8297   0.23207   0.22998  -0.0657  0.0068  1.0000  -2.1206   0.0000   0.0000   0.0000   0.3119
  18.500   0.8318   0.23399   0.23190  -0.0664  0.0068  1.0000  -2.1095   0.0000   0.0000   0.0000   0.3125
  18.600   0.8339   0.23591   0.23382  -0.0672  0.0068  1.0000  -2.0988   0.0000   0.0000   0.0000   0.3131
  18.700   0.8360   0.23783   0.23574  -0.0680  0.0068  1.0000  -2.0886   0.0000   0.0000   0.0000   0.3137
  18.800   0.8382   0.23975   0.23766  -0.0687  0.0068  1.0000  -2.0789   0.0000   0.0000   0.0000   0.3142
  18.900   0.8403   0.24168   0.23959  -0.0695  0.0068  1.0000  -2.0698   0.0000   0.0000   0.0000   0.3148
  19.000   0.8425   0.24359   0.24150  -0.0702  0.0068  1.0000  -2.0612   0.0000   0.0000   0.0000   0.3154
  19.100   0.8446   0.24551   0.24342  -0.0710  0.0067  1.0000  -2.0531   0.0000   0.0000   0.0000   0.3159
  19.200   0.8468   0.24742   0.24533  -0.0718  0.0067  1.0000  -2.0456   0.0000   0.0000   0.0000   0.3165
  19.300   0.8490   0.24933   0.24730  -0.0725  0.0067  1.0000  -2.0391   0.0000   0.0000   0.0000   0.3170
  19.400   0.8512   0.25122   0.24920  -0.0733  0.0067  1.0000  -2.0335   0.0000   0.0000   0.0000   0.3176
  19.500   0.8534   0.25310   0.25108  -0.0740  0.0066  1.0000  -2.0291   0.0000   0.0000   0.0000   0.3181
  19.600   0.8557   0.25496   0.25294  -0.0748  0.0066  1.0000  -2.0262   0.0000   0.0000   0.0000   0.3187
  19.700   0.8580   0.25679   0.25477  -0.0756  0.0066  1.0000  -2.0245   0.0000   0.0000   0.0000   0.3192
  19.800   0.8604   0.25859   0.25657  -0.0763  0.0065  1.0000  -2.0248   0.0000   0.0000   0.0000   0.3197
  19.900   0.8628   0.26035   0.25834  -0.0771  0.0064  1.0000  -2.0270   0.0000   0.0000   0.0000   0.3202
  20.000   0.8653   0.26212   0.26010  -0.0779  0.0063  1.0000  -2.0283   0.0000   0.0000   0.0000   0.3207
  20.100   0.8678   0.26392   0.26191  -0.0787  0.0062  1.0000  -2.0261   0.0000   0.0000   0.0000   0.3212
  20.200   0.8702   0.26582   0.26381  -0.0795  0.0060  1.0000  -2.0170   0.0000   0.0000   0.0000   0.3218
  20.300   0.8724   0.26776   0.26575  -0.0803  0.0059  1.0000  -2.0064   0.0000   0.0000   0.0000   0.3224
  20.400   0.8747   0.26974   0.26773  -0.0811  0.0057  1.0000  -1.9948   0.0000   0.0000   0.0000   0.3229
  20.500   0.8768   0.27175   0.26974  -0.0819  0.0056  1.0000  -1.9828   0.0000   0.0000   0.0000   0.3234
  20.600   0.8789   0.27378   0.27177  -0.0827  0.0055  1.0000  -1.9711   0.0000   0.0000   0.0000   0.3240
  20.700   0.8810   0.27582   0.27382  -0.0834  0.0054  1.0000  -1.9597   0.0000   0.0000   0.0000   0.3245
  20.800   0.8829   0.27787   0.27587  -0.0842  0.0053  1.0000  -1.9490   0.0000   0.0000   0.0000   0.3250
  20.900   0.8849   0.27993   0.27793  -0.0849  0.0051  1.0000  -1.9390   0.0000   0.0000   0.0000   0.3255
  21.000   0.8867   0.28200   0.28000  -0.0856  0.0050  1.0000  -1.9295   0.0000   0.0000   0.0000   0.3260
  21.100   0.8886   0.28407   0.28207  -0.0864  0.0050  1.0000  -1.9207   0.0000   0.0000   0.0000   0.3265
  21.200   0.8904   0.28614   0.28415  -0.0871  0.0049  1.0000  -1.9125   0.0000   0.0000   0.0000   0.3269
  21.300   0.8921   0.28822   0.28623  -0.0878  0.0048  1.0000  -1.9047   0.0000   0.0000   0.0000   0.3274
  21.400   0.8938   0.29030   0.28831  -0.0886  0.0047  1.0000  -1.8974   0.0000   0.0000   0.0000   0.3279
  21.500   0.8955   0.29238   0.29039  -0.0893  0.0046  1.0000  -1.8905   0.0000   0.0000   0.0000   0.3284
  21.600   0.8971   0.29447   0.29248  -0.0900  0.0045  1.0000  -1.8839   0.0000   0.0000   0.0000   0.3288
  21.700   0.8987   0.29655   0.29457  -0.0907  0.0045  1.0000  -1.8777   0.0000   0.0000   0.0000   0.3293
  21.800   0.9003   0.29865   0.29666  -0.0914  0.0044  1.0000  -1.8718   0.0000   0.0000   0.0000   0.3298
  21.900   0.9018   0.30074   0.29876  -0.0921  0.0043  1.0000  -1.8662   0.0000   0.0000   0.0000   0.3303
  22.000   0.9033   0.30283   0.30086  -0.0928  0.0043  1.0000  -1.8608   0.0000   0.0000   0.0000   0.3307
  22.100   0.9047   0.30493   0.30295  -0.0935  0.0042  1.0000  -1.8556   0.0000   0.0000   0.0000   0.3312
  22.200   0.9061   0.30703   0.30505  -0.0942  0.0041  1.0000  -1.8507   0.0000   0.0000   0.0000   0.3317
  22.300   0.9074   0.30912   0.30716  -0.0949  0.0041  1.0000  -1.8459   0.0000   0.0000   0.0000   0.3321
  22.400   0.9087   0.31122   0.30926  -0.0956  0.0040  1.0000  -1.8413   0.0000   0.0000   0.0000   0.3326
  22.500   0.9099   0.31332   0.31136  -0.0963  0.0040  1.0000  -1.8369   0.0000   0.0000   0.0000   0.3330
  22.600   0.9111   0.31542   0.31346  -0.0969  0.0039  1.0000  -1.8325   0.0000   0.0000   0.0000   0.3335
  22.700   0.9122   0.31752   0.31556  -0.0976  0.0039  1.0000  -1.8283   0.0000   0.0000   0.0000   0.3340
  22.800   0.9133   0.31961   0.31766  -0.0983  0.0038  1.0000  -1.8242   0.0000   0.0000   0.0000   0.3344
  22.900   0.9143   0.32171   0.31976  -0.0989  0.0038  1.0000  -1.8201   0.0000   0.0000   0.0000   0.3349
  23.000   0.9152   0.32379   0.32185  -0.0996  0.0037  1.0000  -1.8161   0.0000   0.0000   0.0000   0.3353
  23.100   0.9160   0.32588   0.32394  -0.1002  0.0037  1.0000  -1.8122   0.0000   0.0000   0.0000   0.3358
  23.200   0.9168   0.32796   0.32602  -0.1009  0.0037  1.0000  -1.8082   0.0000   0.0000   0.0000   0.3362
  23.300   0.9174   0.33003   0.32810  -0.1015  0.0036  1.0000  -1.8042   0.0000   0.0000   0.0000   0.3367
  23.400   0.9180   0.33209   0.33016  -0.1021  0.0036  1.0000  -1.8001   0.0000   0.0000   0.0000   0.3372
  23.500   0.9184   0.33414   0.33222  -0.1027  0.0035  1.0000  -1.7960   0.0000   0.0000   0.0000   0.3376
  23.600   0.9188   0.33617   0.33426  -0.1033  0.0035  1.0000  -1.7984   0.0000   0.0000   0.0000   0.3381
  23.700   0.9190   0.33819   0.33628  -0.1039  0.0035  1.0000  -1.8024   0.0000   0.0000   0.0000   0.3386
  23.800   0.9190   0.34019   0.33828  -0.1045  0.0034  1.0000  -1.8059   0.0000   0.0000   0.0000   0.3391
  23.900   0.9189   0.34216   0.34026  -0.1050  0.0034  1.0000  -1.8091   0.0000   0.0000   0.0000   0.3395
  24.000   0.9185   0.34409   0.34220  -0.1056  0.0034  1.0000  -1.8117   0.0000   0.0000   0.0000   0.3400
  24.100   0.9179   0.34598   0.34410  -0.1061  0.0033  1.0000  -1.8135   0.0000   0.0000   0.0000   0.3405
  24.200   0.9170   0.34782   0.34594  -0.1065  0.0033  1.0000  -1.8145   0.0000   0.0000   0.0000   0.3410
  24.300   0.9157   0.34958   0.34771  -0.1070  0.0033  1.0000  -1.8142   0.0000   0.0000   0.0000   0.3416
  24.400   0.9139   0.35124   0.34938  -0.1074  0.0033  1.0000  -1.8123   0.0000   0.0000   0.0000   0.3421
  24.500   0.9112   0.35273   0.35088  -0.1077  0.0032  1.0000  -1.8077   0.0000   0.0000   0.0000   0.3427


