xflr5 v6.61

 Calculated polar for: MH 20

 1 1 Reynolds number fixed          Mach number fixed         

 xtrf =   1.000 (top)        1.000 (bottom)
 Mach =   0.000     Re =     0.500 e 6     Ncrit =   9.000

  alpha     CL        CD       CDp       Cm    Top Xtr Bot Xtr   Cpmin    Chinge    XCp    
 ------- -------- --------- --------- -------- ------- ------- -------- --------- ---------
 -10.000  -0.5380   0.11504   0.11302   0.0171  1.0000  0.0137  -1.9757   0.0000   0.0000   0.0000   0.2769
  -9.900  -0.5365   0.11343   0.11141   0.0162  1.0000  0.0139  -1.9907   0.0000   0.0000   0.0000   0.2755
  -9.800  -0.5350   0.11181   0.10980   0.0154  1.0000  0.0141  -2.0066   0.0000   0.0000   0.0000   0.2740
  -9.700  -0.5336   0.11018   0.10819   0.0145  1.0000  0.0143  -2.0235   0.0000   0.0000   0.0000   0.2725
  -9.600  -0.5323   0.10856   0.10657   0.0136  1.0000  0.0146  -2.0413   0.0000   0.0000   0.0000   0.2709
  -9.500  -0.5310   0.10695   0.10497   0.0127  1.0000  0.0148  -2.0601   0.0000   0.0000   0.0000   0.2693
  -9.400  -0.5296   0.10534   0.10337   0.0118  1.0000  0.0150  -2.0797   0.0000   0.0000   0.0000   0.2677
  -9.300  -0.5283   0.10375   0.10179   0.0108  1.0000  0.0153  -2.0995   0.0000   0.0000   0.0000   0.2660
  -9.200  -0.5267   0.10220   0.10024   0.0099  1.0000  0.0156  -2.1181   0.0000   0.0000   0.0000   0.2643
  -9.100  -0.5249   0.10067   0.09872   0.0089  1.0000  0.0159  -2.1357   0.0000   0.0000   0.0000   0.2625
  -9.000  -0.5219   0.09931   0.09737   0.0079  1.0000  0.0163  -2.1415   0.0000   0.0000   0.0000   0.2609
  -8.900  -0.5180   0.09814   0.09621   0.0070  1.0000  0.0167  -2.1364   0.0000   0.0000   0.0000   0.2592
  -8.800  -0.5148   0.09686   0.09494   0.0060  1.0000  0.0169  -2.1356   0.0000   0.0000   0.0000   0.2575
  -8.700  -0.5125   0.09542   0.09351   0.0050  1.0000  0.0171  -2.1424   0.0000   0.0000   0.0000   0.2557
  -8.600  -0.5108   0.09390   0.09200   0.0040  1.0000  0.0172  -2.1537   0.0000   0.0000   0.0000   0.2538
  -8.500  -0.5093   0.09232   0.09043   0.0030  1.0000  0.0172  -2.1679   0.0000   0.0000   0.0000   0.2518
  -8.400  -0.5082   0.09071   0.08883   0.0019  1.0000  0.0173  -2.1842   0.0000   0.0000   0.0000   0.2498
  -8.300  -0.5072   0.08906   0.08719   0.0008  1.0000  0.0173  -2.2023   0.0000   0.0000   0.0000   0.2476
  -8.200  -0.5063   0.08736   0.08551  -0.0004  1.0000  0.0173  -2.2220   0.0000   0.0000   0.0000   0.2453
  -8.100  -0.5056   0.08563   0.08380  -0.0017  1.0000  0.0174  -2.2434   0.0000   0.0000   0.0000   0.2428
  -8.000  -0.5051   0.08387   0.08205  -0.0031  1.0000  0.0174  -2.2666   0.0000   0.0000   0.0000   0.2402
  -7.900  -0.5049   0.08207   0.08026  -0.0046  1.0000  0.0174  -2.2918   0.0000   0.0000   0.0000   0.2372
  -7.800  -0.5051   0.08020   0.07841  -0.0064  1.0000  0.0174  -2.3199   0.0000   0.0000   0.0000   0.2337
  -7.300  -0.5011   0.06996   0.06803  -0.0162  0.9085  0.0175  -2.4874   0.0000   0.0000   0.0000   0.2143
  -7.200  -0.5012   0.06816   0.06616  -0.0169  0.8957  0.0175  -2.5193   0.0000   0.0000   0.0000   0.2130
  -7.100  -0.5007   0.06633   0.06426  -0.0176  0.8852  0.0175  -2.5512   0.0000   0.0000   0.0000   0.2117
  -7.000  -0.4989   0.06433   0.06222  -0.0185  0.8777  0.0175  -2.5841   0.0000   0.0000   0.0000   0.2098
  -6.900  -0.4970   0.06239   0.06021  -0.0192  0.8701  0.0175  -2.6162   0.0000   0.0000   0.0000   0.2082
  -6.800  -0.4951   0.06049   0.05823  -0.0197  0.8627  0.0175  -2.6475   0.0000   0.0000   0.0000   0.2070
  -6.700  -0.4930   0.05863   0.05628  -0.0201  0.8555  0.0176  -2.6777   0.0000   0.0000   0.0000   0.2061
  -6.600  -0.4904   0.05678   0.05434  -0.0204  0.8486  0.0176  -2.7067   0.0000   0.0000   0.0000   0.2052
  -6.500  -0.4870   0.05485   0.05235  -0.0209  0.8447  0.0176  -2.7345   0.0000   0.0000   0.0000   0.2040
  -6.400  -0.4834   0.05299   0.05040  -0.0212  0.8402  0.0176  -2.7604   0.0000   0.0000   0.0000   0.2030
  -6.300  -0.4796   0.05118   0.04850  -0.0214  0.8356  0.0176  -2.7838   0.0000   0.0000   0.0000   0.2022
  -6.200  -0.4756   0.04941   0.04664  -0.0215  0.8311  0.0176  -2.8052   0.0000   0.0000   0.0000   0.2017
  -6.100  -0.4714   0.04770   0.04482  -0.0215  0.8266  0.0176  -2.8240   0.0000   0.0000   0.0000   0.2012
  -6.000  -0.4669   0.04603   0.04303  -0.0215  0.8222  0.0176  -2.8409   0.0000   0.0000   0.0000   0.2010
  -5.900  -0.4622   0.04439   0.04127  -0.0213  0.8178  0.0177  -2.8561   0.0000   0.0000   0.0000   0.2008
  -5.800  -0.4571   0.04279   0.03955  -0.0211  0.8130  0.0177  -2.8692   0.0000   0.0000   0.0000   0.2007
  -5.700  -0.4516   0.04122   0.03785  -0.0210  0.8079  0.0177  -2.8802   0.0000   0.0000   0.0000   0.2005
  -5.600  -0.4456   0.03962   0.03614  -0.0208  0.8060  0.0177  -2.8898   0.0000   0.0000   0.0000   0.2002
  -5.500  -0.4393   0.03804   0.03445  -0.0206  0.8038  0.0177  -2.8982   0.0000   0.0000   0.0000   0.2000
  -5.400  -0.4328   0.03650   0.03279  -0.0203  0.8014  0.0177  -2.9057   0.0000   0.0000   0.0000   0.1999
  -5.100  -0.4290   0.02480   0.02029  -0.0182  0.7939  0.0132  -3.4974   0.0000   0.0000   0.0000   0.2043
  -5.000  -0.4233   0.02134   0.01639  -0.0167  0.7914  0.0106  -3.8478   0.0000   0.0000   0.0000   0.2073
  -4.900  -0.4155   0.01864   0.01328  -0.0153  0.7888  0.0090  -4.1710   0.0000   0.0000   0.0000   0.2097
  -4.800  -0.4060   0.01750   0.01194  -0.0146  0.7860  0.0086  -4.2273   0.0000   0.0000   0.0000   0.2105
  -4.700  -0.3962   0.01669   0.01098  -0.0142  0.7831  0.0085  -4.2197   0.0000   0.0000   0.0000   0.2108
  -4.600  -0.3863   0.01598   0.01015  -0.0137  0.7802  0.0084  -4.1907   0.0000   0.0000   0.0000   0.2110
  -4.500  -0.3765   0.01534   0.00939  -0.0133  0.7771  0.0084  -4.1502   0.0000   0.0000   0.0000   0.2112
  -4.400  -0.3666   0.01475   0.00869  -0.0129  0.7738  0.0085  -4.0985   0.0000   0.0000   0.0000   0.2114
  -4.300  -0.3566   0.01426   0.00805  -0.0126  0.7702  0.0090  -4.0166   0.0000   0.0000   0.0000   0.2113
  -4.200  -0.3464   0.01393   0.00766  -0.0124  0.7662  0.0095  -3.9023   0.0000   0.0000   0.0000   0.2108
  -4.100  -0.3361   0.01360   0.00729  -0.0122  0.7636  0.0101  -3.7911   0.0000   0.0000   0.0000   0.2103
  -4.000  -0.3257   0.01318   0.00682  -0.0119  0.7624  0.0104  -3.7038   0.0000   0.0000   0.0000   0.2100
  -3.900  -0.3155   0.01271   0.00628  -0.0116  0.7611  0.0105  -3.6382   0.0000   0.0000   0.0000   0.2100
  -3.800  -0.3054   0.01228   0.00578  -0.0112  0.7595  0.0106  -3.5699   0.0000   0.0000   0.0000   0.2099
  -3.700  -0.2952   0.01189   0.00533  -0.0109  0.7578  0.0109  -3.4945   0.0000   0.0000   0.0000   0.2098
  -3.600  -0.2849   0.01155   0.00493  -0.0106  0.7558  0.0112  -3.4140   0.0000   0.0000   0.0000   0.2096
  -3.500  -0.2746   0.01125   0.00456  -0.0103  0.7537  0.0117  -3.3303   0.0000   0.0000   0.0000   0.2093
  -3.400  -0.2641   0.01097   0.00423  -0.0100  0.7516  0.0125  -3.2447   0.0000   0.0000   0.0000   0.2089
  -3.300  -0.2536   0.01073   0.00393  -0.0097  0.7494  0.0136  -3.1595   0.0000   0.0000   0.0000   0.2084
  -3.200  -0.2429   0.01051   0.00364  -0.0095  0.7473  0.0154  -3.0743   0.0000   0.0000   0.0000   0.2078
  -3.100  -0.2321   0.01038   0.00348  -0.0093  0.7451  0.0175  -2.9565   0.0000   0.0000   0.0000   0.2066
  -3.000  -0.2235   0.00970   0.00305  -0.0087  0.7428  0.0686  -2.9491   0.0000   0.0000   0.0000   0.2077
  -2.900  -0.2131   0.00954   0.00293  -0.0086  0.7404  0.0871  -2.8091   0.0000   0.0000   0.0000   0.2063
  -2.800  -0.2029   0.00937   0.00284  -0.0085  0.7378  0.1074  -2.6845   0.0000   0.0000   0.0000   0.2050
  -2.700  -0.1929   0.00916   0.00275  -0.0083  0.7352  0.1369  -2.5584   0.0000   0.0000   0.0000   0.2036
  -2.600  -0.1828   0.00899   0.00268  -0.0082  0.7325  0.1651  -2.4313   0.0000   0.0000   0.0000   0.2019
  -2.500  -0.1724   0.00887   0.00260  -0.0081  0.7297  0.1865  -2.3027   0.0000   0.0000   0.0000   0.1998
  -2.400  -0.1623   0.00872   0.00254  -0.0079  0.7266  0.2153  -2.1772   0.0000   0.0000   0.0000   0.1977
  -2.300  -0.1517   0.00864   0.00249  -0.0079  0.7232  0.2365  -2.0500   0.0000   0.0000   0.0000   0.1947
  -2.200  -0.1415   0.00851   0.00245  -0.0078  0.7194  0.2668  -1.9269   0.0000   0.0000   0.0000   0.1917
  -2.100  -0.1314   0.00833   0.00241  -0.0076  0.7172  0.3045  -1.8061   0.0000   0.0000   0.0000   0.1884
  -2.000  -0.1215   0.00812   0.00234  -0.0075  0.7162  0.3470  -1.6876   0.0000   0.0000   0.0000   0.1850
  -1.900  -0.1118   0.00789   0.00228  -0.0072  0.7151  0.3948  -1.5724   0.0000   0.0000   0.0000   0.1815
  -1.800  -0.1023   0.00766   0.00222  -0.0070  0.7140  0.4470  -1.4608   0.0000   0.0000   0.0000   0.1781
  -1.700  -0.0935   0.00738   0.00217  -0.0066  0.7127  0.5112  -1.3558   0.0000   0.0000   0.0000   0.1759
  -1.600  -0.0853   0.00709   0.00210  -0.0060  0.7112  0.5839  -1.2563   0.0000   0.0000   0.0000   0.1756
  -1.500  -0.0780   0.00677   0.00207  -0.0052  0.7096  0.6594  -1.1609   0.0000   0.0000   0.0000   0.1797
  -1.400  -0.0703   0.00651   0.00204  -0.0043  0.7078  0.7290  -1.0649   0.0000   0.0000   0.0000   0.1842
  -1.300  -0.0620   0.00627   0.00202  -0.0035  0.7059  0.7902  -0.9674   0.0000   0.0000   0.0000   0.1885
  -1.200  -0.0504   0.00608   0.00202  -0.0033  0.7039  0.8539  -0.8562   0.0000   0.0000   0.0000   0.1787
  -1.100  -0.0217   0.00603   0.00207  -0.0068  0.7018  0.9119  -0.6693   0.0000   0.0000   0.0000  -0.0757
  -1.000   0.0119   0.00610   0.00211  -0.0115  0.7001  0.9414  -0.5337   0.0000   0.0000   0.0000   1.2337
  -0.900   0.0278   0.00616   0.00214  -0.0124  0.6983  0.9547  -0.4958   0.0000   0.0000   0.0000   0.7002
  -0.800   0.0441   0.00621   0.00214  -0.0134  0.6964  0.9636  -0.4579   0.0000   0.0000   0.0000   0.5560
  -0.700   0.0556   0.00626   0.00216  -0.0133  0.6942  0.9714  -0.4272   0.0000   0.0000   0.0000   0.4918
  -0.600   0.0744   0.00630   0.00215  -0.0149  0.6919  0.9767  -0.4065   0.0000   0.0000   0.0000   0.4516
  -0.500   0.0929   0.00634   0.00214  -0.0164  0.6893  0.9826  -0.4182   0.0000   0.0000   0.0000   0.4275
  -0.400   0.1085   0.00640   0.00215  -0.0173  0.6864  0.9874  -0.4285   0.0000   0.0000   0.0000   0.4100
  -0.300   0.1271   0.00641   0.00211  -0.0190  0.6833  0.9898  -0.4412   0.0000   0.0000   0.0000   0.3990
  -0.200   0.1459   0.00643   0.00209  -0.0206  0.6801  0.9929  -0.4544   0.0000   0.0000   0.0000   0.3910
  -0.100   0.1648   0.00647   0.00208  -0.0223  0.6770  0.9963  -0.4677   0.0000   0.0000   0.0000   0.3850
   0.000   0.1842   0.00648   0.00206  -0.0242  0.6737  0.9989  -0.4813   0.0000   0.0000   0.0000   0.3805
   0.100   0.1985   0.00652   0.00208  -0.0249  0.6701  1.0000  -0.4921   0.0000   0.0000   0.0000   0.3748
   0.200   0.2089   0.00651   0.00205  -0.0248  0.6690  1.0000  -0.5011   0.0000   0.0000   0.0000   0.3678
   0.300   0.2193   0.00649   0.00202  -0.0246  0.6679  1.0000  -0.5101   0.0000   0.0000   0.0000   0.3615
   0.400   0.2298   0.00647   0.00200  -0.0245  0.6667  1.0000  -0.5191   0.0000   0.0000   0.0000   0.3557
   0.500   0.2402   0.00646   0.00197  -0.0244  0.6652  1.0000  -0.5281   0.0000   0.0000   0.0000   0.3504
   0.600   0.2506   0.00644   0.00194  -0.0242  0.6635  1.0000  -0.5373   0.0000   0.0000   0.0000   0.3456
   0.700   0.2611   0.00643   0.00192  -0.0241  0.6616  1.0000  -0.5476   0.0000   0.0000   0.0000   0.3411
   0.800   0.2716   0.00643   0.00191  -0.0240  0.6597  1.0000  -0.5581   0.0000   0.0000   0.0000   0.3371
   0.900   0.2822   0.00642   0.00190  -0.0239  0.6578  1.0000  -0.5685   0.0000   0.0000   0.0000   0.3333
   1.000   0.2927   0.00642   0.00189  -0.0238  0.6557  1.0000  -0.5790   0.0000   0.0000   0.0000   0.3298
   1.100   0.3033   0.00642   0.00188  -0.0237  0.6536  1.0000  -0.5895   0.0000   0.0000   0.0000   0.3265
   1.200   0.3138   0.00642   0.00187  -0.0235  0.6513  1.0000  -0.6001   0.0000   0.0000   0.0000   0.3235
   1.300   0.3244   0.00642   0.00186  -0.0234  0.6488  1.0000  -0.6107   0.0000   0.0000   0.0000   0.3206
   1.400   0.3349   0.00642   0.00184  -0.0233  0.6459  1.0000  -0.6213   0.0000   0.0000   0.0000   0.3178
   1.500   0.3453   0.00642   0.00183  -0.0231  0.6427  1.0000  -0.6319   0.0000   0.0000   0.0000   0.3152
   1.600   0.3558   0.00643   0.00181  -0.0230  0.6393  1.0000  -0.6441   0.0000   0.0000   0.0000   0.3128
   1.700   0.3663   0.00644   0.00180  -0.0228  0.6356  1.0000  -0.6564   0.0000   0.0000   0.0000   0.3105
   1.800   0.3768   0.00647   0.00181  -0.0227  0.6315  1.0000  -0.6686   0.0000   0.0000   0.0000   0.3083
   1.900   0.3873   0.00651   0.00183  -0.0226  0.6272  1.0000  -0.6810   0.0000   0.0000   0.0000   0.3063
   2.000   0.3979   0.00657   0.00187  -0.0225  0.6227  1.0000  -0.6933   0.0000   0.0000   0.0000   0.3045
   2.100   0.4086   0.00660   0.00190  -0.0224  0.6200  1.0000  -0.7058   0.0000   0.0000   0.0000   0.3028
   2.200   0.4192   0.00658   0.00190  -0.0223  0.6188  1.0000  -0.7204   0.0000   0.0000   0.0000   0.3010
   2.300   0.4299   0.00657   0.00190  -0.0222  0.6171  1.0000  -0.7351   0.0000   0.0000   0.0000   0.2994
   2.400   0.4405   0.00656   0.00190  -0.0221  0.6148  1.0000  -0.7498   0.0000   0.0000   0.0000   0.2978
   2.500   0.4511   0.00655   0.00191  -0.0220  0.6120  1.0000  -0.7645   0.0000   0.0000   0.0000   0.2963
   2.600   0.4617   0.00655   0.00191  -0.0219  0.6086  1.0000  -0.7802   0.0000   0.0000   0.0000   0.2949
   2.700   0.4724   0.00655   0.00192  -0.0217  0.6049  1.0000  -0.7976   0.0000   0.0000   0.0000   0.2935
   2.800   0.4830   0.00655   0.00193  -0.0216  0.6011  1.0000  -0.8152   0.0000   0.0000   0.0000   0.2922
   2.900   0.4935   0.00656   0.00193  -0.0215  0.5968  1.0000  -0.8328   0.0000   0.0000   0.0000   0.2909
   3.000   0.5040   0.00658   0.00193  -0.0213  0.5919  1.0000  -0.8504   0.0000   0.0000   0.0000   0.2896
   3.100   0.5145   0.00660   0.00193  -0.0212  0.5863  1.0000  -0.8681   0.0000   0.0000   0.0000   0.2884
   3.200   0.5249   0.00664   0.00194  -0.0210  0.5795  1.0000  -0.8881   0.0000   0.0000   0.0000   0.2872
   3.300   0.5353   0.00671   0.00197  -0.0209  0.5718  1.0000  -0.9093   0.0000   0.0000   0.0000   0.2861
   3.400   0.5461   0.00671   0.00200  -0.0208  0.5690  1.0000  -0.9311   0.0000   0.0000   0.0000   0.2851
   3.500   0.5568   0.00670   0.00204  -0.0207  0.5655  1.0000  -0.9530   0.0000   0.0000   0.0000   0.2842
   3.600   0.5675   0.00671   0.00207  -0.0206  0.5604  1.0000  -0.9767   0.0000   0.0000   0.0000   0.2832
   3.700   0.5780   0.00673   0.00208  -0.0205  0.5533  1.0000  -1.0037   0.0000   0.0000   0.0000   0.2823
   3.800   0.5885   0.00676   0.00209  -0.0204  0.5448  1.0000  -1.0309   0.0000   0.0000   0.0000   0.2813
   3.900   0.5989   0.00680   0.00211  -0.0202  0.5357  1.0000  -1.0639   0.0000   0.0000   0.0000   0.2804
   4.000   0.6092   0.00687   0.00213  -0.0201  0.5255  1.0000  -1.1034   0.0000   0.0000   0.0000   0.2795
   4.100   0.6198   0.00691   0.00218  -0.0200  0.5182  1.0000  -1.1530   0.0000   0.0000   0.0000   0.2787
   4.200   0.6304   0.00695   0.00222  -0.0199  0.5096  1.0000  -1.2031   0.0000   0.0000   0.0000   0.2779
   4.300   0.6407   0.00701   0.00225  -0.0197  0.4977  1.0000  -1.3113   0.0000   0.0000   0.0000   0.2771
   4.400   0.6509   0.00711   0.00231  -0.0196  0.4840  1.0000  -1.4301   0.0000   0.0000   0.0000   0.2763
   4.500   0.6612   0.00721   0.00237  -0.0194  0.4715  1.0000  -1.5521   0.0000   0.0000   0.0000   0.2755
   4.600   0.6716   0.00727   0.00243  -0.0193  0.4633  1.0000  -1.6789   0.0000   0.0000   0.0000   0.2748
   4.700   0.6819   0.00736   0.00249  -0.0192  0.4512  1.0000  -1.8076   0.0000   0.0000   0.0000   0.2741
   4.800   0.6919   0.00750   0.00257  -0.0191  0.4360  1.0000  -1.9371   0.0000   0.0000   0.0000   0.2734
   4.900   0.7020   0.00763   0.00266  -0.0189  0.4216  1.0000  -2.0700   0.0000   0.0000   0.0000   0.2728
   5.000   0.7123   0.00771   0.00274  -0.0188  0.4111  1.0000  -2.2070   0.0000   0.0000   0.0000   0.2721
   5.100   0.7223   0.00785   0.00283  -0.0187  0.3971  1.0000  -2.3447   0.0000   0.0000   0.0000   0.2715
   5.200   0.7321   0.00804   0.00294  -0.0185  0.3802  1.0000  -2.4829   0.0000   0.0000   0.0000   0.2708
   5.300   0.7423   0.00813   0.00304  -0.0184  0.3699  1.0000  -2.6271   0.0000   0.0000   0.0000   0.2702
   5.400   0.7522   0.00829   0.00314  -0.0183  0.3534  1.0000  -2.7713   0.0000   0.0000   0.0000   0.2696
   5.500   0.7615   0.00855   0.00332  -0.0181  0.3294  1.0000  -2.9169   0.0000   0.0000   0.0000   0.2690
   5.600   0.7714   0.00869   0.00343  -0.0180  0.3144  1.0000  -3.0671   0.0000   0.0000   0.0000   0.2684
   5.700   0.7805   0.00896   0.00358  -0.0178  0.2913  1.0000  -3.2128   0.0000   0.0000   0.0000   0.2678
   5.800   0.7903   0.00912   0.00371  -0.0176  0.2762  1.0000  -3.3651   0.0000   0.0000   0.0000   0.2673
   5.900   0.7998   0.00933   0.00385  -0.0175  0.2594  1.0000  -3.5166   0.0000   0.0000   0.0000   0.2667
   6.000   0.8090   0.00956   0.00401  -0.0173  0.2402  1.0000  -3.6680   0.0000   0.0000   0.0000   0.2661
   6.100   0.8185   0.00977   0.00416  -0.0171  0.2237  1.0000  -3.8225   0.0000   0.0000   0.0000   0.2655
   6.200   0.8272   0.01008   0.00435  -0.0169  0.2005  1.0000  -3.9724   0.0000   0.0000   0.0000   0.2650
   6.300   0.8359   0.01039   0.00456  -0.0166  0.1777  1.0000  -4.1227   0.0000   0.0000   0.0000   0.2644
   6.400   0.8441   0.01076   0.00479  -0.0164  0.1496  1.0000  -4.2695   0.0000   0.0000   0.0000   0.2638
   6.500   0.8516   0.01124   0.00507  -0.0161  0.1173  1.0000  -4.4097   0.0000   0.0000   0.0000   0.2631
   6.600   0.8586   0.01178   0.00540  -0.0157  0.0852  1.0000  -4.5439   0.0000   0.0000   0.0000   0.2624
   6.700   0.8649   0.01239   0.00579  -0.0152  0.0534  1.0000  -4.6687   0.0000   0.0000   0.0000   0.2617
   6.800   0.8717   0.01295   0.00620  -0.0147  0.0306  1.0000  -4.7812   0.0000   0.0000   0.0000   0.2609
   6.900   0.8773   0.01375   0.00697  -0.0139  0.0172  1.0000  -4.7894   0.0000   0.0000   0.0000   0.2597
   7.000   0.8867   0.01387   0.00711  -0.0137  0.0157  1.0000  -4.9372   0.0000   0.0000   0.0000   0.2592
   7.100   0.8952   0.01414   0.00740  -0.0133  0.0129  1.0000  -5.0807   0.0000   0.0000   0.0000   0.2585
   7.200   0.9023   0.01464   0.00790  -0.0127  0.0101  1.0000  -5.1683   0.0000   0.0000   0.0000   0.2576
   7.300   0.9071   0.01547   0.00887  -0.0116  0.0082  1.0000  -5.1540   0.0000   0.0000   0.0000   0.2562
   7.400   0.9094   0.01656   0.01013  -0.0103  0.0074  1.0000  -5.1170   0.0000   0.0000   0.0000   0.2546
   7.600   0.9179   0.01812   0.01186  -0.0083  0.0068  1.0000  -5.2050   0.0000   0.0000   0.0000   0.2521
   7.700   0.9251   0.01851   0.01229  -0.0077  0.0067  1.0000  -5.3263   0.0000   0.0000   0.0000   0.2513
   7.800   0.9318   0.01897   0.01279  -0.0070  0.0066  1.0000  -5.4353   0.0000   0.0000   0.0000   0.2504
   7.900   0.9380   0.01949   0.01337  -0.0063  0.0065  1.0000  -5.5343   0.0000   0.0000   0.0000   0.2495
   8.000   0.9440   0.02006   0.01400  -0.0055  0.0064  1.0000  -5.6252   0.0000   0.0000   0.0000   0.2485
   8.100   0.9498   0.02069   0.01468  -0.0047  0.0063  1.0000  -5.7093   0.0000   0.0000   0.0000   0.2475
   8.200   0.9554   0.02136   0.01542  -0.0039  0.0063  1.0000  -5.7875   0.0000   0.0000   0.0000   0.2466
   8.300   0.9611   0.02208   0.01621  -0.0031  0.0062  1.0000  -5.8603   0.0000   0.0000   0.0000   0.2456
   8.400   0.9667   0.02284   0.01703  -0.0023  0.0062  1.0000  -5.9320   0.0000   0.0000   0.0000   0.2446
   8.500   0.9727   0.02354   0.01780  -0.0016  0.0061  1.0000  -6.0156   0.0000   0.0000   0.0000   0.2438
   8.600   0.9790   0.02419   0.01851  -0.0010  0.0060  1.0000  -6.1112   0.0000   0.0000   0.0000   0.2430
   8.700   0.9853   0.02480   0.01918  -0.0003  0.0058  1.0000  -6.2168   0.0000   0.0000   0.0000   0.2422
   8.800   0.9916   0.02537   0.01981   0.0003  0.0056  1.0000  -6.3296   0.0000   0.0000   0.0000   0.2415
   8.900   0.9978   0.02594   0.02043   0.0009  0.0054  1.0000  -6.4453   0.0000   0.0000   0.0000   0.2407
   9.000   1.0038   0.02653   0.02108   0.0015  0.0052  1.0000  -6.5579   0.0000   0.0000   0.0000   0.2400
   9.100   1.0094   0.02720   0.02181   0.0022  0.0051  1.0000  -6.6592   0.0000   0.0000   0.0000   0.2393
   9.200   1.0145   0.02801   0.02271   0.0029  0.0050  1.0000  -6.7334   0.0000   0.0000   0.0000   0.2384
   9.300   1.0188   0.02900   0.02379   0.0037  0.0050  1.0000  -6.7755   0.0000   0.0000   0.0000   0.2376
   9.400   1.0226   0.03004   0.02493   0.0045  0.0049  1.0000  -6.8093   0.0000   0.0000   0.0000   0.2366
   9.500   1.0260   0.03113   0.02612   0.0054  0.0049  1.0000  -6.8348   0.0000   0.0000   0.0000   0.2357
   9.600   1.0286   0.03226   0.02736   0.0062  0.0049  1.0000  -6.8516   0.0000   0.0000   0.0000   0.2348
   9.700   1.0306   0.03343   0.02864   0.0072  0.0049  1.0000  -6.8599   0.0000   0.0000   0.0000   0.2338
   9.800   1.0318   0.03463   0.02995   0.0081  0.0049  1.0000  -6.8600   0.0000   0.0000   0.0000   0.2328
   9.900   1.0321   0.03587   0.03130   0.0091  0.0049  1.0000  -6.8526   0.0000   0.0000   0.0000   0.2317
  10.000   1.0316   0.03713   0.03267   0.0101  0.0050  1.0000  -6.8386   0.0000   0.0000   0.0000   0.2306
  10.100   1.0295   0.03833   0.03397   0.0113  0.0050  1.0000  -6.8198   0.0000   0.0000   0.0000   0.2293
  10.200   1.0260   0.03947   0.03521   0.0126  0.0050  1.0000  -6.7981   0.0000   0.0000   0.0000   0.2278
  10.300   1.0220   0.04063   0.03646   0.0139  0.0050  1.0000  -6.7738   0.0000   0.0000   0.0000   0.2265
  10.400   1.0176   0.04185   0.03777   0.0149  0.0051  1.0000  -6.7471   0.0000   0.0000   0.0000   0.2253
  10.500   1.0129   0.04313   0.03914   0.0158  0.0051  1.0000  -6.7182   0.0000   0.0000   0.0000   0.2242
  10.600   1.0080   0.04445   0.04056   0.0165  0.0051  1.0000  -6.6877   0.0000   0.0000   0.0000   0.2233
  10.700   1.0027   0.04585   0.04204   0.0170  0.0052  1.0000  -6.6557   0.0000   0.0000   0.0000   0.2225
  10.800   0.9973   0.04730   0.04358   0.0175  0.0052  1.0000  -6.6220   0.0000   0.0000   0.0000   0.2219
  10.900   0.9914   0.04880   0.04515   0.0177  0.0053  1.0000  -6.5882   0.0000   0.0000   0.0000   0.2213
  11.000   0.9855   0.05036   0.04680   0.0179  0.0053  1.0000  -6.5527   0.0000   0.0000   0.0000   0.2209
  11.100   0.9793   0.05200   0.04851   0.0179  0.0053  1.0000  -6.5170   0.0000   0.0000   0.0000   0.2207
  11.200   0.9730   0.05371   0.05030   0.0177  0.0054  1.0000  -6.4798   0.0000   0.0000   0.0000   0.2206
  11.300   0.9666   0.05550   0.05216   0.0174  0.0054  1.0000  -6.4422   0.0000   0.0000   0.0000   0.2206
  11.400   0.9600   0.05733   0.05406   0.0169  0.0054  1.0000  -6.4044   0.0000   0.0000   0.0000   0.2208
  11.500   0.9533   0.05920   0.05600   0.0165  0.0054  1.0000  -6.3658   0.0000   0.0000   0.0000   0.2210
  11.600   0.9463   0.06116   0.05802   0.0158  0.0055  1.0000  -6.3276   0.0000   0.0000   0.0000   0.2215
  11.700   0.9396   0.06321   0.06014   0.0150  0.0055  1.0000  -6.2868   0.0000   0.0000   0.0000   0.2220
  11.800   0.9327   0.06536   0.06236   0.0140  0.0055  1.0000  -6.2459   0.0000   0.0000   0.0000   0.2228
  11.900   0.9258   0.06760   0.06466   0.0129  0.0055  1.0000  -6.2040   0.0000   0.0000   0.0000   0.2237
  12.000   0.9191   0.06993   0.06704   0.0117  0.0056  1.0000  -6.1596   0.0000   0.0000   0.0000   0.2248
  12.100   0.9122   0.07237   0.06953   0.0103  0.0056  1.0000  -6.1159   0.0000   0.0000   0.0000   0.2261
  12.200   0.9054   0.07488   0.07210   0.0088  0.0056  1.0000  -6.0689   0.0000   0.0000   0.0000   0.2275
  12.300   0.8986   0.07752   0.07479   0.0071  0.0056  1.0000  -6.0214   0.0000   0.0000   0.0000   0.2291
  12.400   0.8919   0.08023   0.07756   0.0054  0.0056  1.0000  -5.9707   0.0000   0.0000   0.0000   0.2309
  12.500   0.8851   0.08309   0.08047   0.0035  0.0056  1.0000  -5.9180   0.0000   0.0000   0.0000   0.2329
  12.600   0.8784   0.08599   0.08341   0.0016  0.0056  1.0000  -5.8618   0.0000   0.0000   0.0000   0.2349
  12.700   0.8716   0.08899   0.08646  -0.0004  0.0056  1.0000  -5.8030   0.0000   0.0000   0.0000   0.2371
  12.800   0.8649   0.09210   0.08961  -0.0025  0.0056  1.0000  -5.7385   0.0000   0.0000   0.0000   0.2394
  12.900   0.8583   0.09547   0.09302  -0.0047  0.0056  1.0000  -5.6677   0.0000   0.0000   0.0000   0.2420
  13.000   0.8518   0.09894   0.09653  -0.0070  0.0057  1.0000  -5.5888   0.0000   0.0000   0.0000   0.2445
  13.100   0.8452   0.10267   0.10029  -0.0094  0.0057  1.0000  -5.4999   0.0000   0.0000   0.0000   0.2474
  13.200   0.8387   0.10654   0.10420  -0.0117  0.0057  1.0000  -5.3988   0.0000   0.0000   0.0000   0.2503
  13.300   0.8321   0.11057   0.10826  -0.0141  0.0057  1.0000  -5.2830   0.0000   0.0000   0.0000   0.2532
  13.400   0.8253   0.11488   0.11258  -0.0165  0.0058  1.0000  -5.1456   0.0000   0.0000   0.0000   0.2563
  13.500   0.8185   0.11935   0.11708  -0.0188  0.0058  1.0000  -4.9840   0.0000   0.0000   0.0000   0.2593
  13.600   0.8117   0.12393   0.12167  -0.0209  0.0059  1.0000  -4.7978   0.0000   0.0000   0.0000   0.2622
  13.700   0.8050   0.12856   0.12629  -0.0229  0.0060  1.0000  -4.5841   0.0000   0.0000   0.0000   0.2649
  13.800   0.7993   0.13272   0.13044  -0.0246  0.0062  1.0000  -4.3911   0.0000   0.0000   0.0000   0.2673
  13.900   0.7942   0.13652   0.13423  -0.0262  0.0063  1.0000  -4.2205   0.0000   0.0000   0.0000   0.2696
  14.000   0.7892   0.14022   0.13792  -0.0278  0.0064  1.0000  -4.0487   0.0000   0.0000   0.0000   0.2718
  14.500   0.7860   0.15577   0.15345  -0.0332  0.0102  1.0000  -3.2504   0.0000   0.0000   0.0000   0.2788
  14.600   0.7846   0.15867   0.15635  -0.0344  0.0105  1.0000  -3.1388   0.0000   0.0000   0.0000   0.2804
  14.700   0.7841   0.16116   0.15883  -0.0355  0.0106  1.0000  -3.0651   0.0000   0.0000   0.0000   0.2818
  14.800   0.7840   0.16346   0.16112  -0.0365  0.0107  1.0000  -3.0081   0.0000   0.0000   0.0000   0.2830
  14.900   0.7842   0.16566   0.16331  -0.0375  0.0107  1.0000  -2.9594   0.0000   0.0000   0.0000   0.2842
  15.000   0.7846   0.16777   0.16542  -0.0384  0.0106  1.0000  -2.9178   0.0000   0.0000   0.0000   0.2853
  15.100   0.7853   0.16975   0.16740  -0.0393  0.0106  1.0000  -2.8819   0.0000   0.0000   0.0000   0.2863
  15.200   0.7861   0.17160   0.16924  -0.0402  0.0105  1.0000  -2.8507   0.0000   0.0000   0.0000   0.2873
  15.300   0.7870   0.17337   0.17101  -0.0411  0.0104  1.0000  -2.8232   0.0000   0.0000   0.0000   0.2883
  15.400   0.7881   0.17509   0.17273  -0.0419  0.0103  1.0000  -2.7988   0.0000   0.0000   0.0000   0.2892
  15.500   0.7893   0.17680   0.17443  -0.0428  0.0102  1.0000  -2.7774   0.0000   0.0000   0.0000   0.2901
  15.600   0.7906   0.17849   0.17613  -0.0436  0.0101  1.0000  -2.7586   0.0000   0.0000   0.0000   0.2909
  15.700   0.7919   0.18018   0.17781  -0.0444  0.0100  1.0000  -2.7422   0.0000   0.0000   0.0000   0.2918
  15.800   0.7934   0.18185   0.17948  -0.0452  0.0099  1.0000  -2.7281   0.0000   0.0000   0.0000   0.2926
  15.900   0.7949   0.18352   0.18114  -0.0460  0.0098  1.0000  -2.7163   0.0000   0.0000   0.0000   0.2934
  16.000   0.7965   0.18518   0.18280  -0.0468  0.0097  1.0000  -2.7067   0.0000   0.0000   0.0000   0.2941
  16.100   0.7982   0.18683   0.18445  -0.0476  0.0095  1.0000  -2.6994   0.0000   0.0000   0.0000   0.2949
  16.200   0.7999   0.18846   0.18608  -0.0484  0.0094  1.0000  -2.6944   0.0000   0.0000   0.0000   0.2956
  16.300   0.8017   0.19009   0.18771  -0.0491  0.0093  1.0000  -2.6917   0.0000   0.0000   0.0000   0.2963
  16.400   0.8035   0.19170   0.18932  -0.0498  0.0092  1.0000  -2.6913   0.0000   0.0000   0.0000   0.2969
  16.500   0.8054   0.19330   0.19092  -0.0506  0.0091  1.0000  -2.6933   0.0000   0.0000   0.0000   0.2975
  16.600   0.8074   0.19489   0.19251  -0.0513  0.0089  1.0000  -2.6975   0.0000   0.0000   0.0000   0.2981
  16.700   0.8094   0.19648   0.19410  -0.0520  0.0088  1.0000  -2.7026   0.0000   0.0000   0.0000   0.2987
  16.800   0.8114   0.19807   0.19568  -0.0527  0.0087  1.0000  -2.7099   0.0000   0.0000   0.0000   0.2993
  16.900   0.8134   0.19964   0.19725  -0.0534  0.0086  1.0000  -2.7191   0.0000   0.0000   0.0000   0.2999
  17.000   0.8155   0.20120   0.19882  -0.0540  0.0085  1.0000  -2.7303   0.0000   0.0000   0.0000   0.3004
  17.100   0.8176   0.20277   0.20038  -0.0547  0.0084  1.0000  -2.7431   0.0000   0.0000   0.0000   0.3009
  17.200   0.8196   0.20439   0.20200  -0.0554  0.0083  1.0000  -2.7516   0.0000   0.0000   0.0000   0.3014
  17.300   0.8214   0.20609   0.20371  -0.0561  0.0082  1.0000  -2.7529   0.0000   0.0000   0.0000   0.3020
  17.400   0.8232   0.20783   0.20544  -0.0568  0.0081  1.0000  -2.7536   0.0000   0.0000   0.0000   0.3026
  17.500   0.8250   0.20959   0.20720  -0.0576  0.0080  1.0000  -2.7527   0.0000   0.0000   0.0000   0.3033
  17.600   0.8267   0.21140   0.20901  -0.0583  0.0079  1.0000  -2.7488   0.0000   0.0000   0.0000   0.3039
  17.700   0.8282   0.21328   0.21089  -0.0590  0.0078  1.0000  -2.7399   0.0000   0.0000   0.0000   0.3045
  17.800   0.8296   0.21527   0.21289  -0.0598  0.0076  1.0000  -2.7227   0.0000   0.0000   0.0000   0.3052
  17.900   0.8306   0.21745   0.21507  -0.0606  0.0075  1.0000  -2.6914   0.0000   0.0000   0.0000   0.3060
  18.000   0.8310   0.21998   0.21759  -0.0615  0.0074  1.0000  -2.6327   0.0000   0.0000   0.0000   0.3069
  18.100   0.8294   0.22364   0.22124  -0.0625  0.0072  1.0000  -2.4861   0.0000   0.0000   0.0000   0.3083


