xflr5 v6.61

 Calculated polar for: MH 20

 1 1 Reynolds number fixed          Mach number fixed         

 xtrf =   1.000 (top)        1.000 (bottom)
 Mach =   0.000     Re =     0.160 e 6     Ncrit =   9.000

  alpha     CL        CD       CDp       Cm    Top Xtr Bot Xtr   Cpmin    Chinge    XCp    
 ------- -------- --------- --------- -------- ------- ------- -------- --------- ---------
 -10.000  -0.5290   0.11805   0.11453   0.0142  1.0000  0.0405  -1.8845   0.0000   0.0000   0.0000   0.2721
  -9.900  -0.5270   0.11659   0.11308   0.0136  1.0000  0.0411  -1.8852   0.0000   0.0000   0.0000   0.2711
  -9.800  -0.5252   0.11511   0.11162   0.0129  1.0000  0.0416  -1.8880   0.0000   0.0000   0.0000   0.2700
  -9.700  -0.5234   0.11363   0.11015   0.0123  1.0000  0.0421  -1.8924   0.0000   0.0000   0.0000   0.2689
  -9.600  -0.5217   0.11214   0.10867   0.0115  1.0000  0.0427  -1.8985   0.0000   0.0000   0.0000   0.2676
  -9.500  -0.5202   0.11065   0.10718   0.0108  1.0000  0.0432  -1.9059   0.0000   0.0000   0.0000   0.2663
  -9.400  -0.5187   0.10915   0.10570   0.0100  1.0000  0.0438  -1.9145   0.0000   0.0000   0.0000   0.2649
  -9.300  -0.5174   0.10765   0.10421   0.0092  1.0000  0.0444  -1.9243   0.0000   0.0000   0.0000   0.2635
  -9.200  -0.5163   0.10615   0.10272   0.0084  1.0000  0.0450  -1.9354   0.0000   0.0000   0.0000   0.2620
  -9.100  -0.5151   0.10464   0.10123   0.0075  1.0000  0.0456  -1.9477   0.0000   0.0000   0.0000   0.2604
  -9.000  -0.5141   0.10311   0.09972   0.0066  1.0000  0.0462  -1.9614   0.0000   0.0000   0.0000   0.2587
  -8.900  -0.5130   0.10157   0.09819   0.0056  1.0000  0.0469  -1.9765   0.0000   0.0000   0.0000   0.2569
  -8.800  -0.5121   0.10002   0.09666   0.0045  1.0000  0.0475  -1.9935   0.0000   0.0000   0.0000   0.2549
  -8.700  -0.5113   0.09847   0.09513   0.0034  1.0000  0.0482  -2.0124   0.0000   0.0000   0.0000   0.2527
  -8.600  -0.5106   0.09692   0.09359   0.0022  1.0000  0.0489  -2.0335   0.0000   0.0000   0.0000   0.2504
  -8.500  -0.5101   0.09538   0.09207   0.0008  1.0000  0.0496  -2.0576   0.0000   0.0000   0.0000   0.2478
  -8.400  -0.5098   0.09386   0.09058  -0.0007  1.0000  0.0504  -2.0851   0.0000   0.0000   0.0000   0.2449
  -8.300  -0.5094   0.09238   0.08912  -0.0025  1.0000  0.0512  -2.1158   0.0000   0.0000   0.0000   0.2415
  -8.200  -0.5092   0.09095   0.08772  -0.0046  1.0000  0.0520  -2.1519   0.0000   0.0000   0.0000   0.2373
  -8.100  -0.5092   0.08961   0.08641  -0.0072  1.0000  0.0527  -2.1899   0.0000   0.0000   0.0000   0.2324
  -8.000  -0.5084   0.08839   0.08521  -0.0099  1.0000  0.0534  -2.2210   0.0000   0.0000   0.0000   0.2271
  -7.900  -0.5081   0.08697   0.08381  -0.0125  1.0000  0.0537  -2.2522   0.0000   0.0000   0.0000   0.2222
  -7.800  -0.5072   0.08549   0.08232  -0.0146  1.0000  0.0540  -2.2824   0.0000   0.0000   0.0000   0.2181
  -7.700  -0.5053   0.08386   0.08067  -0.0166  1.0000  0.0542  -2.3119   0.0000   0.0000   0.0000   0.2140
  -7.600  -0.5034   0.08219   0.07898  -0.0183  1.0000  0.0543  -2.3400   0.0000   0.0000   0.0000   0.2105
  -7.500  -0.5014   0.08049   0.07726  -0.0198  1.0000  0.0544  -2.3667   0.0000   0.0000   0.0000   0.2074
  -7.400  -0.4992   0.07879   0.07552  -0.0212  1.0000  0.0545  -2.3919   0.0000   0.0000   0.0000   0.2045
  -7.300  -0.4968   0.07707   0.07377  -0.0224  1.0000  0.0546  -2.4156   0.0000   0.0000   0.0000   0.2019
  -7.200  -0.4941   0.07534   0.07200  -0.0235  1.0000  0.0547  -2.4378   0.0000   0.0000   0.0000   0.1994
  -6.900  -0.5007   0.06492   0.06150  -0.0281  1.0000  0.0562  -2.6332   0.0000   0.0000   0.0000   0.1909
  -6.800  -0.5010   0.06170   0.05829  -0.0290  1.0000  0.0573  -2.6527   0.0000   0.0000   0.0000   0.1892
  -6.700  -0.4975   0.05964   0.05624  -0.0295  1.0000  0.0582  -2.6362   0.0000   0.0000   0.0000   0.1879
  -6.600  -0.4917   0.05812   0.05474  -0.0297  1.0000  0.0590  -2.5982   0.0000   0.0000   0.0000   0.1868
  -6.500  -0.4859   0.05669   0.05333  -0.0300  1.0000  0.0599  -2.5668   0.0000   0.0000   0.0000   0.1855
  -6.400  -0.4801   0.05529   0.05192  -0.0304  1.0000  0.0607  -2.5420   0.0000   0.0000   0.0000   0.1840
  -6.300  -0.4746   0.05389   0.05050  -0.0309  1.0000  0.0616  -2.5237   0.0000   0.0000   0.0000   0.1823
  -6.200  -0.4698   0.05254   0.04913  -0.0312  1.0000  0.0624  -2.5113   0.0000   0.0000   0.0000   0.1808
  -6.100  -0.4679   0.05143   0.04800  -0.0311  1.0000  0.0631  -2.5058   0.0000   0.0000   0.0000   0.1809
  -6.000  -0.4615   0.04997   0.04647  -0.0319  0.9942  0.0640  -2.4977   0.0000   0.0000   0.0000   0.1782
  -5.900  -0.4486   0.04796   0.04437  -0.0339  0.9877  0.0653  -2.4883   0.0000   0.0000   0.0000   0.1717
  -5.600  -0.4065   0.03670   0.03195  -0.0377  0.9705  0.0325  -3.1257   0.0000   0.0000   0.0000   0.1540
  -5.500  -0.3999   0.03392   0.02895  -0.0380  0.9635  0.0312  -3.1898   0.0000   0.0000   0.0000   0.1515
  -5.400  -0.3908   0.03183   0.02665  -0.0383  0.9574  0.0302  -3.2267   0.0000   0.0000   0.0000   0.1485
  -5.300  -0.3805   0.02996   0.02455  -0.0385  0.9523  0.0294  -3.2553   0.0000   0.0000   0.0000   0.1452
  -5.200  -0.3696   0.02828   0.02262  -0.0387  0.9480  0.0287  -3.2775   0.0000   0.0000   0.0000   0.1417
  -5.100  -0.3616   0.02697   0.02111  -0.0382  0.9418  0.0282  -3.2921   0.0000   0.0000   0.0000   0.1409
  -5.000  -0.3530   0.02573   0.01966  -0.0376  0.9362  0.0278  -3.3014   0.0000   0.0000   0.0000   0.1396
  -4.900  -0.3436   0.02455   0.01815  -0.0372  0.9313  0.0275  -3.3072   0.0000   0.0000   0.0000   0.1381
  -4.800  -0.3340   0.02354   0.01694  -0.0367  0.9269  0.0275  -3.2979   0.0000   0.0000   0.0000   0.1364
  -4.700  -0.3241   0.02274   0.01598  -0.0362  0.9229  0.0281  -3.2662   0.0000   0.0000   0.0000   0.1344
  -4.600  -0.3142   0.02209   0.01519  -0.0358  0.9191  0.0290  -3.2221   0.0000   0.0000   0.0000   0.1322
  -4.500  -0.3046   0.02148   0.01447  -0.0354  0.9148  0.0300  -3.1760   0.0000   0.0000   0.0000   0.1300
  -4.400  -0.2948   0.02087   0.01374  -0.0349  0.9106  0.0310  -3.1330   0.0000   0.0000   0.0000   0.1276
  -4.300  -0.2850   0.02022   0.01297  -0.0344  0.9064  0.0317  -3.0966   0.0000   0.0000   0.0000   0.1252
  -4.200  -0.2751   0.01955   0.01218  -0.0339  0.9025  0.0322  -3.0649   0.0000   0.0000   0.0000   0.1227
  -4.100  -0.2653   0.01897   0.01149  -0.0334  0.8988  0.0329  -3.0276   0.0000   0.0000   0.0000   0.1203
  -4.000  -0.2556   0.01854   0.01096  -0.0328  0.8954  0.0336  -2.9802   0.0000   0.0000   0.0000   0.1177
  -3.900  -0.2476   0.01727   0.00960  -0.0319  0.8922  0.0355  -3.0045   0.0000   0.0000   0.0000   0.1171
  -3.800  -0.2401   0.01637   0.00865  -0.0309  0.8890  0.0391  -3.0089   0.0000   0.0000   0.0000   0.1171
  -3.700  -0.2312   0.01607   0.00837  -0.0304  0.8859  0.0460  -2.9457   0.0000   0.0000   0.0000   0.1142
  -3.600  -0.2208   0.01577   0.00804  -0.0302  0.8830  0.0558  -2.9268   0.0000   0.0000   0.0000   0.1092
  -3.500  -0.2140   0.01471   0.00715  -0.0293  0.8798  0.0911  -3.0038   0.0000   0.0000   0.0000   0.1091
  -3.400  -0.2055   0.01431   0.00699  -0.0290  0.8764  0.1330  -2.9346   0.0000   0.0000   0.0000   0.1049
  -3.300  -0.1969   0.01396   0.00674  -0.0285  0.8728  0.1647  -2.8518   0.0000   0.0000   0.0000   0.1011
  -3.200  -0.1882   0.01370   0.00656  -0.0280  0.8692  0.1963  -2.7524   0.0000   0.0000   0.0000   0.0968
  -3.100  -0.1798   0.01344   0.00643  -0.0275  0.8657  0.2326  -2.6478   0.0000   0.0000   0.0000   0.0927
  -2.900  -0.1646   0.01284   0.00617  -0.0262  0.8590  0.3216  -2.4431   0.0000   0.0000   0.0000   0.0868
  -2.800  -0.1578   0.01253   0.00608  -0.0253  0.8560  0.3777  -2.3431   0.0000   0.0000   0.0000   0.0854
  -2.700  -0.1521   0.01216   0.00603  -0.0242  0.8532  0.4520  -2.2483   0.0000   0.0000   0.0000   0.0866
  -2.600  -0.1471   0.01181   0.00605  -0.0229  0.8504  0.5441  -2.1566   0.0000   0.0000   0.0000   0.0901
  -2.500  -0.1413   0.01139   0.00609  -0.0215  0.8481  0.6554  -2.0600   0.0000   0.0000   0.0000   0.0935
  -2.400  -0.1203   0.01094   0.00614  -0.0225  0.8469  0.8126  -1.8753   0.0000   0.0000   0.0000   0.0580
  -2.300  -0.0688   0.01092   0.00612  -0.0295  0.8470  0.9127  -1.5306   0.0000   0.0000   0.0000  -0.1866
  -2.200  -0.0422   0.01102   0.00612  -0.0321  0.8453  0.9437  -1.3331   0.0000   0.0000   0.0000  -0.5222
  -2.100  -0.0196   0.01110   0.00604  -0.0341  0.8431  0.9634  -1.1647   0.0000   0.0000   0.0000  -1.5164
  -2.000   0.0045   0.01114   0.00597  -0.0366  0.8408  0.9782  -0.9924   0.0000   0.0000   0.0000   8.4857
  -1.900   0.0341   0.01112   0.00582  -0.0403  0.8387  0.9920  -0.8007   0.0000   0.0000   0.0000   1.4421
  -1.800   0.0588   0.01104   0.00563  -0.0432  0.8364  1.0000  -0.6403   0.0000   0.0000   0.0000   0.9905
  -1.700   0.0682   0.01104   0.00557  -0.0430  0.8331  1.0000  -0.5604   0.0000   0.0000   0.0000   0.8856
  -1.600   0.0774   0.01104   0.00551  -0.0427  0.8297  1.0000  -0.5327   0.0000   0.0000   0.0000   0.8064
  -1.500   0.0864   0.01104   0.00545  -0.0424  0.8264  1.0000  -0.5054   0.0000   0.0000   0.0000   0.7443
  -1.400   0.0951   0.01105   0.00539  -0.0420  0.8230  1.0000  -0.4787   0.0000   0.0000   0.0000   0.6941
  -1.300   0.1037   0.01106   0.00531  -0.0415  0.8198  1.0000  -0.4523   0.0000   0.0000   0.0000   0.6523
  -1.200   0.1122   0.01108   0.00527  -0.0409  0.8165  1.0000  -0.4262   0.0000   0.0000   0.0000   0.6169
  -1.100   0.1208   0.01112   0.00525  -0.0404  0.8134  1.0000  -0.4078   0.0000   0.0000   0.0000   0.5864
  -1.000   0.1296   0.01122   0.00528  -0.0400  0.8100  1.0000  -0.4145   0.0000   0.0000   0.0000   0.5600
  -0.900   0.1393   0.01131   0.00532  -0.0398  0.8072  1.0000  -0.4216   0.0000   0.0000   0.0000   0.5370
  -0.800   0.1497   0.01131   0.00529  -0.0398  0.8049  1.0000  -0.4291   0.0000   0.0000   0.0000   0.5169
  -0.700   0.1600   0.01132   0.00527  -0.0398  0.8022  1.0000  -0.4365   0.0000   0.0000   0.0000   0.4994
  -0.600   0.1701   0.01134   0.00525  -0.0397  0.7992  1.0000  -0.4447   0.0000   0.0000   0.0000   0.4839
  -0.500   0.1801   0.01135   0.00524  -0.0396  0.7960  1.0000  -0.4530   0.0000   0.0000   0.0000   0.4700
  -0.400   0.1898   0.01137   0.00522  -0.0393  0.7926  1.0000  -0.4613   0.0000   0.0000   0.0000   0.4574
  -0.300   0.1993   0.01139   0.00520  -0.0390  0.7891  1.0000  -0.4696   0.0000   0.0000   0.0000   0.4459
  -0.200   0.2087   0.01141   0.00518  -0.0387  0.7858  1.0000  -0.4779   0.0000   0.0000   0.0000   0.4353
  -0.100   0.2181   0.01143   0.00516  -0.0383  0.7826  1.0000  -0.4861   0.0000   0.0000   0.0000   0.4255
   0.000   0.2274   0.01146   0.00515  -0.0380  0.7797  1.0000  -0.4944   0.0000   0.0000   0.0000   0.4165
   0.100   0.2368   0.01149   0.00515  -0.0376  0.7770  1.0000  -0.5027   0.0000   0.0000   0.0000   0.4082
   0.200   0.2460   0.01153   0.00515  -0.0371  0.7742  1.0000  -0.5109   0.0000   0.0000   0.0000   0.4004
   0.300   0.2550   0.01158   0.00517  -0.0367  0.7714  1.0000  -0.5191   0.0000   0.0000   0.0000   0.3931
   0.400   0.2640   0.01167   0.00521  -0.0362  0.7682  1.0000  -0.5273   0.0000   0.0000   0.0000   0.3863
   0.500   0.2731   0.01186   0.00537  -0.0358  0.7643  1.0000  -0.5360   0.0000   0.0000   0.0000   0.3802
   0.600   0.2834   0.01187   0.00537  -0.0357  0.7618  1.0000  -0.5461   0.0000   0.0000   0.0000   0.3751
   0.700   0.2937   0.01188   0.00537  -0.0356  0.7589  1.0000  -0.5562   0.0000   0.0000   0.0000   0.3702
   0.800   0.3039   0.01189   0.00538  -0.0355  0.7556  1.0000  -0.5663   0.0000   0.0000   0.0000   0.3657
   0.900   0.3140   0.01191   0.00540  -0.0353  0.7521  1.0000  -0.5763   0.0000   0.0000   0.0000   0.3613
   1.000   0.3239   0.01194   0.00541  -0.0351  0.7486  1.0000  -0.5863   0.0000   0.0000   0.0000   0.3571
   1.100   0.3338   0.01197   0.00544  -0.0349  0.7453  1.0000  -0.5962   0.0000   0.0000   0.0000   0.3531
   1.200   0.3436   0.01200   0.00546  -0.0346  0.7420  1.0000  -0.6062   0.0000   0.0000   0.0000   0.3492
   1.300   0.3532   0.01202   0.00547  -0.0342  0.7386  1.0000  -0.6162   0.0000   0.0000   0.0000   0.3454
   1.400   0.3627   0.01203   0.00546  -0.0338  0.7352  1.0000  -0.6266   0.0000   0.0000   0.0000   0.3416
   1.500   0.3719   0.01204   0.00545  -0.0333  0.7318  1.0000  -0.6381   0.0000   0.0000   0.0000   0.3379
   1.600   0.3811   0.01205   0.00544  -0.0327  0.7284  1.0000  -0.6495   0.0000   0.0000   0.0000   0.3342
   1.700   0.3902   0.01209   0.00545  -0.0322  0.7248  1.0000  -0.6610   0.0000   0.0000   0.0000   0.3307
   1.800   0.3992   0.01220   0.00554  -0.0316  0.7209  1.0000  -0.6723   0.0000   0.0000   0.0000   0.3275
   1.900   0.4088   0.01237   0.00570  -0.0313  0.7168  1.0000  -0.6838   0.0000   0.0000   0.0000   0.3248
   2.000   0.4192   0.01236   0.00571  -0.0312  0.7139  1.0000  -0.6959   0.0000   0.0000   0.0000   0.3226
   2.100   0.4295   0.01237   0.00575  -0.0311  0.7105  1.0000  -0.7098   0.0000   0.0000   0.0000   0.3205
   2.200   0.4397   0.01239   0.00579  -0.0310  0.7069  1.0000  -0.7239   0.0000   0.0000   0.0000   0.3184
   2.300   0.4498   0.01242   0.00583  -0.0307  0.7030  1.0000  -0.7379   0.0000   0.0000   0.0000   0.3163
   2.400   0.4597   0.01243   0.00585  -0.0305  0.6988  1.0000  -0.7520   0.0000   0.0000   0.0000   0.3141
   2.500   0.4694   0.01243   0.00587  -0.0301  0.6946  1.0000  -0.7661   0.0000   0.0000   0.0000   0.3118
   2.600   0.4790   0.01241   0.00585  -0.0296  0.6903  1.0000  -0.7821   0.0000   0.0000   0.0000   0.3096
   2.700   0.4885   0.01239   0.00582  -0.0291  0.6861  1.0000  -0.7988   0.0000   0.0000   0.0000   0.3072
   2.800   0.4979   0.01237   0.00579  -0.0286  0.6820  1.0000  -0.8155   0.0000   0.0000   0.0000   0.3049
   2.900   0.5073   0.01237   0.00578  -0.0280  0.6779  1.0000  -0.8322   0.0000   0.0000   0.0000   0.3027
   3.000   0.5166   0.01246   0.00584  -0.0275  0.6733  1.0000  -0.8488   0.0000   0.0000   0.0000   0.3006
   3.100   0.5263   0.01262   0.00600  -0.0272  0.6686  1.0000  -0.8655   0.0000   0.0000   0.0000   0.2990
   3.200   0.5367   0.01261   0.00603  -0.0271  0.6651  1.0000  -0.8859   0.0000   0.0000   0.0000   0.2977
   3.300   0.5469   0.01260   0.00607  -0.0269  0.6606  1.0000  -0.9068   0.0000   0.0000   0.0000   0.2964
   3.400   0.5569   0.01259   0.00609  -0.0266  0.6555  1.0000  -0.9278   0.0000   0.0000   0.0000   0.2949
   3.500   0.5669   0.01256   0.00612  -0.0263  0.6500  1.0000  -0.9488   0.0000   0.0000   0.0000   0.2934
   3.600   0.5767   0.01253   0.00610  -0.0259  0.6446  1.0000  -0.9721   0.0000   0.0000   0.0000   0.2918
   3.700   0.5865   0.01248   0.00606  -0.0254  0.6393  1.0000  -0.9983   0.0000   0.0000   0.0000   0.2902
   3.800   0.5962   0.01244   0.00601  -0.0249  0.6342  1.0000  -1.0247   0.0000   0.0000   0.0000   0.2886
   3.900   0.6058   0.01243   0.00598  -0.0243  0.6291  1.0000  -1.0563   0.0000   0.0000   0.0000   0.2869
   4.000   0.6153   0.01251   0.00603  -0.0238  0.6232  1.0000  -1.0918   0.0000   0.0000   0.0000   0.2854
   4.100   0.6253   0.01256   0.00612  -0.0236  0.6177  1.0000  -1.1398   0.0000   0.0000   0.0000   0.2843
   4.200   0.6355   0.01252   0.00615  -0.0234  0.6119  1.0000  -1.1890   0.0000   0.0000   0.0000   0.2833
   4.300   0.6456   0.01249   0.00617  -0.0231  0.6051  1.0000  -1.2469   0.0000   0.0000   0.0000   0.2822
   4.400   0.6556   0.01245   0.00616  -0.0227  0.5980  1.0000  -1.3623   0.0000   0.0000   0.0000   0.2810
   4.500   0.6655   0.01239   0.00615  -0.0223  0.5909  1.0000  -1.4792   0.0000   0.0000   0.0000   0.2798
   4.600   0.6753   0.01235   0.00609  -0.0218  0.5841  1.0000  -1.5995   0.0000   0.0000   0.0000   0.2785
   4.700   0.6850   0.01234   0.00604  -0.0213  0.5769  1.0000  -1.7219   0.0000   0.0000   0.0000   0.2771
   4.800   0.6948   0.01239   0.00610  -0.0209  0.5692  1.0000  -1.8463   0.0000   0.0000   0.0000   0.2761
   4.900   0.7050   0.01238   0.00617  -0.0207  0.5615  1.0000  -1.9748   0.0000   0.0000   0.0000   0.2753
   5.000   0.7151   0.01236   0.00622  -0.0204  0.5523  1.0000  -2.1055   0.0000   0.0000   0.0000   0.2744
   5.100   0.7250   0.01234   0.00622  -0.0200  0.5428  1.0000  -2.2384   0.0000   0.0000   0.0000   0.2734
   5.200   0.7347   0.01232   0.00617  -0.0195  0.5331  1.0000  -2.3730   0.0000   0.0000   0.0000   0.2722
   5.300   0.7441   0.01237   0.00614  -0.0190  0.5228  1.0000  -2.5083   0.0000   0.0000   0.0000   0.2711
   5.400   0.7542   0.01240   0.00627  -0.0188  0.5129  1.0000  -2.6474   0.0000   0.0000   0.0000   0.2704
   5.500   0.7640   0.01243   0.00641  -0.0185  0.5009  1.0000  -2.7896   0.0000   0.0000   0.0000   0.2696
   5.600   0.7735   0.01247   0.00642  -0.0180  0.4884  1.0000  -2.9323   0.0000   0.0000   0.0000   0.2686
   5.700   0.7825   0.01258   0.00642  -0.0175  0.4745  1.0000  -3.0731   0.0000   0.0000   0.0000   0.2675
   5.800   0.7923   0.01265   0.00657  -0.0172  0.4615  1.0000  -3.2185   0.0000   0.0000   0.0000   0.2668
   5.900   0.8015   0.01276   0.00666  -0.0169  0.4461  1.0000  -3.3633   0.0000   0.0000   0.0000   0.2660
   6.000   0.8100   0.01294   0.00671  -0.0163  0.4291  1.0000  -3.5051   0.0000   0.0000   0.0000   0.2650
   6.100   0.8193   0.01307   0.00688  -0.0160  0.4129  1.0000  -3.6520   0.0000   0.0000   0.0000   0.2643
   6.200   0.8279   0.01324   0.00701  -0.0156  0.3936  1.0000  -3.7968   0.0000   0.0000   0.0000   0.2634
   6.300   0.8360   0.01351   0.00716  -0.0151  0.3739  1.0000  -3.9378   0.0000   0.0000   0.0000   0.2626
   6.400   0.8450   0.01367   0.00734  -0.0148  0.3543  1.0000  -4.0854   0.0000   0.0000   0.0000   0.2619
   6.500   0.8522   0.01401   0.00753  -0.0142  0.3312  1.0000  -4.2214   0.0000   0.0000   0.0000   0.2610
   6.600   0.8606   0.01425   0.00773  -0.0139  0.3049  1.0000  -4.3647   0.0000   0.0000   0.0000   0.2603
   6.700   0.8675   0.01464   0.00797  -0.0134  0.2735  1.0000  -4.4959   0.0000   0.0000   0.0000   0.2595
   6.800   0.8738   0.01512   0.00826  -0.0129  0.2402  1.0000  -4.6189   0.0000   0.0000   0.0000   0.2587
   6.900   0.8797   0.01567   0.00861  -0.0123  0.2008  1.0000  -4.7314   0.0000   0.0000   0.0000   0.2578
   7.000   0.8828   0.01659   0.00915  -0.0116  0.1392  1.0000  -4.8054   0.0000   0.0000   0.0000   0.2569
   7.100   0.8806   0.01831   0.01027  -0.0102  0.0725  1.0000  -4.7700   0.0000   0.0000   0.0000   0.2552
   7.200   0.8820   0.01954   0.01137  -0.0089  0.0533  1.0000  -4.7416   0.0000   0.0000   0.0000   0.2536
   7.300   0.8878   0.02015   0.01202  -0.0081  0.0451  1.0000  -4.7830   0.0000   0.0000   0.0000   0.2526
   7.400   0.8931   0.02079   0.01268  -0.0074  0.0396  1.0000  -4.8258   0.0000   0.0000   0.0000   0.2515
   7.500   0.8962   0.02170   0.01359  -0.0063  0.0358  1.0000  -4.8328   0.0000   0.0000   0.0000   0.2502
   7.600   0.8961   0.02313   0.01507  -0.0048  0.0325  1.0000  -4.7840   0.0000   0.0000   0.0000   0.2485
   7.700   0.9031   0.02360   0.01557  -0.0042  0.0304  1.0000  -4.8404   0.0000   0.0000   0.0000   0.2476
   7.800   0.9100   0.02408   0.01610  -0.0036  0.0283  1.0000  -4.8925   0.0000   0.0000   0.0000   0.2468
   7.900   0.9160   0.02481   0.01689  -0.0028  0.0268  1.0000  -4.9315   0.0000   0.0000   0.0000   0.2457
   8.000   0.9222   0.02559   0.01772  -0.0020  0.0257  1.0000  -4.9808   0.0000   0.0000   0.0000   0.2447
   8.100   0.9286   0.02641   0.01859  -0.0012  0.0247  1.0000  -5.0313   0.0000   0.0000   0.0000   0.2438
   8.200   0.9353   0.02726   0.01950  -0.0005  0.0239  1.0000  -5.0826   0.0000   0.0000   0.0000   0.2429
   8.300   0.9422   0.02816   0.02046   0.0002  0.0232  1.0000  -5.1334   0.0000   0.0000   0.0000   0.2421
   8.400   0.9493   0.02912   0.02149   0.0009  0.0227  1.0000  -5.1829   0.0000   0.0000   0.0000   0.2413
   8.500   0.9562   0.03007   0.02251   0.0015  0.0222  1.0000  -5.2385   0.0000   0.0000   0.0000   0.2405
   8.600   0.9627   0.03099   0.02349   0.0021  0.0216  1.0000  -5.3037   0.0000   0.0000   0.0000   0.2398
   8.700   0.9688   0.03191   0.02447   0.0027  0.0208  1.0000  -5.3768   0.0000   0.0000   0.0000   0.2391
   8.800   0.9744   0.03296   0.02558   0.0032  0.0201  1.0000  -5.4467   0.0000   0.0000   0.0000   0.2385
   8.900   0.9795   0.03427   0.02697   0.0038  0.0194  1.0000  -5.4969   0.0000   0.0000   0.0000   0.2378
   9.000   0.9839   0.03582   0.02864   0.0044  0.0188  1.0000  -5.5229   0.0000   0.0000   0.0000   0.2371
   9.100   0.9875   0.03748   0.03043   0.0051  0.0185  1.0000  -5.5344   0.0000   0.0000   0.0000   0.2363
   9.200   0.9907   0.03907   0.03217   0.0058  0.0183  1.0000  -5.5439   0.0000   0.0000   0.0000   0.2355
   9.300   0.9939   0.04048   0.03372   0.0065  0.0182  1.0000  -5.5613   0.0000   0.0000   0.0000   0.2347
   9.400   0.9972   0.04172   0.03508   0.0072  0.0183  1.0000  -5.5863   0.0000   0.0000   0.0000   0.2339
   9.500   1.0000   0.04291   0.03640   0.0080  0.0184  1.0000  -5.6118   0.0000   0.0000   0.0000   0.2331
   9.600   1.0025   0.04407   0.03768   0.0087  0.0185  1.0000  -5.6367   0.0000   0.0000   0.0000   0.2322
   9.700   1.0045   0.04520   0.03893   0.0095  0.0186  1.0000  -5.6598   0.0000   0.0000   0.0000   0.2314
   9.800   1.0060   0.04630   0.04016   0.0103  0.0187  1.0000  -5.6798   0.0000   0.0000   0.0000   0.2305
   9.900   1.0069   0.04741   0.04138   0.0111  0.0189  1.0000  -5.6947   0.0000   0.0000   0.0000   0.2296
  10.000   1.0070   0.04852   0.04262   0.0119  0.0191  1.0000  -5.7017   0.0000   0.0000   0.0000   0.2287
  10.100   1.0060   0.04967   0.04390   0.0128  0.0193  1.0000  -5.6977   0.0000   0.0000   0.0000   0.2277
  10.200   1.0032   0.05082   0.04518   0.0139  0.0196  1.0000  -5.6801   0.0000   0.0000   0.0000   0.2265
  10.300   0.9989   0.05203   0.04652   0.0150  0.0199  1.0000  -5.6494   0.0000   0.0000   0.0000   0.2252
  10.400   0.9936   0.05336   0.04798   0.0159  0.0202  1.0000  -5.6068   0.0000   0.0000   0.0000   0.2240
  10.500   0.9879   0.05486   0.04962   0.0167  0.0206  1.0000  -5.5529   0.0000   0.0000   0.0000   0.2230
  10.600   0.9815   0.05649   0.05136   0.0173  0.0210  1.0000  -5.4941   0.0000   0.0000   0.0000   0.2222
  10.700   0.9747   0.05818   0.05317   0.0176  0.0213  1.0000  -5.4371   0.0000   0.0000   0.0000   0.2216
  10.800   0.9665   0.05989   0.05499   0.0178  0.0216  1.0000  -5.3789   0.0000   0.0000   0.0000   0.2212
  10.900   0.9581   0.06167   0.05687   0.0177  0.0218  1.0000  -5.3226   0.0000   0.0000   0.0000   0.2209
  11.000   0.9498   0.06353   0.05883   0.0174  0.0220  1.0000  -5.2687   0.0000   0.0000   0.0000   0.2209
  11.100   0.9416   0.06548   0.06087   0.0170  0.0222  1.0000  -5.2154   0.0000   0.0000   0.0000   0.2211
  11.200   0.9332   0.06748   0.06295   0.0163  0.0224  1.0000  -5.1649   0.0000   0.0000   0.0000   0.2215
  11.300   0.9250   0.06955   0.06510   0.0155  0.0226  1.0000  -5.1141   0.0000   0.0000   0.0000   0.2221
  11.400   0.9166   0.07172   0.06734   0.0145  0.0227  1.0000  -5.0644   0.0000   0.0000   0.0000   0.2229
  11.500   0.9084   0.07401   0.06970   0.0134  0.0228  1.0000  -5.0121   0.0000   0.0000   0.0000   0.2238
  11.600   0.9001   0.07641   0.07216   0.0120  0.0229  1.0000  -4.9598   0.0000   0.0000   0.0000   0.2251
  11.700   0.8919   0.07894   0.07476   0.0105  0.0230  1.0000  -4.9038   0.0000   0.0000   0.0000   0.2265
  11.800   0.8836   0.08161   0.07748   0.0088  0.0231  1.0000  -4.8461   0.0000   0.0000   0.0000   0.2282
  11.900   0.8754   0.08443   0.08035   0.0070  0.0231  1.0000  -4.7834   0.0000   0.0000   0.0000   0.2301
  12.000   0.8670   0.08742   0.08339   0.0049  0.0232  1.0000  -4.7166   0.0000   0.0000   0.0000   0.2323
  12.100   0.8587   0.09061   0.08663   0.0026  0.0233  1.0000  -4.6426   0.0000   0.0000   0.0000   0.2348
  12.200   0.8502   0.09397   0.09003   0.0003  0.0234  1.0000  -4.5607   0.0000   0.0000   0.0000   0.2375
  12.300   0.8415   0.09759   0.09368  -0.0023  0.0235  1.0000  -4.4676   0.0000   0.0000   0.0000   0.2405
  12.400   0.8328   0.10156   0.09767  -0.0050  0.0236  1.0000  -4.3585   0.0000   0.0000   0.0000   0.2437
  12.500   0.8240   0.10589   0.10203  -0.0078  0.0238  1.0000  -4.2300   0.0000   0.0000   0.0000   0.2472
  12.600   0.8156   0.11056   0.10671  -0.0107  0.0242  1.0000  -4.0803   0.0000   0.0000   0.0000   0.2508
  12.700   0.8074   0.11566   0.11179  -0.0134  0.0249  1.0000  -3.8984   0.0000   0.0000   0.0000   0.2545
  12.800   0.8011   0.11993   0.11604  -0.0156  0.0258  1.0000  -3.7527   0.0000   0.0000   0.0000   0.2573
  12.900   0.7963   0.12350   0.11960  -0.0173  0.0265  1.0000  -3.6435   0.0000   0.0000   0.0000   0.2596
  13.000   0.7925   0.12671   0.12279  -0.0188  0.0271  1.0000  -3.5544   0.0000   0.0000   0.0000   0.2615
  13.100   0.7893   0.12968   0.12575  -0.0201  0.0278  1.0000  -3.4781   0.0000   0.0000   0.0000   0.2633
  13.200   0.7865   0.13249   0.12855  -0.0214  0.0283  1.0000  -3.4108   0.0000   0.0000   0.0000   0.2649
  13.300   0.7841   0.13519   0.13123  -0.0225  0.0289  1.0000  -3.3501   0.0000   0.0000   0.0000   0.2664
  13.400   0.7818   0.13781   0.13383  -0.0235  0.0295  1.0000  -3.2938   0.0000   0.0000   0.0000   0.2678
  13.500   0.7792   0.14043   0.13644  -0.0244  0.0303  1.0000  -3.2382   0.0000   0.0000   0.0000   0.2690
  14.100   0.7736   0.16258   0.15856  -0.0292  0.0508  1.0000  -2.6435   0.0000   0.0000   0.0000   0.2753
  14.200   0.7742   0.16469   0.16066  -0.0301  0.0508  1.0000  -2.6191   0.0000   0.0000   0.0000   0.2764
  14.300   0.7748   0.16676   0.16272  -0.0311  0.0507  1.0000  -2.5954   0.0000   0.0000   0.0000   0.2775
  14.400   0.7756   0.16878   0.16474  -0.0321  0.0507  1.0000  -2.5725   0.0000   0.0000   0.0000   0.2787
  14.500   0.7764   0.17076   0.16671  -0.0330  0.0507  1.0000  -2.5502   0.0000   0.0000   0.0000   0.2798
  14.600   0.7773   0.17269   0.16863  -0.0340  0.0506  1.0000  -2.5286   0.0000   0.0000   0.0000   0.2809
  14.700   0.7782   0.17455   0.17049  -0.0350  0.0505  1.0000  -2.5075   0.0000   0.0000   0.0000   0.2820
  14.800   0.7793   0.17634   0.17227  -0.0360  0.0504  1.0000  -2.4870   0.0000   0.0000   0.0000   0.2831
  14.900   0.7804   0.17796   0.17388  -0.0370  0.0503  1.0000  -2.4669   0.0000   0.0000   0.0000   0.2843
  15.000   0.7817   0.17931   0.17523  -0.0381  0.0500  1.0000  -2.4467   0.0000   0.0000   0.0000   0.2856
  15.100   0.7831   0.17988   0.17579  -0.0398  0.0490  1.0000  -2.4180   0.0000   0.0000   0.0000   0.2876
  15.200   0.7828   0.18095   0.17684  -0.0419  0.0474  1.0000  -2.3649   0.0000   0.0000   0.0000   0.2902
  15.300   0.7830   0.18244   0.17832  -0.0433  0.0463  1.0000  -2.3299   0.0000   0.0000   0.0000   0.2919
  15.400   0.7836   0.18399   0.17987  -0.0445  0.0454  1.0000  -2.3038   0.0000   0.0000   0.0000   0.2933
  15.500   0.7846   0.18559   0.18145  -0.0455  0.0445  1.0000  -2.2838   0.0000   0.0000   0.0000   0.2944
  15.600   0.7858   0.18720   0.18306  -0.0464  0.0437  1.0000  -2.2682   0.0000   0.0000   0.0000   0.2954
  15.700   0.7872   0.18882   0.18467  -0.0473  0.0429  1.0000  -2.2559   0.0000   0.0000   0.0000   0.2963
  15.800   0.7888   0.19043   0.18628  -0.0481  0.0421  1.0000  -2.2463   0.0000   0.0000   0.0000   0.2971
  15.900   0.7905   0.19204   0.18789  -0.0489  0.0414  1.0000  -2.2391   0.0000   0.0000   0.0000   0.2978
  16.000   0.7924   0.19364   0.18949  -0.0496  0.0407  1.0000  -2.2339   0.0000   0.0000   0.0000   0.2985
  16.100   0.7943   0.19523   0.19108  -0.0503  0.0400  1.0000  -2.2308   0.0000   0.0000   0.0000   0.2991
  16.200   0.7963   0.19682   0.19267  -0.0510  0.0394  1.0000  -2.2298   0.0000   0.0000   0.0000   0.2997
  16.300   0.7984   0.19840   0.19424  -0.0516  0.0387  1.0000  -2.2308   0.0000   0.0000   0.0000   0.3002
  16.400   0.8006   0.19997   0.19581  -0.0522  0.0381  1.0000  -2.2341   0.0000   0.0000   0.0000   0.3007
  16.500   0.8029   0.20153   0.19737  -0.0528  0.0376  1.0000  -2.2399   0.0000   0.0000   0.0000   0.3010
  16.600   0.8054   0.20308   0.19893  -0.0533  0.0370  1.0000  -2.2485   0.0000   0.0000   0.0000   0.3014
  16.700   0.8080   0.20463   0.20048  -0.0538  0.0365  1.0000  -2.2604   0.0000   0.0000   0.0000   0.3016
  16.800   0.8108   0.20618   0.20203  -0.0542  0.0360  1.0000  -2.2762   0.0000   0.0000   0.0000   0.3017
  16.900   0.8138   0.20774   0.20359  -0.0545  0.0355  1.0000  -2.2970   0.0000   0.0000   0.0000   0.3017
  17.000   0.8172   0.20933   0.20519  -0.0547  0.0350  1.0000  -2.3245   0.0000   0.0000   0.0000   0.3015
  17.100   0.8213   0.21100   0.20687  -0.0547  0.0345  1.0000  -2.3621   0.0000   0.0000   0.0000   0.3010
  17.200   0.8254   0.21281   0.20869  -0.0545  0.0340  1.0000  -2.4045   0.0000   0.0000   0.0000   0.3004
  17.300   0.8292   0.21493   0.21082  -0.0543  0.0334  1.0000  -2.4444   0.0000   0.0000   0.0000   0.2997
  17.400   0.8301   0.21819   0.21408  -0.0545  0.0328  1.0000  -2.4408   0.0000   0.0000   0.0000   0.2997
  17.500   0.8255   0.22463   0.22045  -0.0557  0.0320  1.0000  -2.3172   0.0000   0.0000   0.0000   0.3015
  17.600   0.8274   0.22655   0.22237  -0.0565  0.0319  1.0000  -2.3016   0.0000   0.0000   0.0000   0.3022
  17.700   0.8292   0.22845   0.22428  -0.0573  0.0319  1.0000  -2.2862   0.0000   0.0000   0.0000   0.3029
  17.800   0.8311   0.23035   0.22617  -0.0581  0.0319  1.0000  -2.2709   0.0000   0.0000   0.0000   0.3036
  17.900   0.8330   0.23224   0.22806  -0.0589  0.0319  1.0000  -2.2557   0.0000   0.0000   0.0000   0.3043
  18.000   0.8349   0.23411   0.22993  -0.0597  0.0319  1.0000  -2.2406   0.0000   0.0000   0.0000   0.3050
  18.100   0.8367   0.23597   0.23179  -0.0605  0.0318  1.0000  -2.2257   0.0000   0.0000   0.0000   0.3057
  18.200   0.8386   0.23781   0.23362  -0.0614  0.0318  1.0000  -2.2108   0.0000   0.0000   0.0000   0.3064
  18.300   0.8404   0.23963   0.23544  -0.0622  0.0317  1.0000  -2.1961   0.0000   0.0000   0.0000   0.3072
  18.400   0.8423   0.24142   0.23723  -0.0630  0.0317  1.0000  -2.1815   0.0000   0.0000   0.0000   0.3079
  18.500   0.8441   0.24319   0.23900  -0.0639  0.0317  1.0000  -2.1670   0.0000   0.0000   0.0000   0.3086
  18.600   0.8460   0.24492   0.24073  -0.0647  0.0316  1.0000  -2.1526   0.0000   0.0000   0.0000   0.3093
  18.700   0.8478   0.24661   0.24242  -0.0656  0.0315  1.0000  -2.1381   0.0000   0.0000   0.0000   0.3100
  18.800   0.8497   0.24825   0.24406  -0.0664  0.0314  1.0000  -2.1237   0.0000   0.0000   0.0000   0.3107
  18.900   0.8515   0.24981   0.24562  -0.0673  0.0313  1.0000  -2.1090   0.0000   0.0000   0.0000   0.3115
  19.000   0.8531   0.25128   0.24708  -0.0683  0.0312  1.0000  -2.0914   0.0000   0.0000   0.0000   0.3124
  19.100   0.8542   0.25262   0.24842  -0.0694  0.0310  1.0000  -2.0680   0.0000   0.0000   0.0000   0.3134
  19.200   0.8549   0.25385   0.24965  -0.0707  0.0308  1.0000  -2.0395   0.0000   0.0000   0.0000   0.3147
  19.300   0.8557   0.25509   0.25088  -0.0720  0.0305  1.0000  -2.0093   0.0000   0.0000   0.0000   0.3160
  19.400   0.8569   0.25643   0.25222  -0.0732  0.0300  1.0000  -1.9787   0.0000   0.0000   0.0000   0.3172
  19.500   0.8584   0.25797   0.25388  -0.0744  0.0295  1.0000  -1.9498   0.0000   0.0000   0.0000   0.3184
  19.600   0.8601   0.25968   0.25559  -0.0755  0.0290  1.0000  -1.9264   0.0000   0.0000   0.0000   0.3193
  19.700   0.8619   0.26151   0.25742  -0.0764  0.0284  1.0000  -1.9075   0.0000   0.0000   0.0000   0.3201
  19.800   0.8638   0.26339   0.25931  -0.0773  0.0279  1.0000  -1.8921   0.0000   0.0000   0.0000   0.3207
  19.900   0.8656   0.26531   0.26122  -0.0781  0.0274  1.0000  -1.8790   0.0000   0.0000   0.0000   0.3214
  20.000   0.8675   0.26724   0.26316  -0.0789  0.0269  1.0000  -1.8678   0.0000   0.0000   0.0000   0.3219
  20.100   0.8693   0.26917   0.26510  -0.0796  0.0264  1.0000  -1.8580   0.0000   0.0000   0.0000   0.3225
  20.200   0.8711   0.27112   0.26705  -0.0803  0.0259  1.0000  -1.8495   0.0000   0.0000   0.0000   0.3230
  20.300   0.8728   0.27306   0.26899  -0.0811  0.0255  1.0000  -1.8421   0.0000   0.0000   0.0000   0.3235
  20.400   0.8746   0.27501   0.27094  -0.0818  0.0250  1.0000  -1.8357   0.0000   0.0000   0.0000   0.3240
  20.500   0.8763   0.27696   0.27289  -0.0825  0.0246  1.0000  -1.8302   0.0000   0.0000   0.0000   0.3244
  20.600   0.8780   0.27890   0.27484  -0.0831  0.0241  1.0000  -1.8257   0.0000   0.0000   0.0000   0.3249
  20.700   0.8797   0.28084   0.27679  -0.0838  0.0237  1.0000  -1.8221   0.0000   0.0000   0.0000   0.3253
  20.800   0.8814   0.28278   0.27873  -0.0845  0.0233  1.0000  -1.8195   0.0000   0.0000   0.0000   0.3257
  20.900   0.8831   0.28471   0.28066  -0.0851  0.0229  1.0000  -1.8179   0.0000   0.0000   0.0000   0.3262
  21.000   0.8847   0.28664   0.28260  -0.0857  0.0225  1.0000  -1.8172   0.0000   0.0000   0.0000   0.3265
  21.100   0.8863   0.28856   0.28452  -0.0864  0.0222  1.0000  -1.8177   0.0000   0.0000   0.0000   0.3269
  21.200   0.8879   0.29047   0.28644  -0.0870  0.0218  1.0000  -1.8194   0.0000   0.0000   0.0000   0.3273
  21.300   0.8894   0.29238   0.28836  -0.0876  0.0215  1.0000  -1.8223   0.0000   0.0000   0.0000   0.3276
  21.400   0.8910   0.29428   0.29027  -0.0881  0.0211  1.0000  -1.8265   0.0000   0.0000   0.0000   0.3279
  21.500   0.8925   0.29618   0.29217  -0.0887  0.0208  1.0000  -1.8322   0.0000   0.0000   0.0000   0.3282
  21.600   0.8940   0.29808   0.29407  -0.0892  0.0205  1.0000  -1.8395   0.0000   0.0000   0.0000   0.3285
  21.700   0.8954   0.29997   0.29597  -0.0897  0.0202  1.0000  -1.8484   0.0000   0.0000   0.0000   0.3288
  21.800   0.8969   0.30186   0.29788  -0.0902  0.0199  1.0000  -1.8592   0.0000   0.0000   0.0000   0.3290
  21.900   0.8983   0.30377   0.29979  -0.0906  0.0196  1.0000  -1.8719   0.0000   0.0000   0.0000   0.3291
  22.000   0.8997   0.30569   0.30172  -0.0910  0.0194  1.0000  -1.8868   0.0000   0.0000   0.0000   0.3292
  22.100   0.9011   0.30765   0.30369  -0.0913  0.0191  1.0000  -1.9038   0.0000   0.0000   0.0000   0.3293
  22.200   0.9026   0.30967   0.30572  -0.0916  0.0189  1.0000  -1.9234   0.0000   0.0000   0.0000   0.3293
  22.300   0.9040   0.31178   0.30785  -0.0918  0.0186  1.0000  -1.9455   0.0000   0.0000   0.0000   0.3292
  22.400   0.9056   0.31408   0.31015  -0.0919  0.0184  1.0000  -1.9698   0.0000   0.0000   0.0000   0.3290
  22.500   0.9075   0.31673   0.31282  -0.0918  0.0182  1.0000  -1.9973   0.0000   0.0000   0.0000   0.3286
  22.600   0.9096   0.32037   0.31648  -0.0915  0.0178  1.0000  -2.0220   0.0000   0.0000   0.0000   0.3279
  22.700   0.9060   0.32763   0.32374  -0.0917  0.0173  1.0000  -1.9171   0.0000   0.0000   0.0000   0.3285
  22.800   0.9060   0.32995   0.32602  -0.0923  0.0173  1.0000  -1.8964   0.0000   0.0000   0.0000   0.3290
  22.900   0.9062   0.33192   0.32799  -0.0928  0.0173  1.0000  -1.8836   0.0000   0.0000   0.0000   0.3295
  23.000   0.9063   0.33386   0.32994  -0.0934  0.0173  1.0000  -1.8707   0.0000   0.0000   0.0000   0.3300
  23.100   0.9063   0.33578   0.33187  -0.0940  0.0173  1.0000  -1.8576   0.0000   0.0000   0.0000   0.3305
  23.200   0.9061   0.33767   0.33376  -0.0945  0.0173  1.0000  -1.8442   0.0000   0.0000   0.0000   0.3309
  23.300   0.9057   0.33952   0.33563  -0.0950  0.0172  1.0000  -1.8306   0.0000   0.0000   0.0000   0.3314
  23.400   0.9051   0.34133   0.33744  -0.0955  0.0172  1.0000  -1.8166   0.0000   0.0000   0.0000   0.3319
  23.500   0.9043   0.34308   0.33921  -0.0959  0.0172  1.0000  -1.8022   0.0000   0.0000   0.0000   0.3324
  23.600   0.9031   0.34475   0.34089  -0.0964  0.0172  1.0000  -1.7869   0.0000   0.0000   0.0000   0.3329
  23.700   0.9015   0.34633   0.34249  -0.0967  0.0172  1.0000  -1.7709   0.0000   0.0000   0.0000   0.3334
  23.800   0.8994   0.34779   0.34396  -0.0971  0.0172  1.0000  -1.7538   0.0000   0.0000   0.0000   0.3339
  23.900   0.8966   0.34907   0.34526  -0.0973  0.0172  1.0000  -1.7351   0.0000   0.0000   0.0000   0.3344


