xflr5 v6.61

 Calculated polar for: MH 20

 1 1 Reynolds number fixed          Mach number fixed         

 xtrf =   1.000 (top)        1.000 (bottom)
 Mach =   0.000     Re =     0.300 e 6     Ncrit =   9.000

  alpha     CL        CD       CDp       Cm    Top Xtr Bot Xtr   Cpmin    Chinge    XCp    
 ------- -------- --------- --------- -------- ------- ------- -------- --------- ---------
 -10.000  -0.5449   0.11324   0.11069   0.0121  1.0000  0.0194  -2.2997   0.0000   0.0000   0.0000   0.2673
  -9.900  -0.5432   0.11168   0.10913   0.0116  1.0000  0.0195  -2.2922   0.0000   0.0000   0.0000   0.2665
  -9.800  -0.5413   0.11018   0.10765   0.0111  1.0000  0.0197  -2.2803   0.0000   0.0000   0.0000   0.2657
  -9.700  -0.5395   0.10871   0.10618   0.0106  1.0000  0.0199  -2.2697   0.0000   0.0000   0.0000   0.2649
  -9.600  -0.5377   0.10724   0.10472   0.0101  1.0000  0.0201  -2.2608   0.0000   0.0000   0.0000   0.2640
  -9.500  -0.5361   0.10577   0.10326   0.0095  1.0000  0.0203  -2.2538   0.0000   0.0000   0.0000   0.2631
  -9.400  -0.5344   0.10432   0.10181   0.0089  1.0000  0.0205  -2.2474   0.0000   0.0000   0.0000   0.2621
  -9.300  -0.5328   0.10287   0.10037   0.0083  1.0000  0.0207  -2.2419   0.0000   0.0000   0.0000   0.2611
  -9.200  -0.5313   0.10140   0.09891   0.0077  1.0000  0.0209  -2.2384   0.0000   0.0000   0.0000   0.2600
  -9.100  -0.5299   0.09991   0.09743   0.0070  1.0000  0.0210  -2.2367   0.0000   0.0000   0.0000   0.2588
  -9.000  -0.5284   0.09840   0.09593   0.0062  1.0000  0.0212  -2.2368   0.0000   0.0000   0.0000   0.2575
  -8.900  -0.5271   0.09688   0.09442   0.0055  1.0000  0.0214  -2.2387   0.0000   0.0000   0.0000   0.2561
  -8.800  -0.5259   0.09534   0.09290   0.0046  1.0000  0.0216  -2.2425   0.0000   0.0000   0.0000   0.2547
  -8.700  -0.5249   0.09379   0.09136   0.0038  1.0000  0.0218  -2.2479   0.0000   0.0000   0.0000   0.2532
  -8.600  -0.5240   0.09223   0.08981   0.0029  1.0000  0.0220  -2.2551   0.0000   0.0000   0.0000   0.2516
  -8.500  -0.5232   0.09065   0.08825   0.0020  1.0000  0.0222  -2.2642   0.0000   0.0000   0.0000   0.2499
  -8.400  -0.5226   0.08906   0.08667   0.0010  1.0000  0.0224  -2.2751   0.0000   0.0000   0.0000   0.2481
  -8.300  -0.5221   0.08744   0.08507  -0.0000  1.0000  0.0225  -2.2877   0.0000   0.0000   0.0000   0.2461
  -8.200  -0.5218   0.08579   0.08343  -0.0012  1.0000  0.0227  -2.3020   0.0000   0.0000   0.0000   0.2440
  -8.100  -0.5216   0.08411   0.08177  -0.0024  1.0000  0.0229  -2.3183   0.0000   0.0000   0.0000   0.2418
  -8.000  -0.5217   0.08241   0.08009  -0.0037  1.0000  0.0230  -2.3368   0.0000   0.0000   0.0000   0.2394
  -7.900  -0.5222   0.08066   0.07836  -0.0052  1.0000  0.0231  -2.3581   0.0000   0.0000   0.0000   0.2366
  -7.800  -0.5230   0.07885   0.07658  -0.0069  1.0000  0.0233  -2.3828   0.0000   0.0000   0.0000   0.2335
  -7.700  -0.5243   0.07698   0.07473  -0.0088  1.0000  0.0233  -2.4111   0.0000   0.0000   0.0000   0.2299
  -7.600  -0.5249   0.07508   0.07283  -0.0107  1.0000  0.0235  -2.4395   0.0000   0.0000   0.0000   0.2264
  -7.500  -0.5239   0.07301   0.07076  -0.0128  1.0000  0.0236  -2.4671   0.0000   0.0000   0.0000   0.2224
  -7.400  -0.5222   0.07089   0.06864  -0.0149  1.0000  0.0238  -2.4946   0.0000   0.0000   0.0000   0.2183
  -7.300  -0.5200   0.06874   0.06648  -0.0170  1.0000  0.0240  -2.5219   0.0000   0.0000   0.0000   0.2143
  -7.200  -0.5172   0.06656   0.06430  -0.0190  1.0000  0.0242  -2.5491   0.0000   0.0000   0.0000   0.2103
  -7.100  -0.5139   0.06437   0.06208  -0.0210  1.0000  0.0244  -2.5760   0.0000   0.0000   0.0000   0.2062
  -7.000  -0.5099   0.06216   0.05985  -0.0229  1.0000  0.0247  -2.6026   0.0000   0.0000   0.0000   0.2022
  -6.900  -0.5040   0.05978   0.05742  -0.0252  0.9797  0.0250  -2.6301   0.0000   0.0000   0.0000   0.1971
  -6.800  -0.4958   0.05722   0.05478  -0.0278  0.9592  0.0254  -2.6587   0.0000   0.0000   0.0000   0.1911
  -6.700  -0.4902   0.05504   0.05251  -0.0292  0.9445  0.0257  -2.6857   0.0000   0.0000   0.0000   0.1875
  -6.600  -0.4872   0.05322   0.05061  -0.0295  0.9314  0.0260  -2.7109   0.0000   0.0000   0.0000   0.1864
  -6.400  -0.4819   0.04984   0.04703  -0.0295  0.9119  0.0266  -2.7595   0.0000   0.0000   0.0000   0.1859
  -6.300  -0.4787   0.04813   0.04522  -0.0293  0.9036  0.0269  -2.7840   0.0000   0.0000   0.0000   0.1857
  -6.200  -0.4755   0.04651   0.04348  -0.0290  0.8961  0.0272  -2.8077   0.0000   0.0000   0.0000   0.1860
  -6.100  -0.4721   0.04493   0.04178  -0.0285  0.8893  0.0274  -2.8305   0.0000   0.0000   0.0000   0.1866
  -6.000  -0.4674   0.04323   0.03996  -0.0283  0.8837  0.0275  -2.8546   0.0000   0.0000   0.0000   0.1864
  -5.900  -0.4619   0.04146   0.03807  -0.0282  0.8786  0.0275  -2.8812   0.0000   0.0000   0.0000   0.1859
  -5.400  -0.4306   0.03069   0.02621  -0.0244  0.8559  0.0165  -3.4887   0.0000   0.0000   0.0000   0.1900
  -5.300  -0.4242   0.02931   0.02464  -0.0237  0.8515  0.0165  -3.5074   0.0000   0.0000   0.0000   0.1907
  -5.200  -0.4165   0.02814   0.02331  -0.0232  0.8479  0.0165  -3.5046   0.0000   0.0000   0.0000   0.1909
  -5.100  -0.4081   0.02696   0.02198  -0.0228  0.8451  0.0166  -3.4988   0.0000   0.0000   0.0000   0.1907
  -5.000  -0.4000   0.02568   0.02053  -0.0223  0.8421  0.0166  -3.5042   0.0000   0.0000   0.0000   0.1907
  -4.900  -0.3919   0.02431   0.01898  -0.0218  0.8390  0.0164  -3.5203   0.0000   0.0000   0.0000   0.1909
  -4.800  -0.3837   0.02293   0.01741  -0.0212  0.8358  0.0162  -3.5413   0.0000   0.0000   0.0000   0.1912
  -4.700  -0.3751   0.02167   0.01595  -0.0207  0.8327  0.0160  -3.5551   0.0000   0.0000   0.0000   0.1914
  -4.600  -0.3660   0.02054   0.01455  -0.0201  0.8296  0.0158  -3.5593   0.0000   0.0000   0.0000   0.1916
  -4.500  -0.3567   0.01955   0.01340  -0.0196  0.8266  0.0157  -3.5486   0.0000   0.0000   0.0000   0.1917
  -4.400  -0.3472   0.01865   0.01235  -0.0190  0.8236  0.0156  -3.5286   0.0000   0.0000   0.0000   0.1917
  -4.300  -0.3375   0.01784   0.01140  -0.0185  0.8206  0.0156  -3.5006   0.0000   0.0000   0.0000   0.1917
  -4.200  -0.3278   0.01711   0.01053  -0.0180  0.8177  0.0157  -3.4652   0.0000   0.0000   0.0000   0.1916
  -4.100  -0.3179   0.01645   0.00975  -0.0175  0.8146  0.0158  -3.4227   0.0000   0.0000   0.0000   0.1913
  -4.000  -0.3080   0.01586   0.00906  -0.0171  0.8113  0.0160  -3.3735   0.0000   0.0000   0.0000   0.1909
  -3.900  -0.2978   0.01535   0.00845  -0.0168  0.8079  0.0163  -3.3174   0.0000   0.0000   0.0000   0.1902
  -3.800  -0.2874   0.01485   0.00788  -0.0165  0.8064  0.0166  -3.2533   0.0000   0.0000   0.0000   0.1892
  -3.700  -0.2770   0.01442   0.00740  -0.0162  0.8046  0.0170  -3.1806   0.0000   0.0000   0.0000   0.1881
  -3.600  -0.2665   0.01409   0.00702  -0.0159  0.8025  0.0175  -3.0948   0.0000   0.0000   0.0000   0.1867
  -3.500  -0.2577   0.01332   0.00616  -0.0153  0.8002  0.0193  -3.0728   0.0000   0.0000   0.0000   0.1869
  -3.400  -0.2486   0.01268   0.00545  -0.0148  0.7977  0.0235  -3.0524   0.0000   0.0000   0.0000   0.1870
  -3.300  -0.2385   0.01232   0.00507  -0.0144  0.7951  0.0290  -3.0010   0.0000   0.0000   0.0000   0.1861
  -3.200  -0.2301   0.01153   0.00445  -0.0137  0.7924  0.0709  -3.0394   0.0000   0.0000   0.0000   0.1871
  -3.100  -0.2204   0.01125   0.00431  -0.0135  0.7898  0.1031  -2.9384   0.0000   0.0000   0.0000   0.1854
  -3.000  -0.2106   0.01101   0.00421  -0.0133  0.7872  0.1327  -2.8221   0.0000   0.0000   0.0000   0.1833
  -2.900  -0.2008   0.01079   0.00411  -0.0131  0.7849  0.1649  -2.7014   0.0000   0.0000   0.0000   0.1811
  -2.800  -0.1907   0.01062   0.00400  -0.0130  0.7826  0.1912  -2.5783   0.0000   0.0000   0.0000   0.1785
  -2.700  -0.1810   0.01042   0.00390  -0.0127  0.7801  0.2212  -2.4569   0.0000   0.0000   0.0000   0.1761
  -2.600  -0.1714   0.01021   0.00381  -0.0125  0.7776  0.2563  -2.3362   0.0000   0.0000   0.0000   0.1736
  -2.500  -0.1621   0.01001   0.00372  -0.0122  0.7748  0.2958  -2.2169   0.0000   0.0000   0.0000   0.1712
  -2.400  -0.1529   0.00979   0.00364  -0.0118  0.7719  0.3403  -2.0998   0.0000   0.0000   0.0000   0.1688
  -2.300  -0.1440   0.00958   0.00359  -0.0115  0.7686  0.3911  -1.9854   0.0000   0.0000   0.0000   0.1666
  -2.200  -0.1355   0.00938   0.00358  -0.0111  0.7649  0.4482  -1.8740   0.0000   0.0000   0.0000   0.1645
  -2.100  -0.1274   0.00908   0.00354  -0.0105  0.7631  0.5201  -1.7666   0.0000   0.0000   0.0000   0.1637
  -2.000  -0.1206   0.00870   0.00349  -0.0096  0.7617  0.6029  -1.6664   0.0000   0.0000   0.0000   0.1665
  -1.900  -0.1140   0.00833   0.00346  -0.0085  0.7602  0.6920  -1.5682   0.0000   0.0000   0.0000   0.1714
  -1.800  -0.1058   0.00799   0.00346  -0.0075  0.7585  0.7832  -1.4623   0.0000   0.0000   0.0000   0.1747
  -1.700  -0.0788   0.00781   0.00348  -0.0103  0.7568  0.8809  -1.2632   0.0000   0.0000   0.0000   0.1145
  -1.600  -0.0447   0.00784   0.00349  -0.0148  0.7549  0.9255  -1.0341   0.0000   0.0000   0.0000  -0.0884
  -1.500  -0.0190   0.00792   0.00350  -0.0176  0.7528  0.9470  -0.8553   0.0000   0.0000   0.0000  -0.6925
  -1.400  -0.0010   0.00799   0.00351  -0.0188  0.7506  0.9610  -0.7196   0.0000   0.0000   0.0000  -18.0897
  -1.300   0.0134   0.00806   0.00353  -0.0193  0.7484  0.9721  -0.6044   0.0000   0.0000   0.0000   1.7176
  -1.200   0.0347   0.00808   0.00349  -0.0214  0.7462  0.9789  -0.5312   0.0000   0.0000   0.0000   0.8738
  -1.100   0.0543   0.00813   0.00347  -0.0231  0.7438  0.9871  -0.4884   0.0000   0.0000   0.0000   0.6798
  -1.000   0.0786   0.00810   0.00337  -0.0259  0.7413  0.9931  -0.4397   0.0000   0.0000   0.0000   0.5817
  -0.900   0.0999   0.00808   0.00328  -0.0281  0.7387  0.9980  -0.4089   0.0000   0.0000   0.0000   0.5322
  -0.800   0.1150   0.00805   0.00320  -0.0289  0.7362  1.0000  -0.4189   0.0000   0.0000   0.0000   0.5026
  -0.700   0.1249   0.00805   0.00315  -0.0287  0.7337  1.0000  -0.4263   0.0000   0.0000   0.0000   0.4806
  -0.600   0.1349   0.00805   0.00311  -0.0285  0.7313  1.0000  -0.4338   0.0000   0.0000   0.0000   0.4619
  -0.500   0.1450   0.00807   0.00308  -0.0283  0.7288  1.0000  -0.4416   0.0000   0.0000   0.0000   0.4457
  -0.400   0.1551   0.00809   0.00306  -0.0282  0.7261  1.0000  -0.4502   0.0000   0.0000   0.0000   0.4317
  -0.300   0.1653   0.00813   0.00306  -0.0280  0.7229  1.0000  -0.4588   0.0000   0.0000   0.0000   0.4195
  -0.200   0.1756   0.00822   0.00310  -0.0279  0.7190  1.0000  -0.4675   0.0000   0.0000   0.0000   0.4088
  -0.100   0.1861   0.00824   0.00310  -0.0278  0.7168  1.0000  -0.4762   0.0000   0.0000   0.0000   0.3993
   0.000   0.1964   0.00821   0.00306  -0.0277  0.7153  1.0000  -0.4851   0.0000   0.0000   0.0000   0.3906
   0.100   0.2068   0.00819   0.00302  -0.0276  0.7135  1.0000  -0.4940   0.0000   0.0000   0.0000   0.3828
   0.200   0.2171   0.00818   0.00300  -0.0274  0.7115  1.0000  -0.5029   0.0000   0.0000   0.0000   0.3757
   0.300   0.2275   0.00817   0.00297  -0.0273  0.7093  1.0000  -0.5118   0.0000   0.0000   0.0000   0.3693
   0.400   0.2379   0.00817   0.00296  -0.0272  0.7072  1.0000  -0.5207   0.0000   0.0000   0.0000   0.3634
   0.500   0.2484   0.00818   0.00295  -0.0271  0.7050  1.0000  -0.5297   0.0000   0.0000   0.0000   0.3580
   0.600   0.2587   0.00818   0.00294  -0.0269  0.7027  1.0000  -0.5392   0.0000   0.0000   0.0000   0.3530
   0.700   0.2691   0.00818   0.00292  -0.0268  0.7001  1.0000  -0.5494   0.0000   0.0000   0.0000   0.3484
   0.800   0.2794   0.00818   0.00290  -0.0266  0.6974  1.0000  -0.5597   0.0000   0.0000   0.0000   0.3440
   0.900   0.2896   0.00818   0.00288  -0.0264  0.6945  1.0000  -0.5700   0.0000   0.0000   0.0000   0.3399
   1.000   0.2998   0.00818   0.00286  -0.0262  0.6916  1.0000  -0.5803   0.0000   0.0000   0.0000   0.3360
   1.100   0.3099   0.00818   0.00284  -0.0259  0.6886  1.0000  -0.5907   0.0000   0.0000   0.0000   0.3323
   1.200   0.3201   0.00818   0.00282  -0.0257  0.6855  1.0000  -0.6010   0.0000   0.0000   0.0000   0.3288
   1.300   0.3302   0.00820   0.00281  -0.0255  0.6824  1.0000  -0.6114   0.0000   0.0000   0.0000   0.3256
   1.400   0.3405   0.00824   0.00282  -0.0253  0.6791  1.0000  -0.6218   0.0000   0.0000   0.0000   0.3226
   1.500   0.3508   0.00830   0.00285  -0.0251  0.6756  1.0000  -0.6326   0.0000   0.0000   0.0000   0.3199
   1.600   0.3612   0.00840   0.00294  -0.0250  0.6714  1.0000  -0.6446   0.0000   0.0000   0.0000   0.3175
   1.700   0.3717   0.00845   0.00299  -0.0249  0.6688  1.0000  -0.6567   0.0000   0.0000   0.0000   0.3153
   1.800   0.3822   0.00843   0.00298  -0.0248  0.6671  1.0000  -0.6690   0.0000   0.0000   0.0000   0.3130
   1.900   0.3927   0.00842   0.00298  -0.0247  0.6650  1.0000  -0.6814   0.0000   0.0000   0.0000   0.3109
   2.000   0.4032   0.00840   0.00298  -0.0245  0.6624  1.0000  -0.6937   0.0000   0.0000   0.0000   0.3088
   2.100   0.4136   0.00839   0.00297  -0.0243  0.6593  1.0000  -0.7066   0.0000   0.0000   0.0000   0.3068
   2.200   0.4240   0.00838   0.00297  -0.0242  0.6559  1.0000  -0.7211   0.0000   0.0000   0.0000   0.3049
   2.300   0.4344   0.00838   0.00297  -0.0240  0.6524  1.0000  -0.7355   0.0000   0.0000   0.0000   0.3030
   2.400   0.4448   0.00838   0.00297  -0.0238  0.6490  1.0000  -0.7500   0.0000   0.0000   0.0000   0.3013
   2.500   0.4552   0.00838   0.00298  -0.0236  0.6456  1.0000  -0.7646   0.0000   0.0000   0.0000   0.2996
   2.600   0.4655   0.00839   0.00299  -0.0234  0.6422  1.0000  -0.7802   0.0000   0.0000   0.0000   0.2979
   2.700   0.4758   0.00839   0.00298  -0.0232  0.6385  1.0000  -0.7974   0.0000   0.0000   0.0000   0.2963
   2.800   0.4860   0.00841   0.00297  -0.0230  0.6344  1.0000  -0.8146   0.0000   0.0000   0.0000   0.2947
   2.900   0.4962   0.00844   0.00298  -0.0227  0.6296  1.0000  -0.8319   0.0000   0.0000   0.0000   0.2932
   3.000   0.5064   0.00852   0.00303  -0.0225  0.6236  1.0000  -0.8491   0.0000   0.0000   0.0000   0.2918
   3.100   0.5168   0.00857   0.00309  -0.0224  0.6194  1.0000  -0.8667   0.0000   0.0000   0.0000   0.2905
   3.200   0.5273   0.00854   0.00310  -0.0222  0.6167  1.0000  -0.8868   0.0000   0.0000   0.0000   0.2893
   3.300   0.5379   0.00853   0.00311  -0.0221  0.6133  1.0000  -0.9083   0.0000   0.0000   0.0000   0.2882
   3.400   0.5484   0.00852   0.00313  -0.0219  0.6092  1.0000  -0.9298   0.0000   0.0000   0.0000   0.2870
   3.500   0.5589   0.00851   0.00316  -0.0218  0.6043  1.0000  -0.9514   0.0000   0.0000   0.0000   0.2859
   3.600   0.5693   0.00850   0.00317  -0.0216  0.5988  1.0000  -0.9748   0.0000   0.0000   0.0000   0.2848
   3.700   0.5796   0.00850   0.00316  -0.0213  0.5928  1.0000  -1.0016   0.0000   0.0000   0.0000   0.2836
   3.800   0.5898   0.00851   0.00315  -0.0211  0.5867  1.0000  -1.0285   0.0000   0.0000   0.0000   0.2825
   3.900   0.5999   0.00854   0.00315  -0.0208  0.5801  1.0000  -1.0607   0.0000   0.0000   0.0000   0.2814
   4.000   0.6100   0.00862   0.00319  -0.0206  0.5721  1.0000  -1.0984   0.0000   0.0000   0.0000   0.2803
   4.100   0.6206   0.00861   0.00323  -0.0204  0.5674  1.0000  -1.1480   0.0000   0.0000   0.0000   0.2795
   4.200   0.6312   0.00861   0.00328  -0.0203  0.5613  1.0000  -1.1982   0.0000   0.0000   0.0000   0.2786
   4.300   0.6416   0.00862   0.00331  -0.0202  0.5538  1.0000  -1.2889   0.0000   0.0000   0.0000   0.2778
   4.400   0.6519   0.00864   0.00333  -0.0200  0.5454  1.0000  -1.4082   0.0000   0.0000   0.0000   0.2769
   4.500   0.6621   0.00868   0.00336  -0.0197  0.5362  1.0000  -1.5280   0.0000   0.0000   0.0000   0.2760
   4.600   0.6720   0.00874   0.00337  -0.0194  0.5253  1.0000  -1.6505   0.0000   0.0000   0.0000   0.2750
   4.700   0.6823   0.00879   0.00344  -0.0193  0.5167  1.0000  -1.7779   0.0000   0.0000   0.0000   0.2743
   4.800   0.6927   0.00883   0.00350  -0.0191  0.5066  1.0000  -1.9081   0.0000   0.0000   0.0000   0.2735
   4.900   0.7028   0.00890   0.00355  -0.0189  0.4949  1.0000  -2.0397   0.0000   0.0000   0.0000   0.2727
   5.000   0.7126   0.00900   0.00359  -0.0186  0.4818  1.0000  -2.1720   0.0000   0.0000   0.0000   0.2719
   5.100   0.7225   0.00911   0.00367  -0.0184  0.4694  1.0000  -2.3074   0.0000   0.0000   0.0000   0.2712
   5.200   0.7326   0.00919   0.00376  -0.0183  0.4574  1.0000  -2.4466   0.0000   0.0000   0.0000   0.2705
   5.300   0.7423   0.00933   0.00384  -0.0180  0.4424  1.0000  -2.5854   0.0000   0.0000   0.0000   0.2698
   5.400   0.7517   0.00951   0.00394  -0.0178  0.4255  1.0000  -2.7238   0.0000   0.0000   0.0000   0.2690
   5.500   0.7618   0.00961   0.00411  -0.0176  0.4144  1.0000  -2.8728   0.0000   0.0000   0.0000   0.2684
   5.600   0.7714   0.00976   0.00423  -0.0174  0.3986  1.0000  -3.0187   0.0000   0.0000   0.0000   0.2677
   5.700   0.7804   0.01000   0.00436  -0.0171  0.3798  1.0000  -3.1614   0.0000   0.0000   0.0000   0.2670
   5.800   0.7903   0.01013   0.00449  -0.0169  0.3655  1.0000  -3.3119   0.0000   0.0000   0.0000   0.2664
   5.900   0.7993   0.01035   0.00464  -0.0167  0.3458  1.0000  -3.4589   0.0000   0.0000   0.0000   0.2658
   6.000   0.8083   0.01060   0.00480  -0.0164  0.3256  1.0000  -3.6059   0.0000   0.0000   0.0000   0.2651
   6.100   0.8174   0.01082   0.00496  -0.0162  0.3038  1.0000  -3.7557   0.0000   0.0000   0.0000   0.2645
   6.200   0.8258   0.01113   0.00515  -0.0159  0.2803  1.0000  -3.9016   0.0000   0.0000   0.0000   0.2639
   6.300   0.8348   0.01137   0.00533  -0.0157  0.2598  1.0000  -4.0523   0.0000   0.0000   0.0000   0.2633
   6.400   0.8432   0.01169   0.00555  -0.0154  0.2380  1.0000  -4.1981   0.0000   0.0000   0.0000   0.2626
   6.500   0.8516   0.01201   0.00577  -0.0151  0.2136  1.0000  -4.3441   0.0000   0.0000   0.0000   0.2620
   6.600   0.8595   0.01239   0.00604  -0.0148  0.1865  1.0000  -4.4846   0.0000   0.0000   0.0000   0.2614
   6.700   0.8663   0.01291   0.00636  -0.0144  0.1508  1.0000  -4.6138   0.0000   0.0000   0.0000   0.2607
   6.800   0.8712   0.01369   0.00681  -0.0139  0.1034  1.0000  -4.7208   0.0000   0.0000   0.0000   0.2599
   6.900   0.8742   0.01475   0.00747  -0.0131  0.0505  1.0000  -4.7857   0.0000   0.0000   0.0000   0.2589
   7.000   0.8784   0.01570   0.00830  -0.0122  0.0307  1.0000  -4.7925   0.0000   0.0000   0.0000   0.2576
   7.100   0.8860   0.01609   0.00871  -0.0117  0.0254  1.0000  -4.8842   0.0000   0.0000   0.0000   0.2568
   7.200   0.8910   0.01683   0.00948  -0.0108  0.0204  1.0000  -4.8950   0.0000   0.0000   0.0000   0.2556
   7.300   0.8907   0.01826   0.01108  -0.0091  0.0173  1.0000  -4.7769   0.0000   0.0000   0.0000   0.2536
   7.400   0.8990   0.01852   0.01137  -0.0087  0.0166  1.0000  -4.8996   0.0000   0.0000   0.0000   0.2529
   7.500   0.9066   0.01885   0.01174  -0.0081  0.0155  1.0000  -5.0135   0.0000   0.0000   0.0000   0.2522
   7.600   0.9138   0.01923   0.01216  -0.0075  0.0142  1.0000  -5.1257   0.0000   0.0000   0.0000   0.2514
   7.700   0.9206   0.01966   0.01262  -0.0069  0.0131  1.0000  -5.2338   0.0000   0.0000   0.0000   0.2505
   7.800   0.9266   0.02019   0.01320  -0.0062  0.0123  1.0000  -5.3203   0.0000   0.0000   0.0000   0.2496
   7.900   0.9321   0.02080   0.01386  -0.0054  0.0118  1.0000  -5.3919   0.0000   0.0000   0.0000   0.2485
   8.000   0.9376   0.02143   0.01454  -0.0046  0.0114  1.0000  -5.4634   0.0000   0.0000   0.0000   0.2475
   8.100   0.9431   0.02208   0.01525  -0.0037  0.0111  1.0000  -5.5344   0.0000   0.0000   0.0000   0.2465
   8.200   0.9486   0.02275   0.01598  -0.0029  0.0108  1.0000  -5.6045   0.0000   0.0000   0.0000   0.2455
   8.300   0.9542   0.02346   0.01675  -0.0021  0.0106  1.0000  -5.6732   0.0000   0.0000   0.0000   0.2445
   8.400   0.9599   0.02421   0.01755  -0.0014  0.0104  1.0000  -5.7398   0.0000   0.0000   0.0000   0.2436
   8.500   0.9658   0.02499   0.01841  -0.0006  0.0102  1.0000  -5.8033   0.0000   0.0000   0.0000   0.2427
   8.600   0.9717   0.02583   0.01933   0.0002  0.0101  1.0000  -5.8629   0.0000   0.0000   0.0000   0.2418
   8.700   0.9776   0.02673   0.02031   0.0009  0.0101  1.0000  -5.9173   0.0000   0.0000   0.0000   0.2409
   8.800   0.9836   0.02768   0.02136   0.0016  0.0100  1.0000  -5.9650   0.0000   0.0000   0.0000   0.2401
   8.900   0.9894   0.02872   0.02250   0.0024  0.0101  1.0000  -6.0042   0.0000   0.0000   0.0000   0.2392
   9.000   0.9950   0.02984   0.02374   0.0031  0.0101  1.0000  -6.0331   0.0000   0.0000   0.0000   0.2384
   9.100   1.0002   0.03105   0.02508   0.0039  0.0102  1.0000  -6.0498   0.0000   0.0000   0.0000   0.2375
   9.200   1.0049   0.03237   0.02653   0.0047  0.0104  1.0000  -6.0533   0.0000   0.0000   0.0000   0.2366
   9.300   1.0089   0.03378   0.02809   0.0056  0.0106  1.0000  -6.0436   0.0000   0.0000   0.0000   0.2357
   9.400   1.0120   0.03531   0.02978   0.0065  0.0108  1.0000  -6.0176   0.0000   0.0000   0.0000   0.2347
   9.500   1.0140   0.03695   0.03157   0.0075  0.0111  1.0000  -5.9750   0.0000   0.0000   0.0000   0.2336
   9.600   1.0148   0.03861   0.03341   0.0085  0.0114  1.0000  -5.9264   0.0000   0.0000   0.0000   0.2325
   9.700   1.0145   0.04027   0.03523   0.0096  0.0117  1.0000  -5.8773   0.0000   0.0000   0.0000   0.2314
   9.800   1.0133   0.04187   0.03697   0.0106  0.0120  1.0000  -5.8350   0.0000   0.0000   0.0000   0.2303
   9.900   1.0114   0.04342   0.03865   0.0116  0.0122  1.0000  -5.7979   0.0000   0.0000   0.0000   0.2291
  10.000   1.0086   0.04490   0.04027   0.0126  0.0124  1.0000  -5.7642   0.0000   0.0000   0.0000   0.2280
  10.100   1.0044   0.04625   0.04171   0.0138  0.0126  1.0000  -5.7342   0.0000   0.0000   0.0000   0.2266
  10.200   0.9993   0.04752   0.04308   0.0150  0.0127  1.0000  -5.7061   0.0000   0.0000   0.0000   0.2253
  10.300   0.9939   0.04881   0.04446   0.0160  0.0129  1.0000  -5.6783   0.0000   0.0000   0.0000   0.2241
  10.400   0.9882   0.05015   0.04589   0.0168  0.0130  1.0000  -5.6499   0.0000   0.0000   0.0000   0.2230
  10.500   0.9823   0.05155   0.04737   0.0174  0.0131  1.0000  -5.6209   0.0000   0.0000   0.0000   0.2222
  10.600   0.9763   0.05301   0.04892   0.0178  0.0132  1.0000  -5.5908   0.0000   0.0000   0.0000   0.2215
  10.700   0.9702   0.05453   0.05052   0.0181  0.0133  1.0000  -5.5597   0.0000   0.0000   0.0000   0.2210
  10.800   0.9637   0.05611   0.05217   0.0182  0.0134  1.0000  -5.5277   0.0000   0.0000   0.0000   0.2206
  10.900   0.9571   0.05776   0.05390   0.0182  0.0135  1.0000  -5.4943   0.0000   0.0000   0.0000   0.2204
  11.000   0.9503   0.05950   0.05571   0.0180  0.0136  1.0000  -5.4596   0.0000   0.0000   0.0000   0.2203
  11.100   0.9434   0.06132   0.05760   0.0176  0.0137  1.0000  -5.4232   0.0000   0.0000   0.0000   0.2204
  11.200   0.9362   0.06320   0.05954   0.0171  0.0138  1.0000  -5.3859   0.0000   0.0000   0.0000   0.2207
  11.300   0.9289   0.06513   0.06154   0.0165  0.0139  1.0000  -5.3470   0.0000   0.0000   0.0000   0.2211
  11.400   0.9213   0.06716   0.06364   0.0156  0.0140  1.0000  -5.3067   0.0000   0.0000   0.0000   0.2216
  11.500   0.9138   0.06931   0.06585   0.0147  0.0141  1.0000  -5.2642   0.0000   0.0000   0.0000   0.2224
  11.600   0.9062   0.07157   0.06816   0.0135  0.0142  1.0000  -5.2200   0.0000   0.0000   0.0000   0.2234
  11.700   0.8986   0.07393   0.07058   0.0123  0.0143  1.0000  -5.1738   0.0000   0.0000   0.0000   0.2245
  11.800   0.8910   0.07640   0.07311   0.0108  0.0144  1.0000  -5.1253   0.0000   0.0000   0.0000   0.2259
  11.900   0.8833   0.07899   0.07575   0.0092  0.0145  1.0000  -5.0749   0.0000   0.0000   0.0000   0.2275
  12.000   0.8758   0.08169   0.07850   0.0074  0.0145  1.0000  -5.0218   0.0000   0.0000   0.0000   0.2293
  12.100   0.8682   0.08452   0.08138   0.0055  0.0146  1.0000  -4.9663   0.0000   0.0000   0.0000   0.2313
  12.200   0.8608   0.08748   0.08438   0.0035  0.0146  1.0000  -4.9076   0.0000   0.0000   0.0000   0.2335
  12.300   0.8535   0.09050   0.08745   0.0014  0.0146  1.0000  -4.8460   0.0000   0.0000   0.0000   0.2358
  12.400   0.8463   0.09367   0.09065  -0.0008  0.0146  1.0000  -4.7807   0.0000   0.0000   0.0000   0.2384
  12.500   0.8393   0.09697   0.09399  -0.0031  0.0146  1.0000  -4.7099   0.0000   0.0000   0.0000   0.2410
  12.600   0.8325   0.10048   0.09753  -0.0055  0.0146  1.0000  -4.6326   0.0000   0.0000   0.0000   0.2439
  12.700   0.8259   0.10419   0.10127  -0.0079  0.0145  1.0000  -4.5456   0.0000   0.0000   0.0000   0.2468
  12.800   0.8195   0.10810   0.10521  -0.0104  0.0145  1.0000  -4.4454   0.0000   0.0000   0.0000   0.2499
  12.900   0.8132   0.11221   0.10933  -0.0128  0.0145  1.0000  -4.3295   0.0000   0.0000   0.0000   0.2530
  13.000   0.8073   0.11644   0.11357  -0.0150  0.0146  1.0000  -4.1990   0.0000   0.0000   0.0000   0.2559
  13.100   0.8019   0.12068   0.11780  -0.0171  0.0148  1.0000  -4.0580   0.0000   0.0000   0.0000   0.2586
  13.200   0.7972   0.12443   0.12154  -0.0188  0.0150  1.0000  -3.9369   0.0000   0.0000   0.0000   0.2610
  13.300   0.7931   0.12787   0.12497  -0.0204  0.0152  1.0000  -3.8298   0.0000   0.0000   0.0000   0.2631
  13.400   0.7892   0.13113   0.12822  -0.0219  0.0155  1.0000  -3.7297   0.0000   0.0000   0.0000   0.2651
  13.500   0.7853   0.13431   0.13139  -0.0234  0.0158  1.0000  -3.6307   0.0000   0.0000   0.0000   0.2670
  13.600   0.7797   0.13774   0.13480  -0.0248  0.0163  1.0000  -3.5063   0.0000   0.0000   0.0000   0.2691
  14.000   0.7775   0.15144   0.14848  -0.0304  0.0230  1.0000  -2.9206   0.0000   0.0000   0.0000   0.2765
  14.100   0.7770   0.15377   0.15080  -0.0315  0.0230  1.0000  -2.8747   0.0000   0.0000   0.0000   0.2778
  14.200   0.7768   0.15600   0.15303  -0.0325  0.0231  1.0000  -2.8351   0.0000   0.0000   0.0000   0.2790
  14.300   0.7769   0.15815   0.15517  -0.0335  0.0230  1.0000  -2.8007   0.0000   0.0000   0.0000   0.2802
  14.400   0.7772   0.16022   0.15724  -0.0344  0.0229  1.0000  -2.7706   0.0000   0.0000   0.0000   0.2813
  14.500   0.7776   0.16223   0.15924  -0.0353  0.0228  1.0000  -2.7442   0.0000   0.0000   0.0000   0.2824
  14.600   0.7783   0.16419   0.16119  -0.0362  0.0227  1.0000  -2.7212   0.0000   0.0000   0.0000   0.2834
  14.700   0.7790   0.16609   0.16309  -0.0370  0.0225  1.0000  -2.7013   0.0000   0.0000   0.0000   0.2844
  14.800   0.7800   0.16794   0.16494  -0.0379  0.0223  1.0000  -2.6844   0.0000   0.0000   0.0000   0.2853
  14.900   0.7810   0.16971   0.16670  -0.0387  0.0221  1.0000  -2.6706   0.0000   0.0000   0.0000   0.2861
  15.000   0.7822   0.17137   0.16836  -0.0394  0.0218  1.0000  -2.6598   0.0000   0.0000   0.0000   0.2869
  15.100   0.7836   0.17296   0.16994  -0.0402  0.0216  1.0000  -2.6519   0.0000   0.0000   0.0000   0.2877
  15.200   0.7851   0.17449   0.17148  -0.0409  0.0213  1.0000  -2.6472   0.0000   0.0000   0.0000   0.2884
  15.300   0.7867   0.17597   0.17295  -0.0416  0.0211  1.0000  -2.6471   0.0000   0.0000   0.0000   0.2891
  15.400   0.7886   0.17737   0.17435  -0.0422  0.0208  1.0000  -2.6545   0.0000   0.0000   0.0000   0.2896
  15.500   0.7908   0.17867   0.17565  -0.0427  0.0204  1.0000  -2.6719   0.0000   0.0000   0.0000   0.2900
  15.600   0.7931   0.17989   0.17687  -0.0432  0.0201  1.0000  -2.6978   0.0000   0.0000   0.0000   0.2902
  15.700   0.7958   0.18094   0.17793  -0.0435  0.0197  1.0000  -2.7400   0.0000   0.0000   0.0000   0.2903
  15.800   0.7990   0.18176   0.17875  -0.0435  0.0192  1.0000  -2.8075   0.0000   0.0000   0.0000   0.2900
  15.900   0.8003   0.18320   0.18019  -0.0440  0.0188  1.0000  -2.8269   0.0000   0.0000   0.0000   0.2904
  16.000   0.8006   0.18506   0.18205  -0.0447  0.0183  1.0000  -2.8208   0.0000   0.0000   0.0000   0.2910
  16.100   0.7989   0.18784   0.18482  -0.0456  0.0179  1.0000  -2.7569   0.0000   0.0000   0.0000   0.2922
  16.200   0.7925   0.19295   0.18991  -0.0472  0.0174  1.0000  -2.5534   0.0000   0.0000   0.0000   0.2947
  16.300   0.7929   0.19549   0.19240  -0.0482  0.0173  1.0000  -2.4956   0.0000   0.0000   0.0000   0.2959
  16.400   0.7947   0.19740   0.19431  -0.0490  0.0173  1.0000  -2.4737   0.0000   0.0000   0.0000   0.2967
  16.500   0.7965   0.19930   0.19621  -0.0498  0.0173  1.0000  -2.4524   0.0000   0.0000   0.0000   0.2975
  16.600   0.7984   0.20121   0.19812  -0.0506  0.0172  1.0000  -2.4315   0.0000   0.0000   0.0000   0.2982
  16.700   0.8003   0.20311   0.20002  -0.0514  0.0172  1.0000  -2.4112   0.0000   0.0000   0.0000   0.2990
  16.800   0.8022   0.20502   0.20192  -0.0522  0.0172  1.0000  -2.3914   0.0000   0.0000   0.0000   0.2997
  16.900   0.8041   0.20692   0.20383  -0.0530  0.0172  1.0000  -2.3720   0.0000   0.0000   0.0000   0.3005
  17.000   0.8060   0.20883   0.20573  -0.0538  0.0172  1.0000  -2.3532   0.0000   0.0000   0.0000   0.3012
  17.100   0.8080   0.21074   0.20763  -0.0546  0.0172  1.0000  -2.3349   0.0000   0.0000   0.0000   0.3019
  17.200   0.8100   0.21264   0.20954  -0.0554  0.0172  1.0000  -2.3170   0.0000   0.0000   0.0000   0.3026
  17.300   0.8120   0.21456   0.21145  -0.0562  0.0172  1.0000  -2.2996   0.0000   0.0000   0.0000   0.3033
  17.400   0.8140   0.21647   0.21336  -0.0570  0.0171  1.0000  -2.2826   0.0000   0.0000   0.0000   0.3040
  17.500   0.8160   0.21837   0.21527  -0.0578  0.0171  1.0000  -2.2660   0.0000   0.0000   0.0000   0.3047
  17.600   0.8181   0.22028   0.21717  -0.0586  0.0171  1.0000  -2.2498   0.0000   0.0000   0.0000   0.3054
  17.700   0.8201   0.22218   0.21907  -0.0594  0.0171  1.0000  -2.2340   0.0000   0.0000   0.0000   0.3060
  17.800   0.8222   0.22408   0.22097  -0.0601  0.0171  1.0000  -2.2187   0.0000   0.0000   0.0000   0.3067
  17.900   0.8242   0.22597   0.22286  -0.0609  0.0171  1.0000  -2.2037   0.0000   0.0000   0.0000   0.3073
  18.000   0.8263   0.22786   0.22475  -0.0617  0.0170  1.0000  -2.1892   0.0000   0.0000   0.0000   0.3080
  18.100   0.8284   0.22973   0.22662  -0.0625  0.0170  1.0000  -2.1752   0.0000   0.0000   0.0000   0.3086
  18.200   0.8305   0.23160   0.22849  -0.0633  0.0170  1.0000  -2.1616   0.0000   0.0000   0.0000   0.3093
  18.300   0.8326   0.23346   0.23034  -0.0641  0.0169  1.0000  -2.1485   0.0000   0.0000   0.0000   0.3099
  18.400   0.8347   0.23529   0.23218  -0.0649  0.0169  1.0000  -2.1359   0.0000   0.0000   0.0000   0.3106
  18.500   0.8368   0.23711   0.23399  -0.0657  0.0168  1.0000  -2.1239   0.0000   0.0000   0.0000   0.3112
  18.600   0.8390   0.23889   0.23578  -0.0665  0.0168  1.0000  -2.1124   0.0000   0.0000   0.0000   0.3118
  18.700   0.8412   0.24064   0.23752  -0.0673  0.0167  1.0000  -2.1016   0.0000   0.0000   0.0000   0.3125
  18.800   0.8435   0.24233   0.23921  -0.0682  0.0166  1.0000  -2.0914   0.0000   0.0000   0.0000   0.3132
  18.900   0.8458   0.24394   0.24083  -0.0690  0.0164  1.0000  -2.0815   0.0000   0.0000   0.0000   0.3138
  19.000   0.8477   0.24556   0.24245  -0.0701  0.0162  1.0000  -2.0610   0.0000   0.0000   0.0000   0.3148
  19.100   0.8497   0.24722   0.24410  -0.0712  0.0159  1.0000  -2.0365   0.0000   0.0000   0.0000   0.3158
  19.200   0.8518   0.24897   0.24585  -0.0723  0.0156  1.0000  -2.0119   0.0000   0.0000   0.0000   0.3167
  19.300   0.8539   0.25082   0.24770  -0.0732  0.0152  1.0000  -1.9893   0.0000   0.0000   0.0000   0.3175
  19.400   0.8561   0.25274   0.24972  -0.0741  0.0148  1.0000  -1.9695   0.0000   0.0000   0.0000   0.3183
  19.500   0.8582   0.25469   0.25167  -0.0750  0.0145  1.0000  -1.9533   0.0000   0.0000   0.0000   0.3189
  19.600   0.8603   0.25665   0.25363  -0.0758  0.0141  1.0000  -1.9395   0.0000   0.0000   0.0000   0.3195
  19.700   0.8623   0.25862   0.25560  -0.0766  0.0138  1.0000  -1.9275   0.0000   0.0000   0.0000   0.3201
  19.800   0.8643   0.26059   0.25757  -0.0773  0.0135  1.0000  -1.9170   0.0000   0.0000   0.0000   0.3206
  19.900   0.8662   0.26257   0.25955  -0.0781  0.0133  1.0000  -1.9076   0.0000   0.0000   0.0000   0.3212
  20.000   0.8682   0.26454   0.26153  -0.0788  0.0130  1.0000  -1.8992   0.0000   0.0000   0.0000   0.3217
  20.100   0.8701   0.26652   0.26351  -0.0796  0.0127  1.0000  -1.8916   0.0000   0.0000   0.0000   0.3222
  20.200   0.8719   0.26850   0.26549  -0.0803  0.0125  1.0000  -1.8847   0.0000   0.0000   0.0000   0.3227
  20.300   0.8738   0.27048   0.26747  -0.0810  0.0123  1.0000  -1.8784   0.0000   0.0000   0.0000   0.3232
  20.400   0.8756   0.27246   0.26945  -0.0817  0.0121  1.0000  -1.8727   0.0000   0.0000   0.0000   0.3237
  20.500   0.8775   0.27444   0.27144  -0.0824  0.0119  1.0000  -1.8674   0.0000   0.0000   0.0000   0.3242
  20.600   0.8792   0.27643   0.27343  -0.0832  0.0117  1.0000  -1.8627   0.0000   0.0000   0.0000   0.3246
  20.700   0.8810   0.27842   0.27542  -0.0839  0.0115  1.0000  -1.8584   0.0000   0.0000   0.0000   0.3251
  20.800   0.8827   0.28041   0.27741  -0.0846  0.0113  1.0000  -1.8545   0.0000   0.0000   0.0000   0.3256
  20.900   0.8845   0.28240   0.27940  -0.0853  0.0111  1.0000  -1.8510   0.0000   0.0000   0.0000   0.3260
  21.000   0.8861   0.28439   0.28140  -0.0859  0.0109  1.0000  -1.8479   0.0000   0.0000   0.0000   0.3265
  21.100   0.8878   0.28638   0.28340  -0.0866  0.0108  1.0000  -1.8453   0.0000   0.0000   0.0000   0.3269
  21.200   0.8894   0.28838   0.28539  -0.0873  0.0106  1.0000  -1.8430   0.0000   0.0000   0.0000   0.3274
  21.300   0.8910   0.29037   0.28739  -0.0880  0.0105  1.0000  -1.8410   0.0000   0.0000   0.0000   0.3278
  21.400   0.8926   0.29237   0.28939  -0.0887  0.0103  1.0000  -1.8394   0.0000   0.0000   0.0000   0.3283
  21.500   0.8941   0.29436   0.29139  -0.0893  0.0102  1.0000  -1.8382   0.0000   0.0000   0.0000   0.3287
  21.600   0.8956   0.29636   0.29339  -0.0900  0.0100  1.0000  -1.8374   0.0000   0.0000   0.0000   0.3291
  21.700   0.8970   0.29835   0.29539  -0.0906  0.0099  1.0000  -1.8369   0.0000   0.0000   0.0000   0.3295
  21.800   0.8985   0.30035   0.29739  -0.0913  0.0098  1.0000  -1.8368   0.0000   0.0000   0.0000   0.3300
  21.900   0.8998   0.30234   0.29939  -0.0919  0.0097  1.0000  -1.8371   0.0000   0.0000   0.0000   0.3304
  22.000   0.9011   0.30433   0.30138  -0.0926  0.0095  1.0000  -1.8378   0.0000   0.0000   0.0000   0.3308
  22.100   0.9024   0.30632   0.30338  -0.0932  0.0094  1.0000  -1.8388   0.0000   0.0000   0.0000   0.3312
  22.200   0.9036   0.30831   0.30537  -0.0938  0.0093  1.0000  -1.8402   0.0000   0.0000   0.0000   0.3316
  22.300   0.9048   0.31029   0.30736  -0.0944  0.0092  1.0000  -1.8420   0.0000   0.0000   0.0000   0.3320
  22.400   0.9059   0.31227   0.30934  -0.0950  0.0091  1.0000  -1.8442   0.0000   0.0000   0.0000   0.3324
  22.500   0.9070   0.31425   0.31132  -0.0956  0.0090  1.0000  -1.8468   0.0000   0.0000   0.0000   0.3327
  22.600   0.9080   0.31621   0.31330  -0.0962  0.0089  1.0000  -1.8498   0.0000   0.0000   0.0000   0.3331
  22.700   0.9089   0.31818   0.31526  -0.0968  0.0088  1.0000  -1.8533   0.0000   0.0000   0.0000   0.3335
  22.800   0.9097   0.32013   0.31722  -0.0974  0.0087  1.0000  -1.8572   0.0000   0.0000   0.0000   0.3339
  22.900   0.9105   0.32208   0.31918  -0.0979  0.0086  1.0000  -1.8615   0.0000   0.0000   0.0000   0.3342
  23.000   0.9112   0.32401   0.32112  -0.0985  0.0085  1.0000  -1.8662   0.0000   0.0000   0.0000   0.3346
  23.100   0.9118   0.32594   0.32305  -0.0990  0.0084  1.0000  -1.8712   0.0000   0.0000   0.0000   0.3349
  23.200   0.9122   0.32785   0.32498  -0.0995  0.0084  1.0000  -1.8766   0.0000   0.0000   0.0000   0.3353
  23.300   0.9126   0.32976   0.32689  -0.1000  0.0083  1.0000  -1.8823   0.0000   0.0000   0.0000   0.3356
  23.400   0.9128   0.33164   0.32878  -0.1004  0.0082  1.0000  -1.8882   0.0000   0.0000   0.0000   0.3360
  23.500   0.9129   0.33351   0.33066  -0.1009  0.0081  1.0000  -1.8942   0.0000   0.0000   0.0000   0.3363
  23.600   0.9128   0.33536   0.33251  -0.1013  0.0080  1.0000  -1.9003   0.0000   0.0000   0.0000   0.3366
  23.700   0.9125   0.33718   0.33435  -0.1017  0.0080  1.0000  -1.9062   0.0000   0.0000   0.0000   0.3369
  23.800   0.9120   0.33898   0.33615  -0.1020  0.0079  1.0000  -1.9118   0.0000   0.0000   0.0000   0.3372
  23.900   0.9112   0.34073   0.33792  -0.1023  0.0078  1.0000  -1.9166   0.0000   0.0000   0.0000   0.3375
  24.000   0.9100   0.34244   0.33964  -0.1025  0.0078  1.0000  -1.9201   0.0000   0.0000   0.0000   0.3378
  24.100   0.9083   0.34407   0.34129  -0.1027  0.0077  1.0000  -1.9217   0.0000   0.0000   0.0000   0.3381
  24.200   0.9059   0.34559   0.34282  -0.1028  0.0076  1.0000  -1.9201   0.0000   0.0000   0.0000   0.3384
  24.300   0.9019   0.34681   0.34406  -0.1028  0.0076  1.0000  -1.9117   0.0000   0.0000   0.0000   0.3388
  24.400   0.8354   0.33091   0.32830  -0.0966  0.0078  1.0000  -1.6504   0.0000   0.0000   0.0000   0.3419
  24.500   0.8305   0.33050   0.32790  -0.0964  0.0078  1.0000  -1.6382   0.0000   0.0000   0.0000   0.3424
  24.600   0.8263   0.33025   0.32767  -0.0963  0.0077  1.0000  -1.6340   0.0000   0.0000   0.0000   0.3429
  24.700   0.8227   0.33012   0.32756  -0.0963  0.0077  1.0000  -1.6336   0.0000   0.0000   0.0000   0.3433
  24.800   0.8194   0.33008   0.32753  -0.0963  0.0076  1.0000  -1.6345   0.0000   0.0000   0.0000   0.3437
  24.900   0.8165   0.33012   0.32759  -0.0963  0.0075  1.0000  -1.6362   0.0000   0.0000   0.0000   0.3440
  25.000   0.8137   0.33024   0.32772  -0.0963  0.0075  1.0000  -1.6377   0.0000   0.0000   0.0000   0.3444
  25.100   0.8108   0.33043   0.32793  -0.0963  0.0074  1.0000  -1.6299   0.0000   0.0000   0.0000   0.3448
  25.200   0.8078   0.33072   0.32824  -0.0964  0.0073  1.0000  -1.6170   0.0000   0.0000   0.0000   0.3453
  25.300   0.8046   0.33113   0.32866  -0.0964  0.0072  1.0000  -1.5938   0.0000   0.0000   0.0000   0.3458
  25.400   0.8005   0.33179   0.32933  -0.0964  0.0071  1.0000  -1.5483   0.0000   0.0000   0.0000   0.3465


