xflr5 v6.61

 Calculated polar for: MH 22

 1 1 Reynolds number fixed          Mach number fixed         

 xtrf =   1.000 (top)        1.000 (bottom)
 Mach =   0.000     Re =     0.130 e 6     Ncrit =   9.000

  alpha     CL        CD       CDp       Cm    Top Xtr Bot Xtr   Cpmin    Chinge    XCp    
 ------- -------- --------- --------- -------- ------- ------- -------- --------- ---------
 -10.000  -0.5553   0.12442   0.12028   0.0206  1.0000  0.0467  -1.7270   0.0000   0.0000   0.0000   0.2840
  -9.900  -0.5538   0.12306   0.11893   0.0197  1.0000  0.0474  -1.7410   0.0000   0.0000   0.0000   0.2826
  -9.800  -0.5525   0.12174   0.11762   0.0188  1.0000  0.0480  -1.7572   0.0000   0.0000   0.0000   0.2810
  -9.700  -0.5513   0.12048   0.11637   0.0178  1.0000  0.0487  -1.7761   0.0000   0.0000   0.0000   0.2793
  -9.600  -0.5504   0.11930   0.11520   0.0167  1.0000  0.0494  -1.7982   0.0000   0.0000   0.0000   0.2774
  -9.500  -0.5497   0.11823   0.11415   0.0154  1.0000  0.0500  -1.8237   0.0000   0.0000   0.0000   0.2752
  -9.400  -0.5492   0.11729   0.11323   0.0140  1.0000  0.0506  -1.8516   0.0000   0.0000   0.0000   0.2727
  -9.300  -0.5486   0.11644   0.11240   0.0125  1.0000  0.0512  -1.8794   0.0000   0.0000   0.0000   0.2701
  -9.200  -0.5480   0.11557   0.11156   0.0111  1.0000  0.0516  -1.9063   0.0000   0.0000   0.0000   0.2675
  -9.100  -0.5470   0.11463   0.11063   0.0097  1.0000  0.0519  -1.9294   0.0000   0.0000   0.0000   0.2651
  -9.000  -0.5455   0.11359   0.10961   0.0085  1.0000  0.0521  -1.9468   0.0000   0.0000   0.0000   0.2631
  -8.900  -0.5441   0.11244   0.10848   0.0074  1.0000  0.0523  -1.9639   0.0000   0.0000   0.0000   0.2611
  -8.800  -0.5428   0.11121   0.10727   0.0062  1.0000  0.0525  -1.9811   0.0000   0.0000   0.0000   0.2591
  -8.700  -0.5416   0.10992   0.10599   0.0051  1.0000  0.0526  -1.9986   0.0000   0.0000   0.0000   0.2571
  -8.600  -0.5404   0.10857   0.10466   0.0040  1.0000  0.0526  -2.0165   0.0000   0.0000   0.0000   0.2550
  -8.500  -0.5394   0.10718   0.10329   0.0028  1.0000  0.0527  -2.0349   0.0000   0.0000   0.0000   0.2529
  -8.400  -0.5384   0.10575   0.10188   0.0015  1.0000  0.0528  -2.0540   0.0000   0.0000   0.0000   0.2507
  -8.300  -0.5376   0.10428   0.10043   0.0002  1.0000  0.0528  -2.0738   0.0000   0.0000   0.0000   0.2483
  -8.200  -0.5370   0.10278   0.09895  -0.0012  1.0000  0.0529  -2.0946   0.0000   0.0000   0.0000   0.2457
  -8.100  -0.5363   0.10124   0.09743  -0.0027  1.0000  0.0529  -2.1165   0.0000   0.0000   0.0000   0.2429
  -8.000  -0.5351   0.09963   0.09582  -0.0044  1.0000  0.0529  -2.1395   0.0000   0.0000   0.0000   0.2399
  -7.900  -0.5330   0.09790   0.09410  -0.0061  1.0000  0.0530  -2.1629   0.0000   0.0000   0.0000   0.2366
  -7.800  -0.5308   0.09615   0.09234  -0.0078  1.0000  0.0530  -2.1866   0.0000   0.0000   0.0000   0.2334
  -7.700  -0.5398   0.09035   0.08663  -0.0093  1.0000  0.0541  -2.2873   0.0000   0.0000   0.0000   0.2310
  -7.600  -0.5419   0.08719   0.08350  -0.0095  1.0000  0.0550  -2.3035   0.0000   0.0000   0.0000   0.2306
  -7.500  -0.5385   0.08534   0.08167  -0.0072  1.0000  0.0561  -2.2425   0.0000   0.0000   0.0000   0.2349
  -7.400  -0.5350   0.08386   0.08019  -0.0062  1.0000  0.0570  -2.2013   0.0000   0.0000   0.0000   0.2367
  -7.300  -0.5313   0.08246   0.07880  -0.0057  1.0000  0.0579  -2.1695   0.0000   0.0000   0.0000   0.2376
  -7.200  -0.5278   0.08105   0.07740  -0.0057  1.0000  0.0588  -2.1471   0.0000   0.0000   0.0000   0.2375
  -7.100  -0.5245   0.07958   0.07581  -0.0061  1.0000  0.0597  -2.1345   0.0000   0.0000   0.0000   0.2367
  -7.000  -0.5213   0.07808   0.07431  -0.0069  1.0000  0.0607  -2.1270   0.0000   0.0000   0.0000   0.2352
  -6.900  -0.5180   0.07653   0.07276  -0.0078  1.0000  0.0616  -2.1242   0.0000   0.0000   0.0000   0.2334
  -6.800  -0.5146   0.07493   0.07117  -0.0089  1.0000  0.0627  -2.1249   0.0000   0.0000   0.0000   0.2311
  -6.700  -0.5109   0.07329   0.06953  -0.0102  1.0000  0.0637  -2.1289   0.0000   0.0000   0.0000   0.2286
  -6.600  -0.5070   0.07161   0.06783  -0.0115  1.0000  0.0649  -2.1358   0.0000   0.0000   0.0000   0.2258
  -6.500  -0.5028   0.06988   0.06609  -0.0130  1.0000  0.0661  -2.1455   0.0000   0.0000   0.0000   0.2227
  -6.400  -0.4983   0.06813   0.06432  -0.0145  1.0000  0.0675  -2.1576   0.0000   0.0000   0.0000   0.2195
  -6.300  -0.4932   0.06635   0.06252  -0.0162  1.0000  0.0690  -2.1729   0.0000   0.0000   0.0000   0.2159
  -6.200  -0.4875   0.06458   0.06070  -0.0179  1.0000  0.0707  -2.1923   0.0000   0.0000   0.0000   0.2120
  -6.100  -0.4805   0.06291   0.05897  -0.0199  1.0000  0.0729  -2.2202   0.0000   0.0000   0.0000   0.2073
  -6.000  -0.4639   0.06456   0.06033  -0.0228  1.0000  0.0778  -2.2573   0.0000   0.0000   0.0000   0.1995
  -5.900  -0.4569   0.06356   0.05922  -0.0235  1.0000  0.0781  -2.2674   0.0000   0.0000   0.0000   0.1971
  -5.800  -0.4503   0.06222   0.05779  -0.0241  1.0000  0.0783  -2.2764   0.0000   0.0000   0.0000   0.1951
  -5.700  -0.4546   0.05640   0.05193  -0.0262  1.0000  0.0800  -2.3717   0.0000   0.0000   0.0000   0.1910
  -5.600  -0.4536   0.05270   0.04825  -0.0269  1.0000  0.0818  -2.3837   0.0000   0.0000   0.0000   0.1894
  -5.500  -0.4479   0.05080   0.04639  -0.0268  1.0000  0.0831  -2.3532   0.0000   0.0000   0.0000   0.1889
  -5.400  -0.4415   0.04928   0.04490  -0.0266  1.0000  0.0844  -2.3213   0.0000   0.0000   0.0000   0.1884
  -5.300  -0.4347   0.04789   0.04351  -0.0266  1.0000  0.0858  -2.2942   0.0000   0.0000   0.0000   0.1876
  -5.200  -0.4276   0.04652   0.04211  -0.0266  1.0000  0.0873  -2.2734   0.0000   0.0000   0.0000   0.1866
  -5.100  -0.4201   0.04512   0.04066  -0.0267  1.0000  0.0886  -2.2600   0.0000   0.0000   0.0000   0.1851
  -5.000  -0.4124   0.04364   0.03912  -0.0270  1.0000  0.0897  -2.2544   0.0000   0.0000   0.0000   0.1834
  -4.900  -0.3969   0.03751   0.03231  -0.0278  1.0000  0.0478  -2.7033   0.0000   0.0000   0.0000   0.1784
  -4.800  -0.3903   0.03511   0.02975  -0.0277  1.0000  0.0443  -2.7600   0.0000   0.0000   0.0000   0.1773
  -4.700  -0.3824   0.03239   0.02674  -0.0275  1.0000  0.0400  -2.8839   0.0000   0.0000   0.0000   0.1763
  -4.600  -0.3718   0.02986   0.02367  -0.0267  1.0000  0.0348  -3.1020   0.0000   0.0000   0.0000   0.1763
  -4.500  -0.3609   0.02946   0.02312  -0.0262  1.0000  0.0337  -3.0801   0.0000   0.0000   0.0000   0.1756
  -4.400  -0.3513   0.02867   0.02221  -0.0258  1.0000  0.0333  -3.0528   0.0000   0.0000   0.0000   0.1747
  -4.300  -0.3424   0.02752   0.02091  -0.0254  1.0000  0.0332  -3.0414   0.0000   0.0000   0.0000   0.1739
  -4.200  -0.3339   0.02620   0.01942  -0.0250  1.0000  0.0333  -3.0392   0.0000   0.0000   0.0000   0.1732
  -4.100  -0.3254   0.02483   0.01787  -0.0246  1.0000  0.0336  -3.0395   0.0000   0.0000   0.0000   0.1725
  -4.000  -0.3167   0.02352   0.01638  -0.0241  1.0000  0.0339  -3.0370   0.0000   0.0000   0.0000   0.1718
  -3.900  -0.3079   0.02233   0.01504  -0.0237  1.0000  0.0342  -3.0290   0.0000   0.0000   0.0000   0.1711
  -3.800  -0.2988   0.02126   0.01383  -0.0232  1.0000  0.0345  -3.0166   0.0000   0.0000   0.0000   0.1704
  -3.700  -0.2897   0.02029   0.01273  -0.0227  1.0000  0.0347  -3.0026   0.0000   0.0000   0.0000   0.1697
  -3.600  -0.2807   0.01935   0.01168  -0.0221  1.0000  0.0350  -2.9885   0.0000   0.0000   0.0000   0.1692
  -3.500  -0.2719   0.01844   0.01069  -0.0215  1.0000  0.0356  -2.9727   0.0000   0.0000   0.0000   0.1688
  -3.400  -0.2636   0.01762   0.00982  -0.0209  1.0000  0.0366  -2.9515   0.0000   0.0000   0.0000   0.1685
  -3.300  -0.2556   0.01694   0.00911  -0.0203  1.0000  0.0380  -2.9224   0.0000   0.0000   0.0000   0.1686
  -3.200  -0.2482   0.01639   0.00855  -0.0196  1.0000  0.0398  -2.8889   0.0000   0.0000   0.0000   0.1690
  -3.100  -0.2414   0.01593   0.00808  -0.0188  1.0000  0.0423  -2.8579   0.0000   0.0000   0.0000   0.1700
  -3.000  -0.2352   0.01563   0.00777  -0.0180  1.0000  0.0466  -2.8186   0.0000   0.0000   0.0000   0.1713
  -2.900  -0.2293   0.01548   0.00759  -0.0172  1.0000  0.0518  -2.7791   0.0000   0.0000   0.0000   0.1730
  -2.800  -0.2241   0.01454   0.00668  -0.0162  1.0000  0.0609  -2.8229   0.0000   0.0000   0.0000   0.1755
  -2.700  -0.2183   0.01391   0.00614  -0.0154  1.0000  0.0867  -2.9040   0.0000   0.0000   0.0000   0.1776
  -2.600  -0.2050   0.01305   0.00572  -0.0162  0.9969  0.1666  -2.8941   0.0000   0.0000   0.0000   0.1689
  -2.500  -0.1884   0.01249   0.00545  -0.0177  0.9921  0.2376  -2.7628   0.0000   0.0000   0.0000   0.1542
  -2.400  -0.1718   0.01191   0.00522  -0.0191  0.9879  0.3230  -2.6107   0.0000   0.0000   0.0000   0.1368
  -2.300  -0.1587   0.01118   0.00509  -0.0198  0.9825  0.4534  -2.4671   0.0000   0.0000   0.0000   0.1232
  -2.200  -0.1481   0.01031   0.00508  -0.0193  0.9783  0.6600  -2.3299   0.0000   0.0000   0.0000   0.1174
  -2.100  -0.0989   0.00964   0.00492  -0.0246  0.9995  1.0000  -1.9413   0.0000   0.0000   0.0000  -0.0021
  -2.000  -0.0770   0.00965   0.00469  -0.0270  0.9931  1.0000  -1.7454   0.0000   0.0000   0.0000  -0.1038
  -1.900  -0.0554   0.00967   0.00454  -0.0293  0.9881  1.0000  -1.5512   0.0000   0.0000   0.0000  -0.2836
  -1.800  -0.0349   0.00968   0.00441  -0.0313  0.9820  1.0000  -1.3685   0.0000   0.0000   0.0000  -0.6538
  -1.700  -0.0141   0.00968   0.00428  -0.0335  0.9765  1.0000  -1.1878   0.0000   0.0000   0.0000  -2.1407
  -1.600   0.0072   0.00968   0.00416  -0.0356  0.9716  1.0000  -1.0098   0.0000   0.0000   0.0000   5.2402
  -1.500   0.0249   0.00968   0.00405  -0.0371  0.9637  1.0000  -0.8562   0.0000   0.0000   0.0000   1.7428
  -1.400   0.0441   0.00967   0.00394  -0.0388  0.9572  1.0000  -0.6991   0.0000   0.0000   0.0000   1.1321
  -1.300   0.0642   0.00966   0.00381  -0.0406  0.9520  1.0000  -0.5416   0.0000   0.0000   0.0000   0.8846
  -1.200   0.0792   0.00967   0.00374  -0.0415  0.9438  1.0000  -0.4902   0.0000   0.0000   0.0000   0.7748
  -1.100   0.0944   0.00968   0.00368  -0.0423  0.9362  1.0000  -0.4533   0.0000   0.0000   0.0000   0.6990
  -1.000   0.1104   0.00968   0.00360  -0.0432  0.9297  1.0000  -0.4154   0.0000   0.0000   0.0000   0.6422
  -0.900   0.1253   0.00970   0.00355  -0.0439  0.9232  1.0000  -0.3797   0.0000   0.0000   0.0000   0.6011
  -0.800   0.1358   0.00974   0.00353  -0.0438  0.9144  1.0000  -0.3689   0.0000   0.0000   0.0000   0.5729
  -0.700   0.1471   0.00978   0.00351  -0.0438  0.9065  1.0000  -0.3776   0.0000   0.0000   0.0000   0.5477
  -0.600   0.1587   0.00981   0.00348  -0.0437  0.8996  1.0000  -0.3866   0.0000   0.0000   0.0000   0.5255
  -0.500   0.1701   0.00986   0.00345  -0.0436  0.8935  1.0000  -0.3956   0.0000   0.0000   0.0000   0.5063
  -0.400   0.1793   0.00992   0.00347  -0.0433  0.8864  1.0000  -0.4031   0.0000   0.0000   0.0000   0.4911
  -0.300   0.1889   0.00998   0.00349  -0.0429  0.8796  1.0000  -0.4115   0.0000   0.0000   0.0000   0.4770
  -0.200   0.1983   0.01004   0.00350  -0.0425  0.8730  1.0000  -0.4206   0.0000   0.0000   0.0000   0.4640
  -0.100   0.2076   0.01009   0.00350  -0.0420  0.8669  1.0000  -0.4297   0.0000   0.0000   0.0000   0.4518
   0.000   0.2169   0.01017   0.00352  -0.0414  0.8611  1.0000  -0.4387   0.0000   0.0000   0.0000   0.4405
   0.100   0.2262   0.01025   0.00356  -0.0410  0.8553  1.0000  -0.4478   0.0000   0.0000   0.0000   0.4306
   0.200   0.2355   0.01030   0.00358  -0.0406  0.8489  1.0000  -0.4568   0.0000   0.0000   0.0000   0.4218
   0.300   0.2447   0.01036   0.00361  -0.0402  0.8423  1.0000  -0.4658   0.0000   0.0000   0.0000   0.4135
   0.400   0.2538   0.01042   0.00363  -0.0396  0.8360  1.0000  -0.4748   0.0000   0.0000   0.0000   0.4055
   0.500   0.2627   0.01047   0.00365  -0.0390  0.8302  1.0000  -0.4838   0.0000   0.0000   0.0000   0.3978
   0.600   0.2717   0.01055   0.00368  -0.0384  0.8248  1.0000  -0.4932   0.0000   0.0000   0.0000   0.3906
   0.700   0.2809   0.01066   0.00375  -0.0379  0.8197  1.0000  -0.5038   0.0000   0.0000   0.0000   0.3840
   0.800   0.2906   0.01074   0.00382  -0.0376  0.8147  1.0000  -0.5146   0.0000   0.0000   0.0000   0.3785
   0.900   0.3004   0.01080   0.00387  -0.0373  0.8091  1.0000  -0.5255   0.0000   0.0000   0.0000   0.3734
   1.000   0.3099   0.01085   0.00392  -0.0370  0.8030  1.0000  -0.5364   0.0000   0.0000   0.0000   0.3683
   1.100   0.3192   0.01091   0.00396  -0.0365  0.7969  1.0000  -0.5472   0.0000   0.0000   0.0000   0.3633
   1.200   0.3284   0.01096   0.00398  -0.0359  0.7909  1.0000  -0.5580   0.0000   0.0000   0.0000   0.3584
   1.300   0.3374   0.01102   0.00401  -0.0353  0.7851  1.0000  -0.5702   0.0000   0.0000   0.0000   0.3535
   1.400   0.3464   0.01112   0.00406  -0.0347  0.7795  1.0000  -0.5829   0.0000   0.0000   0.0000   0.3489
   1.500   0.3558   0.01126   0.00417  -0.0342  0.7738  1.0000  -0.5957   0.0000   0.0000   0.0000   0.3449
   1.600   0.3658   0.01130   0.00424  -0.0340  0.7685  1.0000  -0.6089   0.0000   0.0000   0.0000   0.3417
   1.700   0.3757   0.01135   0.00432  -0.0338  0.7629  1.0000  -0.6221   0.0000   0.0000   0.0000   0.3385
   1.800   0.3855   0.01141   0.00439  -0.0334  0.7570  1.0000  -0.6364   0.0000   0.0000   0.0000   0.3353
   1.900   0.3951   0.01146   0.00444  -0.0330  0.7509  1.0000  -0.6521   0.0000   0.0000   0.0000   0.3321
   2.000   0.4045   0.01151   0.00447  -0.0325  0.7449  1.0000  -0.6678   0.0000   0.0000   0.0000   0.3288
   2.100   0.4137   0.01158   0.00451  -0.0319  0.7390  1.0000  -0.6835   0.0000   0.0000   0.0000   0.3255
   2.200   0.4229   0.01169   0.00458  -0.0313  0.7328  1.0000  -0.6992   0.0000   0.0000   0.0000   0.3223
   2.300   0.4325   0.01182   0.00471  -0.0309  0.7266  1.0000  -0.7151   0.0000   0.0000   0.0000   0.3198
   2.400   0.4425   0.01185   0.00479  -0.0306  0.7204  1.0000  -0.7328   0.0000   0.0000   0.0000   0.3175
   2.500   0.4524   0.01188   0.00486  -0.0303  0.7135  1.0000  -0.7525   0.0000   0.0000   0.0000   0.3152
   2.600   0.4622   0.01193   0.00492  -0.0299  0.7068  1.0000  -0.7723   0.0000   0.0000   0.0000   0.3129
   2.700   0.4719   0.01197   0.00497  -0.0295  0.7003  1.0000  -0.7921   0.0000   0.0000   0.0000   0.3106
   2.800   0.4814   0.01202   0.00500  -0.0289  0.6939  1.0000  -0.8121   0.0000   0.0000   0.0000   0.3082
   2.900   0.4908   0.01211   0.00506  -0.0284  0.6872  1.0000  -0.8368   0.0000   0.0000   0.0000   0.3058
   3.000   0.5003   0.01229   0.00522  -0.0279  0.6798  1.0000  -0.8616   0.0000   0.0000   0.0000   0.3037
   3.100   0.5104   0.01229   0.00528  -0.0276  0.6732  1.0000  -0.8876   0.0000   0.0000   0.0000   0.3021
   3.200   0.5204   0.01231   0.00535  -0.0273  0.6654  1.0000  -0.9208   0.0000   0.0000   0.0000   0.3003
   3.300   0.5302   0.01234   0.00540  -0.0269  0.6574  1.0000  -0.9605   0.0000   0.0000   0.0000   0.2985
   3.400   0.5399   0.01236   0.00546  -0.0264  0.6497  1.0000  -1.0084   0.0000   0.0000   0.0000   0.2967
   3.500   0.5496   0.01240   0.00549  -0.0259  0.6423  1.0000  -1.0568   0.0000   0.0000   0.0000   0.2947
   3.600   0.5591   0.01252   0.00557  -0.0253  0.6342  1.0000  -1.1468   0.0000   0.0000   0.0000   0.2929
   3.700   0.5691   0.01260   0.00569  -0.0250  0.6264  1.0000  -1.2741   0.0000   0.0000   0.0000   0.2915
   3.800   0.5791   0.01260   0.00576  -0.0247  0.6177  1.0000  -1.4051   0.0000   0.0000   0.0000   0.2901
   3.900   0.5891   0.01260   0.00581  -0.0243  0.6081  1.0000  -1.5392   0.0000   0.0000   0.0000   0.2887
   4.000   0.5989   0.01260   0.00583  -0.0238  0.5990  1.0000  -1.6764   0.0000   0.0000   0.0000   0.2871
   4.100   0.6086   0.01263   0.00583  -0.0233  0.5901  1.0000  -1.8163   0.0000   0.0000   0.0000   0.2855
   4.200   0.6182   0.01278   0.00592  -0.0228  0.5802  1.0000  -1.9580   0.0000   0.0000   0.0000   0.2840
   4.300   0.6284   0.01276   0.00605  -0.0225  0.5709  1.0000  -2.1037   0.0000   0.0000   0.0000   0.2829
   4.400   0.6384   0.01276   0.00612  -0.0222  0.5598  1.0000  -2.2527   0.0000   0.0000   0.0000   0.2818
   4.500   0.6483   0.01277   0.00615  -0.0217  0.5487  1.0000  -2.4046   0.0000   0.0000   0.0000   0.2804
   4.600   0.6579   0.01281   0.00614  -0.0212  0.5377  1.0000  -2.5581   0.0000   0.0000   0.0000   0.2790
   4.700   0.6677   0.01290   0.00624  -0.0207  0.5263  1.0000  -2.7136   0.0000   0.0000   0.0000   0.2778
   4.800   0.6777   0.01291   0.00635  -0.0204  0.5134  1.0000  -2.8729   0.0000   0.0000   0.0000   0.2769
   4.900   0.6874   0.01295   0.00640  -0.0200  0.4994  1.0000  -3.0333   0.0000   0.0000   0.0000   0.2757
   5.000   0.6967   0.01304   0.00641  -0.0194  0.4852  1.0000  -3.1931   0.0000   0.0000   0.0000   0.2744
   5.100   0.7065   0.01313   0.00655  -0.0190  0.4701  1.0000  -3.3560   0.0000   0.0000   0.0000   0.2734
   5.200   0.7159   0.01319   0.00663  -0.0186  0.4522  1.0000  -3.5195   0.0000   0.0000   0.0000   0.2723
   5.300   0.7244   0.01338   0.00667  -0.0179  0.4319  1.0000  -3.6782   0.0000   0.0000   0.0000   0.2710
   5.400   0.7339   0.01344   0.00689  -0.0176  0.4101  1.0000  -3.8457   0.0000   0.0000   0.0000   0.2701
   5.500   0.7420   0.01368   0.00696  -0.0169  0.3839  1.0000  -4.0016   0.0000   0.0000   0.0000   0.2689
   5.600   0.7512   0.01382   0.00713  -0.0166  0.3566  1.0000  -4.1621   0.0000   0.0000   0.0000   0.2680
   5.700   0.7591   0.01411   0.00727  -0.0161  0.3204  1.0000  -4.3103   0.0000   0.0000   0.0000   0.2670
   5.800   0.7664   0.01452   0.00745  -0.0156  0.2704  1.0000  -4.4445   0.0000   0.0000   0.0000   0.2661
   5.900   0.7721   0.01528   0.00781  -0.0150  0.1944  1.0000  -4.5352   0.0000   0.0000   0.0000   0.2651
   6.000   0.7709   0.01766   0.00919  -0.0138  0.0748  1.0000  -4.4276   0.0000   0.0000   0.0000   0.2634
   6.100   0.7774   0.01866   0.01015  -0.0129  0.0572  1.0000  -4.3940   0.0000   0.0000   0.0000   0.2621
   6.200   0.7838   0.01959   0.01110  -0.0122  0.0475  1.0000  -4.3924   0.0000   0.0000   0.0000   0.2609
   6.300   0.7916   0.02029   0.01185  -0.0115  0.0423  1.0000  -4.3981   0.0000   0.0000   0.0000   0.2598
   6.400   0.7988   0.02108   0.01264  -0.0109  0.0382  1.0000  -4.4130   0.0000   0.0000   0.0000   0.2588
   6.500   0.8041   0.02238   0.01392  -0.0101  0.0343  1.0000  -4.4005   0.0000   0.0000   0.0000   0.2577
   6.600   0.8106   0.02378   0.01537  -0.0093  0.0319  1.0000  -4.3987   0.0000   0.0000   0.0000   0.2565
   6.700   0.8198   0.02445   0.01611  -0.0088  0.0306  1.0000  -4.4630   0.0000   0.0000   0.0000   0.2556
   6.800   0.8287   0.02537   0.01713  -0.0082  0.0298  1.0000  -4.5052   0.0000   0.0000   0.0000   0.2547
   6.900   0.8376   0.02639   0.01824  -0.0076  0.0291  1.0000  -4.5425   0.0000   0.0000   0.0000   0.2538
   7.000   0.8465   0.02750   0.01946  -0.0070  0.0286  1.0000  -4.5758   0.0000   0.0000   0.0000   0.2529
   7.100   0.8553   0.02868   0.02076  -0.0064  0.0282  1.0000  -4.6048   0.0000   0.0000   0.0000   0.2521
   7.200   0.8638   0.02993   0.02216  -0.0059  0.0280  1.0000  -4.6290   0.0000   0.0000   0.0000   0.2513
   7.300   0.8720   0.03126   0.02364  -0.0053  0.0280  1.0000  -4.6483   0.0000   0.0000   0.0000   0.2505
   7.400   0.8797   0.03261   0.02516  -0.0047  0.0279  1.0000  -4.6672   0.0000   0.0000   0.0000   0.2497
   7.500   0.8870   0.03397   0.02668  -0.0041  0.0278  1.0000  -4.6877   0.0000   0.0000   0.0000   0.2489
   7.600   0.8939   0.03531   0.02820  -0.0036  0.0276  1.0000  -4.7097   0.0000   0.0000   0.0000   0.2482
   7.700   0.9004   0.03666   0.02972  -0.0030  0.0273  1.0000  -4.7324   0.0000   0.0000   0.0000   0.2474
   7.800   0.9063   0.03804   0.03127  -0.0025  0.0271  1.0000  -4.7535   0.0000   0.0000   0.0000   0.2467
   7.900   0.9117   0.03946   0.03287  -0.0019  0.0269  1.0000  -4.7701   0.0000   0.0000   0.0000   0.2460
   8.000   0.9165   0.04096   0.03454  -0.0014  0.0268  1.0000  -4.7798   0.0000   0.0000   0.0000   0.2454
   8.100   0.9205   0.04254   0.03631  -0.0008  0.0268  1.0000  -4.7808   0.0000   0.0000   0.0000   0.2447
   8.200   0.9237   0.04423   0.03817  -0.0003  0.0270  1.0000  -4.7728   0.0000   0.0000   0.0000   0.2440
   8.300   0.9260   0.04600   0.04012   0.0002  0.0273  1.0000  -4.7569   0.0000   0.0000   0.0000   0.2434
   8.400   0.9274   0.04785   0.04214   0.0007  0.0277  1.0000  -4.7348   0.0000   0.0000   0.0000   0.2428
   8.500   0.9279   0.04977   0.04422   0.0012  0.0282  1.0000  -4.7084   0.0000   0.0000   0.0000   0.2423
   8.600   0.9276   0.05173   0.04633   0.0016  0.0287  1.0000  -4.6794   0.0000   0.0000   0.0000   0.2418
   8.700   0.9264   0.05373   0.04846   0.0019  0.0293  1.0000  -4.6489   0.0000   0.0000   0.0000   0.2413
   8.800   0.9243   0.05576   0.05061   0.0022  0.0297  1.0000  -4.6166   0.0000   0.0000   0.0000   0.2409
   8.900   0.9213   0.05783   0.05279   0.0024  0.0302  1.0000  -4.5816   0.0000   0.0000   0.0000   0.2406
   9.000   0.9173   0.05998   0.05503   0.0026  0.0307  1.0000  -4.5426   0.0000   0.0000   0.0000   0.2404
   9.100   0.9120   0.06232   0.05745   0.0026  0.0312  1.0000  -4.4948   0.0000   0.0000   0.0000   0.2402
  10.200   0.8329   0.08831   0.08432  -0.0119  0.0420  1.0000  -3.6542   0.0000   0.0000   0.0000   0.2566
  10.300   0.8245   0.09278   0.08878  -0.0152  0.0437  1.0000  -3.5218   0.0000   0.0000   0.0000   0.2608
  10.400   0.8187   0.09658   0.09256  -0.0175  0.0454  1.0000  -3.4240   0.0000   0.0000   0.0000   0.2638
  10.500   0.8142   0.09972   0.09568  -0.0191  0.0470  1.0000  -3.3573   0.0000   0.0000   0.0000   0.2658
  10.600   0.8099   0.10246   0.09840  -0.0199  0.0488  1.0000  -3.3135   0.0000   0.0000   0.0000   0.2668
  11.200   0.8122   0.12196   0.11792  -0.0263  0.0771  1.0000  -2.8561   0.0000   0.0000   0.0000   0.2746
  11.300   0.8064   0.12614   0.12209  -0.0266  0.0756  1.0000  -2.8205   0.0000   0.0000   0.0000   0.2751
  11.400   0.7960   0.13161   0.12748  -0.0286  0.0748  1.0000  -2.7171   0.0000   0.0000   0.0000   0.2781
  11.500   0.7949   0.13380   0.12966  -0.0299  0.0747  1.0000  -2.6861   0.0000   0.0000   0.0000   0.2797
  11.600   0.7939   0.13591   0.13176  -0.0311  0.0746  1.0000  -2.6563   0.0000   0.0000   0.0000   0.2812
  11.700   0.7930   0.13796   0.13379  -0.0324  0.0746  1.0000  -2.6276   0.0000   0.0000   0.0000   0.2828
  11.800   0.7923   0.13992   0.13574  -0.0336  0.0745  1.0000  -2.5997   0.0000   0.0000   0.0000   0.2843
  11.900   0.7917   0.14177   0.13758  -0.0349  0.0743  1.0000  -2.5722   0.0000   0.0000   0.0000   0.2859
  12.000   0.7911   0.14343   0.13924  -0.0363  0.0741  1.0000  -2.5445   0.0000   0.0000   0.0000   0.2876
  12.100   0.7905   0.14462   0.14041  -0.0380  0.0735  1.0000  -2.5134   0.0000   0.0000   0.0000   0.2897
  12.200   0.7884   0.14539   0.14115  -0.0406  0.0718  1.0000  -2.4606   0.0000   0.0000   0.0000   0.2931
  12.300   0.7866   0.14696   0.14270  -0.0426  0.0703  1.0000  -2.4143   0.0000   0.0000   0.0000   0.2957
  12.400   0.7858   0.14871   0.14444  -0.0441  0.0689  1.0000  -2.3801   0.0000   0.0000   0.0000   0.2977
  12.500   0.7855   0.15050   0.14622  -0.0453  0.0676  1.0000  -2.3539   0.0000   0.0000   0.0000   0.2992
  12.600   0.7856   0.15226   0.14797  -0.0464  0.0663  1.0000  -2.3340   0.0000   0.0000   0.0000   0.3005
  12.700   0.7861   0.15399   0.14970  -0.0473  0.0650  1.0000  -2.3193   0.0000   0.0000   0.0000   0.3015
  12.800   0.7869   0.15568   0.15137  -0.0481  0.0637  1.0000  -2.3097   0.0000   0.0000   0.0000   0.3024
  12.900   0.7881   0.15730   0.15299  -0.0489  0.0623  1.0000  -2.3056   0.0000   0.0000   0.0000   0.3032
  13.000   0.7897   0.15886   0.15455  -0.0494  0.0610  1.0000  -2.3080   0.0000   0.0000   0.0000   0.3037
  13.100   0.7919   0.16034   0.15603  -0.0498  0.0595  1.0000  -2.3195   0.0000   0.0000   0.0000   0.3039
  13.200   0.7950   0.16172   0.15741  -0.0500  0.0581  1.0000  -2.3436   0.0000   0.0000   0.0000   0.3037
  13.300   0.7991   0.16302   0.15872  -0.0497  0.0567  1.0000  -2.3853   0.0000   0.0000   0.0000   0.3030
  13.400   0.8043   0.16434   0.16005  -0.0491  0.0554  1.0000  -2.4414   0.0000   0.0000   0.0000   0.3017
  13.500   0.8092   0.16592   0.16164  -0.0485  0.0544  1.0000  -2.4949   0.0000   0.0000   0.0000   0.3004
  13.600   0.8149   0.16811   0.16385  -0.0472  0.0533  1.0000  -2.5611   0.0000   0.0000   0.0000   0.2983
  14.100   0.8119   0.18259   0.17824  -0.0518  0.0514  1.0000  -2.3878   0.0000   0.0000   0.0000   0.3038
  14.200   0.8132   0.18429   0.17993  -0.0528  0.0513  1.0000  -2.3693   0.0000   0.0000   0.0000   0.3048
  14.300   0.8146   0.18593   0.18157  -0.0537  0.0512  1.0000  -2.3509   0.0000   0.0000   0.0000   0.3058
  14.400   0.8160   0.18749   0.18312  -0.0547  0.0511  1.0000  -2.3325   0.0000   0.0000   0.0000   0.3068
  14.500   0.8175   0.18890   0.18453  -0.0558  0.0510  1.0000  -2.3142   0.0000   0.0000   0.0000   0.3079
  14.600   0.8190   0.19013   0.18575  -0.0568  0.0508  1.0000  -2.2955   0.0000   0.0000   0.0000   0.3090
  14.700   0.8206   0.19113   0.18675  -0.0580  0.0505  1.0000  -2.2757   0.0000   0.0000   0.0000   0.3102
  14.800   0.8210   0.19187   0.18747  -0.0595  0.0501  1.0000  -2.2429   0.0000   0.0000   0.0000   0.3119
  14.900   0.8212   0.19249   0.18808  -0.0612  0.0494  1.0000  -2.2052   0.0000   0.0000   0.0000   0.3138
  15.000   0.8209   0.19320   0.18877  -0.0628  0.0487  1.0000  -2.1665   0.0000   0.0000   0.0000   0.3157
  15.100   0.8213   0.19423   0.18979  -0.0642  0.0478  1.0000  -2.1340   0.0000   0.0000   0.0000   0.3174
  15.200   0.8224   0.19553   0.19109  -0.0654  0.0469  1.0000  -2.1090   0.0000   0.0000   0.0000   0.3186
  15.300   0.8239   0.19699   0.19254  -0.0665  0.0461  1.0000  -2.0896   0.0000   0.0000   0.0000   0.3196
  15.400   0.8256   0.19852   0.19407  -0.0674  0.0452  1.0000  -2.0743   0.0000   0.0000   0.0000   0.3205
  15.500   0.8275   0.20010   0.19564  -0.0683  0.0444  1.0000  -2.0618   0.0000   0.0000   0.0000   0.3213
  15.600   0.8294   0.20170   0.19724  -0.0691  0.0436  1.0000  -2.0514   0.0000   0.0000   0.0000   0.3220
  15.700   0.8315   0.20331   0.19885  -0.0699  0.0429  1.0000  -2.0428   0.0000   0.0000   0.0000   0.3226
  15.800   0.8335   0.20493   0.20047  -0.0707  0.0422  1.0000  -2.0357   0.0000   0.0000   0.0000   0.3232
  15.900   0.8357   0.20656   0.20210  -0.0714  0.0415  1.0000  -2.0302   0.0000   0.0000   0.0000   0.3238
  16.000   0.8379   0.20820   0.20374  -0.0721  0.0408  1.0000  -2.0261   0.0000   0.0000   0.0000   0.3243
  16.100   0.8402   0.20984   0.20537  -0.0728  0.0402  1.0000  -2.0236   0.0000   0.0000   0.0000   0.3248
  16.200   0.8425   0.21148   0.20701  -0.0734  0.0395  1.0000  -2.0226   0.0000   0.0000   0.0000   0.3252
  16.300   0.8448   0.21312   0.20866  -0.0741  0.0389  1.0000  -2.0235   0.0000   0.0000   0.0000   0.3256
  16.400   0.8473   0.21476   0.21030  -0.0747  0.0383  1.0000  -2.0265   0.0000   0.0000   0.0000   0.3259
  16.500   0.8498   0.21642   0.21196  -0.0752  0.0377  1.0000  -2.0318   0.0000   0.0000   0.0000   0.3262
  16.600   0.8524   0.21808   0.21363  -0.0757  0.0372  1.0000  -2.0401   0.0000   0.0000   0.0000   0.3264
  16.700   0.8551   0.21977   0.21532  -0.0761  0.0366  1.0000  -2.0519   0.0000   0.0000   0.0000   0.3265
  16.800   0.8581   0.22150   0.21705  -0.0765  0.0360  1.0000  -2.0683   0.0000   0.0000   0.0000   0.3264
  16.900   0.8613   0.22332   0.21888  -0.0767  0.0355  1.0000  -2.0911   0.0000   0.0000   0.0000   0.3262
  17.000   0.8650   0.22532   0.22089  -0.0767  0.0349  1.0000  -2.1235   0.0000   0.0000   0.0000   0.3257
  17.100   0.8701   0.22787   0.22345  -0.0762  0.0343  1.0000  -2.1756   0.0000   0.0000   0.0000   0.3245
  17.200   0.8764   0.23220   0.22781  -0.0750  0.0334  1.0000  -2.2444   0.0000   0.0000   0.0000   0.3224
  17.300   0.8738   0.23982   0.23537  -0.0756  0.0325  1.0000  -2.1576   0.0000   0.0000   0.0000   0.3233
  17.400   0.8757   0.24164   0.23719  -0.0764  0.0325  1.0000  -2.1437   0.0000   0.0000   0.0000   0.3239
  17.500   0.8777   0.24345   0.23899  -0.0772  0.0324  1.0000  -2.1299   0.0000   0.0000   0.0000   0.3246
  17.600   0.8796   0.24524   0.24079  -0.0781  0.0324  1.0000  -2.1163   0.0000   0.0000   0.0000   0.3252
  17.700   0.8815   0.24702   0.24257  -0.0789  0.0324  1.0000  -2.1028   0.0000   0.0000   0.0000   0.3259
  17.800   0.8834   0.24878   0.24433  -0.0797  0.0323  1.0000  -2.0895   0.0000   0.0000   0.0000   0.3265
  17.900   0.8853   0.25053   0.24607  -0.0806  0.0323  1.0000  -2.0763   0.0000   0.0000   0.0000   0.3272
  18.000   0.8871   0.25225   0.24780  -0.0814  0.0323  1.0000  -2.0632   0.0000   0.0000   0.0000   0.3278
  18.100   0.8890   0.25396   0.24950  -0.0823  0.0322  1.0000  -2.0501   0.0000   0.0000   0.0000   0.3284
  18.200   0.8908   0.25563   0.25117  -0.0831  0.0322  1.0000  -2.0371   0.0000   0.0000   0.0000   0.3291
  18.300   0.8926   0.25727   0.25281  -0.0840  0.0321  1.0000  -2.0241   0.0000   0.0000   0.0000   0.3297
  18.400   0.8944   0.25887   0.25441  -0.0848  0.0321  1.0000  -2.0110   0.0000   0.0000   0.0000   0.3304
  18.500   0.8961   0.26043   0.25597  -0.0857  0.0320  1.0000  -1.9979   0.0000   0.0000   0.0000   0.3311
  18.600   0.8974   0.26186   0.25740  -0.0867  0.0319  1.0000  -1.9805   0.0000   0.0000   0.0000   0.3319
  18.700   0.8986   0.26321   0.25875  -0.0877  0.0318  1.0000  -1.9617   0.0000   0.0000   0.0000   0.3328
  18.800   0.8994   0.26444   0.25998  -0.0888  0.0317  1.0000  -1.9399   0.0000   0.0000   0.0000   0.3338
  18.900   0.9002   0.26564   0.26117  -0.0899  0.0316  1.0000  -1.9174   0.0000   0.0000   0.0000   0.3348
  19.000   0.9011   0.26681   0.26234  -0.0911  0.0314  1.0000  -1.8941   0.0000   0.0000   0.0000   0.3359
  19.100   0.9022   0.26799   0.26351  -0.0923  0.0312  1.0000  -1.8700   0.0000   0.0000   0.0000   0.3370
  19.200   0.9034   0.26921   0.26473  -0.0935  0.0309  1.0000  -1.8454   0.0000   0.0000   0.0000   0.3380
  19.300   0.9048   0.27054   0.26607  -0.0946  0.0305  1.0000  -1.8214   0.0000   0.0000   0.0000   0.3390
  19.400   0.9065   0.27203   0.26755  -0.0957  0.0301  1.0000  -1.7994   0.0000   0.0000   0.0000   0.3399
  19.500   0.9083   0.27369   0.26936  -0.0968  0.0297  1.0000  -1.7796   0.0000   0.0000   0.0000   0.3407
  19.600   0.9101   0.27546   0.27113  -0.0977  0.0292  1.0000  -1.7637   0.0000   0.0000   0.0000   0.3414
  19.700   0.9119   0.27732   0.27299  -0.0985  0.0287  1.0000  -1.7504   0.0000   0.0000   0.0000   0.3419
  19.800   0.9137   0.27922   0.27490  -0.0993  0.0283  1.0000  -1.7389   0.0000   0.0000   0.0000   0.3425
  19.900   0.9155   0.28115   0.27683  -0.1001  0.0278  1.0000  -1.7289   0.0000   0.0000   0.0000   0.3430
  20.000   0.9172   0.28310   0.27879  -0.1008  0.0274  1.0000  -1.7201   0.0000   0.0000   0.0000   0.3434
  20.100   0.9188   0.28507   0.28076  -0.1015  0.0269  1.0000  -1.7122   0.0000   0.0000   0.0000   0.3439
  20.200   0.9204   0.28705   0.28274  -0.1022  0.0265  1.0000  -1.7051   0.0000   0.0000   0.0000   0.3443
  20.300   0.9220   0.28903   0.28473  -0.1029  0.0261  1.0000  -1.6987   0.0000   0.0000   0.0000   0.3448
  20.400   0.9235   0.29101   0.28672  -0.1036  0.0257  1.0000  -1.6929   0.0000   0.0000   0.0000   0.3452
  20.500   0.9250   0.29300   0.28872  -0.1042  0.0253  1.0000  -1.6877   0.0000   0.0000   0.0000   0.3456
  20.600   0.9265   0.29499   0.29071  -0.1049  0.0249  1.0000  -1.6830   0.0000   0.0000   0.0000   0.3460
  20.700   0.9279   0.29698   0.29271  -0.1055  0.0245  1.0000  -1.6789   0.0000   0.0000   0.0000   0.3464
  20.800   0.9292   0.29897   0.29471  -0.1062  0.0242  1.0000  -1.6752   0.0000   0.0000   0.0000   0.3467
  20.900   0.9305   0.30096   0.29670  -0.1068  0.0238  1.0000  -1.6720   0.0000   0.0000   0.0000   0.3471
  21.000   0.9317   0.30294   0.29869  -0.1074  0.0235  1.0000  -1.6693   0.0000   0.0000   0.0000   0.3475
  21.100   0.9329   0.30493   0.30068  -0.1080  0.0231  1.0000  -1.6671   0.0000   0.0000   0.0000   0.3478
  21.200   0.9340   0.30690   0.30267  -0.1086  0.0228  1.0000  -1.6654   0.0000   0.0000   0.0000   0.3482
  21.300   0.9350   0.30888   0.30465  -0.1091  0.0225  1.0000  -1.6642   0.0000   0.0000   0.0000   0.3485
  21.400   0.9360   0.31085   0.30663  -0.1097  0.0222  1.0000  -1.6635   0.0000   0.0000   0.0000   0.3488
  21.500   0.9369   0.31281   0.30860  -0.1102  0.0219  1.0000  -1.6633   0.0000   0.0000   0.0000   0.3491
  21.600   0.9377   0.31477   0.31057  -0.1107  0.0216  1.0000  -1.6637   0.0000   0.0000   0.0000   0.3495
  21.700   0.9384   0.31672   0.31252  -0.1112  0.0213  1.0000  -1.6645   0.0000   0.0000   0.0000   0.3498
  21.800   0.9390   0.31866   0.31447  -0.1117  0.0211  1.0000  -1.6659   0.0000   0.0000   0.0000   0.3500
  21.900   0.9395   0.32059   0.31642  -0.1121  0.0208  1.0000  -1.6678   0.0000   0.0000   0.0000   0.3503
  22.000   0.9399   0.32251   0.31835  -0.1126  0.0206  1.0000  -1.6703   0.0000   0.0000   0.0000   0.3506
  22.100   0.9401   0.32442   0.32027  -0.1129  0.0203  1.0000  -1.6732   0.0000   0.0000   0.0000   0.3508
  22.200   0.9402   0.32632   0.32218  -0.1133  0.0201  1.0000  -1.6766   0.0000   0.0000   0.0000   0.3511
  22.300   0.9401   0.32821   0.32408  -0.1136  0.0199  1.0000  -1.6805   0.0000   0.0000   0.0000   0.3513
  22.400   0.9398   0.33008   0.32597  -0.1139  0.0197  1.0000  -1.6847   0.0000   0.0000   0.0000   0.3515
  22.500   0.9393   0.33193   0.32784  -0.1141  0.0195  1.0000  -1.6892   0.0000   0.0000   0.0000   0.3516
  22.600   0.9385   0.33377   0.32969  -0.1143  0.0193  1.0000  -1.6942   0.0000   0.0000   0.0000   0.3518
  22.700   0.9374   0.33559   0.33153  -0.1143  0.0191  1.0000  -1.6997   0.0000   0.0000   0.0000   0.3519
  22.800   0.9359   0.33738   0.33334  -0.1143  0.0190  1.0000  -1.7055   0.0000   0.0000   0.0000   0.3520
  22.900   0.9339   0.33915   0.33513  -0.1142  0.0188  1.0000  -1.7113   0.0000   0.0000   0.0000   0.3520
  23.000   0.9311   0.34087   0.33688  -0.1139  0.0186  1.0000  -1.7163   0.0000   0.0000   0.0000   0.3519
  23.100   0.8712   0.32717   0.32333  -0.1081  0.0192  1.0000  -1.5005   0.0000   0.0000   0.0000   0.3545
  23.200   0.8643   0.32643   0.32262  -0.1076  0.0191  1.0000  -1.4852   0.0000   0.0000   0.0000   0.3549
  23.300   0.8589   0.32606   0.32228  -0.1071  0.0189  1.0000  -1.4762   0.0000   0.0000   0.0000   0.3551
  23.400   0.8546   0.32595   0.32220  -0.1068  0.0188  1.0000  -1.4720   0.0000   0.0000   0.0000   0.3553
  23.500   0.8509   0.32610   0.32238  -0.1064  0.0186  1.0000  -1.4780   0.0000   0.0000   0.0000   0.3553
  23.600   0.8481   0.32662   0.32292  -0.1060  0.0184  1.0000  -1.4888   0.0000   0.0000   0.0000   0.3552
  23.700   0.8466   0.32799   0.32432  -0.1055  0.0182  1.0000  -1.5071   0.0000   0.0000   0.0000   0.3548
  23.800   0.8477   0.33342   0.32977  -0.1048  0.0178  1.0000  -1.5130   0.0000   0.0000   0.0000   0.3537


