xflr5 v6.61

 Calculated polar for: MH 22

 1 1 Reynolds number fixed          Mach number fixed         

 xtrf =   1.000 (top)        1.000 (bottom)
 Mach =   0.000     Re =     1.000 e 6     Ncrit =   9.000

  alpha     CL        CD       CDp       Cm    Top Xtr Bot Xtr   Cpmin    Chinge    XCp    
 ------- -------- --------- --------- -------- ------- ------- -------- --------- ---------
 -10.000  -0.5690   0.11364   0.11210   0.0191  1.0000  0.0043  -2.7408   0.0000   0.0000   0.0000   0.2799
  -9.900  -0.5671   0.11231   0.11078   0.0186  1.0000  0.0043  -2.7040   0.0000   0.0000   0.0000   0.2792
  -9.800  -0.5653   0.11096   0.10944   0.0180  1.0000  0.0043  -2.6748   0.0000   0.0000   0.0000   0.2784
  -9.700  -0.5636   0.10959   0.10807   0.0174  1.0000  0.0044  -2.6515   0.0000   0.0000   0.0000   0.2775
  -9.600  -0.5619   0.10820   0.10668   0.0168  1.0000  0.0044  -2.6329   0.0000   0.0000   0.0000   0.2765
  -9.500  -0.5603   0.10680   0.10529   0.0162  1.0000  0.0044  -2.6184   0.0000   0.0000   0.0000   0.2756
  -9.400  -0.5589   0.10540   0.10389   0.0155  1.0000  0.0044  -2.6074   0.0000   0.0000   0.0000   0.2746
  -9.300  -0.5574   0.10398   0.10248   0.0149  1.0000  0.0045  -2.5995   0.0000   0.0000   0.0000   0.2736
  -9.200  -0.5559   0.10253   0.10103   0.0142  1.0000  0.0045  -2.5934   0.0000   0.0000   0.0000   0.2725
  -9.100  -0.5544   0.10106   0.09957   0.0135  1.0000  0.0045  -2.5895   0.0000   0.0000   0.0000   0.2713
  -9.000  -0.5529   0.09959   0.09809   0.0128  1.0000  0.0046  -2.5878   0.0000   0.0000   0.0000   0.2701
  -8.900  -0.5515   0.09810   0.09661   0.0121  1.0000  0.0046  -2.5881   0.0000   0.0000   0.0000   0.2689
  -8.800  -0.5502   0.09661   0.09513   0.0113  1.0000  0.0046  -2.5904   0.0000   0.0000   0.0000   0.2677
  -8.700  -0.5489   0.09511   0.09364   0.0106  1.0000  0.0046  -2.5946   0.0000   0.0000   0.0000   0.2664
  -8.600  -0.5478   0.09361   0.09214   0.0098  1.0000  0.0047  -2.6005   0.0000   0.0000   0.0000   0.2651
  -8.500  -0.5468   0.09212   0.09066   0.0091  1.0000  0.0047  -2.6081   0.0000   0.0000   0.0000   0.2638
  -8.400  -0.5459   0.09062   0.08916   0.0083  1.0000  0.0047  -2.6173   0.0000   0.0000   0.0000   0.2625
  -8.300  -0.5450   0.08910   0.08765   0.0075  1.0000  0.0048  -2.6276   0.0000   0.0000   0.0000   0.2610
  -8.200  -0.5442   0.08756   0.08612   0.0066  1.0000  0.0048  -2.6394   0.0000   0.0000   0.0000   0.2596
  -8.100  -0.5436   0.08603   0.08460   0.0058  1.0000  0.0048  -2.6528   0.0000   0.0000   0.0000   0.2580
  -8.000  -0.5432   0.08450   0.08308   0.0049  1.0000  0.0048  -2.6681   0.0000   0.0000   0.0000   0.2565
  -7.900  -0.5430   0.08296   0.08155   0.0040  1.0000  0.0049  -2.6852   0.0000   0.0000   0.0000   0.2549
  -7.800  -0.5432   0.08141   0.08001   0.0030  1.0000  0.0049  -2.7047   0.0000   0.0000   0.0000   0.2532
  -7.700  -0.5439   0.07986   0.07847   0.0020  1.0000  0.0049  -2.7275   0.0000   0.0000   0.0000   0.2514
  -7.600  -0.5451   0.07829   0.07691   0.0009  1.0000  0.0049  -2.7543   0.0000   0.0000   0.0000   0.2494
  -7.500  -0.5454   0.07657   0.07520  -0.0007  1.0000  0.0049  -2.7829   0.0000   0.0000   0.0000   0.2466
  -7.400  -0.5436   0.07464   0.07327  -0.0027  1.0000  0.0049  -2.8098   0.0000   0.0000   0.0000   0.2429
  -7.300  -0.5414   0.07264   0.07127  -0.0048  1.0000  0.0050  -2.8368   0.0000   0.0000   0.0000   0.2391
  -7.200  -0.5386   0.07060   0.06923  -0.0069  1.0000  0.0050  -2.8639   0.0000   0.0000   0.0000   0.2352
  -7.100  -0.5354   0.06852   0.06714  -0.0089  1.0000  0.0050  -2.8907   0.0000   0.0000   0.0000   0.2314
  -7.000  -0.5316   0.06642   0.06502  -0.0109  1.0000  0.0051  -2.9167   0.0000   0.0000   0.0000   0.2276
  -6.900  -0.5275   0.06431   0.06289  -0.0128  1.0000  0.0051  -2.9416   0.0000   0.0000   0.0000   0.2239
  -6.800  -0.5229   0.06219   0.06076  -0.0146  1.0000  0.0051  -2.9648   0.0000   0.0000   0.0000   0.2203
  -6.700  -0.5179   0.06009   0.05863  -0.0162  1.0000  0.0052  -2.9861   0.0000   0.0000   0.0000   0.2169
  -6.600  -0.5125   0.05800   0.05652  -0.0177  1.0000  0.0052  -3.0050   0.0000   0.0000   0.0000   0.2136
  -6.500  -0.5068   0.05596   0.05445  -0.0191  1.0000  0.0053  -3.0204   0.0000   0.0000   0.0000   0.2106
  -6.400  -0.5006   0.05396   0.05241  -0.0203  1.0000  0.0054  -3.0323   0.0000   0.0000   0.0000   0.2077
  -6.300  -0.4941   0.05203   0.05044  -0.0213  1.0000  0.0054  -3.0392   0.0000   0.0000   0.0000   0.2051
  -6.200  -0.4871   0.05017   0.04854  -0.0222  1.0000  0.0055  -3.0402   0.0000   0.0000   0.0000   0.2026
  -6.100  -0.4798   0.04842   0.04675  -0.0229  1.0000  0.0056  -3.0333   0.0000   0.0000   0.0000   0.2004
  -6.000  -0.4720   0.04681   0.04510  -0.0235  1.0000  0.0057  -3.0155   0.0000   0.0000   0.0000   0.1983
  -5.900  -0.4635   0.04538   0.04362  -0.0240  1.0000  0.0059  -2.9842   0.0000   0.0000   0.0000   0.1965
  -5.800  -0.4547   0.04402   0.04217  -0.0243  1.0000  0.0060  -2.9485   0.0000   0.0000   0.0000   0.1947
  -5.700  -0.4462   0.04246   0.04055  -0.0247  1.0000  0.0060  -2.9346   0.0000   0.0000   0.0000   0.1929
  -5.600  -0.4382   0.04072   0.03874  -0.0250  1.0000  0.0061  -2.9419   0.0000   0.0000   0.0000   0.1912
  -5.500  -0.4305   0.03893   0.03687  -0.0252  1.0000  0.0061  -2.9584   0.0000   0.0000   0.0000   0.1896
  -5.400  -0.4230   0.03717   0.03502  -0.0253  1.0000  0.0061  -2.9767   0.0000   0.0000   0.0000   0.1882
  -5.300  -0.4155   0.03548   0.03323  -0.0254  1.0000  0.0061  -2.9930   0.0000   0.0000   0.0000   0.1869
  -5.200  -0.4080   0.03387   0.03152  -0.0254  1.0000  0.0062  -3.0046   0.0000   0.0000   0.0000   0.1858
  -5.100  -0.3986   0.03220   0.02973  -0.0258  0.9929  0.0062  -3.0116   0.0000   0.0000   0.0000   0.1833
  -5.000  -0.3962   0.02318   0.02002  -0.0273  0.9690  0.0070  -3.7420   0.0000   0.0000   0.0000   0.1789
  -4.900  -0.3843   0.02127   0.01791  -0.0280  0.9459  0.0075  -3.7283   0.0000   0.0000   0.0000   0.1748
  -4.400  -0.3422   0.01808   0.01405  -0.0256  0.8470  0.0092  -3.2774   0.0000   0.0000   0.0000   0.1731
  -4.300  -0.3328   0.01755   0.01341  -0.0252  0.8338  0.0096  -3.1834   0.0000   0.0000   0.0000   0.1721
  -4.100  -0.3131   0.01279   0.00780  -0.0223  0.8140  0.0043  -4.1295   0.0000   0.0000   0.0000   0.1764
  -4.000  -0.3027   0.01241   0.00735  -0.0220  0.8058  0.0040  -4.0507   0.0000   0.0000   0.0000   0.1750
  -3.800  -0.2799   0.01491   0.01011  -0.0228  0.7842  0.0064  -3.0585   0.0000   0.0000   0.0000   0.1664
  -3.600  -0.2630   0.01021   0.00471  -0.0204  0.7713  0.0039  -3.9016   0.0000   0.0000   0.0000   0.1702
  -3.500  -0.2525   0.00988   0.00431  -0.0201  0.7661  0.0040  -3.8218   0.0000   0.0000   0.0000   0.1680
  -3.400  -0.2419   0.00965   0.00401  -0.0199  0.7604  0.0041  -3.7184   0.0000   0.0000   0.0000   0.1655
  -3.300  -0.2316   0.00933   0.00361  -0.0196  0.7545  0.0042  -3.6375   0.0000   0.0000   0.0000   0.1631
  -3.200  -0.2216   0.00892   0.00310  -0.0193  0.7482  0.0044  -3.5709   0.0000   0.0000   0.0000   0.1609
  -3.100  -0.2113   0.00873   0.00285  -0.0191  0.7408  0.0047  -3.4244   0.0000   0.0000   0.0000   0.1575
  -2.900  -0.1898   0.00857   0.00266  -0.0189  0.7278  0.0054  -3.0504   0.0000   0.0000   0.0000   0.1481
  -2.800  -0.1787   0.00853   0.00264  -0.0189  0.7254  0.0059  -2.8576   0.0000   0.0000   0.0000   0.1421
  -2.700  -0.1676   0.00846   0.00257  -0.0188  0.7227  0.0062  -2.6907   0.0000   0.0000   0.0000   0.1354
  -2.600  -0.1570   0.00811   0.00208  -0.0185  0.7199  0.0067  -2.6421   0.0000   0.0000   0.0000   0.1299
  -2.500  -0.1460   0.00787   0.00169  -0.0182  0.7169  0.0091  -2.6260   0.0000   0.0000   0.0000   0.1231
  -2.400  -0.1361   0.00745   0.00149  -0.0179  0.7137  0.0529  -2.5641   0.0000   0.0000   0.0000   0.1159
  -2.300  -0.1256   0.00727   0.00141  -0.0178  0.7101  0.0784  -2.3950   0.0000   0.0000   0.0000   0.1057
  -2.200  -0.1152   0.00711   0.00134  -0.0177  0.7061  0.1063  -2.2456   0.0000   0.0000   0.0000   0.0936
  -2.100  -0.1046   0.00700   0.00128  -0.0177  0.7016  0.1285  -2.1030   0.0000   0.0000   0.0000   0.0787
  -2.000  -0.0939   0.00691   0.00121  -0.0176  0.6965  0.1496  -1.9639   0.0000   0.0000   0.0000   0.0604
  -1.900  -0.0835   0.00678   0.00116  -0.0175  0.6906  0.1788  -1.8234   0.0000   0.0000   0.0000   0.0380
  -1.800  -0.0729   0.00668   0.00111  -0.0174  0.6848  0.2040  -1.6835   0.0000   0.0000   0.0000   0.0083
  -1.700  -0.0621   0.00661   0.00108  -0.0174  0.6806  0.2205  -1.5443   0.0000   0.0000   0.0000  -0.0328
  -1.600  -0.0511   0.00652   0.00104  -0.0173  0.6796  0.2420  -1.4075   0.0000   0.0000   0.0000  -0.0922
  -1.500  -0.0403   0.00641   0.00100  -0.0173  0.6785  0.2638  -1.2742   0.0000   0.0000   0.0000  -0.1826
  -1.400  -0.0296   0.00628   0.00096  -0.0172  0.6773  0.2961  -1.1451   0.0000   0.0000   0.0000  -0.3362
  -1.300  -0.0192   0.00610   0.00093  -0.0171  0.6758  0.3431  -1.0210   0.0000   0.0000   0.0000  -0.6475
  -1.200  -0.0092   0.00587   0.00090  -0.0170  0.6739  0.4051  -0.9022   0.0000   0.0000   0.0000  -1.6064
  -1.100   0.0008   0.00566   0.00087  -0.0169  0.6717  0.4656  -0.7861   0.0000   0.0000   0.0000  21.9631
  -1.000   0.0108   0.00548   0.00084  -0.0167  0.6691  0.5199  -0.6700   0.0000   0.0000   0.0000   1.7989
  -0.900   0.0208   0.00532   0.00082  -0.0165  0.6661  0.5682  -0.5611   0.0000   0.0000   0.0000   1.0430
  -0.800   0.0307   0.00516   0.00080  -0.0162  0.6628  0.6172  -0.4951   0.0000   0.0000   0.0000   0.7795
  -0.700   0.0404   0.00501   0.00078  -0.0159  0.6595  0.6659  -0.4656   0.0000   0.0000   0.0000   0.6445
  -0.600   0.0498   0.00486   0.00077  -0.0155  0.6560  0.7161  -0.4366   0.0000   0.0000   0.0000   0.5617
  -0.500   0.0589   0.00471   0.00076  -0.0150  0.6526  0.7672  -0.4083   0.0000   0.0000   0.0000   0.5049
  -0.400   0.0677   0.00456   0.00075  -0.0144  0.6491  0.8214  -0.3807   0.0000   0.0000   0.0000   0.4625
  -0.300   0.0761   0.00438   0.00077  -0.0136  0.6452  0.8893  -0.3619   0.0000   0.0000   0.0000   0.4282
  -0.200   0.1020   0.00433   0.00082  -0.0166  0.6406  0.9567  -0.3782   0.0000   0.0000   0.0000   0.4125
   0.000   0.1368   0.00441   0.00083  -0.0193  0.6311  0.9804  -0.4028   0.0000   0.0000   0.0000   0.3905
   0.200   0.1710   0.00441   0.00082  -0.0219  0.6289  0.9917  -0.4298   0.0000   0.0000   0.0000   0.3772
   0.300   0.1874   0.00441   0.00081  -0.0230  0.6273  0.9947  -0.4430   0.0000   0.0000   0.0000   0.3721
   0.400   0.2026   0.00442   0.00080  -0.0239  0.6254  0.9968  -0.4555   0.0000   0.0000   0.0000   0.3671
   0.500   0.2201   0.00441   0.00078  -0.0253  0.6232  0.9989  -0.4695   0.0000   0.0000   0.0000   0.3642
   0.600   0.2344   0.00441   0.00077  -0.0260  0.6208  1.0000  -0.4816   0.0000   0.0000   0.0000   0.3601
   0.700   0.2450   0.00442   0.00077  -0.0259  0.6182  1.0000  -0.4916   0.0000   0.0000   0.0000   0.3547
   0.800   0.2556   0.00443   0.00076  -0.0258  0.6150  1.0000  -0.5026   0.0000   0.0000   0.0000   0.3497
   0.900   0.2661   0.00445   0.00076  -0.0256  0.6112  1.0000  -0.5143   0.0000   0.0000   0.0000   0.3451
   1.000   0.2767   0.00447   0.00075  -0.0255  0.6065  1.0000  -0.5260   0.0000   0.0000   0.0000   0.3409
   1.100   0.2872   0.00449   0.00075  -0.0253  0.6011  1.0000  -0.5376   0.0000   0.0000   0.0000   0.3369
   1.200   0.2976   0.00453   0.00075  -0.0251  0.5946  1.0000  -0.5493   0.0000   0.0000   0.0000   0.3333
   1.300   0.3081   0.00456   0.00075  -0.0250  0.5876  1.0000  -0.5611   0.0000   0.0000   0.0000   0.3299
   1.400   0.3187   0.00460   0.00076  -0.0249  0.5814  1.0000  -0.5739   0.0000   0.0000   0.0000   0.3267
   1.500   0.3294   0.00460   0.00077  -0.0247  0.5798  1.0000  -0.5878   0.0000   0.0000   0.0000   0.3238
   1.600   0.3401   0.00460   0.00077  -0.0246  0.5781  1.0000  -0.6018   0.0000   0.0000   0.0000   0.3210
   1.700   0.3508   0.00461   0.00079  -0.0245  0.5755  1.0000  -0.6158   0.0000   0.0000   0.0000   0.3184
   1.800   0.3614   0.00462   0.00080  -0.0244  0.5714  1.0000  -0.6299   0.0000   0.0000   0.0000   0.3159
   1.900   0.3720   0.00464   0.00080  -0.0242  0.5655  1.0000  -0.6463   0.0000   0.0000   0.0000   0.3136
   2.000   0.3826   0.00467   0.00081  -0.0241  0.5580  1.0000  -0.6630   0.0000   0.0000   0.0000   0.3114
   2.100   0.3930   0.00471   0.00082  -0.0239  0.5498  1.0000  -0.6796   0.0000   0.0000   0.0000   0.3092
   2.200   0.4034   0.00477   0.00082  -0.0238  0.5390  1.0000  -0.6962   0.0000   0.0000   0.0000   0.3072
   2.300   0.4139   0.00481   0.00084  -0.0236  0.5293  1.0000  -0.7130   0.0000   0.0000   0.0000   0.3054
   2.400   0.4246   0.00484   0.00086  -0.0235  0.5238  1.0000  -0.7306   0.0000   0.0000   0.0000   0.3036
   2.500   0.4351   0.00488   0.00088  -0.0234  0.5149  1.0000  -0.7511   0.0000   0.0000   0.0000   0.3019
   2.600   0.4455   0.00493   0.00090  -0.0232  0.5037  1.0000  -0.7716   0.0000   0.0000   0.0000   0.3002
   2.700   0.4559   0.00501   0.00092  -0.0231  0.4912  1.0000  -0.7921   0.0000   0.0000   0.0000   0.2986
   2.800   0.4663   0.00507   0.00095  -0.0229  0.4790  1.0000  -0.8128   0.0000   0.0000   0.0000   0.2971
   2.900   0.4769   0.00511   0.00098  -0.0228  0.4717  1.0000  -0.8376   0.0000   0.0000   0.0000   0.2957
   3.000   0.4873   0.00518   0.00101  -0.0227  0.4604  1.0000  -0.8636   0.0000   0.0000   0.0000   0.2943
   3.100   0.4975   0.00528   0.00104  -0.0225  0.4460  1.0000  -0.8905   0.0000   0.0000   0.0000   0.2930
   3.200   0.5078   0.00537   0.00108  -0.0223  0.4309  1.0000  -0.9243   0.0000   0.0000   0.0000   0.2917
   3.300   0.5184   0.00540   0.00112  -0.0222  0.4265  1.0000  -0.9661   0.0000   0.0000   0.0000   0.2905
   3.400   0.5290   0.00545   0.00118  -0.0221  0.4201  1.0000  -1.0156   0.0000   0.0000   0.0000   0.2894
   3.500   0.5393   0.00553   0.00123  -0.0219  0.4098  1.0000  -1.0913   0.0000   0.0000   0.0000   0.2882
   3.600   0.5494   0.00565   0.00128  -0.0218  0.3942  1.0000  -1.2227   0.0000   0.0000   0.0000   0.2871
   3.700   0.5598   0.00574   0.00133  -0.0216  0.3796  1.0000  -1.3590   0.0000   0.0000   0.0000   0.2861
   3.800   0.5702   0.00581   0.00139  -0.0215  0.3705  1.0000  -1.5000   0.0000   0.0000   0.0000   0.2850
   3.900   0.5804   0.00592   0.00145  -0.0214  0.3574  1.0000  -1.6429   0.0000   0.0000   0.0000   0.2840
   4.000   0.5905   0.00605   0.00151  -0.0212  0.3422  1.0000  -1.7888   0.0000   0.0000   0.0000   0.2831
   4.100   0.6009   0.00613   0.00157  -0.0211  0.3303  1.0000  -1.9402   0.0000   0.0000   0.0000   0.2821
   4.200   0.6109   0.00626   0.00165  -0.0209  0.3135  1.0000  -2.0930   0.0000   0.0000   0.0000   0.2812
   4.300   0.6206   0.00646   0.00174  -0.0207  0.2875  1.0000  -2.2443   0.0000   0.0000   0.0000   0.2803
   4.400   0.6307   0.00658   0.00182  -0.0206  0.2721  1.0000  -2.4037   0.0000   0.0000   0.0000   0.2795
   4.500   0.6405   0.00677   0.00192  -0.0204  0.2526  1.0000  -2.5637   0.0000   0.0000   0.0000   0.2786
   4.600   0.6508   0.00687   0.00199  -0.0202  0.2406  1.0000  -2.7309   0.0000   0.0000   0.0000   0.2778
   4.700   0.6607   0.00702   0.00209  -0.0201  0.2255  1.0000  -2.8987   0.0000   0.0000   0.0000   0.2770
   4.800   0.6704   0.00722   0.00220  -0.0199  0.2040  1.0000  -3.0665   0.0000   0.0000   0.0000   0.2762
   4.900   0.6804   0.00737   0.00230  -0.0197  0.1893  1.0000  -3.2395   0.0000   0.0000   0.0000   0.2754
   5.000   0.6897   0.00763   0.00245  -0.0195  0.1624  1.0000  -3.4081   0.0000   0.0000   0.0000   0.2746
   5.100   0.6985   0.00798   0.00263  -0.0192  0.1282  1.0000  -3.5736   0.0000   0.0000   0.0000   0.2738
   5.200   0.7070   0.00839   0.00284  -0.0189  0.0926  1.0000  -3.7371   0.0000   0.0000   0.0000   0.2730
   5.300   0.7155   0.00880   0.00310  -0.0186  0.0614  1.0000  -3.9025   0.0000   0.0000   0.0000   0.2722
   5.400   0.7241   0.00919   0.00334  -0.0183  0.0363  1.0000  -4.0683   0.0000   0.0000   0.0000   0.2714
   5.500   0.7334   0.00946   0.00353  -0.0181  0.0232  1.0000  -4.2354   0.0000   0.0000   0.0000   0.2707
   5.600   0.7430   0.00970   0.00373  -0.0178  0.0140  1.0000  -4.4284   0.0000   0.0000   0.0000   0.2699
   5.700   0.7522   0.01008   0.00412  -0.0174  0.0063  1.0000  -4.5103   0.0000   0.0000   0.0000   0.2690
   5.800   0.7620   0.01030   0.00439  -0.0171  0.0051  1.0000  -4.6547   0.0000   0.0000   0.0000   0.2682
   5.900   0.7718   0.01054   0.00466  -0.0168  0.0044  1.0000  -4.8080   0.0000   0.0000   0.0000   0.2675
   6.000   0.7815   0.01077   0.00493  -0.0165  0.0040  1.0000  -4.9755   0.0000   0.0000   0.0000   0.2667
   6.100   0.7910   0.01105   0.00525  -0.0162  0.0035  1.0000  -5.1395   0.0000   0.0000   0.0000   0.2660
   6.200   0.8000   0.01144   0.00571  -0.0158  0.0030  1.0000  -5.2737   0.0000   0.0000   0.0000   0.2652
   6.300   0.8082   0.01200   0.00637  -0.0153  0.0027  1.0000  -5.3656   0.0000   0.0000   0.0000   0.2642
   6.400   0.8159   0.01264   0.00712  -0.0147  0.0026  1.0000  -5.4373   0.0000   0.0000   0.0000   0.2632
   6.500   0.8225   0.01350   0.00810  -0.0139  0.0025  1.0000  -5.4621   0.0000   0.0000   0.0000   0.2620
   6.600   0.8280   0.01462   0.00934  -0.0130  0.0024  1.0000  -5.4342   0.0000   0.0000   0.0000   0.2607
   6.700   0.8383   0.01470   0.00943  -0.0128  0.0023  1.0000  -5.6568   0.0000   0.0000   0.0000   0.2602
   6.800   0.8478   0.01495   0.00971  -0.0126  0.0023  1.0000  -5.8388   0.0000   0.0000   0.0000   0.2596
   6.900   0.8569   0.01531   0.01011  -0.0122  0.0022  1.0000  -5.9933   0.0000   0.0000   0.0000   0.2590
   7.000   0.8656   0.01575   0.01060  -0.0118  0.0021  1.0000  -6.1252   0.0000   0.0000   0.0000   0.2583
   7.100   0.8740   0.01629   0.01119  -0.0114  0.0021  1.0000  -6.2361   0.0000   0.0000   0.0000   0.2575
   7.200   0.8821   0.01692   0.01189  -0.0109  0.0020  1.0000  -6.3268   0.0000   0.0000   0.0000   0.2568
   7.300   0.8899   0.01765   0.01270  -0.0103  0.0020  1.0000  -6.3964   0.0000   0.0000   0.0000   0.2559
   7.400   0.8974   0.01851   0.01364  -0.0097  0.0020  1.0000  -6.4421   0.0000   0.0000   0.0000   0.2551
   7.500   0.9046   0.01953   0.01476  -0.0091  0.0020  1.0000  -6.4592   0.0000   0.0000   0.0000   0.2542
   7.600   0.9111   0.02076   0.01612  -0.0084  0.0021  1.0000  -6.4395   0.0000   0.0000   0.0000   0.2533
   7.700   0.9167   0.02235   0.01787  -0.0076  0.0021  1.0000  -6.3587   0.0000   0.0000   0.0000   0.2522
   7.800   0.9205   0.02465   0.02031  -0.0066  0.0026  1.0000  -6.1413   0.0000   0.0000   0.0000   0.2510
   7.900   0.9297   0.02488   0.02057  -0.0063  0.0026  1.0000  -6.3218   0.0000   0.0000   0.0000   0.2506
   8.000   0.9390   0.02507   0.02080  -0.0061  0.0027  1.0000  -6.5030   0.0000   0.0000   0.0000   0.2501
   8.100   0.9489   0.02524   0.02102  -0.0057  0.0029  1.0000  -6.6508   0.0000   0.0000   0.0000   0.2496
   8.200   0.9358   0.03413   0.03074  -0.0019  0.0055  1.0000  -5.1402   0.0000   0.0000   0.0000   0.2456
   8.300   0.9411   0.03520   0.03190  -0.0014  0.0053  1.0000  -5.1996   0.0000   0.0000   0.0000   0.2450
   8.400   0.9458   0.03629   0.03308  -0.0009  0.0051  1.0000  -5.2572   0.0000   0.0000   0.0000   0.2443
   8.500   0.9501   0.03742   0.03431  -0.0003  0.0050  1.0000  -5.3114   0.0000   0.0000   0.0000   0.2437
   8.600   0.9537   0.03860   0.03557   0.0002  0.0048  1.0000  -5.3616   0.0000   0.0000   0.0000   0.2431
   8.700   0.9567   0.03981   0.03687   0.0007  0.0047  1.0000  -5.4075   0.0000   0.0000   0.0000   0.2424
   8.800   0.9591   0.04105   0.03821   0.0012  0.0046  1.0000  -5.4488   0.0000   0.0000   0.0000   0.2418
   8.900   0.9608   0.04233   0.03957   0.0018  0.0045  1.0000  -5.4856   0.0000   0.0000   0.0000   0.2412
   9.000   0.9618   0.04363   0.04096   0.0023  0.0044  1.0000  -5.5173   0.0000   0.0000   0.0000   0.2405
   9.100   0.9620   0.04494   0.04236   0.0028  0.0043  1.0000  -5.5436   0.0000   0.0000   0.0000   0.2399
   9.200   0.9614   0.04628   0.04378   0.0033  0.0042  1.0000  -5.5641   0.0000   0.0000   0.0000   0.2393
   9.300   0.9600   0.04763   0.04521   0.0038  0.0041  1.0000  -5.5786   0.0000   0.0000   0.0000   0.2387
   9.400   0.9578   0.04899   0.04664   0.0043  0.0041  1.0000  -5.5865   0.0000   0.0000   0.0000   0.2381
   9.500   0.9544   0.05032   0.04803   0.0048  0.0041  1.0000  -5.5863   0.0000   0.0000   0.0000   0.2374
   9.600   0.9487   0.05150   0.04927   0.0057  0.0040  1.0000  -5.5742   0.0000   0.0000   0.0000   0.2363
   9.700   0.9422   0.05274   0.05056   0.0063  0.0040  1.0000  -5.5539   0.0000   0.0000   0.0000   0.2355
   9.800   0.9353   0.05411   0.05199   0.0065  0.0040  1.0000  -5.5264   0.0000   0.0000   0.0000   0.2352
   9.900   0.9284   0.05566   0.05360   0.0062  0.0040  1.0000  -5.4921   0.0000   0.0000   0.0000   0.2353
  10.000   0.9212   0.05739   0.05538   0.0056  0.0041  1.0000  -5.4510   0.0000   0.0000   0.0000   0.2359
  10.100   0.9139   0.05929   0.05733   0.0046  0.0041  1.0000  -5.4028   0.0000   0.0000   0.0000   0.2367
  10.200   0.9065   0.06140   0.05949   0.0034  0.0041  1.0000  -5.3475   0.0000   0.0000   0.0000   0.2379
  10.300   0.8989   0.06374   0.06188   0.0018  0.0041  1.0000  -5.2827   0.0000   0.0000   0.0000   0.2395
  10.400   0.8910   0.06631   0.06450  -0.0001  0.0042  1.0000  -5.2087   0.0000   0.0000   0.0000   0.2415
  10.500   0.8829   0.06905   0.06729  -0.0021  0.0042  1.0000  -5.1256   0.0000   0.0000   0.0000   0.2437
  10.600   0.8744   0.07209   0.07038  -0.0045  0.0043  1.0000  -5.0291   0.0000   0.0000   0.0000   0.2463
  10.700   0.8656   0.07556   0.07389  -0.0073  0.0044  1.0000  -4.9151   0.0000   0.0000   0.0000   0.2496
  10.800   0.8565   0.07952   0.07790  -0.0105  0.0046  1.0000  -4.7798   0.0000   0.0000   0.0000   0.2534
  10.900   0.8472   0.08405   0.08247  -0.0141  0.0047  1.0000  -4.6169   0.0000   0.0000   0.0000   0.2577
  11.000   0.8375   0.08927   0.08772  -0.0179  0.0050  1.0000  -4.4151   0.0000   0.0000   0.0000   0.2624
  11.100   0.8267   0.09576   0.09424  -0.0220  0.0054  1.0000  -4.1308   0.0000   0.0000   0.0000   0.2678
  11.200   0.8174   0.10163   0.10010  -0.0251  0.0058  1.0000  -3.8673   0.0000   0.0000   0.0000   0.2720
  11.300   0.7869   0.11100   0.10944  -0.0301  0.0070  1.0000  -3.2475   0.0000   0.0000   0.0000   0.2797
  11.400   0.7850   0.11364   0.11208  -0.0313  0.0070  1.0000  -3.1885   0.0000   0.0000   0.0000   0.2813
  11.500   0.7834   0.11620   0.11462  -0.0325  0.0070  1.0000  -3.1347   0.0000   0.0000   0.0000   0.2828
  11.600   0.7822   0.11869   0.11711  -0.0336  0.0070  1.0000  -3.0852   0.0000   0.0000   0.0000   0.2843
  11.700   0.7811   0.12113   0.11955  -0.0347  0.0070  1.0000  -3.0392   0.0000   0.0000   0.0000   0.2857
  11.800   0.7804   0.12352   0.12193  -0.0358  0.0070  1.0000  -2.9965   0.0000   0.0000   0.0000   0.2871
  11.900   0.7798   0.12586   0.12427  -0.0368  0.0070  1.0000  -2.9568   0.0000   0.0000   0.0000   0.2884
  12.000   0.7795   0.12815   0.12656  -0.0379  0.0070  1.0000  -2.9202   0.0000   0.0000   0.0000   0.2897
  12.100   0.7794   0.13039   0.12880  -0.0389  0.0070  1.0000  -2.8869   0.0000   0.0000   0.0000   0.2910
  12.200   0.7796   0.13258   0.13098  -0.0398  0.0069  1.0000  -2.8575   0.0000   0.0000   0.0000   0.2922
  12.300   0.7800   0.13469   0.13309  -0.0408  0.0069  1.0000  -2.8337   0.0000   0.0000   0.0000   0.2933
  12.400   0.7811   0.13667   0.13507  -0.0417  0.0069  1.0000  -2.8219   0.0000   0.0000   0.0000   0.2943
  12.600   0.7926   0.13844   0.13684  -0.0425  0.0060  1.0000  -3.0051   0.0000   0.0000   0.0000   0.2943
  12.700   0.7935   0.14047   0.13887  -0.0434  0.0059  1.0000  -2.9853   0.0000   0.0000   0.0000   0.2953
  12.800   0.7942   0.14252   0.14092  -0.0443  0.0058  1.0000  -2.9628   0.0000   0.0000   0.0000   0.2963
  12.900   0.7950   0.14458   0.14298  -0.0452  0.0057  1.0000  -2.9389   0.0000   0.0000   0.0000   0.2973
  13.000   0.7958   0.14664   0.14504  -0.0461  0.0056  1.0000  -2.9140   0.0000   0.0000   0.0000   0.2984
  13.100   0.7966   0.14870   0.14709  -0.0470  0.0055  1.0000  -2.8888   0.0000   0.0000   0.0000   0.2994
  13.200   0.7975   0.15074   0.14913  -0.0479  0.0054  1.0000  -2.8635   0.0000   0.0000   0.0000   0.3004
  13.300   0.7984   0.15277   0.15116  -0.0488  0.0053  1.0000  -2.8383   0.0000   0.0000   0.0000   0.3014
  13.400   0.7994   0.15480   0.15318  -0.0497  0.0052  1.0000  -2.8135   0.0000   0.0000   0.0000   0.3024
  13.500   0.8004   0.15683   0.15521  -0.0507  0.0051  1.0000  -2.7869   0.0000   0.0000   0.0000   0.3034
  13.600   0.8014   0.15884   0.15722  -0.0516  0.0050  1.0000  -2.7613   0.0000   0.0000   0.0000   0.3044
  13.700   0.8025   0.16083   0.15921  -0.0525  0.0049  1.0000  -2.7367   0.0000   0.0000   0.0000   0.3053
  13.800   0.8037   0.16280   0.16118  -0.0534  0.0049  1.0000  -2.7133   0.0000   0.0000   0.0000   0.3063
  13.900   0.8049   0.16475   0.16313  -0.0543  0.0048  1.0000  -2.6911   0.0000   0.0000   0.0000   0.3072
  14.000   0.8062   0.16669   0.16506  -0.0551  0.0047  1.0000  -2.6696   0.0000   0.0000   0.0000   0.3081
  14.100   0.8075   0.16861   0.16698  -0.0560  0.0046  1.0000  -2.6491   0.0000   0.0000   0.0000   0.3090
  14.200   0.8089   0.17050   0.16887  -0.0569  0.0045  1.0000  -2.6294   0.0000   0.0000   0.0000   0.3099
  14.300   0.8103   0.17238   0.17075  -0.0578  0.0045  1.0000  -2.6110   0.0000   0.0000   0.0000   0.3108
  14.400   0.8118   0.17424   0.17261  -0.0587  0.0044  1.0000  -2.5940   0.0000   0.0000   0.0000   0.3116
  14.500   0.8133   0.17606   0.17442  -0.0595  0.0043  1.0000  -2.5783   0.0000   0.0000   0.0000   0.3125
  14.600   0.8149   0.17776   0.17612  -0.0604  0.0042  1.0000  -2.5642   0.0000   0.0000   0.0000   0.3133
  14.700   0.8167   0.17938   0.17774  -0.0612  0.0042  1.0000  -2.5516   0.0000   0.0000   0.0000   0.3141
  14.800   0.8184   0.18096   0.17932  -0.0620  0.0041  1.0000  -2.5403   0.0000   0.0000   0.0000   0.3148
  14.900   0.8202   0.18254   0.18090  -0.0629  0.0040  1.0000  -2.5303   0.0000   0.0000   0.0000   0.3156
  15.000   0.8221   0.18412   0.18248  -0.0637  0.0040  1.0000  -2.5215   0.0000   0.0000   0.0000   0.3163
  15.100   0.8240   0.18572   0.18408  -0.0645  0.0039  1.0000  -2.5140   0.0000   0.0000   0.0000   0.3171
  15.200   0.8260   0.18734   0.18569  -0.0654  0.0038  1.0000  -2.5075   0.0000   0.0000   0.0000   0.3178
  15.300   0.8279   0.18896   0.18731  -0.0662  0.0038  1.0000  -2.5023   0.0000   0.0000   0.0000   0.3185
  15.400   0.8300   0.19059   0.18894  -0.0670  0.0037  1.0000  -2.4981   0.0000   0.0000   0.0000   0.3192
  15.500   0.8320   0.19223   0.19058  -0.0678  0.0037  1.0000  -2.4952   0.0000   0.0000   0.0000   0.3199
  15.600   0.8341   0.19388   0.19223  -0.0686  0.0036  1.0000  -2.4934   0.0000   0.0000   0.0000   0.3205
  15.700   0.8362   0.19553   0.19388  -0.0694  0.0036  1.0000  -2.4928   0.0000   0.0000   0.0000   0.3212
  15.800   0.8383   0.19719   0.19554  -0.0702  0.0035  1.0000  -2.4933   0.0000   0.0000   0.0000   0.3218
  15.900   0.8405   0.19885   0.19720  -0.0710  0.0035  1.0000  -2.4951   0.0000   0.0000   0.0000   0.3224
  16.000   0.8426   0.20051   0.19886  -0.0718  0.0034  1.0000  -2.4981   0.0000   0.0000   0.0000   0.3231
  16.100   0.8448   0.20218   0.20053  -0.0726  0.0034  1.0000  -2.5024   0.0000   0.0000   0.0000   0.3237
  16.200   0.8471   0.20385   0.20219  -0.0734  0.0033  1.0000  -2.5080   0.0000   0.0000   0.0000   0.3243
  16.300   0.8493   0.20551   0.20386  -0.0742  0.0033  1.0000  -2.5150   0.0000   0.0000   0.0000   0.3248
  16.400   0.8516   0.20718   0.20553  -0.0750  0.0032  1.0000  -2.5233   0.0000   0.0000   0.0000   0.3254
  16.500   0.8538   0.20885   0.20720  -0.0757  0.0032  1.0000  -2.5330   0.0000   0.0000   0.0000   0.3260
  16.600   0.8561   0.21052   0.20887  -0.0765  0.0031  1.0000  -2.5442   0.0000   0.0000   0.0000   0.3265
  16.700   0.8584   0.21219   0.21054  -0.0773  0.0031  1.0000  -2.5569   0.0000   0.0000   0.0000   0.3270
  16.800   0.8607   0.21385   0.21220  -0.0780  0.0031  1.0000  -2.5711   0.0000   0.0000   0.0000   0.3276
  16.900   0.8630   0.21552   0.21387  -0.0788  0.0030  1.0000  -2.5869   0.0000   0.0000   0.0000   0.3281
  17.000   0.8654   0.21718   0.21553  -0.0795  0.0030  1.0000  -2.6043   0.0000   0.0000   0.0000   0.3285
  17.100   0.8677   0.21884   0.21720  -0.0803  0.0030  1.0000  -2.6232   0.0000   0.0000   0.0000   0.3290
  17.200   0.8701   0.22051   0.21886  -0.0810  0.0029  1.0000  -2.6433   0.0000   0.0000   0.0000   0.3295
  17.300   0.8724   0.22220   0.22055  -0.0817  0.0029  1.0000  -2.6615   0.0000   0.0000   0.0000   0.3299
  17.400   0.8746   0.22398   0.22234  -0.0825  0.0028  1.0000  -2.6694   0.0000   0.0000   0.0000   0.3305
  17.500   0.8767   0.22580   0.22415  -0.0833  0.0028  1.0000  -2.6739   0.0000   0.0000   0.0000   0.3310
  17.600   0.8788   0.22764   0.22599  -0.0841  0.0028  1.0000  -2.6767   0.0000   0.0000   0.0000   0.3316
  17.700   0.8809   0.22951   0.22787  -0.0848  0.0027  1.0000  -2.6767   0.0000   0.0000   0.0000   0.3321
  17.800   0.8829   0.23143   0.22978  -0.0856  0.0027  1.0000  -2.6721   0.0000   0.0000   0.0000   0.3327
  17.900   0.8848   0.23342   0.23177  -0.0864  0.0027  1.0000  -2.6599   0.0000   0.0000   0.0000   0.3332
  18.000   0.8865   0.23551   0.23387  -0.0873  0.0026  1.0000  -2.6352   0.0000   0.0000   0.0000   0.3338
  18.100   0.8880   0.23781   0.23617  -0.0881  0.0026  1.0000  -2.5867   0.0000   0.0000   0.0000   0.3345
  18.200   0.8884   0.24076   0.23911  -0.0890  0.0025  1.0000  -2.4601   0.0000   0.0000   0.0000   0.3354


