xflr5 v6.61

 Calculated polar for: MH 20

 1 1 Reynolds number fixed          Mach number fixed         

 xtrf =   1.000 (top)        1.000 (bottom)
 Mach =   0.000     Re =     1.000 e 6     Ncrit =   9.000

  alpha     CL        CD       CDp       Cm    Top Xtr Bot Xtr   Cpmin    Chinge    XCp    
 ------- -------- --------- --------- -------- ------- ------- -------- --------- ---------
 -10.000  -0.5456   0.11152   0.11009   0.0171  1.0000  0.0055  -2.4173   0.0000   0.0000   0.0000   0.2763
  -9.900  -0.5438   0.10995   0.10852   0.0163  1.0000  0.0055  -2.4244   0.0000   0.0000   0.0000   0.2750
  -9.800  -0.5421   0.10838   0.10695   0.0155  1.0000  0.0056  -2.4317   0.0000   0.0000   0.0000   0.2738
  -9.700  -0.5405   0.10681   0.10539   0.0148  1.0000  0.0056  -2.4392   0.0000   0.0000   0.0000   0.2725
  -9.600  -0.5389   0.10525   0.10384   0.0140  1.0000  0.0056  -2.4467   0.0000   0.0000   0.0000   0.2712
  -9.500  -0.5374   0.10370   0.10229   0.0132  1.0000  0.0057  -2.4543   0.0000   0.0000   0.0000   0.2699
  -9.400  -0.5359   0.10216   0.10076   0.0125  1.0000  0.0057  -2.4620   0.0000   0.0000   0.0000   0.2686
  -9.300  -0.5346   0.10063   0.09923   0.0117  1.0000  0.0058  -2.4697   0.0000   0.0000   0.0000   0.2672
  -9.200  -0.5332   0.09910   0.09771   0.0109  1.0000  0.0058  -2.4771   0.0000   0.0000   0.0000   0.2659
  -9.100  -0.5317   0.09754   0.09616   0.0101  1.0000  0.0059  -2.4839   0.0000   0.0000   0.0000   0.2644
  -9.000  -0.5302   0.09599   0.09461   0.0092  1.0000  0.0060  -2.4904   0.0000   0.0000   0.0000   0.2629
  -8.900  -0.5287   0.09443   0.09306   0.0084  1.0000  0.0060  -2.4966   0.0000   0.0000   0.0000   0.2614
  -8.800  -0.5272   0.09288   0.09152   0.0075  1.0000  0.0061  -2.5027   0.0000   0.0000   0.0000   0.2599
  -8.700  -0.5259   0.09133   0.08998   0.0066  1.0000  0.0061  -2.5085   0.0000   0.0000   0.0000   0.2583
  -8.600  -0.5246   0.08979   0.08844   0.0057  1.0000  0.0062  -2.5144   0.0000   0.0000   0.0000   0.2567
  -8.500  -0.5234   0.08825   0.08691   0.0048  1.0000  0.0062  -2.5206   0.0000   0.0000   0.0000   0.2550
  -8.400  -0.5215   0.08665   0.08531   0.0035  0.9676  0.0062  -2.5264   0.0000   0.0000   0.0000   0.2527
  -8.300  -0.5161   0.08477   0.08337   0.0013  0.9319  0.0063  -2.5240   0.0000   0.0000   0.0000   0.2485
  -7.200  -0.5297   0.06544   0.06361  -0.0113  0.8063  0.0064  -2.8593   0.0000   0.0000   0.0000   0.2254
  -7.100  -0.5272   0.06334   0.06148  -0.0127  0.8032  0.0064  -2.8864   0.0000   0.0000   0.0000   0.2228
  -7.000  -0.5242   0.06124   0.05934  -0.0139  0.7997  0.0065  -2.9137   0.0000   0.0000   0.0000   0.2204
  -6.900  -0.5210   0.05912   0.05718  -0.0150  0.7959  0.0065  -2.9424   0.0000   0.0000   0.0000   0.2182
  -6.800  -0.5174   0.05699   0.05499  -0.0159  0.7918  0.0065  -2.9733   0.0000   0.0000   0.0000   0.2162
  -6.700  -0.5136   0.05484   0.05279  -0.0166  0.7877  0.0065  -3.0066   0.0000   0.0000   0.0000   0.2145
  -6.600  -0.5097   0.05271   0.05057  -0.0173  0.7834  0.0065  -3.0418   0.0000   0.0000   0.0000   0.2130
  -6.500  -0.5055   0.05058   0.04836  -0.0177  0.7788  0.0065  -3.0790   0.0000   0.0000   0.0000   0.2118
  -6.400  -0.5012   0.04848   0.04617  -0.0181  0.7737  0.0065  -3.1172   0.0000   0.0000   0.0000   0.2108
  -6.300  -0.4967   0.04643   0.04403  -0.0183  0.7681  0.0066  -3.1544   0.0000   0.0000   0.0000   0.2100
  -6.200  -0.4921   0.04447   0.04197  -0.0184  0.7638  0.0066  -3.1887   0.0000   0.0000   0.0000   0.2094
  -6.100  -0.4872   0.04258   0.03998  -0.0185  0.7626  0.0066  -3.2179   0.0000   0.0000   0.0000   0.2089
  -6.000  -0.4821   0.04078   0.03809  -0.0184  0.7612  0.0066  -3.2412   0.0000   0.0000   0.0000   0.2085
  -5.900  -0.4767   0.03907   0.03628  -0.0183  0.7595  0.0066  -3.2595   0.0000   0.0000   0.0000   0.2083
  -5.800  -0.4711   0.03744   0.03454  -0.0182  0.7575  0.0066  -3.2722   0.0000   0.0000   0.0000   0.2082
  -5.700  -0.4814   0.03010   0.02672  -0.0171  0.7559  0.0070  -3.8510   0.0000   0.0000   0.0000   0.2111
  -5.600  -0.4819   0.02620   0.02250  -0.0162  0.7539  0.0074  -4.0913   0.0000   0.0000   0.0000   0.2130
  -5.500  -0.4764   0.02433   0.02046  -0.0156  0.7516  0.0077  -4.1216   0.0000   0.0000   0.0000   0.2138
  -5.400  -0.4690   0.02310   0.01910  -0.0152  0.7490  0.0080  -4.0870   0.0000   0.0000   0.0000   0.2142
  -5.300  -0.4609   0.02214   0.01804  -0.0148  0.7464  0.0083  -4.0250   0.0000   0.0000   0.0000   0.2145
  -5.200  -0.4522   0.02133   0.01713  -0.0145  0.7436  0.0085  -3.9503   0.0000   0.0000   0.0000   0.2146
  -5.100  -0.4466   0.01672   0.01181  -0.0117  0.7415  0.0046  -4.8906   0.0000   0.0000   0.0000   0.2202
  -5.000  -0.4368   0.01611   0.01114  -0.0114  0.7384  0.0042  -4.8368   0.0000   0.0000   0.0000   0.2204
  -4.900  -0.4279   0.01511   0.01000  -0.0109  0.7352  0.0041  -4.8419   0.0000   0.0000   0.0000   0.2211
  -4.800  -0.4184   0.01433   0.00910  -0.0105  0.7317  0.0041  -4.8199   0.0000   0.0000   0.0000   0.2216
  -4.700  -0.4087   0.01366   0.00831  -0.0101  0.7278  0.0040  -4.7860   0.0000   0.0000   0.0000   0.2220
  -4.600  -0.3989   0.01308   0.00763  -0.0097  0.7238  0.0040  -4.7410   0.0000   0.0000   0.0000   0.2223
  -4.500  -0.3889   0.01258   0.00704  -0.0093  0.7197  0.0041  -4.6840   0.0000   0.0000   0.0000   0.2226
  -4.400  -0.3787   0.01215   0.00653  -0.0090  0.7173  0.0041  -4.6136   0.0000   0.0000   0.0000   0.2228
  -4.300  -0.3684   0.01178   0.00610  -0.0088  0.7167  0.0042  -4.5274   0.0000   0.0000   0.0000   0.2229
  -4.200  -0.3579   0.01148   0.00570  -0.0085  0.7158  0.0043  -4.4274   0.0000   0.0000   0.0000   0.2228
  -4.100  -0.3472   0.01126   0.00545  -0.0084  0.7148  0.0044  -4.3008   0.0000   0.0000   0.0000   0.2226
  -4.000  -0.3375   0.01076   0.00487  -0.0080  0.7136  0.0045  -4.2405   0.0000   0.0000   0.0000   0.2231
  -3.900  -0.3278   0.01027   0.00432  -0.0076  0.7123  0.0047  -4.1692   0.0000   0.0000   0.0000   0.2236
  -3.800  -0.3175   0.00999   0.00399  -0.0074  0.7108  0.0048  -4.0422   0.0000   0.0000   0.0000   0.2235
  -3.700  -0.3070   0.00979   0.00377  -0.0073  0.7092  0.0050  -3.8926   0.0000   0.0000   0.0000   0.2232
  -3.600  -0.2963   0.00963   0.00360  -0.0072  0.7074  0.0052  -3.7345   0.0000   0.0000   0.0000   0.2227
  -3.500  -0.2854   0.00954   0.00351  -0.0071  0.7054  0.0055  -3.5558   0.0000   0.0000   0.0000   0.2220
  -3.400  -0.2745   0.00947   0.00344  -0.0071  0.7033  0.0058  -3.3805   0.0000   0.0000   0.0000   0.2211
  -3.300  -0.2635   0.00939   0.00335  -0.0070  0.7012  0.0062  -3.2160   0.0000   0.0000   0.0000   0.2202
  -3.200  -0.2525   0.00931   0.00326  -0.0070  0.6989  0.0065  -3.0627   0.0000   0.0000   0.0000   0.2193
  -3.100  -0.2417   0.00918   0.00310  -0.0068  0.6967  0.0066  -2.9330   0.0000   0.0000   0.0000   0.2187
  -3.000  -0.2317   0.00877   0.00252  -0.0064  0.6944  0.0074  -2.9088   0.0000   0.0000   0.0000   0.2194
  -2.900  -0.2212   0.00844   0.00210  -0.0059  0.6918  0.0155  -2.9275   0.0000   0.0000   0.0000   0.2202
  -2.800  -0.2114   0.00813   0.00195  -0.0057  0.6890  0.0454  -2.8037   0.0000   0.0000   0.0000   0.2201
  -2.700  -0.2008   0.00802   0.00187  -0.0056  0.6859  0.0593  -2.6490   0.0000   0.0000   0.0000   0.2190
  -2.600  -0.1904   0.00786   0.00179  -0.0055  0.6826  0.0776  -2.5057   0.0000   0.0000   0.0000   0.2180
  -2.500  -0.1798   0.00774   0.00173  -0.0054  0.6793  0.0977  -2.3745   0.0000   0.0000   0.0000   0.2167
  -2.400  -0.1692   0.00764   0.00167  -0.0054  0.6760  0.1131  -2.2425   0.0000   0.0000   0.0000   0.2151
  -2.300  -0.1587   0.00751   0.00163  -0.0053  0.6726  0.1364  -2.1133   0.0000   0.0000   0.0000   0.2135
  -2.200  -0.1479   0.00742   0.00158  -0.0052  0.6696  0.1552  -1.9836   0.0000   0.0000   0.0000   0.2113
  -2.100  -0.1374   0.00727   0.00153  -0.0052  0.6691  0.1789  -1.8572   0.0000   0.0000   0.0000   0.2091
  -2.000  -0.1265   0.00717   0.00148  -0.0051  0.6685  0.1981  -1.7307   0.0000   0.0000   0.0000   0.2062
  -1.900  -0.1158   0.00704   0.00143  -0.0051  0.6679  0.2176  -1.6077   0.0000   0.0000   0.0000   0.2029
  -1.800  -0.1048   0.00697   0.00139  -0.0050  0.6672  0.2310  -1.4852   0.0000   0.0000   0.0000   0.1984
  -1.700  -0.0942   0.00684   0.00134  -0.0050  0.6665  0.2565  -1.3692   0.0000   0.0000   0.0000   0.1936
  -1.600  -0.0834   0.00675   0.00129  -0.0049  0.6657  0.2768  -1.2551   0.0000   0.0000   0.0000   0.1871
  -1.500  -0.0731   0.00658   0.00125  -0.0048  0.6648  0.3149  -1.1443   0.0000   0.0000   0.0000   0.1802
  -1.400  -0.0630   0.00640   0.00121  -0.0047  0.6637  0.3580  -1.0366   0.0000   0.0000   0.0000   0.1714
  -1.300  -0.0532   0.00618   0.00117  -0.0045  0.6625  0.4131  -0.9332   0.0000   0.0000   0.0000   0.1611
  -1.200  -0.0435   0.00596   0.00114  -0.0042  0.6611  0.4694  -0.8327   0.0000   0.0000   0.0000   0.1473
  -1.100  -0.0338   0.00577   0.00110  -0.0040  0.6596  0.5190  -0.7342   0.0000   0.0000   0.0000   0.1256
  -1.000  -0.0240   0.00561   0.00108  -0.0037  0.6578  0.5632  -0.6379   0.0000   0.0000   0.0000   0.0866
  -0.900  -0.0144   0.00545   0.00105  -0.0034  0.6559  0.6079  -0.5567   0.0000   0.0000   0.0000  -0.0002
  -0.800  -0.0049   0.00529   0.00103  -0.0031  0.6540  0.6529  -0.5279   0.0000   0.0000   0.0000  -0.4046
  -0.700   0.0043   0.00513   0.00100  -0.0026  0.6522  0.6989  -0.4996   0.0000   0.0000   0.0000   0.8973
  -0.600   0.0132   0.00497   0.00098  -0.0021  0.6504  0.7460  -0.4720   0.0000   0.0000   0.0000   0.4183
  -0.500   0.0218   0.00480   0.00097  -0.0015  0.6486  0.7942  -0.4449   0.0000   0.0000   0.0000   0.3223
  -0.400   0.0305   0.00462   0.00097  -0.0008  0.6467  0.8524  -0.4179   0.0000   0.0000   0.0000   0.2789
  -0.300   0.0480   0.00450   0.00102  -0.0020  0.6444  0.9192  -0.4028   0.0000   0.0000   0.0000   0.2919
  -0.200   0.0785   0.00455   0.00108  -0.0062  0.6413  0.9477  -0.4203   0.0000   0.0000   0.0000   0.3283
  -0.100   0.0966   0.00459   0.00109  -0.0076  0.6378  0.9556  -0.4330   0.0000   0.0000   0.0000   0.3286
   0.000   0.1121   0.00465   0.00112  -0.0085  0.6339  0.9640  -0.4445   0.0000   0.0000   0.0000   0.3254
   0.200   0.1382   0.00477   0.00117  -0.0093  0.6262  0.9756  -0.4650   0.0000   0.0000   0.0000   0.3161
   0.300   0.1537   0.00481   0.00119  -0.0102  0.6229  0.9783  -0.4764   0.0000   0.0000   0.0000   0.3153
   0.400   0.1680   0.00485   0.00121  -0.0109  0.6205  0.9808  -0.4874   0.0000   0.0000   0.0000   0.3136
   0.500   0.1822   0.00487   0.00122  -0.0115  0.6200  0.9839  -0.4984   0.0000   0.0000   0.0000   0.3120
   0.600   0.1950   0.00490   0.00125  -0.0118  0.6196  0.9871  -0.5086   0.0000   0.0000   0.0000   0.3093
   0.700   0.2129   0.00490   0.00125  -0.0133  0.6189  0.9886  -0.5217   0.0000   0.0000   0.0000   0.3111
   0.800   0.2296   0.00490   0.00124  -0.0145  0.6179  0.9899  -0.5349   0.0000   0.0000   0.0000   0.3118
   0.900   0.2449   0.00490   0.00123  -0.0154  0.6167  0.9911  -0.5481   0.0000   0.0000   0.0000   0.3115
   1.000   0.2607   0.00490   0.00122  -0.0164  0.6151  0.9926  -0.5616   0.0000   0.0000   0.0000   0.3115
   1.100   0.2770   0.00490   0.00122  -0.0176  0.6133  0.9944  -0.5755   0.0000   0.0000   0.0000   0.3119
   1.200   0.2930   0.00491   0.00123  -0.0186  0.6114  0.9961  -0.5893   0.0000   0.0000   0.0000   0.3120
   1.300   0.3087   0.00491   0.00122  -0.0197  0.6093  0.9972  -0.6029   0.0000   0.0000   0.0000   0.3120
   1.400   0.3249   0.00490   0.00120  -0.0208  0.6070  0.9984  -0.6169   0.0000   0.0000   0.0000   0.3122
   1.500   0.3414   0.00490   0.00119  -0.0220  0.6044  0.9996  -0.6311   0.0000   0.0000   0.0000   0.3126
   1.600   0.3542   0.00490   0.00118  -0.0224  0.6013  1.0000  -0.6445   0.0000   0.0000   0.0000   0.3113
   1.700   0.3648   0.00491   0.00117  -0.0223  0.5976  1.0000  -0.6569   0.0000   0.0000   0.0000   0.3091
   1.800   0.3754   0.00492   0.00116  -0.0222  0.5933  1.0000  -0.6692   0.0000   0.0000   0.0000   0.3070
   1.900   0.3860   0.00494   0.00116  -0.0221  0.5883  1.0000  -0.6817   0.0000   0.0000   0.0000   0.3051
   2.000   0.3967   0.00496   0.00115  -0.0220  0.5826  1.0000  -0.6941   0.0000   0.0000   0.0000   0.3033
   2.100   0.4073   0.00499   0.00116  -0.0219  0.5768  1.0000  -0.7066   0.0000   0.0000   0.0000   0.3016
   2.200   0.4180   0.00502   0.00117  -0.0218  0.5717  1.0000  -0.7211   0.0000   0.0000   0.0000   0.2999
   2.300   0.4287   0.00502   0.00118  -0.0217  0.5703  1.0000  -0.7358   0.0000   0.0000   0.0000   0.2984
   2.400   0.4395   0.00502   0.00118  -0.0217  0.5688  1.0000  -0.7506   0.0000   0.0000   0.0000   0.2969
   2.500   0.4502   0.00501   0.00120  -0.0216  0.5665  1.0000  -0.7654   0.0000   0.0000   0.0000   0.2955
   2.600   0.4610   0.00502   0.00120  -0.0215  0.5630  1.0000  -0.7813   0.0000   0.0000   0.0000   0.2941
   2.700   0.4717   0.00503   0.00121  -0.0214  0.5583  1.0000  -0.7989   0.0000   0.0000   0.0000   0.2928
   2.800   0.4824   0.00505   0.00122  -0.0213  0.5525  1.0000  -0.8165   0.0000   0.0000   0.0000   0.2916
   2.900   0.4931   0.00508   0.00122  -0.0212  0.5450  1.0000  -0.8342   0.0000   0.0000   0.0000   0.2904
   3.000   0.5037   0.00513   0.00122  -0.0212  0.5349  1.0000  -0.8519   0.0000   0.0000   0.0000   0.2892
   3.100   0.5143   0.00519   0.00123  -0.0211  0.5219  1.0000  -0.8696   0.0000   0.0000   0.0000   0.2882
   3.200   0.5251   0.00521   0.00125  -0.0210  0.5174  1.0000  -0.8903   0.0000   0.0000   0.0000   0.2871
   3.300   0.5358   0.00524   0.00127  -0.0210  0.5104  1.0000  -0.9119   0.0000   0.0000   0.0000   0.2861
   3.400   0.5465   0.00528   0.00129  -0.0209  0.5017  1.0000  -0.9336   0.0000   0.0000   0.0000   0.2852
   3.500   0.5571   0.00535   0.00132  -0.0208  0.4900  1.0000  -0.9553   0.0000   0.0000   0.0000   0.2843
   3.600   0.5676   0.00545   0.00136  -0.0208  0.4736  1.0000  -0.9791   0.0000   0.0000   0.0000   0.2834
   3.700   0.5783   0.00549   0.00139  -0.0207  0.4663  1.0000  -1.0063   0.0000   0.0000   0.0000   0.2825
   3.800   0.5889   0.00556   0.00143  -0.0206  0.4557  1.0000  -1.0335   0.0000   0.0000   0.0000   0.2817
   3.900   0.5994   0.00566   0.00147  -0.0206  0.4432  1.0000  -1.0676   0.0000   0.0000   0.0000   0.2809
   4.000   0.6099   0.00576   0.00152  -0.0205  0.4298  1.0000  -1.1087   0.0000   0.0000   0.0000   0.2801
   4.100   0.6206   0.00581   0.00157  -0.0204  0.4221  1.0000  -1.1584   0.0000   0.0000   0.0000   0.2794
   4.200   0.6312   0.00586   0.00161  -0.0204  0.4153  1.0000  -1.2155   0.0000   0.0000   0.0000   0.2786
   4.300   0.6417   0.00595   0.00167  -0.0203  0.4040  1.0000  -1.3352   0.0000   0.0000   0.0000   0.2779
   4.400   0.6520   0.00610   0.00175  -0.0202  0.3876  1.0000  -1.4554   0.0000   0.0000   0.0000   0.2773
   4.500   0.6625   0.00619   0.00181  -0.0202  0.3744  1.0000  -1.5803   0.0000   0.0000   0.0000   0.2766
   4.600   0.6730   0.00627   0.00187  -0.0201  0.3660  1.0000  -1.7090   0.0000   0.0000   0.0000   0.2759
   4.700   0.6833   0.00638   0.00194  -0.0200  0.3541  1.0000  -1.8395   0.0000   0.0000   0.0000   0.2753
   4.800   0.6936   0.00652   0.00202  -0.0200  0.3412  1.0000  -1.9723   0.0000   0.0000   0.0000   0.2746
   4.900   0.7040   0.00662   0.00209  -0.0199  0.3271  1.0000  -2.1086   0.0000   0.0000   0.0000   0.2740
   5.000   0.7141   0.00677   0.00218  -0.0198  0.3105  1.0000  -2.2464   0.0000   0.0000   0.0000   0.2734
   5.100   0.7239   0.00701   0.00229  -0.0197  0.2838  1.0000  -2.3838   0.0000   0.0000   0.0000   0.2729
   5.200   0.7341   0.00713   0.00238  -0.0196  0.2717  1.0000  -2.5274   0.0000   0.0000   0.0000   0.2723
   5.300   0.7440   0.00732   0.00249  -0.0195  0.2561  1.0000  -2.6712   0.0000   0.0000   0.0000   0.2717
   5.400   0.7541   0.00746   0.00258  -0.0194  0.2407  1.0000  -2.8186   0.0000   0.0000   0.0000   0.2711
   5.500   0.7643   0.00758   0.00270  -0.0193  0.2303  1.0000  -2.9736   0.0000   0.0000   0.0000   0.2705
   5.600   0.7738   0.00781   0.00284  -0.0192  0.2115  1.0000  -3.1227   0.0000   0.0000   0.0000   0.2700
   5.700   0.7838   0.00796   0.00294  -0.0191  0.1971  1.0000  -3.2768   0.0000   0.0000   0.0000   0.2694
   5.800   0.7932   0.00821   0.00309  -0.0189  0.1786  1.0000  -3.4286   0.0000   0.0000   0.0000   0.2688
   5.900   0.8026   0.00845   0.00324  -0.0188  0.1571  1.0000  -3.5817   0.0000   0.0000   0.0000   0.2683
   6.000   0.8113   0.00881   0.00345  -0.0186  0.1289  1.0000  -3.7305   0.0000   0.0000   0.0000   0.2677
   6.100   0.8198   0.00919   0.00367  -0.0183  0.1008  1.0000  -3.8787   0.0000   0.0000   0.0000   0.2671
   6.200   0.8283   0.00956   0.00389  -0.0181  0.0786  1.0000  -4.0283   0.0000   0.0000   0.0000   0.2664
   6.300   0.8368   0.00990   0.00412  -0.0178  0.0587  1.0000  -4.1790   0.0000   0.0000   0.0000   0.2658
   6.400   0.8453   0.01023   0.00435  -0.0176  0.0418  1.0000  -4.3315   0.0000   0.0000   0.0000   0.2652
   6.500   0.8541   0.01052   0.00456  -0.0173  0.0289  1.0000  -4.4850   0.0000   0.0000   0.0000   0.2645
   6.600   0.8627   0.01081   0.00479  -0.0170  0.0205  1.0000  -4.6367   0.0000   0.0000   0.0000   0.2639
   6.700   0.8721   0.01099   0.00496  -0.0167  0.0157  1.0000  -4.7918   0.0000   0.0000   0.0000   0.2633
   6.800   0.8809   0.01125   0.00518  -0.0164  0.0118  1.0000  -4.9629   0.0000   0.0000   0.0000   0.2626
   6.900   0.8892   0.01166   0.00566  -0.0159  0.0067  1.0000  -5.0482   0.0000   0.0000   0.0000   0.2617
   7.000   0.8986   0.01180   0.00580  -0.0157  0.0061  1.0000  -5.2326   0.0000   0.0000   0.0000   0.2612
   7.100   0.9077   0.01201   0.00604  -0.0153  0.0052  1.0000  -5.3850   0.0000   0.0000   0.0000   0.2605
   7.200   0.9166   0.01225   0.00631  -0.0150  0.0046  1.0000  -5.5336   0.0000   0.0000   0.0000   0.2599
   7.300   0.9253   0.01251   0.00659  -0.0146  0.0041  1.0000  -5.6862   0.0000   0.0000   0.0000   0.2592
   7.400   0.9339   0.01278   0.00689  -0.0142  0.0038  1.0000  -5.8392   0.0000   0.0000   0.0000   0.2585
   7.500   0.9421   0.01309   0.00724  -0.0138  0.0034  1.0000  -5.9853   0.0000   0.0000   0.0000   0.2578
   7.600   0.9499   0.01347   0.00767  -0.0133  0.0031  1.0000  -6.1174   0.0000   0.0000   0.0000   0.2570
   7.700   0.9568   0.01394   0.00822  -0.0126  0.0028  1.0000  -6.2276   0.0000   0.0000   0.0000   0.2562
   7.800   0.9627   0.01453   0.00890  -0.0118  0.0027  1.0000  -6.3145   0.0000   0.0000   0.0000   0.2552
   7.900   0.9682   0.01515   0.00962  -0.0110  0.0026  1.0000  -6.3945   0.0000   0.0000   0.0000   0.2541
   8.000   0.9728   0.01585   0.01040  -0.0100  0.0025  1.0000  -6.4609   0.0000   0.0000   0.0000   0.2530
   8.100   0.9766   0.01665   0.01129  -0.0090  0.0024  1.0000  -6.5085   0.0000   0.0000   0.0000   0.2517
   8.200   0.9795   0.01756   0.01229  -0.0078  0.0024  1.0000  -6.5340   0.0000   0.0000   0.0000   0.2504
   8.300   0.9817   0.01861   0.01345  -0.0065  0.0023  1.0000  -6.5329   0.0000   0.0000   0.0000   0.2489
   8.400   0.9883   0.01906   0.01393  -0.0059  0.0023  1.0000  -6.6674   0.0000   0.0000   0.0000   0.2481
   8.500   0.9963   0.01928   0.01418  -0.0054  0.0023  1.0000  -6.8511   0.0000   0.0000   0.0000   0.2475
   8.600   1.0038   0.01957   0.01450  -0.0050  0.0022  1.0000  -7.0193   0.0000   0.0000   0.0000   0.2469
   8.700   1.0109   0.01991   0.01488  -0.0044  0.0022  1.0000  -7.1764   0.0000   0.0000   0.0000   0.2462
   8.800   1.0176   0.02030   0.01530  -0.0038  0.0021  1.0000  -7.3237   0.0000   0.0000   0.0000   0.2455
   8.900   1.0241   0.02073   0.01577  -0.0032  0.0021  1.0000  -7.4619   0.0000   0.0000   0.0000   0.2447
   9.000   1.0302   0.02119   0.01628  -0.0025  0.0021  1.0000  -7.5910   0.0000   0.0000   0.0000   0.2439
   9.100   1.0361   0.02170   0.01684  -0.0019  0.0020  1.0000  -7.7108   0.0000   0.0000   0.0000   0.2431
   9.200   1.0416   0.02225   0.01744  -0.0011  0.0020  1.0000  -7.8210   0.0000   0.0000   0.0000   0.2423
   9.300   1.0467   0.02284   0.01809  -0.0004  0.0019  1.0000  -7.9217   0.0000   0.0000   0.0000   0.2415
   9.400   1.0515   0.02349   0.01880   0.0004  0.0019  1.0000  -8.0128   0.0000   0.0000   0.0000   0.2406
   9.500   1.0559   0.02418   0.01955   0.0012  0.0019  1.0000  -8.0933   0.0000   0.0000   0.0000   0.2397
   9.600   1.0599   0.02494   0.02047   0.0021  0.0018  1.0000  -8.1634   0.0000   0.0000   0.0000   0.2388
   9.700   1.0633   0.02576   0.02136   0.0030  0.0018  1.0000  -8.2196   0.0000   0.0000   0.0000   0.2378
   9.800   1.0662   0.02665   0.02234   0.0039  0.0018  1.0000  -8.2613   0.0000   0.0000   0.0000   0.2368
   9.900   1.0683   0.02762   0.02340   0.0049  0.0018  1.0000  -8.2869   0.0000   0.0000   0.0000   0.2358
  10.000   1.0696   0.02867   0.02455   0.0060  0.0018  1.0000  -8.2952   0.0000   0.0000   0.0000   0.2347
  10.100   1.0700   0.02981   0.02579   0.0071  0.0018  1.0000  -8.2860   0.0000   0.0000   0.0000   0.2335
  10.200   1.0690   0.03099   0.02708   0.0083  0.0018  1.0000  -8.2606   0.0000   0.0000   0.0000   0.2322
  10.300   1.0658   0.03212   0.02830   0.0099  0.0019  1.0000  -8.2247   0.0000   0.0000   0.0000   0.2306
  10.400   1.0616   0.03327   0.02955   0.0114  0.0019  1.0000  -8.1806   0.0000   0.0000   0.0000   0.2290
  10.500   1.0568   0.03451   0.03089   0.0128  0.0019  1.0000  -8.1277   0.0000   0.0000   0.0000   0.2276
  10.600   1.0515   0.03585   0.03233   0.0139  0.0019  1.0000  -8.0665   0.0000   0.0000   0.0000   0.2263
  10.700   1.0456   0.03729   0.03387   0.0150  0.0019  1.0000  -7.9976   0.0000   0.0000   0.0000   0.2251
  10.800   1.0391   0.03882   0.03550   0.0158  0.0020  1.0000  -7.9204   0.0000   0.0000   0.0000   0.2240
  10.900   1.0318   0.04047   0.03725   0.0165  0.0020  1.0000  -7.8358   0.0000   0.0000   0.0000   0.2231
  11.000   1.0237   0.04226   0.03914   0.0170  0.0020  1.0000  -7.7379   0.0000   0.0000   0.0000   0.2224
  11.100   1.0145   0.04417   0.04115   0.0174  0.0021  1.0000  -7.6274   0.0000   0.0000   0.0000   0.2217
  11.200   1.0029   0.04649   0.04357   0.0175  0.0021  1.0000  -7.4689   0.0000   0.0000   0.0000   0.2212
  11.800   0.9380   0.06399   0.06172   0.0158  0.0047  1.0000  -5.8994   0.0000   0.0000   0.0000   0.2210
  11.900   0.9302   0.06630   0.06409   0.0146  0.0047  1.0000  -5.8509   0.0000   0.0000   0.0000   0.2220
  12.000   0.9228   0.06869   0.06653   0.0134  0.0048  1.0000  -5.7995   0.0000   0.0000   0.0000   0.2230
  12.100   0.9149   0.07123   0.06912   0.0119  0.0048  1.0000  -5.7453   0.0000   0.0000   0.0000   0.2244
  12.200   0.9072   0.07387   0.07182   0.0103  0.0048  1.0000  -5.6879   0.0000   0.0000   0.0000   0.2258
  12.300   0.8994   0.07667   0.07467   0.0085  0.0049  1.0000  -5.6273   0.0000   0.0000   0.0000   0.2276
  12.400   0.8916   0.07958   0.07763   0.0067  0.0049  1.0000  -5.5636   0.0000   0.0000   0.0000   0.2295
  12.500   0.8838   0.08266   0.08074   0.0045  0.0049  1.0000  -5.4979   0.0000   0.0000   0.0000   0.2317
  12.600   0.8763   0.08578   0.08391   0.0025  0.0050  1.0000  -5.4297   0.0000   0.0000   0.0000   0.2339
  12.700   0.8688   0.08895   0.08712   0.0002  0.0050  1.0000  -5.3651   0.0000   0.0000   0.0000   0.2363
  12.800   0.8618   0.09214   0.09035  -0.0019  0.0050  1.0000  -5.2986   0.0000   0.0000   0.0000   0.2387
  12.900   0.8554   0.09550   0.09375  -0.0042  0.0050  1.0000  -5.2376   0.0000   0.0000   0.0000   0.2413
  13.000   0.8495   0.09889   0.09717  -0.0064  0.0049  1.0000  -5.1756   0.0000   0.0000   0.0000   0.2439
  13.100   0.8442   0.10231   0.10061  -0.0086  0.0049  1.0000  -5.1197   0.0000   0.0000   0.0000   0.2465
  13.200   0.8396   0.10572   0.10405  -0.0107  0.0048  1.0000  -5.0682   0.0000   0.0000   0.0000   0.2490
  13.300   0.8353   0.10911   0.10746  -0.0127  0.0047  1.0000  -5.0149   0.0000   0.0000   0.0000   0.2515
  13.400   0.8318   0.11244   0.11081  -0.0146  0.0046  1.0000  -4.9731   0.0000   0.0000   0.0000   0.2538
  13.500   0.8283   0.11579   0.11418  -0.0164  0.0045  1.0000  -4.9213   0.0000   0.0000   0.0000   0.2560
  13.600   0.8246   0.11937   0.11777  -0.0181  0.0044  1.0000  -4.8450   0.0000   0.0000   0.0000   0.2582
  13.700   0.8187   0.12399   0.12240  -0.0200  0.0043  1.0000  -4.6662   0.0000   0.0000   0.0000   0.2608
  13.800   0.8091   0.12982   0.12821  -0.0223  0.0045  1.0000  -4.3383   0.0000   0.0000   0.0000   0.2640
  13.900   0.8008   0.13479   0.13318  -0.0244  0.0048  1.0000  -4.0618   0.0000   0.0000   0.0000   0.2670
  14.000   0.7937   0.13924   0.13761  -0.0263  0.0052  1.0000  -3.8255   0.0000   0.0000   0.0000   0.2697
  15.200   0.7696   0.17270   0.17100  -0.0406  0.0068  1.0000  -2.5987   0.0000   0.0000   0.0000   0.2889
  15.300   0.7709   0.17444   0.17274  -0.0414  0.0068  1.0000  -2.5725   0.0000   0.0000   0.0000   0.2898
  15.400   0.7723   0.17617   0.17446  -0.0422  0.0068  1.0000  -2.5478   0.0000   0.0000   0.0000   0.2906
  15.500   0.7738   0.17791   0.17620  -0.0430  0.0068  1.0000  -2.5246   0.0000   0.0000   0.0000   0.2915
  15.600   0.7753   0.17964   0.17793  -0.0438  0.0068  1.0000  -2.5031   0.0000   0.0000   0.0000   0.2923
  15.700   0.7770   0.18138   0.17967  -0.0447  0.0068  1.0000  -2.4833   0.0000   0.0000   0.0000   0.2932
  15.800   0.7787   0.18312   0.18140  -0.0455  0.0068  1.0000  -2.4657   0.0000   0.0000   0.0000   0.2940
  15.900   0.7806   0.18484   0.18312  -0.0463  0.0067  1.0000  -2.4505   0.0000   0.0000   0.0000   0.2948
  16.000   0.7826   0.18654   0.18482  -0.0471  0.0067  1.0000  -2.4387   0.0000   0.0000   0.0000   0.2955
  16.100   0.7847   0.18819   0.18647  -0.0478  0.0067  1.0000  -2.4325   0.0000   0.0000   0.0000   0.2962
  16.200   0.7873   0.18974   0.18802  -0.0486  0.0066  1.0000  -2.4380   0.0000   0.0000   0.0000   0.2969
  16.300   0.7913   0.19085   0.18914  -0.0492  0.0064  1.0000  -2.4863   0.0000   0.0000   0.0000   0.2972
  16.400   0.7957   0.19192   0.19020  -0.0498  0.0060  1.0000  -2.5405   0.0000   0.0000   0.0000   0.2975
  16.500   0.7988   0.19342   0.19171  -0.0505  0.0058  1.0000  -2.5516   0.0000   0.0000   0.0000   0.2980
  16.600   0.8013   0.19508   0.19337  -0.0512  0.0056  1.0000  -2.5487   0.0000   0.0000   0.0000   0.2986
  16.700   0.8036   0.19682   0.19510  -0.0520  0.0054  1.0000  -2.5394   0.0000   0.0000   0.0000   0.2993
  16.800   0.8056   0.19864   0.19692  -0.0528  0.0052  1.0000  -2.5230   0.0000   0.0000   0.0000   0.3000
  16.900   0.8076   0.20049   0.19877  -0.0536  0.0051  1.0000  -2.5047   0.0000   0.0000   0.0000   0.3008
  17.000   0.8095   0.20235   0.20062  -0.0545  0.0050  1.0000  -2.4865   0.0000   0.0000   0.0000   0.3016
  17.100   0.8114   0.20421   0.20248  -0.0553  0.0049  1.0000  -2.4694   0.0000   0.0000   0.0000   0.3023
  17.200   0.8134   0.20607   0.20434  -0.0561  0.0047  1.0000  -2.4534   0.0000   0.0000   0.0000   0.3031
  17.300   0.8153   0.20793   0.20620  -0.0569  0.0046  1.0000  -2.4386   0.0000   0.0000   0.0000   0.3038
  17.400   0.8173   0.20978   0.20806  -0.0577  0.0045  1.0000  -2.4251   0.0000   0.0000   0.0000   0.3045
  17.500   0.8192   0.21164   0.20991  -0.0585  0.0044  1.0000  -2.4129   0.0000   0.0000   0.0000   0.3052
  17.600   0.8212   0.21349   0.21176  -0.0593  0.0043  1.0000  -2.4018   0.0000   0.0000   0.0000   0.3059
  17.700   0.8232   0.21534   0.21361  -0.0601  0.0042  1.0000  -2.3919   0.0000   0.0000   0.0000   0.3066
  17.800   0.8252   0.21719   0.21546  -0.0609  0.0042  1.0000  -2.3831   0.0000   0.0000   0.0000   0.3072
  17.900   0.8273   0.21904   0.21731  -0.0617  0.0041  1.0000  -2.3754   0.0000   0.0000   0.0000   0.3079
  18.000   0.8293   0.22088   0.21915  -0.0625  0.0040  1.0000  -2.3688   0.0000   0.0000   0.0000   0.3085
  18.100   0.8313   0.22273   0.22100  -0.0633  0.0039  1.0000  -2.3633   0.0000   0.0000   0.0000   0.3092
  18.200   0.8334   0.22457   0.22284  -0.0640  0.0038  1.0000  -2.3588   0.0000   0.0000   0.0000   0.3098
  18.300   0.8355   0.22641   0.22468  -0.0648  0.0038  1.0000  -2.3553   0.0000   0.0000   0.0000   0.3104
  18.400   0.8375   0.22825   0.22653  -0.0656  0.0037  1.0000  -2.3527   0.0000   0.0000   0.0000   0.3110
  18.500   0.8396   0.23010   0.22837  -0.0664  0.0037  1.0000  -2.3511   0.0000   0.0000   0.0000   0.3116
  18.600   0.8417   0.23194   0.23021  -0.0671  0.0036  1.0000  -2.3504   0.0000   0.0000   0.0000   0.3122
  18.700   0.8438   0.23378   0.23205  -0.0679  0.0035  1.0000  -2.3506   0.0000   0.0000   0.0000   0.3128
  18.800   0.8459   0.23562   0.23389  -0.0687  0.0035  1.0000  -2.3517   0.0000   0.0000   0.0000   0.3133
  18.900   0.8480   0.23746   0.23573  -0.0694  0.0034  1.0000  -2.3537   0.0000   0.0000   0.0000   0.3139
  19.000   0.8501   0.23930   0.23762  -0.0702  0.0034  1.0000  -2.3574   0.0000   0.0000   0.0000   0.3144
  19.100   0.8522   0.24113   0.23946  -0.0709  0.0033  1.0000  -2.3616   0.0000   0.0000   0.0000   0.3150
  19.200   0.8543   0.24297   0.24130  -0.0717  0.0033  1.0000  -2.3668   0.0000   0.0000   0.0000   0.3155
  19.300   0.8563   0.24480   0.24313  -0.0724  0.0032  1.0000  -2.3729   0.0000   0.0000   0.0000   0.3160
  19.400   0.8584   0.24663   0.24497  -0.0732  0.0032  1.0000  -2.3800   0.0000   0.0000   0.0000   0.3166
  19.500   0.8605   0.24847   0.24680  -0.0739  0.0031  1.0000  -2.3881   0.0000   0.0000   0.0000   0.3171
  19.600   0.8626   0.25030   0.24863  -0.0746  0.0031  1.0000  -2.3972   0.0000   0.0000   0.0000   0.3176
  19.700   0.8647   0.25213   0.25046  -0.0754  0.0031  1.0000  -2.4072   0.0000   0.0000   0.0000   0.3181
  19.800   0.8667   0.25395   0.25229  -0.0761  0.0030  1.0000  -2.4183   0.0000   0.0000   0.0000   0.3186
  19.900   0.8688   0.25578   0.25412  -0.0768  0.0030  1.0000  -2.4304   0.0000   0.0000   0.0000   0.3190
  20.000   0.8709   0.25760   0.25595  -0.0775  0.0030  1.0000  -2.4436   0.0000   0.0000   0.0000   0.3195
  20.100   0.8729   0.25943   0.25777  -0.0783  0.0029  1.0000  -2.4578   0.0000   0.0000   0.0000   0.3200
  20.200   0.8750   0.26125   0.25959  -0.0790  0.0029  1.0000  -2.4729   0.0000   0.0000   0.0000   0.3204
  20.300   0.8770   0.26307   0.26142  -0.0797  0.0029  1.0000  -2.4891   0.0000   0.0000   0.0000   0.3209
  20.400   0.8790   0.26489   0.26324  -0.0804  0.0028  1.0000  -2.5062   0.0000   0.0000   0.0000   0.3213
  20.500   0.8810   0.26671   0.26506  -0.0811  0.0028  1.0000  -2.5241   0.0000   0.0000   0.0000   0.3217
  20.600   0.8830   0.26853   0.26689  -0.0818  0.0028  1.0000  -2.5427   0.0000   0.0000   0.0000   0.3221
  20.700   0.8849   0.27042   0.26878  -0.0825  0.0027  1.0000  -2.5554   0.0000   0.0000   0.0000   0.3226
  20.800   0.8867   0.27240   0.27075  -0.0832  0.0027  1.0000  -2.5601   0.0000   0.0000   0.0000   0.3231
  20.900   0.8884   0.27439   0.27275  -0.0839  0.0027  1.0000  -2.5631   0.0000   0.0000   0.0000   0.3236
  21.000   0.8900   0.27642   0.27478  -0.0847  0.0026  1.0000  -2.5638   0.0000   0.0000   0.0000   0.3241
  21.100   0.8916   0.27849   0.27685  -0.0854  0.0026  1.0000  -2.5607   0.0000   0.0000   0.0000   0.3246
  21.200   0.8931   0.28063   0.27899  -0.0861  0.0026  1.0000  -2.5518   0.0000   0.0000   0.0000   0.3251
  21.300   0.8944   0.28287   0.28123  -0.0869  0.0025  1.0000  -2.5327   0.0000   0.0000   0.0000   0.3256
  21.400   0.8954   0.28532   0.28368  -0.0876  0.0025  1.0000  -2.4929   0.0000   0.0000   0.0000   0.3262
  21.500   0.8949   0.28885   0.28721  -0.0884  0.0024  1.0000  -2.3457   0.0000   0.0000   0.0000   0.3271
  21.600   0.8933   0.29345   0.29179  -0.0892  0.0023  1.0000  -2.0910   0.0000   0.0000   0.0000   0.3282
  21.700   0.8949   0.29559   0.29394  -0.0900  0.0023  1.0000  -2.0802   0.0000   0.0000   0.0000   0.3287
  21.800   0.8965   0.29774   0.29608  -0.0907  0.0023  1.0000  -2.0695   0.0000   0.0000   0.0000   0.3292
  21.900   0.8980   0.29988   0.29823  -0.0914  0.0023  1.0000  -2.0590   0.0000   0.0000   0.0000   0.3297
  22.000   0.8995   0.30204   0.30039  -0.0921  0.0023  1.0000  -2.0485   0.0000   0.0000   0.0000   0.3302
  22.100   0.9009   0.30419   0.30254  -0.0928  0.0023  1.0000  -2.0381   0.0000   0.0000   0.0000   0.3307
  22.200   0.9023   0.30635   0.30470  -0.0935  0.0023  1.0000  -2.0277   0.0000   0.0000   0.0000   0.3312
  22.300   0.9036   0.30851   0.30687  -0.0942  0.0023  1.0000  -2.0174   0.0000   0.0000   0.0000   0.3316
  22.400   0.9049   0.31067   0.30903  -0.0950  0.0023  1.0000  -2.0072   0.0000   0.0000   0.0000   0.3321
  22.500   0.9062   0.31283   0.31120  -0.0957  0.0023  1.0000  -1.9969   0.0000   0.0000   0.0000   0.3326
  22.600   0.9073   0.31500   0.31336  -0.0964  0.0023  1.0000  -1.9864   0.0000   0.0000   0.0000   0.3331
  22.700   0.9085   0.31716   0.31553  -0.0970  0.0023  1.0000  -1.9760   0.0000   0.0000   0.0000   0.3336
  22.800   0.9095   0.31933   0.31770  -0.0977  0.0023  1.0000  -1.9655   0.0000   0.0000   0.0000   0.3341
  22.900   0.9105   0.32149   0.31986  -0.0984  0.0023  1.0000  -1.9550   0.0000   0.0000   0.0000   0.3346
  23.000   0.9114   0.32365   0.32203  -0.0991  0.0023  1.0000  -1.9445   0.0000   0.0000   0.0000   0.3351
  23.100   0.9123   0.32580   0.32418  -0.0998  0.0023  1.0000  -1.9340   0.0000   0.0000   0.0000   0.3356
  23.200   0.9131   0.32795   0.32634  -0.1004  0.0023  1.0000  -1.9234   0.0000   0.0000   0.0000   0.3361
  23.300   0.9137   0.33009   0.32848  -0.1011  0.0023  1.0000  -1.9127   0.0000   0.0000   0.0000   0.3366
  23.400   0.9143   0.33223   0.33062  -0.1017  0.0023  1.0000  -1.9029   0.0000   0.0000   0.0000   0.3371
  23.500   0.9147   0.33435   0.33275  -0.1024  0.0023  1.0000  -1.9022   0.0000   0.0000   0.0000   0.3376
  23.600   0.9151   0.33646   0.33486  -0.1030  0.0023  1.0000  -1.9012   0.0000   0.0000   0.0000   0.3381
  23.700   0.9153   0.33855   0.33696  -0.1036  0.0023  1.0000  -1.8998   0.0000   0.0000   0.0000   0.3386
  23.800   0.9153   0.34062   0.33903  -0.1042  0.0023  1.0000  -1.8979   0.0000   0.0000   0.0000   0.3391
  23.900   0.9151   0.34266   0.34107  -0.1048  0.0023  1.0000  -1.8955   0.0000   0.0000   0.0000   0.3396
  24.000   0.9147   0.34466   0.34308  -0.1053  0.0023  1.0000  -1.8925   0.0000   0.0000   0.0000   0.3402
  24.100   0.9140   0.34662   0.34505  -0.1059  0.0023  1.0000  -1.8886   0.0000   0.0000   0.0000   0.3407
  24.200   0.9130   0.34851   0.34694  -0.1064  0.0023  1.0000  -1.8837   0.0000   0.0000   0.0000   0.3413
  24.300   0.9116   0.35032   0.34876  -0.1068  0.0023  1.0000  -1.8775   0.0000   0.0000   0.0000   0.3419
  24.400   0.9095   0.35199   0.35044  -0.1072  0.0023  1.0000  -1.8694   0.0000   0.0000   0.0000   0.3425
  24.500   0.9064   0.35345   0.35191  -0.1075  0.0023  1.0000  -1.8583   0.0000   0.0000   0.0000   0.3431
  24.600   0.8269   0.33257   0.33114  -0.1002  0.0023  1.0000  -1.6273   0.0000   0.0000   0.0000   0.3475
  24.700   0.8235   0.33253   0.33111  -0.1004  0.0023  1.0000  -1.6153   0.0000   0.0000   0.0000   0.3482
  24.800   0.8204   0.33258   0.33117  -0.1006  0.0023  1.0000  -1.6044   0.0000   0.0000   0.0000   0.3489
  24.900   0.8177   0.33269   0.33129  -0.1009  0.0023  1.0000  -1.5944   0.0000   0.0000   0.0000   0.3495
  25.000   0.8153   0.33284   0.33145  -0.1011  0.0023  1.0000  -1.5851   0.0000   0.0000   0.0000   0.3501
  25.100   0.8130   0.33304   0.33166  -0.1014  0.0023  1.0000  -1.5763   0.0000   0.0000   0.0000   0.3508
  25.200   0.8110   0.33328   0.33190  -0.1017  0.0023  1.0000  -1.5680   0.0000   0.0000   0.0000   0.3514
  25.300   0.8091   0.33355   0.33218  -0.1020  0.0023  1.0000  -1.5600   0.0000   0.0000   0.0000   0.3520
  25.400   0.8074   0.33384   0.33248  -0.1023  0.0023  1.0000  -1.5524   0.0000   0.0000   0.0000   0.3525
  25.500   0.8058   0.33417   0.33281  -0.1027  0.0023  1.0000  -1.5447   0.0000   0.0000   0.0000   0.3531
  25.600   0.8043   0.33451   0.33316  -0.1030  0.0023  1.0000  -1.5370   0.0000   0.0000   0.0000   0.3537
  25.700   0.8029   0.33488   0.33354  -0.1034  0.0023  1.0000  -1.5294   0.0000   0.0000   0.0000   0.3543
  25.800   0.8017   0.33527   0.33393  -0.1038  0.0023  1.0000  -1.5219   0.0000   0.0000   0.0000   0.3548
  25.900   0.8005   0.33567   0.33434  -0.1041  0.0023  1.0000  -1.5146   0.0000   0.0000   0.0000   0.3554
  26.000   0.7994   0.33609   0.33477  -0.1045  0.0023  1.0000  -1.5073   0.0000   0.0000   0.0000   0.3559
  26.100   0.7984   0.33653   0.33521  -0.1049  0.0022  1.0000  -1.5002   0.0000   0.0000   0.0000   0.3565
  26.200   0.7975   0.33698   0.33566  -0.1053  0.0022  1.0000  -1.4931   0.0000   0.0000   0.0000   0.3570
  26.300   0.7966   0.33744   0.33613  -0.1057  0.0022  1.0000  -1.4861   0.0000   0.0000   0.0000   0.3576
  26.400   0.7958   0.33791   0.33661  -0.1061  0.0022  1.0000  -1.4792   0.0000   0.0000   0.0000   0.3581
  26.500   0.7951   0.33839   0.33709  -0.1066  0.0022  1.0000  -1.4721   0.0000   0.0000   0.0000   0.3586
  26.600   0.7944   0.33887   0.33758  -0.1070  0.0022  1.0000  -1.4647   0.0000   0.0000   0.0000   0.3591
  26.700   0.7937   0.33936   0.33808  -0.1074  0.0022  1.0000  -1.4573   0.0000   0.0000   0.0000   0.3597
  26.800   0.7931   0.33987   0.33859  -0.1078  0.0022  1.0000  -1.4498   0.0000   0.0000   0.0000   0.3602
  26.900   0.7926   0.34038   0.33913  -0.1082  0.0022  1.0000  -1.4416   0.0000   0.0000   0.0000   0.3607
  27.000   0.7921   0.34090   0.33965  -0.1087  0.0022  1.0000  -1.4341   0.0000   0.0000   0.0000   0.3612
  27.100   0.7917   0.34143   0.34019  -0.1091  0.0022  1.0000  -1.4267   0.0000   0.0000   0.0000   0.3616
  27.200   0.7913   0.34197   0.34073  -0.1095  0.0021  1.0000  -1.4195   0.0000   0.0000   0.0000   0.3621
  27.300   0.7911   0.34254   0.34131  -0.1100  0.0021  1.0000  -1.4107   0.0000   0.0000   0.0000   0.3626
  27.400   0.7909   0.34315   0.34192  -0.1105  0.0021  1.0000  -1.3998   0.0000   0.0000   0.0000   0.3631
  27.500   0.7907   0.34377   0.34254  -0.1109  0.0021  1.0000  -1.3884   0.0000   0.0000   0.0000   0.3636
  27.600   0.7907   0.34440   0.34318  -0.1114  0.0020  1.0000  -1.3760   0.0000   0.0000   0.0000   0.3640
  27.700   0.7906   0.34503   0.34382  -0.1119  0.0020  1.0000  -1.3621   0.0000   0.0000   0.0000   0.3645
  27.800   0.7906   0.34567   0.34446  -0.1123  0.0019  1.0000  -1.3468   0.0000   0.0000   0.0000   0.3649
  27.900   0.7905   0.34630   0.34509  -0.1128  0.0019  1.0000  -1.3304   0.0000   0.0000   0.0000   0.3654
  28.000   0.7904   0.34691   0.34571  -0.1132  0.0018  1.0000  -1.3138   0.0000   0.0000   0.0000   0.3658
  28.100   0.7902   0.34751   0.34632  -0.1136  0.0018  1.0000  -1.2977   0.0000   0.0000   0.0000   0.3662
  28.200   0.7900   0.34810   0.34691  -0.1140  0.0018  1.0000  -1.2825   0.0000   0.0000   0.0000   0.3666
  28.300   0.7897   0.34868   0.34750  -0.1144  0.0017  1.0000  -1.2684   0.0000   0.0000   0.0000   0.3670
  28.400   0.7895   0.34926   0.34807  -0.1149  0.0017  1.0000  -1.2555   0.0000   0.0000   0.0000   0.3675
  28.500   0.7892   0.34983   0.34865  -0.1153  0.0016  1.0000  -1.2435   0.0000   0.0000   0.0000   0.3679
  28.600   0.7890   0.35039   0.34922  -0.1157  0.0016  1.0000  -1.2325   0.0000   0.0000   0.0000   0.3683
  28.700   0.7887   0.35096   0.34979  -0.1161  0.0016  1.0000  -1.2223   0.0000   0.0000   0.0000   0.3687
  28.800   0.7885   0.35152   0.35036  -0.1166  0.0016  1.0000  -1.2128   0.0000   0.0000   0.0000   0.3692
  28.900   0.7882   0.35209   0.35093  -0.1170  0.0015  1.0000  -1.2040   0.0000   0.0000   0.0000   0.3696
  29.000   0.7880   0.35265   0.35149  -0.1174  0.0015  1.0000  -1.1958   0.0000   0.0000   0.0000   0.3700
  29.100   0.7878   0.35321   0.35206  -0.1179  0.0015  1.0000  -1.1881   0.0000   0.0000   0.0000   0.3704
  29.200   0.7875   0.35377   0.35263  -0.1183  0.0015  1.0000  -1.1810   0.0000   0.0000   0.0000   0.3709
  29.300   0.7873   0.35434   0.35320  -0.1187  0.0014  1.0000  -1.1744   0.0000   0.0000   0.0000   0.3713
  29.400   0.7871   0.35490   0.35377  -0.1192  0.0014  1.0000  -1.1683   0.0000   0.0000   0.0000   0.3717
  29.500   0.7869   0.35547   0.35433  -0.1196  0.0014  1.0000  -1.1625   0.0000   0.0000   0.0000   0.3721
  29.600   0.7867   0.35603   0.35490  -0.1201  0.0014  1.0000  -1.1572   0.0000   0.0000   0.0000   0.3725
  29.700   0.7865   0.35659   0.35547  -0.1205  0.0014  1.0000  -1.1523   0.0000   0.0000   0.0000   0.3729
  29.800   0.7864   0.35716   0.35604  -0.1210  0.0014  1.0000  -1.1477   0.0000   0.0000   0.0000   0.3734
  29.900   0.7862   0.35772   0.35661  -0.1214  0.0013  1.0000  -1.1436   0.0000   0.0000   0.0000   0.3738
  30.000   0.7860   0.35829   0.35718  -0.1219  0.0013  1.0000  -1.1397   0.0000   0.0000   0.0000   0.3742


