xflr5 v6.61

 Calculated polar for: MH 20

 1 1 Reynolds number fixed          Mach number fixed         

 xtrf =   1.000 (top)        1.000 (bottom)
 Mach =   0.000     Re =     0.719 e 6     Ncrit =   9.000

  alpha     CL        CD       CDp       Cm    Top Xtr Bot Xtr   Cpmin    Chinge    XCp    
 ------- -------- --------- --------- -------- ------- ------- -------- --------- ---------
 -10.000  -0.5521   0.10953   0.10787   0.0150  1.0000  0.0076  -2.6568   0.0000   0.0000   0.0000   0.2720
  -9.900  -0.5512   0.10787   0.10622   0.0142  1.0000  0.0076  -2.6673   0.0000   0.0000   0.0000   0.2706
  -9.800  -0.5503   0.10623   0.10459   0.0134  1.0000  0.0077  -2.6762   0.0000   0.0000   0.0000   0.2693
  -9.700  -0.5495   0.10461   0.10297   0.0126  1.0000  0.0078  -2.6843   0.0000   0.0000   0.0000   0.2680
  -9.600  -0.5487   0.10300   0.10137   0.0118  1.0000  0.0078  -2.6920   0.0000   0.0000   0.0000   0.2666
  -9.500  -0.5480   0.10141   0.09978   0.0110  1.0000  0.0079  -2.6998   0.0000   0.0000   0.0000   0.2652
  -9.400  -0.5473   0.09982   0.09819   0.0102  1.0000  0.0080  -2.7080   0.0000   0.0000   0.0000   0.2638
  -9.300  -0.5466   0.09820   0.09659   0.0093  1.0000  0.0080  -2.7163   0.0000   0.0000   0.0000   0.2624
  -9.200  -0.5459   0.09657   0.09497   0.0084  1.0000  0.0081  -2.7250   0.0000   0.0000   0.0000   0.2608
  -9.100  -0.5452   0.09493   0.09333   0.0075  1.0000  0.0082  -2.7347   0.0000   0.0000   0.0000   0.2593
  -9.000  -0.5446   0.09328   0.09169   0.0066  1.0000  0.0082  -2.7456   0.0000   0.0000   0.0000   0.2576
  -8.900  -0.5442   0.09163   0.09005   0.0056  1.0000  0.0083  -2.7572   0.0000   0.0000   0.0000   0.2560
  -8.800  -0.5437   0.09002   0.08845   0.0047  1.0000  0.0083  -2.7639   0.0000   0.0000   0.0000   0.2544
  -8.700  -0.5433   0.08841   0.08685   0.0038  1.0000  0.0084  -2.7730   0.0000   0.0000   0.0000   0.2527
  -8.600  -0.5432   0.08677   0.08522   0.0028  1.0000  0.0084  -2.7848   0.0000   0.0000   0.0000   0.2510
  -8.500  -0.5432   0.08510   0.08356   0.0017  1.0000  0.0085  -2.7992   0.0000   0.0000   0.0000   0.2491
  -8.400  -0.5434   0.08338   0.08185   0.0006  1.0000  0.0085  -2.8166   0.0000   0.0000   0.0000   0.2470
  -8.300  -0.5439   0.08163   0.08011  -0.0007  1.0000  0.0086  -2.8382   0.0000   0.0000   0.0000   0.2448
  -8.200  -0.5448   0.07982   0.07833  -0.0021  1.0000  0.0086  -2.8652   0.0000   0.0000   0.0000   0.2424
  -8.100  -0.5463   0.07793   0.07645  -0.0036  1.0000  0.0086  -2.8997   0.0000   0.0000   0.0000   0.2396
  -8.000  -0.5459   0.07555   0.07406  -0.0068  0.9542  0.0086  -2.9448   0.0000   0.0000   0.0000   0.2339
  -7.900  -0.5505   0.07366   0.07209  -0.0083  0.9164  0.0086  -3.0045   0.0000   0.0000   0.0000   0.2313
  -7.800  -0.5542   0.07178   0.07016  -0.0095  0.8982  0.0086  -3.0586   0.0000   0.0000   0.0000   0.2294
  -7.700  -0.5562   0.06975   0.06806  -0.0108  0.8845  0.0086  -3.1075   0.0000   0.0000   0.0000   0.2271
  -7.600  -0.5566   0.06757   0.06584  -0.0124  0.8753  0.0086  -3.1525   0.0000   0.0000   0.0000   0.2244
  -7.500  -0.5567   0.06543   0.06365  -0.0137  0.8659  0.0087  -3.1938   0.0000   0.0000   0.0000   0.2220
  -7.400  -0.5565   0.06335   0.06150  -0.0148  0.8568  0.0087  -3.2308   0.0000   0.0000   0.0000   0.2200
  -7.300  -0.5555   0.06127   0.05936  -0.0159  0.8483  0.0087  -3.2630   0.0000   0.0000   0.0000   0.2181
  -7.200  -0.5535   0.05915   0.05719  -0.0169  0.8436  0.0088  -3.2900   0.0000   0.0000   0.0000   0.2162
  -7.100  -0.5512   0.05709   0.05507  -0.0178  0.8382  0.0089  -3.3127   0.0000   0.0000   0.0000   0.2145
  -7.000  -0.5485   0.05510   0.05301  -0.0185  0.8324  0.0090  -3.3308   0.0000   0.0000   0.0000   0.2130
  -6.900  -0.5455   0.05315   0.05099  -0.0191  0.8267  0.0091  -3.3454   0.0000   0.0000   0.0000   0.2119
  -6.500  -0.5294   0.04584   0.04333  -0.0203  0.8059  0.0096  -3.3682   0.0000   0.0000   0.0000   0.2084
  -6.400  -0.5242   0.04408   0.04149  -0.0205  0.8034  0.0098  -3.3669   0.0000   0.0000   0.0000   0.2077
  -6.300  -0.5188   0.04239   0.03972  -0.0206  0.8004  0.0100  -3.3625   0.0000   0.0000   0.0000   0.2072
  -6.200  -0.5131   0.04074   0.03798  -0.0206  0.7973  0.0102  -3.3568   0.0000   0.0000   0.0000   0.2068
  -6.100  -0.5071   0.03914   0.03628  -0.0205  0.7939  0.0105  -3.3487   0.0000   0.0000   0.0000   0.2065
  -6.000  -0.5009   0.03762   0.03465  -0.0203  0.7905  0.0108  -3.3378   0.0000   0.0000   0.0000   0.2062
  -5.900  -0.4944   0.03614   0.03307  -0.0201  0.7869  0.0111  -3.3252   0.0000   0.0000   0.0000   0.2061
  -5.800  -0.4876   0.03472   0.03153  -0.0199  0.7833  0.0114  -3.3107   0.0000   0.0000   0.0000   0.2061
  -5.700  -0.4805   0.03338   0.03007  -0.0196  0.7796  0.0119  -3.2929   0.0000   0.0000   0.0000   0.2061
  -5.600  -0.4732   0.03211   0.02868  -0.0192  0.7755  0.0123  -3.2724   0.0000   0.0000   0.0000   0.2062
  -5.500  -0.4654   0.03093   0.02736  -0.0189  0.7710  0.0129  -3.2488   0.0000   0.0000   0.0000   0.2063
  -5.400  -0.4572   0.02983   0.02615  -0.0185  0.7662  0.0135  -3.2207   0.0000   0.0000   0.0000   0.2063
  -5.300  -0.4485   0.02886   0.02507  -0.0182  0.7635  0.0142  -3.1852   0.0000   0.0000   0.0000   0.2063
  -5.200  -0.4270   0.03251   0.02889  -0.0184  0.7620  0.0173  -2.8265   0.0000   0.0000   0.0000   0.2039
  -5.100  -0.4182   0.03169   0.02797  -0.0181  0.7606  0.0175  -2.7929   0.0000   0.0000   0.0000   0.2037
  -4.900  -0.4197   0.01890   0.01393  -0.0138  0.7582  0.0075  -4.0519   0.0000   0.0000   0.0000   0.2138
  -4.800  -0.4086   0.01883   0.01383  -0.0136  0.7563  0.0072  -3.9333   0.0000   0.0000   0.0000   0.2133
  -4.700  -0.3976   0.01871   0.01369  -0.0135  0.7543  0.0070  -3.8165   0.0000   0.0000   0.0000   0.2128
  -4.600  -0.3867   0.01854   0.01348  -0.0133  0.7521  0.0068  -3.7077   0.0000   0.0000   0.0000   0.2123
  -4.500  -0.3795   0.01626   0.01095  -0.0123  0.7501  0.0061  -3.9111   0.0000   0.0000   0.0000   0.2142
  -4.400  -0.3700   0.01525   0.00979  -0.0118  0.7478  0.0061  -3.9281   0.0000   0.0000   0.0000   0.2147
  -4.300  -0.3601   0.01451   0.00888  -0.0114  0.7455  0.0061  -3.9053   0.0000   0.0000   0.0000   0.2150
  -4.200  -0.3500   0.01395   0.00824  -0.0111  0.7431  0.0061  -3.8507   0.0000   0.0000   0.0000   0.2150
  -4.100  -0.3397   0.01349   0.00770  -0.0108  0.7405  0.0062  -3.7784   0.0000   0.0000   0.0000   0.2150
  -4.000  -0.3294   0.01310   0.00723  -0.0105  0.7377  0.0063  -3.6921   0.0000   0.0000   0.0000   0.2148
  -3.900  -0.3190   0.01278   0.00685  -0.0103  0.7346  0.0064  -3.5933   0.0000   0.0000   0.0000   0.2146
  -3.800  -0.3078   0.01280   0.00685  -0.0102  0.7312  0.0066  -3.4320   0.0000   0.0000   0.0000   0.2136
  -3.700  -0.2999   0.01162   0.00548  -0.0094  0.7277  0.0071  -3.4719   0.0000   0.0000   0.0000   0.2153
  -3.600  -0.2908   0.01097   0.00471  -0.0089  0.7238  0.0076  -3.4390   0.0000   0.0000   0.0000   0.2162
  -3.500  -0.2810   0.01057   0.00422  -0.0085  0.7198  0.0079  -3.3713   0.0000   0.0000   0.0000   0.2165
  -3.400  -0.2707   0.01026   0.00382  -0.0082  0.7174  0.0082  -3.2935   0.0000   0.0000   0.0000   0.2165
  -3.300  -0.2602   0.00995   0.00344  -0.0079  0.7166  0.0087  -3.2161   0.0000   0.0000   0.0000   0.2165
  -3.200  -0.2496   0.00970   0.00311  -0.0076  0.7157  0.0096  -3.1417   0.0000   0.0000   0.0000   0.2163
  -3.100  -0.2388   0.00947   0.00283  -0.0074  0.7146  0.0116  -3.0707   0.0000   0.0000   0.0000   0.2160
  -3.000  -0.2280   0.00925   0.00261  -0.0071  0.7135  0.0166  -2.9908   0.0000   0.0000   0.0000   0.2155
  -2.900  -0.2184   0.00886   0.00242  -0.0069  0.7121  0.0518  -2.8905   0.0000   0.0000   0.0000   0.2154
  -2.800  -0.2081   0.00865   0.00232  -0.0068  0.7107  0.0746  -2.7421   0.0000   0.0000   0.0000   0.2143
  -2.700  -0.1975   0.00851   0.00224  -0.0067  0.7092  0.0923  -2.6037   0.0000   0.0000   0.0000   0.2129
  -2.600  -0.1869   0.00836   0.00216  -0.0066  0.7075  0.1095  -2.4731   0.0000   0.0000   0.0000   0.2114
  -2.500  -0.1766   0.00818   0.00210  -0.0065  0.7057  0.1362  -2.3437   0.0000   0.0000   0.0000   0.2099
  -2.400  -0.1660   0.00805   0.00202  -0.0064  0.7038  0.1586  -2.2132   0.0000   0.0000   0.0000   0.2080
  -2.300  -0.1556   0.00790   0.00196  -0.0063  0.7018  0.1816  -2.0850   0.0000   0.0000   0.0000   0.2060
  -2.200  -0.1450   0.00777   0.00190  -0.0063  0.6998  0.2061  -1.9580   0.0000   0.0000   0.0000   0.2035
  -2.100  -0.1344   0.00766   0.00185  -0.0062  0.6977  0.2243  -1.8318   0.0000   0.0000   0.0000   0.2006
  -2.000  -0.1238   0.00755   0.00178  -0.0061  0.6956  0.2477  -1.7083   0.0000   0.0000   0.0000   0.1973
  -1.900  -0.1133   0.00744   0.00173  -0.0060  0.6933  0.2711  -1.5873   0.0000   0.0000   0.0000   0.1935
  -1.800  -0.1032   0.00727   0.00168  -0.0058  0.6909  0.3084  -1.4713   0.0000   0.0000   0.0000   0.1897
  -1.700  -0.0932   0.00709   0.00163  -0.0057  0.6882  0.3493  -1.3597   0.0000   0.0000   0.0000   0.1852
  -1.600  -0.0833   0.00692   0.00156  -0.0055  0.6852  0.3941  -1.2514   0.0000   0.0000   0.0000   0.1802
  -1.500  -0.0739   0.00671   0.00152  -0.0052  0.6822  0.4497  -1.1455   0.0000   0.0000   0.0000   0.1752
  -1.400  -0.0649   0.00647   0.00148  -0.0049  0.6791  0.5140  -1.0438   0.0000   0.0000   0.0000   0.1707
  -1.300  -0.0560   0.00626   0.00146  -0.0044  0.6761  0.5773  -0.9448   0.0000   0.0000   0.0000   0.1660
  -1.200  -0.0472   0.00608   0.00145  -0.0040  0.6731  0.6331  -0.8479   0.0000   0.0000   0.0000   0.1601
  -1.100  -0.0384   0.00592   0.00145  -0.0035  0.6701  0.6852  -0.7536   0.0000   0.0000   0.0000   0.1532
  -1.000  -0.0298   0.00572   0.00143  -0.0029  0.6692  0.7381  -0.6623   0.0000   0.0000   0.0000   0.1470
  -0.900  -0.0215   0.00550   0.00141  -0.0022  0.6686  0.7921  -0.5737   0.0000   0.0000   0.0000   0.1415
  -0.800  -0.0119   0.00532   0.00141  -0.0016  0.6678  0.8465  -0.5377   0.0000   0.0000   0.0000   0.0993
  -0.700   0.0067   0.00520   0.00145  -0.0030  0.6668  0.9059  -0.4958   0.0000   0.0000   0.0000   0.7176
  -0.600   0.0437   0.00524   0.00150  -0.0085  0.6655  0.9436  -0.4291   0.0000   0.0000   0.0000   0.4461
  -0.500   0.0606   0.00528   0.00152  -0.0096  0.6643  0.9546  -0.4031   0.0000   0.0000   0.0000   0.4100
  -0.400   0.0762   0.00531   0.00154  -0.0105  0.6630  0.9615  -0.4134   0.0000   0.0000   0.0000   0.3886
  -0.300   0.0879   0.00535   0.00156  -0.0106  0.6617  0.9697  -0.4217   0.0000   0.0000   0.0000   0.3702
  -0.200   0.1037   0.00539   0.00158  -0.0115  0.6603  0.9753  -0.4329   0.0000   0.0000   0.0000   0.3606
  -0.100   0.1214   0.00542   0.00159  -0.0129  0.6587  0.9796  -0.4456   0.0000   0.0000   0.0000   0.3557
   0.000   0.1366   0.00544   0.00159  -0.0137  0.6569  0.9831  -0.4570   0.0000   0.0000   0.0000   0.3499
   0.100   0.1501   0.00547   0.00159  -0.0142  0.6548  0.9861  -0.4675   0.0000   0.0000   0.0000   0.3439
   0.200   0.1670   0.00549   0.00159  -0.0154  0.6524  0.9885  -0.4799   0.0000   0.0000   0.0000   0.3416
   0.300   0.1860   0.00549   0.00157  -0.0171  0.6497  0.9908  -0.4934   0.0000   0.0000   0.0000   0.3412
   0.400   0.2035   0.00551   0.00155  -0.0185  0.6471  0.9932  -0.5061   0.0000   0.0000   0.0000   0.3400
   0.500   0.2194   0.00552   0.00154  -0.0196  0.6447  0.9951  -0.5181   0.0000   0.0000   0.0000   0.3381
   0.600   0.2347   0.00554   0.00153  -0.0205  0.6423  0.9967  -0.5297   0.0000   0.0000   0.0000   0.3361
   0.700   0.2523   0.00553   0.00149  -0.0219  0.6397  0.9984  -0.5436   0.0000   0.0000   0.0000   0.3356
   0.800   0.2696   0.00553   0.00147  -0.0233  0.6367  1.0000  -0.5580   0.0000   0.0000   0.0000   0.3351
   0.900   0.2801   0.00554   0.00146  -0.0232  0.6333  1.0000  -0.5684   0.0000   0.0000   0.0000   0.3314
   1.000   0.2906   0.00557   0.00145  -0.0231  0.6293  1.0000  -0.5788   0.0000   0.0000   0.0000   0.3280
   1.100   0.3012   0.00560   0.00146  -0.0230  0.6248  1.0000  -0.5893   0.0000   0.0000   0.0000   0.3248
   1.200   0.3118   0.00563   0.00148  -0.0229  0.6205  1.0000  -0.5998   0.0000   0.0000   0.0000   0.3219
   1.300   0.3224   0.00562   0.00146  -0.0228  0.6197  1.0000  -0.6104   0.0000   0.0000   0.0000   0.3190
   1.400   0.3330   0.00560   0.00145  -0.0227  0.6187  1.0000  -0.6211   0.0000   0.0000   0.0000   0.3164
   1.500   0.3436   0.00559   0.00144  -0.0226  0.6176  1.0000  -0.6318   0.0000   0.0000   0.0000   0.3139
   1.600   0.3543   0.00559   0.00144  -0.0225  0.6163  1.0000  -0.6440   0.0000   0.0000   0.0000   0.3116
   1.700   0.3649   0.00558   0.00144  -0.0224  0.6148  1.0000  -0.6563   0.0000   0.0000   0.0000   0.3094
   1.800   0.3756   0.00558   0.00144  -0.0223  0.6129  1.0000  -0.6688   0.0000   0.0000   0.0000   0.3074
   1.900   0.3863   0.00557   0.00144  -0.0222  0.6107  1.0000  -0.6812   0.0000   0.0000   0.0000   0.3054
   2.000   0.3970   0.00557   0.00144  -0.0221  0.6080  1.0000  -0.6937   0.0000   0.0000   0.0000   0.3036
   2.100   0.4076   0.00557   0.00144  -0.0220  0.6045  1.0000  -0.7063   0.0000   0.0000   0.0000   0.3018
   2.200   0.4183   0.00557   0.00143  -0.0219  0.6007  1.0000  -0.7209   0.0000   0.0000   0.0000   0.3001
   2.300   0.4289   0.00558   0.00143  -0.0218  0.5965  1.0000  -0.7355   0.0000   0.0000   0.0000   0.2985
   2.400   0.4395   0.00560   0.00143  -0.0217  0.5922  1.0000  -0.7502   0.0000   0.0000   0.0000   0.2969
   2.500   0.4501   0.00562   0.00143  -0.0216  0.5878  1.0000  -0.7649   0.0000   0.0000   0.0000   0.2955
   2.600   0.4607   0.00565   0.00144  -0.0215  0.5823  1.0000  -0.7806   0.0000   0.0000   0.0000   0.2941
   2.700   0.4714   0.00569   0.00145  -0.0214  0.5756  1.0000  -0.7980   0.0000   0.0000   0.0000   0.2928
   2.800   0.4820   0.00572   0.00147  -0.0213  0.5706  1.0000  -0.8155   0.0000   0.0000   0.0000   0.2916
   2.900   0.4928   0.00571   0.00148  -0.0212  0.5685  1.0000  -0.8333   0.0000   0.0000   0.0000   0.2904
   3.000   0.5035   0.00571   0.00150  -0.0211  0.5655  1.0000  -0.8511   0.0000   0.0000   0.0000   0.2892
   3.100   0.5142   0.00572   0.00152  -0.0210  0.5617  1.0000  -0.8689   0.0000   0.0000   0.0000   0.2881
   3.200   0.5249   0.00574   0.00153  -0.0209  0.5562  1.0000  -0.8894   0.0000   0.0000   0.0000   0.2870
   3.300   0.5356   0.00576   0.00154  -0.0208  0.5487  1.0000  -0.9110   0.0000   0.0000   0.0000   0.2860
   3.400   0.5461   0.00580   0.00154  -0.0207  0.5392  1.0000  -0.9325   0.0000   0.0000   0.0000   0.2849
   3.500   0.5565   0.00587   0.00157  -0.0206  0.5275  1.0000  -0.9541   0.0000   0.0000   0.0000   0.2839
   3.600   0.5672   0.00591   0.00160  -0.0205  0.5199  1.0000  -0.9779   0.0000   0.0000   0.0000   0.2830
   3.700   0.5779   0.00594   0.00163  -0.0205  0.5145  1.0000  -1.0050   0.0000   0.0000   0.0000   0.2821
   3.800   0.5885   0.00598   0.00166  -0.0204  0.5058  1.0000  -1.0323   0.0000   0.0000   0.0000   0.2813
   3.900   0.5990   0.00605   0.00169  -0.0203  0.4934  1.0000  -1.0659   0.0000   0.0000   0.0000   0.2804
   4.000   0.6093   0.00617   0.00172  -0.0202  0.4767  1.0000  -1.1061   0.0000   0.0000   0.0000   0.2796
   4.100   0.6199   0.00622   0.00177  -0.0201  0.4675  1.0000  -1.1557   0.0000   0.0000   0.0000   0.2789
   4.200   0.6304   0.00628   0.00182  -0.0200  0.4587  1.0000  -1.2065   0.0000   0.0000   0.0000   0.2781
   4.300   0.6409   0.00637   0.00187  -0.0199  0.4484  1.0000  -1.3238   0.0000   0.0000   0.0000   0.2774
   4.400   0.6512   0.00650   0.00195  -0.0198  0.4340  1.0000  -1.4435   0.0000   0.0000   0.0000   0.2767
   4.500   0.6616   0.00659   0.00201  -0.0197  0.4217  1.0000  -1.5674   0.0000   0.0000   0.0000   0.2760
   4.600   0.6721   0.00666   0.00207  -0.0197  0.4122  1.0000  -1.6951   0.0000   0.0000   0.0000   0.2753
   4.700   0.6823   0.00678   0.00215  -0.0196  0.3986  1.0000  -1.8243   0.0000   0.0000   0.0000   0.2746
   4.800   0.6924   0.00695   0.00224  -0.0195  0.3810  1.0000  -1.9550   0.0000   0.0000   0.0000   0.2740
   4.900   0.7028   0.00703   0.00231  -0.0194  0.3717  1.0000  -2.0909   0.0000   0.0000   0.0000   0.2734
   5.000   0.7132   0.00711   0.00239  -0.0193  0.3630  1.0000  -2.2295   0.0000   0.0000   0.0000   0.2727
   5.100   0.7232   0.00728   0.00249  -0.0192  0.3472  1.0000  -2.3680   0.0000   0.0000   0.0000   0.2721
   5.200   0.7331   0.00747   0.00259  -0.0191  0.3264  1.0000  -2.5082   0.0000   0.0000   0.0000   0.2715
   5.300   0.7429   0.00764   0.00269  -0.0189  0.3073  1.0000  -2.6511   0.0000   0.0000   0.0000   0.2709
   5.400   0.7525   0.00788   0.00282  -0.0188  0.2842  1.0000  -2.7939   0.0000   0.0000   0.0000   0.2704
   5.500   0.7626   0.00799   0.00295  -0.0187  0.2732  1.0000  -2.9475   0.0000   0.0000   0.0000   0.2698
   5.600   0.7723   0.00819   0.00308  -0.0186  0.2570  1.0000  -3.0967   0.0000   0.0000   0.0000   0.2692
   5.700   0.7820   0.00838   0.00320  -0.0184  0.2401  1.0000  -3.2479   0.0000   0.0000   0.0000   0.2686
   5.800   0.7919   0.00853   0.00332  -0.0183  0.2268  1.0000  -3.4020   0.0000   0.0000   0.0000   0.2681
   5.900   0.8010   0.00881   0.00348  -0.0181  0.2046  1.0000  -3.5523   0.0000   0.0000   0.0000   0.2675
   6.000   0.8106   0.00900   0.00362  -0.0180  0.1893  1.0000  -3.7081   0.0000   0.0000   0.0000   0.2669
   6.100   0.8194   0.00933   0.00382  -0.0178  0.1631  1.0000  -3.8579   0.0000   0.0000   0.0000   0.2663
   6.200   0.8277   0.00972   0.00404  -0.0175  0.1352  1.0000  -4.0054   0.0000   0.0000   0.0000   0.2657
   6.300   0.8359   0.01011   0.00428  -0.0173  0.1088  1.0000  -4.1528   0.0000   0.0000   0.0000   0.2651
   6.400   0.8440   0.01050   0.00453  -0.0170  0.0839  1.0000  -4.3000   0.0000   0.0000   0.0000   0.2645
   6.500   0.8519   0.01093   0.00481  -0.0167  0.0600  1.0000  -4.4444   0.0000   0.0000   0.0000   0.2638
   6.600   0.8597   0.01134   0.00509  -0.0163  0.0402  1.0000  -4.5871   0.0000   0.0000   0.0000   0.2632
   6.700   0.8678   0.01172   0.00538  -0.0160  0.0263  1.0000  -4.7275   0.0000   0.0000   0.0000   0.2625
   6.800   0.8761   0.01206   0.00566  -0.0156  0.0167  1.0000  -4.8536   0.0000   0.0000   0.0000   0.2618
   6.900   0.8849   0.01231   0.00591  -0.0153  0.0135  1.0000  -5.0030   0.0000   0.0000   0.0000   0.2611
   7.000   0.8896   0.01332   0.00709  -0.0141  0.0069  1.0000  -4.9196   0.0000   0.0000   0.0000   0.2596
   7.100   0.8990   0.01346   0.00723  -0.0138  0.0066  1.0000  -5.0980   0.0000   0.0000   0.0000   0.2590
   7.200   0.9078   0.01367   0.00747  -0.0135  0.0063  1.0000  -5.2536   0.0000   0.0000   0.0000   0.2584
   7.300   0.9161   0.01397   0.00782  -0.0130  0.0058  1.0000  -5.3873   0.0000   0.0000   0.0000   0.2577
   7.400   0.9240   0.01432   0.00822  -0.0125  0.0055  1.0000  -5.5092   0.0000   0.0000   0.0000   0.2569
   7.500   0.9316   0.01471   0.00867  -0.0120  0.0052  1.0000  -5.6256   0.0000   0.0000   0.0000   0.2560
   7.600   0.9388   0.01513   0.00914  -0.0113  0.0050  1.0000  -5.7381   0.0000   0.0000   0.0000   0.2552
   7.700   0.9458   0.01556   0.00963  -0.0107  0.0048  1.0000  -5.8498   0.0000   0.0000   0.0000   0.2543
   7.800   0.9527   0.01598   0.01010  -0.0101  0.0047  1.0000  -5.9714   0.0000   0.0000   0.0000   0.2535
   7.900   0.9598   0.01637   0.01054  -0.0095  0.0045  1.0000  -6.1050   0.0000   0.0000   0.0000   0.2527
   8.000   0.9670   0.01673   0.01093  -0.0090  0.0043  1.0000  -6.2525   0.0000   0.0000   0.0000   0.2519
   8.100   0.9744   0.01705   0.01128  -0.0084  0.0041  1.0000  -6.4136   0.0000   0.0000   0.0000   0.2512
   8.200   0.9819   0.01735   0.01161  -0.0080  0.0039  1.0000  -6.5851   0.0000   0.0000   0.0000   0.2505
   8.300   0.9893   0.01766   0.01194  -0.0075  0.0037  1.0000  -6.7600   0.0000   0.0000   0.0000   0.2499
   8.400   0.9963   0.01800   0.01231  -0.0070  0.0036  1.0000  -6.9272   0.0000   0.0000   0.0000   0.2492
   8.500   1.0027   0.01843   0.01277  -0.0063  0.0034  1.0000  -7.0704   0.0000   0.0000   0.0000   0.2484
   8.600   1.0084   0.01894   0.01333  -0.0056  0.0034  1.0000  -7.1894   0.0000   0.0000   0.0000   0.2475
   8.700   1.0138   0.01947   0.01391  -0.0048  0.0033  1.0000  -7.3040   0.0000   0.0000   0.0000   0.2466
   8.800   1.0190   0.02002   0.01452  -0.0040  0.0032  1.0000  -7.4135   0.0000   0.0000   0.0000   0.2456
   8.900   1.0240   0.02061   0.01516  -0.0032  0.0032  1.0000  -7.5171   0.0000   0.0000   0.0000   0.2447
   9.000   1.0288   0.02123   0.01583  -0.0024  0.0031  1.0000  -7.6141   0.0000   0.0000   0.0000   0.2438
   9.100   1.0333   0.02188   0.01655  -0.0015  0.0031  1.0000  -7.7034   0.0000   0.0000   0.0000   0.2428
   9.200   1.0375   0.02259   0.01731  -0.0006  0.0030  1.0000  -7.7842   0.0000   0.0000   0.0000   0.2418
   9.300   1.0415   0.02334   0.01813   0.0002  0.0029  1.0000  -7.8557   0.0000   0.0000   0.0000   0.2409
   9.400   1.0452   0.02414   0.01900   0.0011  0.0029  1.0000  -7.9171   0.0000   0.0000   0.0000   0.2399
   9.500   1.0486   0.02500   0.01993   0.0021  0.0029  1.0000  -7.9689   0.0000   0.0000   0.0000   0.2389
   9.600   1.0518   0.02590   0.02092   0.0030  0.0028  1.0000  -8.0120   0.0000   0.0000   0.0000   0.2379
   9.700   1.0546   0.02685   0.02206   0.0039  0.0028  1.0000  -8.0480   0.0000   0.0000   0.0000   0.2369
   9.800   1.0572   0.02782   0.02311   0.0049  0.0028  1.0000  -8.0811   0.0000   0.0000   0.0000   0.2359
   9.900   1.0595   0.02879   0.02417   0.0058  0.0028  1.0000  -8.1114   0.0000   0.0000   0.0000   0.2349
  10.000   1.0614   0.02977   0.02524   0.0067  0.0027  1.0000  -8.1403   0.0000   0.0000   0.0000   0.2339
  10.100   1.0628   0.03073   0.02629   0.0077  0.0027  1.0000  -8.1686   0.0000   0.0000   0.0000   0.2329
  10.200   1.0629   0.03163   0.02727   0.0089  0.0027  1.0000  -8.1936   0.0000   0.0000   0.0000   0.2316
  10.300   1.0622   0.03250   0.02822   0.0101  0.0028  1.0000  -8.2161   0.0000   0.0000   0.0000   0.2303
  10.400   1.0612   0.03339   0.02919   0.0113  0.0028  1.0000  -8.2364   0.0000   0.0000   0.0000   0.2291
  10.500   1.0601   0.03431   0.03019   0.0123  0.0028  1.0000  -8.2539   0.0000   0.0000   0.0000   0.2280
  10.600   1.0587   0.03528   0.03124   0.0133  0.0028  1.0000  -8.2667   0.0000   0.0000   0.0000   0.2269
  10.700   1.0571   0.03632   0.03236   0.0141  0.0028  1.0000  -8.2717   0.0000   0.0000   0.0000   0.2260
  10.800   1.0549   0.03743   0.03356   0.0149  0.0029  1.0000  -8.2625   0.0000   0.0000   0.0000   0.2251
  10.900   1.0519   0.03870   0.03494   0.0157  0.0029  1.0000  -8.2234   0.0000   0.0000   0.0000   0.2242
  11.000   1.0447   0.04075   0.03716   0.0166  0.0031  1.0000  -8.0173   0.0000   0.0000   0.0000   0.2231
  11.100   0.9972   0.04925   0.04622   0.0186  0.0043  1.0000  -6.6406   0.0000   0.0000   0.0000   0.2203
  11.200   0.9873   0.05143   0.04850   0.0186  0.0045  1.0000  -6.5170   0.0000   0.0000   0.0000   0.2199
  11.300   0.9781   0.05363   0.05079   0.0184  0.0046  1.0000  -6.4074   0.0000   0.0000   0.0000   0.2198
  11.400   0.9695   0.05574   0.05297   0.0180  0.0047  1.0000  -6.3270   0.0000   0.0000   0.0000   0.2199
  11.500   0.9612   0.05782   0.05513   0.0175  0.0048  1.0000  -6.2545   0.0000   0.0000   0.0000   0.2201
  11.600   0.9533   0.05987   0.05724   0.0169  0.0049  1.0000  -6.1968   0.0000   0.0000   0.0000   0.2204
  11.700   0.9458   0.06196   0.05930   0.0161  0.0049  1.0000  -6.1467   0.0000   0.0000   0.0000   0.2210
  11.800   0.9382   0.06419   0.06159   0.0152  0.0050  1.0000  -6.0911   0.0000   0.0000   0.0000   0.2216
  11.900   0.9310   0.06643   0.06389   0.0141  0.0050  1.0000  -6.0491   0.0000   0.0000   0.0000   0.2226
  12.000   0.9239   0.06878   0.06629   0.0129  0.0050  1.0000  -6.0003   0.0000   0.0000   0.0000   0.2236
  12.100   0.9170   0.07116   0.06873   0.0115  0.0050  1.0000  -5.9613   0.0000   0.0000   0.0000   0.2248
  12.200   0.9103   0.07361   0.07123   0.0101  0.0050  1.0000  -5.9213   0.0000   0.0000   0.0000   0.2262
  12.300   0.9039   0.07613   0.07380   0.0085  0.0050  1.0000  -5.8827   0.0000   0.0000   0.0000   0.2277
  12.400   0.8977   0.07872   0.07643   0.0068  0.0050  1.0000  -5.8480   0.0000   0.0000   0.0000   0.2294
  12.500   0.8916   0.08138   0.07914   0.0051  0.0050  1.0000  -5.8105   0.0000   0.0000   0.0000   0.2311
  12.600   0.8857   0.08411   0.08191   0.0032  0.0049  1.0000  -5.7776   0.0000   0.0000   0.0000   0.2331
  12.700   0.8799   0.08685   0.08469   0.0014  0.0049  1.0000  -5.7408   0.0000   0.0000   0.0000   0.2350
  12.800   0.8743   0.08964   0.08751  -0.0005  0.0048  1.0000  -5.7094   0.0000   0.0000   0.0000   0.2371
  12.900   0.8688   0.09255   0.09046  -0.0025  0.0048  1.0000  -5.6693   0.0000   0.0000   0.0000   0.2392
  13.000   0.8636   0.09562   0.09356  -0.0045  0.0047  1.0000  -5.6317   0.0000   0.0000   0.0000   0.2415
  13.100   0.8583   0.09880   0.09678  -0.0066  0.0047  1.0000  -5.5837   0.0000   0.0000   0.0000   0.2439
  13.200   0.8533   0.10213   0.10014  -0.0088  0.0046  1.0000  -5.5346   0.0000   0.0000   0.0000   0.2464
  13.300   0.8481   0.10558   0.10362  -0.0109  0.0046  1.0000  -5.4739   0.0000   0.0000   0.0000   0.2489
  13.400   0.8429   0.10920   0.10726  -0.0131  0.0045  1.0000  -5.4014   0.0000   0.0000   0.0000   0.2516
  13.500   0.8375   0.11304   0.11113  -0.0153  0.0045  1.0000  -5.3123   0.0000   0.0000   0.0000   0.2543
  13.600   0.8317   0.11718   0.11528  -0.0174  0.0045  1.0000  -5.1912   0.0000   0.0000   0.0000   0.2570
  13.700   0.8250   0.12179   0.11991  -0.0196  0.0045  1.0000  -5.0183   0.0000   0.0000   0.0000   0.2599
  13.800   0.8166   0.12727   0.12539  -0.0218  0.0046  1.0000  -4.7378   0.0000   0.0000   0.0000   0.2630
  13.900   0.8099   0.13186   0.12997  -0.0236  0.0047  1.0000  -4.5080   0.0000   0.0000   0.0000   0.2655
  14.000   0.8046   0.13585   0.13395  -0.0253  0.0048  1.0000  -4.3205   0.0000   0.0000   0.0000   0.2679
  14.100   0.8001   0.13952   0.13761  -0.0269  0.0050  1.0000  -4.1546   0.0000   0.0000   0.0000   0.2700
  14.200   0.7962   0.14297   0.14105  -0.0284  0.0051  1.0000  -4.0027   0.0000   0.0000   0.0000   0.2721
  14.300   0.7927   0.14625   0.14433  -0.0298  0.0053  1.0000  -3.8605   0.0000   0.0000   0.0000   0.2740
  14.400   0.7895   0.14945   0.14751  -0.0312  0.0055  1.0000  -3.7231   0.0000   0.0000   0.0000   0.2759
  14.500   0.7862   0.15263   0.15068  -0.0326  0.0057  1.0000  -3.5821   0.0000   0.0000   0.0000   0.2778
  14.600   0.7806   0.15644   0.15448  -0.0342  0.0062  1.0000  -3.3718   0.0000   0.0000   0.0000   0.2802
  14.700   0.7672   0.16209   0.16010  -0.0362  0.0069  1.0000  -2.9478   0.0000   0.0000   0.0000   0.2836
  14.800   0.7677   0.16423   0.16224  -0.0371  0.0069  1.0000  -2.9047   0.0000   0.0000   0.0000   0.2847
  14.900   0.7684   0.16633   0.16434  -0.0380  0.0069  1.0000  -2.8638   0.0000   0.0000   0.0000   0.2857
  15.000   0.7692   0.16832   0.16632  -0.0388  0.0069  1.0000  -2.8250   0.0000   0.0000   0.0000   0.2867
  15.100   0.7701   0.17020   0.16820  -0.0397  0.0069  1.0000  -2.7883   0.0000   0.0000   0.0000   0.2877
  15.200   0.7711   0.17203   0.17003  -0.0405  0.0069  1.0000  -2.7533   0.0000   0.0000   0.0000   0.2886
  15.300   0.7723   0.17385   0.17184  -0.0413  0.0069  1.0000  -2.7197   0.0000   0.0000   0.0000   0.2895
  15.400   0.7735   0.17567   0.17366  -0.0422  0.0069  1.0000  -2.6875   0.0000   0.0000   0.0000   0.2904
  15.500   0.7748   0.17749   0.17548  -0.0430  0.0069  1.0000  -2.6566   0.0000   0.0000   0.0000   0.2913
  15.600   0.7762   0.17932   0.17731  -0.0438  0.0069  1.0000  -2.6269   0.0000   0.0000   0.0000   0.2922
  15.700   0.7776   0.18116   0.17914  -0.0446  0.0069  1.0000  -2.5983   0.0000   0.0000   0.0000   0.2930
  15.800   0.7791   0.18300   0.18098  -0.0455  0.0069  1.0000  -2.5708   0.0000   0.0000   0.0000   0.2939
  15.900   0.7807   0.18485   0.18283  -0.0463  0.0069  1.0000  -2.5443   0.0000   0.0000   0.0000   0.2947
  16.000   0.7823   0.18670   0.18468  -0.0471  0.0069  1.0000  -2.5188   0.0000   0.0000   0.0000   0.2955
  16.100   0.7839   0.18856   0.18654  -0.0479  0.0069  1.0000  -2.4942   0.0000   0.0000   0.0000   0.2963
  16.200   0.7857   0.19042   0.18839  -0.0487  0.0069  1.0000  -2.4705   0.0000   0.0000   0.0000   0.2971
  16.300   0.7874   0.19228   0.19026  -0.0495  0.0069  1.0000  -2.4476   0.0000   0.0000   0.0000   0.2979
  16.400   0.7892   0.19415   0.19212  -0.0503  0.0069  1.0000  -2.4255   0.0000   0.0000   0.0000   0.2986
  16.500   0.7910   0.19602   0.19399  -0.0510  0.0069  1.0000  -2.4042   0.0000   0.0000   0.0000   0.2994
  16.600   0.7929   0.19789   0.19586  -0.0518  0.0069  1.0000  -2.3836   0.0000   0.0000   0.0000   0.3001
  16.700   0.7947   0.19976   0.19773  -0.0526  0.0069  1.0000  -2.3637   0.0000   0.0000   0.0000   0.3009
  16.800   0.7967   0.20164   0.19960  -0.0534  0.0069  1.0000  -2.3445   0.0000   0.0000   0.0000   0.3016
  16.900   0.7986   0.20352   0.20148  -0.0542  0.0069  1.0000  -2.3259   0.0000   0.0000   0.0000   0.3023
  17.000   0.8006   0.20540   0.20336  -0.0550  0.0069  1.0000  -2.3080   0.0000   0.0000   0.0000   0.3030
  17.100   0.8025   0.20728   0.20524  -0.0557  0.0069  1.0000  -2.2907   0.0000   0.0000   0.0000   0.3037
  17.200   0.8046   0.20917   0.20713  -0.0565  0.0069  1.0000  -2.2739   0.0000   0.0000   0.0000   0.3043
  17.300   0.8066   0.21105   0.20901  -0.0573  0.0069  1.0000  -2.2578   0.0000   0.0000   0.0000   0.3050
  17.400   0.8086   0.21294   0.21090  -0.0580  0.0069  1.0000  -2.2422   0.0000   0.0000   0.0000   0.3057
  17.500   0.8107   0.21484   0.21279  -0.0588  0.0069  1.0000  -2.2271   0.0000   0.0000   0.0000   0.3063
  17.600   0.8128   0.21673   0.21469  -0.0596  0.0069  1.0000  -2.2125   0.0000   0.0000   0.0000   0.3070
  17.700   0.8148   0.21863   0.21658  -0.0604  0.0068  1.0000  -2.1985   0.0000   0.0000   0.0000   0.3076
  17.800   0.8169   0.22052   0.21848  -0.0611  0.0068  1.0000  -2.1850   0.0000   0.0000   0.0000   0.3083
  17.900   0.8190   0.22242   0.22037  -0.0619  0.0068  1.0000  -2.1720   0.0000   0.0000   0.0000   0.3089
  18.000   0.8212   0.22432   0.22227  -0.0627  0.0068  1.0000  -2.1595   0.0000   0.0000   0.0000   0.3095
  18.100   0.8233   0.22622   0.22417  -0.0634  0.0068  1.0000  -2.1475   0.0000   0.0000   0.0000   0.3101
  18.200   0.8254   0.22812   0.22607  -0.0642  0.0068  1.0000  -2.1361   0.0000   0.0000   0.0000   0.3107
  18.300   0.8276   0.23002   0.22797  -0.0650  0.0068  1.0000  -2.1251   0.0000   0.0000   0.0000   0.3113
  18.400   0.8297   0.23192   0.22987  -0.0657  0.0068  1.0000  -2.1148   0.0000   0.0000   0.0000   0.3119
  18.500   0.8319   0.23382   0.23177  -0.0665  0.0068  1.0000  -2.1050   0.0000   0.0000   0.0000   0.3125
  18.600   0.8341   0.23571   0.23366  -0.0672  0.0068  1.0000  -2.0960   0.0000   0.0000   0.0000   0.3131
  18.700   0.8363   0.23760   0.23556  -0.0680  0.0067  1.0000  -2.0876   0.0000   0.0000   0.0000   0.3137
  18.800   0.8385   0.23948   0.23744  -0.0688  0.0067  1.0000  -2.0802   0.0000   0.0000   0.0000   0.3143
  18.900   0.8407   0.24136   0.23931  -0.0695  0.0067  1.0000  -2.0735   0.0000   0.0000   0.0000   0.3148
  19.000   0.8430   0.24322   0.24118  -0.0703  0.0067  1.0000  -2.0681   0.0000   0.0000   0.0000   0.3154
  19.100   0.8453   0.24506   0.24302  -0.0711  0.0066  1.0000  -2.0641   0.0000   0.0000   0.0000   0.3160
  19.200   0.8476   0.24688   0.24484  -0.0718  0.0066  1.0000  -2.0621   0.0000   0.0000   0.0000   0.3165
  19.300   0.8501   0.24866   0.24668  -0.0726  0.0065  1.0000  -2.0628   0.0000   0.0000   0.0000   0.3170
  19.400   0.8526   0.25039   0.24841  -0.0734  0.0064  1.0000  -2.0656   0.0000   0.0000   0.0000   0.3175
  19.500   0.8553   0.25210   0.25012  -0.0741  0.0063  1.0000  -2.0703   0.0000   0.0000   0.0000   0.3180
  19.600   0.8579   0.25383   0.25185  -0.0749  0.0062  1.0000  -2.0721   0.0000   0.0000   0.0000   0.3185
  19.700   0.8604   0.25566   0.25369  -0.0757  0.0060  1.0000  -2.0661   0.0000   0.0000   0.0000   0.3191
  19.800   0.8628   0.25756   0.25559  -0.0766  0.0059  1.0000  -2.0557   0.0000   0.0000   0.0000   0.3197
  19.900   0.8651   0.25951   0.25754  -0.0774  0.0057  1.0000  -2.0441   0.0000   0.0000   0.0000   0.3203
  20.000   0.8674   0.26149   0.25952  -0.0782  0.0056  1.0000  -2.0318   0.0000   0.0000   0.0000   0.3208
  20.100   0.8696   0.26349   0.26152  -0.0789  0.0055  1.0000  -2.0197   0.0000   0.0000   0.0000   0.3214
  20.200   0.8717   0.26550   0.26354  -0.0797  0.0053  1.0000  -2.0079   0.0000   0.0000   0.0000   0.3219
  20.300   0.8738   0.26753   0.26556  -0.0805  0.0052  1.0000  -1.9969   0.0000   0.0000   0.0000   0.3224
  20.400   0.8758   0.26956   0.26759  -0.0812  0.0051  1.0000  -1.9865   0.0000   0.0000   0.0000   0.3229
  20.500   0.8778   0.27160   0.26963  -0.0820  0.0050  1.0000  -1.9768   0.0000   0.0000   0.0000   0.3234
  20.600   0.8797   0.27364   0.27167  -0.0827  0.0049  1.0000  -1.9678   0.0000   0.0000   0.0000   0.3239
  20.700   0.8817   0.27568   0.27372  -0.0834  0.0048  1.0000  -1.9595   0.0000   0.0000   0.0000   0.3244
  20.800   0.8835   0.27773   0.27577  -0.0842  0.0047  1.0000  -1.9517   0.0000   0.0000   0.0000   0.3249
  20.900   0.8854   0.27978   0.27782  -0.0849  0.0046  1.0000  -1.9444   0.0000   0.0000   0.0000   0.3254
  21.000   0.8872   0.28184   0.27988  -0.0856  0.0046  1.0000  -1.9377   0.0000   0.0000   0.0000   0.3259
  21.100   0.8890   0.28389   0.28194  -0.0864  0.0045  1.0000  -1.9313   0.0000   0.0000   0.0000   0.3264
  21.200   0.8908   0.28595   0.28400  -0.0871  0.0044  1.0000  -1.9254   0.0000   0.0000   0.0000   0.3269
  21.300   0.8925   0.28802   0.28607  -0.0878  0.0043  1.0000  -1.9198   0.0000   0.0000   0.0000   0.3274
  21.400   0.8942   0.29009   0.28814  -0.0885  0.0043  1.0000  -1.9145   0.0000   0.0000   0.0000   0.3278
  21.500   0.8958   0.29216   0.29021  -0.0893  0.0042  1.0000  -1.9096   0.0000   0.0000   0.0000   0.3283
  21.600   0.8975   0.29423   0.29228  -0.0900  0.0041  1.0000  -1.9049   0.0000   0.0000   0.0000   0.3288
  21.700   0.8990   0.29630   0.29436  -0.0907  0.0041  1.0000  -1.9006   0.0000   0.0000   0.0000   0.3293
  21.800   0.9006   0.29838   0.29644  -0.0914  0.0040  1.0000  -1.8964   0.0000   0.0000   0.0000   0.3297
  21.900   0.9021   0.30046   0.29852  -0.0921  0.0040  1.0000  -1.8926   0.0000   0.0000   0.0000   0.3302
  22.000   0.9036   0.30254   0.30061  -0.0928  0.0039  1.0000  -1.8889   0.0000   0.0000   0.0000   0.3307
  22.100   0.9050   0.30462   0.30269  -0.0935  0.0039  1.0000  -1.8855   0.0000   0.0000   0.0000   0.3311
  22.200   0.9064   0.30671   0.30478  -0.0942  0.0038  1.0000  -1.8823   0.0000   0.0000   0.0000   0.3316
  22.300   0.9078   0.30879   0.30687  -0.0949  0.0038  1.0000  -1.8792   0.0000   0.0000   0.0000   0.3320
  22.400   0.9091   0.31088   0.30896  -0.0956  0.0037  1.0000  -1.8763   0.0000   0.0000   0.0000   0.3325
  22.500   0.9103   0.31297   0.31105  -0.0963  0.0037  1.0000  -1.8736   0.0000   0.0000   0.0000   0.3330
  22.600   0.9115   0.31505   0.31314  -0.0969  0.0036  1.0000  -1.8710   0.0000   0.0000   0.0000   0.3334
  22.700   0.9126   0.31714   0.31523  -0.0976  0.0036  1.0000  -1.8685   0.0000   0.0000   0.0000   0.3339
  22.800   0.9137   0.31922   0.31731  -0.0983  0.0035  1.0000  -1.8661   0.0000   0.0000   0.0000   0.3343
  22.900   0.9147   0.32130   0.31939  -0.0989  0.0035  1.0000  -1.8639   0.0000   0.0000   0.0000   0.3348
  23.000   0.9156   0.32337   0.32147  -0.0996  0.0035  1.0000  -1.8617   0.0000   0.0000   0.0000   0.3353
  23.100   0.9165   0.32545   0.32355  -0.1002  0.0034  1.0000  -1.8597   0.0000   0.0000   0.0000   0.3357
  23.200   0.9173   0.32751   0.32562  -0.1009  0.0034  1.0000  -1.8576   0.0000   0.0000   0.0000   0.3362
  23.300   0.9180   0.32957   0.32768  -0.1015  0.0034  1.0000  -1.8556   0.0000   0.0000   0.0000   0.3366
  23.400   0.9185   0.33162   0.32973  -0.1021  0.0033  1.0000  -1.8535   0.0000   0.0000   0.0000   0.3371
  23.500   0.9190   0.33365   0.33178  -0.1028  0.0033  1.0000  -1.8514   0.0000   0.0000   0.0000   0.3375
  23.600   0.9194   0.33568   0.33380  -0.1034  0.0033  1.0000  -1.8492   0.0000   0.0000   0.0000   0.3380
  23.700   0.9196   0.33768   0.33582  -0.1039  0.0032  1.0000  -1.8548   0.0000   0.0000   0.0000   0.3385
  23.800   0.9197   0.33967   0.33781  -0.1045  0.0032  1.0000  -1.8604   0.0000   0.0000   0.0000   0.3390
  23.900   0.9196   0.34163   0.33978  -0.1051  0.0032  1.0000  -1.8656   0.0000   0.0000   0.0000   0.3394
  24.000   0.9194   0.34356   0.34171  -0.1056  0.0031  1.0000  -1.8702   0.0000   0.0000   0.0000   0.3399
  24.100   0.9188   0.34546   0.34361  -0.1061  0.0031  1.0000  -1.8743   0.0000   0.0000   0.0000   0.3404
  24.200   0.9180   0.34730   0.34546  -0.1066  0.0031  1.0000  -1.8774   0.0000   0.0000   0.0000   0.3409
  24.300   0.9169   0.34907   0.34724  -0.1071  0.0031  1.0000  -1.8794   0.0000   0.0000   0.0000   0.3414
  24.400   0.9152   0.35075   0.34893  -0.1075  0.0030  1.0000  -1.8798   0.0000   0.0000   0.0000   0.3420
  24.500   0.9129   0.35229   0.35047  -0.1078  0.0030  1.0000  -1.8778   0.0000   0.0000   0.0000   0.3425


