xflr5 v6.61

 Calculated polar for: MH 20

 1 1 Reynolds number fixed          Mach number fixed         

 xtrf =   1.000 (top)        1.000 (bottom)
 Mach =   0.000     Re =     0.100 e 6     Ncrit =   9.000

  alpha     CL        CD       CDp       Cm    Top Xtr Bot Xtr   Cpmin    Chinge    XCp    
 ------- -------- --------- --------- -------- ------- ------- -------- --------- ---------
 -10.000  -0.5224   0.12132   0.11688   0.0135  1.0000  0.0720  -1.7976   0.0000   0.0000   0.0000   0.2712
  -9.900  -0.5214   0.11998   0.11556   0.0125  1.0000  0.0732  -1.8125   0.0000   0.0000   0.0000   0.2694
  -9.800  -0.5208   0.11872   0.11431   0.0114  1.0000  0.0743  -1.8311   0.0000   0.0000   0.0000   0.2673
  -9.700  -0.5207   0.11757   0.11319   0.0100  1.0000  0.0755  -1.8544   0.0000   0.0000   0.0000   0.2649
  -9.600  -0.5213   0.11663   0.11227   0.0084  1.0000  0.0767  -1.8837   0.0000   0.0000   0.0000   0.2619
  -9.500  -0.5226   0.11595   0.11162   0.0066  1.0000  0.0777  -1.9184   0.0000   0.0000   0.0000   0.2584
  -9.400  -0.5240   0.11543   0.11113   0.0046  1.0000  0.0786  -1.9542   0.0000   0.0000   0.0000   0.2546
  -9.300  -0.5255   0.11479   0.11051   0.0026  1.0000  0.0791  -1.9880   0.0000   0.0000   0.0000   0.2509
  -9.200  -0.5254   0.11398   0.10973   0.0009  1.0000  0.0795  -2.0118   0.0000   0.0000   0.0000   0.2479
  -9.100  -0.5251   0.11295   0.10873  -0.0006  1.0000  0.0798  -2.0335   0.0000   0.0000   0.0000   0.2451
  -9.000  -0.5249   0.11176   0.10756  -0.0021  1.0000  0.0800  -2.0549   0.0000   0.0000   0.0000   0.2423
  -8.900  -0.5247   0.11045   0.10628  -0.0036  1.0000  0.0801  -2.0767   0.0000   0.0000   0.0000   0.2394
  -8.800  -0.5247   0.10905   0.10490  -0.0053  1.0000  0.0803  -2.0992   0.0000   0.0000   0.0000   0.2364
  -8.700  -0.5249   0.10757   0.10344  -0.0070  1.0000  0.0803  -2.1229   0.0000   0.0000   0.0000   0.2333
  -8.600  -0.5253   0.10604   0.10193  -0.0088  1.0000  0.0804  -2.1478   0.0000   0.0000   0.0000   0.2299
  -8.500  -0.5259   0.10449   0.10040  -0.0105  1.0000  0.0805  -2.1730   0.0000   0.0000   0.0000   0.2268
  -8.400  -0.5262   0.10299   0.09889  -0.0119  1.0000  0.0805  -2.1971   0.0000   0.0000   0.0000   0.2242
  -8.300  -0.5257   0.10137   0.09728  -0.0133  1.0000  0.0806  -2.2207   0.0000   0.0000   0.0000   0.2215
  -8.200  -0.5357   0.09376   0.08979  -0.0137  1.0000  0.0827  -2.2906   0.0000   0.0000   0.0000   0.2212
  -8.100  -0.5214   0.09110   0.08714  -0.0091  1.0000  0.0849  -2.1801   0.0000   0.0000   0.0000   0.2294
  -8.000  -0.5147   0.08955   0.08558  -0.0078  1.0000  0.0863  -2.1352   0.0000   0.0000   0.0000   0.2317
  -7.900  -0.5086   0.08818   0.08422  -0.0068  1.0000  0.0879  -2.0954   0.0000   0.0000   0.0000   0.2334
  -7.800  -0.5046   0.08686   0.08291  -0.0066  1.0000  0.0896  -2.0710   0.0000   0.0000   0.0000   0.2337
  -7.700  -0.5019   0.08551   0.08157  -0.0070  1.0000  0.0913  -2.0589   0.0000   0.0000   0.0000   0.2330
  -7.600  -0.5002   0.08412   0.08020  -0.0077  1.0000  0.0929  -2.0550   0.0000   0.0000   0.0000   0.2316
  -7.500  -0.4993   0.08268   0.07879  -0.0087  1.0000  0.0945  -2.0587   0.0000   0.0000   0.0000   0.2296
  -7.400  -0.4988   0.08122   0.07734  -0.0099  1.0000  0.0961  -2.0672   0.0000   0.0000   0.0000   0.2273
  -7.300  -0.4977   0.07965   0.07578  -0.0115  1.0000  0.0979  -2.0792   0.0000   0.0000   0.0000   0.2242
  -7.200  -0.4964   0.07802   0.07417  -0.0133  1.0000  0.0999  -2.0956   0.0000   0.0000   0.0000   0.2204
  -7.100  -0.4948   0.07638   0.07253  -0.0154  1.0000  0.1020  -2.1173   0.0000   0.0000   0.0000   0.2161
  -7.000  -0.4930   0.07485   0.07098  -0.0181  1.0000  0.1046  -2.1490   0.0000   0.0000   0.0000   0.2107
  -6.900  -0.4896   0.07626   0.07220  -0.0231  1.0000  0.1098  -2.2185   0.0000   0.0000   0.0000   0.2002
  -6.800  -0.4854   0.07627   0.07210  -0.0245  1.0000  0.1107  -2.2349   0.0000   0.0000   0.0000   0.1971
  -6.700  -0.4814   0.07524   0.07100  -0.0254  1.0000  0.1110  -2.2464   0.0000   0.0000   0.0000   0.1948
  -6.600  -0.4883   0.06958   0.06537  -0.0274  1.0000  0.1125  -2.3195   0.0000   0.0000   0.0000   0.1915
  -6.500  -0.4895   0.06511   0.06099  -0.0279  1.0000  0.1148  -2.3260   0.0000   0.0000   0.0000   0.1905
  -6.400  -0.4823   0.06305   0.05905  -0.0270  1.0000  0.1171  -2.2697   0.0000   0.0000   0.0000   0.1916
  -6.300  -0.4758   0.06164   0.05769  -0.0264  1.0000  0.1193  -2.2274   0.0000   0.0000   0.0000   0.1922
  -6.200  -0.4701   0.06034   0.05641  -0.0262  1.0000  0.1215  -2.1997   0.0000   0.0000   0.0000   0.1919
  -6.100  -0.4645   0.05904   0.05512  -0.0263  1.0000  0.1237  -2.1805   0.0000   0.0000   0.0000   0.1910
  -6.000  -0.4596   0.05771   0.05364  -0.0266  1.0000  0.1260  -2.1715   0.0000   0.0000   0.0000   0.1898
  -5.900  -0.4555   0.05642   0.05233  -0.0270  1.0000  0.1282  -2.1678   0.0000   0.0000   0.0000   0.1886
  -5.800  -0.4532   0.05524   0.05113  -0.0270  1.0000  0.1301  -2.1698   0.0000   0.0000   0.0000   0.1881
  -5.700  -0.4547   0.05437   0.05024  -0.0263  1.0000  0.1314  -2.1758   0.0000   0.0000   0.0000   0.1899
  -5.600  -0.4592   0.05376   0.04961  -0.0250  1.0000  0.1323  -2.1837   0.0000   0.0000   0.0000   0.1934
  -5.500  -0.4639   0.05317   0.04900  -0.0236  1.0000  0.1330  -2.1919   0.0000   0.0000   0.0000   0.1971
  -5.400  -0.4678   0.05250   0.04829  -0.0223  1.0000  0.1337  -2.2003   0.0000   0.0000   0.0000   0.2003
  -5.300  -0.4705   0.05170   0.04745  -0.0212  1.0000  0.1341  -2.2092   0.0000   0.0000   0.0000   0.2029
  -5.100  -0.4494   0.04146   0.03584  -0.0233  0.9948  0.0554  -2.9182   0.0000   0.0000   0.0000   0.1953
  -5.000  -0.4408   0.03787   0.03215  -0.0243  0.9918  0.0520  -2.9618   0.0000   0.0000   0.0000   0.1921
  -4.900  -0.4291   0.03552   0.02958  -0.0252  0.9888  0.0506  -2.9870   0.0000   0.0000   0.0000   0.1884
  -4.800  -0.4162   0.03346   0.02727  -0.0261  0.9862  0.0493  -3.0080   0.0000   0.0000   0.0000   0.1844
  -4.700  -0.4050   0.03173   0.02514  -0.0264  0.9827  0.0484  -3.0272   0.0000   0.0000   0.0000   0.1818
  -4.600  -0.3925   0.03013   0.02329  -0.0268  0.9795  0.0477  -3.0392   0.0000   0.0000   0.0000   0.1786
  -4.500  -0.3787   0.02862   0.02152  -0.0274  0.9766  0.0472  -3.0454   0.0000   0.0000   0.0000   0.1747
  -4.400  -0.3639   0.02722   0.01987  -0.0280  0.9742  0.0472  -3.0441   0.0000   0.0000   0.0000   0.1699
  -4.300  -0.3481   0.02592   0.01833  -0.0287  0.9722  0.0475  -3.0347   0.0000   0.0000   0.0000   0.1642
  -4.200  -0.3314   0.02473   0.01692  -0.0296  0.9705  0.0484  -3.0176   0.0000   0.0000   0.0000   0.1574
  -4.100  -0.3188   0.02382   0.01585  -0.0297  0.9676  0.0497  -2.9976   0.0000   0.0000   0.0000   0.1535
  -4.000  -0.3058   0.02329   0.01518  -0.0299  0.9643  0.0524  -2.9518   0.0000   0.0000   0.0000   0.1489
  -3.900  -0.2919   0.02262   0.01438  -0.0303  0.9615  0.0557  -2.9094   0.0000   0.0000   0.0000   0.1428
  -3.800  -0.2790   0.02092   0.01262  -0.0306  0.9594  0.0610  -2.9111   0.0000   0.0000   0.0000   0.1367
  -3.700  -0.2643   0.02019   0.01189  -0.0312  0.9570  0.0682  -2.8935   0.0000   0.0000   0.0000   0.1283
  -3.600  -0.2478   0.01988   0.01152  -0.0320  0.9547  0.0809  -2.8846   0.0000   0.0000   0.0000   0.1172
  -3.500  -0.2338   0.01906   0.01079  -0.0327  0.9526  0.1103  -2.8793   0.0000   0.0000   0.0000   0.1065
  -3.400  -0.2206   0.01784   0.00973  -0.0329  0.9507  0.1494  -2.8932   0.0000   0.0000   0.0000   0.0970
  -3.300  -0.2066   0.01711   0.00927  -0.0336  0.9486  0.1976  -2.8083   0.0000   0.0000   0.0000   0.0832
  -3.200  -0.1964   0.01666   0.00900  -0.0336  0.9455  0.2406  -2.7177   0.0000   0.0000   0.0000   0.0749
  -3.100  -0.1889   0.01625   0.00876  -0.0330  0.9412  0.2832  -2.6357   0.0000   0.0000   0.0000   0.0713
  -3.000  -0.1802   0.01572   0.00857  -0.0327  0.9373  0.3463  -2.5396   0.0000   0.0000   0.0000   0.0647
  -2.900  -0.1713   0.01509   0.00844  -0.0323  0.9338  0.4465  -2.4367   0.0000   0.0000   0.0000   0.0573
  -2.800  -0.1615   0.01427   0.00842  -0.0316  0.9312  0.6189  -2.3220   0.0000   0.0000   0.0000   0.0501
  -2.700  -0.0529   0.01373   0.00828  -0.0463  0.9481  0.9525  -1.6483   0.0000   0.0000   0.0000  -0.6378
  -2.600  -0.0052   0.01366   0.00795  -0.0529  0.9510  0.9865  -1.3425   0.0000   0.0000   0.0000  -10.1340
  -2.500   0.0325   0.01342   0.00744  -0.0583  0.9519  1.0000  -1.1055   0.0000   0.0000   0.0000   2.0603
  -2.400   0.0490   0.01340   0.00729  -0.0596  0.9486  1.0000  -0.9769   0.0000   0.0000   0.0000   1.4775
  -2.300   0.0596   0.01344   0.00723  -0.0599  0.9440  1.0000  -0.8793   0.0000   0.0000   0.0000   1.2632
  -2.200   0.0695   0.01348   0.00718  -0.0600  0.9389  1.0000  -0.7871   0.0000   0.0000   0.0000   1.1208
  -2.100   0.0807   0.01352   0.00712  -0.0603  0.9341  1.0000  -0.6899   0.0000   0.0000   0.0000   1.0026
  -2.000   0.0930   0.01354   0.00705  -0.0608  0.9295  1.0000  -0.5905   0.0000   0.0000   0.0000   0.9080
  -1.900   0.1058   0.01357   0.00699  -0.0612  0.9252  1.0000  -0.5421   0.0000   0.0000   0.0000   0.8323
  -1.800   0.1187   0.01361   0.00694  -0.0617  0.9213  1.0000  -0.5095   0.0000   0.0000   0.0000   0.7725
  -1.700   0.1280   0.01369   0.00695  -0.0615  0.9169  1.0000  -0.4823   0.0000   0.0000   0.0000   0.7331
  -1.600   0.1356   0.01377   0.00695  -0.0611  0.9118  1.0000  -0.4579   0.0000   0.0000   0.0000   0.7028
  -1.500   0.1442   0.01385   0.00696  -0.0608  0.9071  1.0000  -0.4322   0.0000   0.0000   0.0000   0.6738
  -1.400   0.1535   0.01392   0.00697  -0.0607  0.9028  1.0000  -0.4086   0.0000   0.0000   0.0000   0.6468
  -1.300   0.1632   0.01399   0.00698  -0.0605  0.8987  1.0000  -0.4156   0.0000   0.0000   0.0000   0.6221
  -1.200   0.1731   0.01405   0.00699  -0.0603  0.8947  1.0000  -0.4228   0.0000   0.0000   0.0000   0.5996
  -1.100   0.1828   0.01413   0.00701  -0.0600  0.8909  1.0000  -0.4300   0.0000   0.0000   0.0000   0.5792
  -1.000   0.1919   0.01426   0.00707  -0.0595  0.8872  1.0000  -0.4369   0.0000   0.0000   0.0000   0.5610
  -0.900   0.2002   0.01436   0.00713  -0.0592  0.8832  1.0000  -0.4430   0.0000   0.0000   0.0000   0.5464
  -0.800   0.2083   0.01445   0.00719  -0.0589  0.8787  1.0000  -0.4500   0.0000   0.0000   0.0000   0.5331
  -0.700   0.2166   0.01454   0.00724  -0.0585  0.8743  1.0000  -0.4572   0.0000   0.0000   0.0000   0.5205
  -0.600   0.2251   0.01464   0.00730  -0.0581  0.8700  1.0000  -0.4647   0.0000   0.0000   0.0000   0.5084
  -0.500   0.2337   0.01473   0.00734  -0.0577  0.8660  1.0000  -0.4722   0.0000   0.0000   0.0000   0.4970
  -0.400   0.2425   0.01481   0.00738  -0.0572  0.8621  1.0000  -0.4800   0.0000   0.0000   0.0000   0.4861
  -0.300   0.2512   0.01490   0.00743  -0.0567  0.8584  1.0000  -0.4878   0.0000   0.0000   0.0000   0.4757
  -0.200   0.2596   0.01500   0.00749  -0.0560  0.8547  1.0000  -0.4955   0.0000   0.0000   0.0000   0.4657
  -0.100   0.2675   0.01514   0.00759  -0.0552  0.8511  1.0000  -0.5030   0.0000   0.0000   0.0000   0.4562
   0.000   0.2758   0.01531   0.00772  -0.0547  0.8474  1.0000  -0.5104   0.0000   0.0000   0.0000   0.4481
   0.100   0.2848   0.01539   0.00779  -0.0546  0.8433  1.0000  -0.5180   0.0000   0.0000   0.0000   0.4412
   0.200   0.2935   0.01549   0.00787  -0.0543  0.8388  1.0000  -0.5255   0.0000   0.0000   0.0000   0.4345
   0.300   0.3021   0.01558   0.00795  -0.0539  0.8343  1.0000  -0.5338   0.0000   0.0000   0.0000   0.4279
   0.400   0.3107   0.01568   0.00803  -0.0535  0.8300  1.0000  -0.5426   0.0000   0.0000   0.0000   0.4215
   0.500   0.3194   0.01578   0.00810  -0.0530  0.8261  1.0000  -0.5516   0.0000   0.0000   0.0000   0.4153
   0.600   0.3279   0.01586   0.00817  -0.0525  0.8223  1.0000  -0.5606   0.0000   0.0000   0.0000   0.4091
   0.700   0.3363   0.01594   0.00822  -0.0518  0.8186  1.0000  -0.5697   0.0000   0.0000   0.0000   0.4030
   0.800   0.3444   0.01603   0.00829  -0.0510  0.8150  1.0000  -0.5787   0.0000   0.0000   0.0000   0.3969
   0.900   0.3523   0.01616   0.00839  -0.0501  0.8114  1.0000  -0.5876   0.0000   0.0000   0.0000   0.3909
   1.000   0.3598   0.01640   0.00860  -0.0492  0.8076  1.0000  -0.5962   0.0000   0.0000   0.0000   0.3855
   1.100   0.3694   0.01646   0.00868  -0.0492  0.8034  1.0000  -0.6055   0.0000   0.0000   0.0000   0.3819
   1.200   0.3785   0.01655   0.00877  -0.0490  0.7985  1.0000  -0.6146   0.0000   0.0000   0.0000   0.3781
   1.300   0.3873   0.01664   0.00886  -0.0486  0.7935  1.0000  -0.6250   0.0000   0.0000   0.0000   0.3741
   1.400   0.3959   0.01672   0.00895  -0.0482  0.7887  1.0000  -0.6356   0.0000   0.0000   0.0000   0.3701
   1.500   0.4046   0.01680   0.00902  -0.0476  0.7842  1.0000  -0.6463   0.0000   0.0000   0.0000   0.3661
   1.600   0.4132   0.01687   0.00908  -0.0470  0.7802  1.0000  -0.6572   0.0000   0.0000   0.0000   0.3621
   1.700   0.4217   0.01692   0.00915  -0.0462  0.7763  1.0000  -0.6681   0.0000   0.0000   0.0000   0.3580
   1.800   0.4300   0.01698   0.00919  -0.0454  0.7726  1.0000  -0.6791   0.0000   0.0000   0.0000   0.3538
   1.900   0.4381   0.01706   0.00925  -0.0444  0.7689  1.0000  -0.6901   0.0000   0.0000   0.0000   0.3496
   2.000   0.4456   0.01726   0.00943  -0.0434  0.7651  1.0000  -0.7024   0.0000   0.0000   0.0000   0.3454
   2.100   0.4548   0.01738   0.00957  -0.0432  0.7604  1.0000  -0.7152   0.0000   0.0000   0.0000   0.3430
   2.200   0.4642   0.01745   0.00968  -0.0431  0.7549  1.0000  -0.7282   0.0000   0.0000   0.0000   0.3407
   2.300   0.4732   0.01752   0.00978  -0.0427  0.7491  1.0000  -0.7411   0.0000   0.0000   0.0000   0.3382
   2.400   0.4819   0.01758   0.00987  -0.0422  0.7436  1.0000  -0.7541   0.0000   0.0000   0.0000   0.3354
   2.500   0.4906   0.01761   0.00991  -0.0415  0.7385  1.0000  -0.7683   0.0000   0.0000   0.0000   0.3324
   2.600   0.4993   0.01763   0.00993  -0.0408  0.7340  1.0000  -0.7841   0.0000   0.0000   0.0000   0.3294
   2.700   0.5081   0.01764   0.00995  -0.0400  0.7299  1.0000  -0.8000   0.0000   0.0000   0.0000   0.3264
   2.800   0.5167   0.01765   0.00996  -0.0391  0.7260  1.0000  -0.8161   0.0000   0.0000   0.0000   0.3233
   2.900   0.5251   0.01770   0.01000  -0.0381  0.7221  1.0000  -0.8321   0.0000   0.0000   0.0000   0.3202
   3.000   0.5329   0.01795   0.01023  -0.0371  0.7177  1.0000  -0.8474   0.0000   0.0000   0.0000   0.3171
   3.100   0.5427   0.01799   0.01033  -0.0372  0.7121  1.0000  -0.8642   0.0000   0.0000   0.0000   0.3158
   3.200   0.5519   0.01805   0.01045  -0.0369  0.7055  1.0000  -0.8835   0.0000   0.0000   0.0000   0.3142
   3.300   0.5609   0.01808   0.01052  -0.0365  0.6990  1.0000  -0.9030   0.0000   0.0000   0.0000   0.3122
   3.400   0.5698   0.01807   0.01053  -0.0358  0.6930  1.0000  -0.9228   0.0000   0.0000   0.0000   0.3100
   3.500   0.5788   0.01803   0.01054  -0.0350  0.6876  1.0000  -0.9430   0.0000   0.0000   0.0000   0.3076
   3.600   0.5879   0.01797   0.01050  -0.0342  0.6829  1.0000  -0.9662   0.0000   0.0000   0.0000   0.3052
   3.700   0.5969   0.01792   0.01045  -0.0333  0.6785  1.0000  -0.9918   0.0000   0.0000   0.0000   0.3027
   3.800   0.6058   0.01792   0.01043  -0.0323  0.6742  1.0000  -1.0175   0.0000   0.0000   0.0000   0.3003
   3.900   0.6143   0.01811   0.01063  -0.0315  0.6689  1.0000  -1.0468   0.0000   0.0000   0.0000   0.2981
   4.000   0.6238   0.01814   0.01075  -0.0314  0.6621  1.0000  -1.0793   0.0000   0.0000   0.0000   0.2971
   4.100   0.6330   0.01817   0.01085  -0.0311  0.6544  1.0000  -1.1233   0.0000   0.0000   0.0000   0.2958
   4.200   0.6422   0.01814   0.01087  -0.0305  0.6472  1.0000  -1.1701   0.0000   0.0000   0.0000   0.2941
   4.300   0.6515   0.01805   0.01081  -0.0298  0.6408  1.0000  -1.2185   0.0000   0.0000   0.0000   0.2922
   4.400   0.6609   0.01792   0.01069  -0.0289  0.6350  1.0000  -1.2971   0.0000   0.0000   0.0000   0.2902
   4.500   0.6704   0.01779   0.01060  -0.0280  0.6297  1.0000  -1.4109   0.0000   0.0000   0.0000   0.2882
   4.600   0.6796   0.01773   0.01053  -0.0271  0.6243  1.0000  -1.5268   0.0000   0.0000   0.0000   0.2861
   4.700   0.6888   0.01783   0.01066  -0.0265  0.6176  1.0000  -1.6413   0.0000   0.0000   0.0000   0.2847
   4.800   0.6980   0.01785   0.01079  -0.0263  0.6090  1.0000  -1.7565   0.0000   0.0000   0.0000   0.2837
   4.900   0.7074   0.01780   0.01081  -0.0258  0.6003  1.0000  -1.8769   0.0000   0.0000   0.0000   0.2824
   5.000   0.7170   0.01767   0.01072  -0.0251  0.5922  1.0000  -2.0029   0.0000   0.0000   0.0000   0.2809
   5.100   0.7267   0.01750   0.01057  -0.0243  0.5851  1.0000  -2.1332   0.0000   0.0000   0.0000   0.2792
   5.200   0.7363   0.01733   0.01039  -0.0234  0.5784  1.0000  -2.2665   0.0000   0.0000   0.0000   0.2775
   5.300   0.7459   0.01733   0.01033  -0.0225  0.5709  1.0000  -2.4008   0.0000   0.0000   0.0000   0.2759
   5.400   0.7551   0.01734   0.01050  -0.0223  0.5613  1.0000  -2.5281   0.0000   0.0000   0.0000   0.2751
   5.500   0.7646   0.01729   0.01052  -0.0218  0.5507  1.0000  -2.6616   0.0000   0.0000   0.0000   0.2739
   5.600   0.7742   0.01716   0.01052  -0.0211  0.5409  1.0000  -2.8025   0.0000   0.0000   0.0000   0.2726
   5.700   0.7839   0.01698   0.01033  -0.0203  0.5317  1.0000  -2.9468   0.0000   0.0000   0.0000   0.2712
   5.800   0.7936   0.01692   0.01017  -0.0194  0.5218  1.0000  -3.0928   0.0000   0.0000   0.0000   0.2696
   5.900   0.8026   0.01695   0.01036  -0.0191  0.5098  1.0000  -3.2285   0.0000   0.0000   0.0000   0.2688
   6.000   0.8118   0.01690   0.01037  -0.0185  0.4967  1.0000  -3.3704   0.0000   0.0000   0.0000   0.2677
   6.100   0.8210   0.01679   0.01022  -0.0177  0.4839  1.0000  -3.5176   0.0000   0.0000   0.0000   0.2664
   6.200   0.8300   0.01682   0.01016  -0.0169  0.4696  1.0000  -3.6629   0.0000   0.0000   0.0000   0.2651
   6.300   0.8386   0.01686   0.01031  -0.0164  0.4531  1.0000  -3.8027   0.0000   0.0000   0.0000   0.2642
   6.400   0.8468   0.01687   0.01023  -0.0156  0.4351  1.0000  -3.9465   0.0000   0.0000   0.0000   0.2629
   6.500   0.8548   0.01699   0.01031  -0.0149  0.4157  1.0000  -4.0858   0.0000   0.0000   0.0000   0.2618
   6.600   0.8624   0.01710   0.01041  -0.0142  0.3930  1.0000  -4.2232   0.0000   0.0000   0.0000   0.2607
   6.700   0.8695   0.01732   0.01052  -0.0134  0.3701  1.0000  -4.3561   0.0000   0.0000   0.0000   0.2596
   6.800   0.8768   0.01753   0.01073  -0.0128  0.3455  1.0000  -4.4869   0.0000   0.0000   0.0000   0.2587
   6.900   0.8835   0.01785   0.01096  -0.0121  0.3189  1.0000  -4.6093   0.0000   0.0000   0.0000   0.2576
   7.000   0.8883   0.01830   0.01120  -0.0113  0.2806  1.0000  -4.7154   0.0000   0.0000   0.0000   0.2565
   7.100   0.8914   0.01899   0.01159  -0.0105  0.2223  1.0000  -4.7959   0.0000   0.0000   0.0000   0.2554
   7.200   0.8900   0.02032   0.01232  -0.0093  0.1483  1.0000  -4.8156   0.0000   0.0000   0.0000   0.2540
   7.300   0.8863   0.02213   0.01357  -0.0077  0.1009  1.0000  -4.7644   0.0000   0.0000   0.0000   0.2521
   7.400   0.8888   0.02322   0.01456  -0.0064  0.0814  1.0000  -4.7467   0.0000   0.0000   0.0000   0.2505
   7.500   0.8898   0.02453   0.01579  -0.0050  0.0720  1.0000  -4.7143   0.0000   0.0000   0.0000   0.2487
   7.600   0.8955   0.02530   0.01663  -0.0039  0.0657  1.0000  -4.7196   0.0000   0.0000   0.0000   0.2475
   7.700   0.9007   0.02604   0.01736  -0.0031  0.0597  1.0000  -4.7503   0.0000   0.0000   0.0000   0.2464
   7.800   0.9038   0.02711   0.01834  -0.0022  0.0540  1.0000  -4.7802   0.0000   0.0000   0.0000   0.2453
   7.900   0.9088   0.02849   0.01971  -0.0013  0.0497  1.0000  -4.7794   0.0000   0.0000   0.0000   0.2442
   8.000   0.9167   0.02925   0.02056  -0.0006  0.0475  1.0000  -4.7990   0.0000   0.0000   0.0000   0.2433
   8.100   0.9247   0.03021   0.02160   0.0001  0.0456  1.0000  -4.8062   0.0000   0.0000   0.0000   0.2424
   8.200   0.9327   0.03117   0.02263   0.0008  0.0436  1.0000  -4.8192   0.0000   0.0000   0.0000   0.2416
   8.300   0.9400   0.03202   0.02354   0.0014  0.0412  1.0000  -4.8488   0.0000   0.0000   0.0000   0.2409
   8.400   0.9463   0.03279   0.02433   0.0019  0.0389  1.0000  -4.9202   0.0000   0.0000   0.0000   0.2402
   8.500   0.9523   0.03365   0.02520   0.0024  0.0368  1.0000  -4.9981   0.0000   0.0000   0.0000   0.2395
   8.600   0.9587   0.03491   0.02648   0.0029  0.0352  1.0000  -5.0552   0.0000   0.0000   0.0000   0.2390
   8.700   0.9659   0.03648   0.02813   0.0034  0.0344  1.0000  -5.0838   0.0000   0.0000   0.0000   0.2383
   8.800   0.9723   0.03812   0.02990   0.0040  0.0339  1.0000  -5.1019   0.0000   0.0000   0.0000   0.2377
   8.900   0.9781   0.03978   0.03170   0.0046  0.0336  1.0000  -5.1149   0.0000   0.0000   0.0000   0.2370
   9.000   0.9830   0.04141   0.03348   0.0052  0.0334  1.0000  -5.1255   0.0000   0.0000   0.0000   0.2363
   9.100   0.9872   0.04299   0.03522   0.0059  0.0333  1.0000  -5.1357   0.0000   0.0000   0.0000   0.2355
   9.200   0.9909   0.04452   0.03689   0.0066  0.0333  1.0000  -5.1461   0.0000   0.0000   0.0000   0.2348
   9.300   0.9942   0.04597   0.03850   0.0073  0.0333  1.0000  -5.1569   0.0000   0.0000   0.0000   0.2340
   9.400   0.9970   0.04737   0.04004   0.0080  0.0334  1.0000  -5.1678   0.0000   0.0000   0.0000   0.2332
   9.500   0.9992   0.04871   0.04152   0.0087  0.0335  1.0000  -5.1779   0.0000   0.0000   0.0000   0.2324
   9.600   1.0010   0.05000   0.04296   0.0095  0.0337  1.0000  -5.1861   0.0000   0.0000   0.0000   0.2315
   9.700   1.0021   0.05126   0.04437   0.0103  0.0340  1.0000  -5.1909   0.0000   0.0000   0.0000   0.2307
   9.800   1.0023   0.05252   0.04578   0.0111  0.0342  1.0000  -5.1898   0.0000   0.0000   0.0000   0.2298
   9.900   1.0016   0.05380   0.04721   0.0119  0.0346  1.0000  -5.1805   0.0000   0.0000   0.0000   0.2288
  10.000   0.9996   0.05512   0.04870   0.0128  0.0350  1.0000  -5.1608   0.0000   0.0000   0.0000   0.2279
  10.100   0.9961   0.05653   0.05026   0.0136  0.0354  1.0000  -5.1304   0.0000   0.0000   0.0000   0.2269
  10.200   0.9912   0.05796   0.05185   0.0145  0.0359  1.0000  -5.0925   0.0000   0.0000   0.0000   0.2258
  10.300   0.9849   0.05938   0.05340   0.0154  0.0363  1.0000  -5.0519   0.0000   0.0000   0.0000   0.2247
  10.400   0.9782   0.06087   0.05500   0.0162  0.0367  1.0000  -5.0092   0.0000   0.0000   0.0000   0.2237
  10.500   0.9710   0.06242   0.05666   0.0167  0.0371  1.0000  -4.9659   0.0000   0.0000   0.0000   0.2229
  10.600   0.9622   0.06400   0.05835   0.0170  0.0374  1.0000  -4.9190   0.0000   0.0000   0.0000   0.2224
  10.700   0.9534   0.06568   0.06012   0.0170  0.0377  1.0000  -4.8722   0.0000   0.0000   0.0000   0.2221
  10.800   0.9445   0.06744   0.06198   0.0167  0.0380  1.0000  -4.8254   0.0000   0.0000   0.0000   0.2220
  10.900   0.9355   0.06931   0.06394   0.0163  0.0382  1.0000  -4.7779   0.0000   0.0000   0.0000   0.2222
  11.000   0.9265   0.07131   0.06601   0.0156  0.0385  1.0000  -4.7291   0.0000   0.0000   0.0000   0.2226
  11.100   0.9173   0.07339   0.06817   0.0147  0.0387  1.0000  -4.6795   0.0000   0.0000   0.0000   0.2233
  11.200   0.9081   0.07559   0.07044   0.0137  0.0389  1.0000  -4.6278   0.0000   0.0000   0.0000   0.2241
  11.300   0.8987   0.07793   0.07284   0.0124  0.0390  1.0000  -4.5737   0.0000   0.0000   0.0000   0.2253
  11.400   0.8893   0.08044   0.07541   0.0109  0.0392  1.0000  -4.5157   0.0000   0.0000   0.0000   0.2267
  11.500   0.8798   0.08313   0.07815   0.0091  0.0394  1.0000  -4.4532   0.0000   0.0000   0.0000   0.2284
  11.600   0.8702   0.08603   0.08110   0.0071  0.0396  1.0000  -4.3848   0.0000   0.0000   0.0000   0.2305
  11.700   0.8606   0.08916   0.08427   0.0049  0.0399  1.0000  -4.3089   0.0000   0.0000   0.0000   0.2329
  11.800   0.8509   0.09256   0.08771   0.0025  0.0402  1.0000  -4.2240   0.0000   0.0000   0.0000   0.2356
  11.900   0.8411   0.09625   0.09143  -0.0002  0.0405  1.0000  -4.1284   0.0000   0.0000   0.0000   0.2387
  12.000   0.8313   0.10020   0.09539  -0.0030  0.0409  1.0000  -4.0218   0.0000   0.0000   0.0000   0.2420
  12.100   0.8221   0.10435   0.09955  -0.0058  0.0415  1.0000  -3.9062   0.0000   0.0000   0.0000   0.2455
  12.200   0.8139   0.10860   0.10378  -0.0085  0.0422  1.0000  -3.7861   0.0000   0.0000   0.0000   0.2488
  12.300   0.8072   0.11272   0.10790  -0.0108  0.0430  1.0000  -3.6706   0.0000   0.0000   0.0000   0.2518
  12.400   0.8019   0.11639   0.11154  -0.0127  0.0437  1.0000  -3.5743   0.0000   0.0000   0.0000   0.2543
  12.500   0.7976   0.11968   0.11481  -0.0144  0.0445  1.0000  -3.4936   0.0000   0.0000   0.0000   0.2565
  12.600   0.7940   0.12272   0.11784  -0.0158  0.0452  1.0000  -3.4239   0.0000   0.0000   0.0000   0.2583
  12.700   0.7910   0.12558   0.12068  -0.0171  0.0459  1.0000  -3.3627   0.0000   0.0000   0.0000   0.2600
  12.800   0.7885   0.12830   0.12338  -0.0182  0.0467  1.0000  -3.3087   0.0000   0.0000   0.0000   0.2614
  12.900   0.7864   0.13092   0.12598  -0.0192  0.0475  1.0000  -3.2612   0.0000   0.0000   0.0000   0.2627
  13.000   0.7845   0.13346   0.12851  -0.0200  0.0483  1.0000  -3.2197   0.0000   0.0000   0.0000   0.2637
  13.100   0.7826   0.13607   0.13111  -0.0202  0.0498  1.0000  -3.1884   0.0000   0.0000   0.0000   0.2639
  13.300   0.7711   0.14712   0.14211  -0.0276  0.0665  1.0000  -2.6991   0.0000   0.0000   0.0000   0.2743
  13.400   0.7805   0.15967   0.15471  -0.0260  0.1004  1.0000  -2.5208   0.0000   0.0000   0.0000   0.2721
  13.500   0.7804   0.16164   0.15668  -0.0271  0.1003  1.0000  -2.4973   0.0000   0.0000   0.0000   0.2733
  13.600   0.7802   0.16348   0.15851  -0.0281  0.1002  1.0000  -2.4737   0.0000   0.0000   0.0000   0.2746
  13.700   0.7798   0.16513   0.16015  -0.0293  0.0999  1.0000  -2.4493   0.0000   0.0000   0.0000   0.2760
  13.800   0.7789   0.16634   0.16133  -0.0306  0.0995  1.0000  -2.4216   0.0000   0.0000   0.0000   0.2777
  13.900   0.7671   0.16477   0.15970  -0.0352  0.0949  1.0000  -2.3171   0.0000   0.0000   0.0000   0.2842
  14.000   0.7661   0.16634   0.16127  -0.0365  0.0935  1.0000  -2.2886   0.0000   0.0000   0.0000   0.2859
  14.100   0.7658   0.16797   0.16289  -0.0376  0.0923  1.0000  -2.2661   0.0000   0.0000   0.0000   0.2872
  14.200   0.7658   0.16958   0.16449  -0.0385  0.0912  1.0000  -2.2471   0.0000   0.0000   0.0000   0.2883
  14.300   0.7662   0.17119   0.16609  -0.0394  0.0901  1.0000  -2.2311   0.0000   0.0000   0.0000   0.2893
  14.400   0.7670   0.17280   0.16769  -0.0402  0.0890  1.0000  -2.2181   0.0000   0.0000   0.0000   0.2902
  14.500   0.7681   0.17438   0.16927  -0.0409  0.0878  1.0000  -2.2078   0.0000   0.0000   0.0000   0.2910
  14.600   0.7694   0.17591   0.17079  -0.0416  0.0867  1.0000  -2.2005   0.0000   0.0000   0.0000   0.2917
  14.700   0.7711   0.17740   0.17227  -0.0422  0.0855  1.0000  -2.1964   0.0000   0.0000   0.0000   0.2922
  14.800   0.7732   0.17886   0.17374  -0.0427  0.0843  1.0000  -2.1958   0.0000   0.0000   0.0000   0.2927
  14.900   0.7756   0.18032   0.17519  -0.0432  0.0831  1.0000  -2.1995   0.0000   0.0000   0.0000   0.2929
  15.000   0.7785   0.18179   0.17667  -0.0435  0.0819  1.0000  -2.2082   0.0000   0.0000   0.0000   0.2930
  15.100   0.7820   0.18332   0.17820  -0.0436  0.0807  1.0000  -2.2232   0.0000   0.0000   0.0000   0.2929
  15.200   0.7864   0.18495   0.17984  -0.0436  0.0795  1.0000  -2.2468   0.0000   0.0000   0.0000   0.2924
  15.300   0.7922   0.18684   0.18174  -0.0432  0.0783  1.0000  -2.2832   0.0000   0.0000   0.0000   0.2914
  15.400   0.7991   0.18901   0.18393  -0.0425  0.0771  1.0000  -2.3318   0.0000   0.0000   0.0000   0.2899
  15.500   0.8069   0.19201   0.18695  -0.0413  0.0759  1.0000  -2.3920   0.0000   0.0000   0.0000   0.2878
  15.600   0.8059   0.20115   0.19604  -0.0409  0.0738  1.0000  -2.3629   0.0000   0.0000   0.0000   0.2874
  15.700   0.8071   0.20277   0.19766  -0.0418  0.0738  1.0000  -2.3464   0.0000   0.0000   0.0000   0.2883
  15.800   0.8083   0.20433   0.19922  -0.0428  0.0737  1.0000  -2.3300   0.0000   0.0000   0.0000   0.2893
  15.900   0.8094   0.20583   0.20071  -0.0437  0.0736  1.0000  -2.3136   0.0000   0.0000   0.0000   0.2903
  16.000   0.8106   0.20724   0.20211  -0.0447  0.0735  1.0000  -2.2971   0.0000   0.0000   0.0000   0.2913
  16.100   0.8117   0.20855   0.20341  -0.0457  0.0734  1.0000  -2.2803   0.0000   0.0000   0.0000   0.2924
  16.200   0.8128   0.20971   0.20457  -0.0467  0.0732  1.0000  -2.2630   0.0000   0.0000   0.0000   0.2935
  16.300   0.8137   0.21065   0.20550  -0.0479  0.0730  1.0000  -2.2441   0.0000   0.0000   0.0000   0.2947
  16.400   0.8132   0.21121   0.20605  -0.0493  0.0726  1.0000  -2.2142   0.0000   0.0000   0.0000   0.2963
  16.500   0.8122   0.21143   0.20625  -0.0509  0.0721  1.0000  -2.1792   0.0000   0.0000   0.0000   0.2983
  16.600   0.8099   0.21136   0.20615  -0.0527  0.0713  1.0000  -2.1364   0.0000   0.0000   0.0000   0.3006
  16.700   0.8082   0.21157   0.20635  -0.0545  0.0702  1.0000  -2.0950   0.0000   0.0000   0.0000   0.3028
  16.800   0.8079   0.21243   0.20719  -0.0560  0.0688  1.0000  -2.0640   0.0000   0.0000   0.0000   0.3045
  16.900   0.8088   0.21371   0.20847  -0.0572  0.0674  1.0000  -2.0437   0.0000   0.0000   0.0000   0.3058
  17.000   0.8102   0.21518   0.20994  -0.0581  0.0660  1.0000  -2.0304   0.0000   0.0000   0.0000   0.3067
  17.100   0.8119   0.21674   0.21150  -0.0590  0.0646  1.0000  -2.0217   0.0000   0.0000   0.0000   0.3075
  17.200   0.8138   0.21834   0.21309  -0.0597  0.0633  1.0000  -2.0167   0.0000   0.0000   0.0000   0.3081
  17.300   0.8159   0.21995   0.21470  -0.0604  0.0620  1.0000  -2.0152   0.0000   0.0000   0.0000   0.3087
  17.400   0.8182   0.22156   0.21631  -0.0610  0.0607  1.0000  -2.0171   0.0000   0.0000   0.0000   0.3091
  17.500   0.8206   0.22316   0.21792  -0.0616  0.0594  1.0000  -2.0232   0.0000   0.0000   0.0000   0.3094
  17.600   0.8234   0.22477   0.21953  -0.0620  0.0582  1.0000  -2.0344   0.0000   0.0000   0.0000   0.3095
  17.700   0.8264   0.22639   0.22116  -0.0623  0.0570  1.0000  -2.0525   0.0000   0.0000   0.0000   0.3094
  17.800   0.8301   0.22808   0.22286  -0.0623  0.0557  1.0000  -2.0810   0.0000   0.0000   0.0000   0.3090
  17.900   0.8351   0.23003   0.22482  -0.0620  0.0544  1.0000  -2.1280   0.0000   0.0000   0.0000   0.3080
  18.000   0.8454   0.23378   0.22862  -0.0601  0.0528  1.0000  -2.2367   0.0000   0.0000   0.0000   0.3048
  18.100   0.8488   0.24468   0.23948  -0.0589  0.0509  1.0000  -2.2433   0.0000   0.0000   0.0000   0.3030
  18.200   0.8503   0.24641   0.24121  -0.0597  0.0508  1.0000  -2.2289   0.0000   0.0000   0.0000   0.3038
  18.300   0.8519   0.24813   0.24293  -0.0606  0.0508  1.0000  -2.2146   0.0000   0.0000   0.0000   0.3046
  18.400   0.8535   0.24982   0.24461  -0.0614  0.0507  1.0000  -2.2004   0.0000   0.0000   0.0000   0.3053
  18.500   0.8550   0.25148   0.24627  -0.0623  0.0507  1.0000  -2.1863   0.0000   0.0000   0.0000   0.3061
  18.600   0.8565   0.25309   0.24788  -0.0632  0.0506  1.0000  -2.1720   0.0000   0.0000   0.0000   0.3068
  18.700   0.8580   0.25466   0.24945  -0.0641  0.0505  1.0000  -2.1576   0.0000   0.0000   0.0000   0.3076
  18.800   0.8595   0.25616   0.25095  -0.0649  0.0505  1.0000  -2.1431   0.0000   0.0000   0.0000   0.3084
  18.900   0.8609   0.25759   0.25237  -0.0659  0.0504  1.0000  -2.1281   0.0000   0.0000   0.0000   0.3092
  19.000   0.8616   0.25880   0.25358  -0.0669  0.0502  1.0000  -2.1072   0.0000   0.0000   0.0000   0.3102
  19.100   0.8621   0.25990   0.25467  -0.0680  0.0501  1.0000  -2.0853   0.0000   0.0000   0.0000   0.3113
  19.200   0.8622   0.26081   0.25574  -0.0692  0.0499  1.0000  -2.0597   0.0000   0.0000   0.0000   0.3125
  19.300   0.8619   0.26153   0.25645  -0.0704  0.0497  1.0000  -2.0311   0.0000   0.0000   0.0000   0.3139
  19.400   0.8616   0.26220   0.25712  -0.0718  0.0494  1.0000  -2.0010   0.0000   0.0000   0.0000   0.3153
  19.500   0.8615   0.26291   0.25782  -0.0732  0.0490  1.0000  -1.9696   0.0000   0.0000   0.0000   0.3168
  19.600   0.8618   0.26380   0.25870  -0.0746  0.0484  1.0000  -1.9389   0.0000   0.0000   0.0000   0.3182
  19.700   0.8627   0.26500   0.25990  -0.0758  0.0477  1.0000  -1.9121   0.0000   0.0000   0.0000   0.3195
  19.800   0.8640   0.26650   0.26139  -0.0769  0.0469  1.0000  -1.8908   0.0000   0.0000   0.0000   0.3204
  19.900   0.8655   0.26818   0.26308  -0.0779  0.0461  1.0000  -1.8742   0.0000   0.0000   0.0000   0.3213
  20.000   0.8671   0.26997   0.26487  -0.0787  0.0454  1.0000  -1.8608   0.0000   0.0000   0.0000   0.3220
  20.100   0.8687   0.27181   0.26672  -0.0795  0.0446  1.0000  -1.8497   0.0000   0.0000   0.0000   0.3226
  20.200   0.8704   0.27369   0.26860  -0.0803  0.0439  1.0000  -1.8403   0.0000   0.0000   0.0000   0.3231
  20.300   0.8720   0.27559   0.27050  -0.0810  0.0432  1.0000  -1.8321   0.0000   0.0000   0.0000   0.3236
  20.400   0.8737   0.27749   0.27241  -0.0817  0.0426  1.0000  -1.8250   0.0000   0.0000   0.0000   0.3241
  20.500   0.8753   0.27941   0.27432  -0.0824  0.0419  1.0000  -1.8188   0.0000   0.0000   0.0000   0.3246
  20.600   0.8769   0.28132   0.27625  -0.0830  0.0413  1.0000  -1.8134   0.0000   0.0000   0.0000   0.3250
  20.700   0.8786   0.28325   0.27817  -0.0837  0.0407  1.0000  -1.8088   0.0000   0.0000   0.0000   0.3254
  20.800   0.8802   0.28517   0.28010  -0.0843  0.0401  1.0000  -1.8051   0.0000   0.0000   0.0000   0.3258
  20.900   0.8817   0.28709   0.28203  -0.0849  0.0396  1.0000  -1.8021   0.0000   0.0000   0.0000   0.3262
  21.000   0.8833   0.28901   0.28396  -0.0855  0.0390  1.0000  -1.8000   0.0000   0.0000   0.0000   0.3266
  21.100   0.8848   0.29093   0.28589  -0.0861  0.0385  1.0000  -1.7988   0.0000   0.0000   0.0000   0.3269
  21.200   0.8864   0.29286   0.28782  -0.0866  0.0380  1.0000  -1.7987   0.0000   0.0000   0.0000   0.3272
  21.300   0.8879   0.29478   0.28975  -0.0871  0.0375  1.0000  -1.7996   0.0000   0.0000   0.0000   0.3275
  21.400   0.8894   0.29671   0.29168  -0.0876  0.0370  1.0000  -1.8017   0.0000   0.0000   0.0000   0.3277
  21.500   0.8909   0.29864   0.29363  -0.0881  0.0365  1.0000  -1.8052   0.0000   0.0000   0.0000   0.3280
  21.600   0.8923   0.30058   0.29558  -0.0885  0.0361  1.0000  -1.8103   0.0000   0.0000   0.0000   0.3281
  21.700   0.8938   0.30255   0.29755  -0.0889  0.0356  1.0000  -1.8174   0.0000   0.0000   0.0000   0.3283
  21.800   0.8953   0.30455   0.29956  -0.0893  0.0352  1.0000  -1.8266   0.0000   0.0000   0.0000   0.3283
  21.900   0.8969   0.30660   0.30164  -0.0895  0.0348  1.0000  -1.8387   0.0000   0.0000   0.0000   0.3283
  22.000   0.8986   0.30877   0.30381  -0.0897  0.0343  1.0000  -1.8543   0.0000   0.0000   0.0000   0.3282
  22.100   0.9005   0.31113   0.30619  -0.0898  0.0339  1.0000  -1.8749   0.0000   0.0000   0.0000   0.3279
  22.200   0.9030   0.31392   0.30900  -0.0896  0.0335  1.0000  -1.9030   0.0000   0.0000   0.0000   0.3273
  22.300   0.9072   0.31811   0.31321  -0.0890  0.0330  1.0000  -1.9490   0.0000   0.0000   0.0000   0.3260
  22.400   0.9118   0.32979   0.32486  -0.0879  0.0320  1.0000  -1.9443   0.0000   0.0000   0.0000   0.3244
  22.500   0.9121   0.33161   0.32670  -0.0886  0.0320  1.0000  -1.9306   0.0000   0.0000   0.0000   0.3250
  22.600   0.9124   0.33342   0.32851  -0.0892  0.0319  1.0000  -1.9168   0.0000   0.0000   0.0000   0.3255
  22.700   0.9126   0.33520   0.33030  -0.0898  0.0319  1.0000  -1.9029   0.0000   0.0000   0.0000   0.3260
  22.800   0.9126   0.33695   0.33206  -0.0904  0.0319  1.0000  -1.8888   0.0000   0.0000   0.0000   0.3266
  22.900   0.9125   0.33866   0.33377  -0.0911  0.0319  1.0000  -1.8744   0.0000   0.0000   0.0000   0.3271
  23.000   0.9122   0.34033   0.33545  -0.0916  0.0318  1.0000  -1.8599   0.0000   0.0000   0.0000   0.3277
  23.100   0.9118   0.34196   0.33709  -0.0922  0.0318  1.0000  -1.8451   0.0000   0.0000   0.0000   0.3282
  23.200   0.9112   0.34354   0.33868  -0.0928  0.0318  1.0000  -1.8298   0.0000   0.0000   0.0000   0.3288
  23.300   0.9103   0.34505   0.34020  -0.0933  0.0318  1.0000  -1.8140   0.0000   0.0000   0.0000   0.3293
  23.400   0.9090   0.34646   0.34163  -0.0938  0.0317  1.0000  -1.7967   0.0000   0.0000   0.0000   0.3299
  23.500   0.9070   0.34770   0.34287  -0.0943  0.0317  1.0000  -1.7762   0.0000   0.0000   0.0000   0.3306
  23.600   0.9045   0.34880   0.34398  -0.0948  0.0317  1.0000  -1.7543   0.0000   0.0000   0.0000   0.3313
  23.700   0.9013   0.34973   0.34493  -0.0952  0.0316  1.0000  -1.7306   0.0000   0.0000   0.0000   0.3320
  23.800   0.8972   0.35045   0.34567  -0.0954  0.0316  1.0000  -1.7053   0.0000   0.0000   0.0000   0.3327
  23.900   0.8908   0.35064   0.34588  -0.0954  0.0315  1.0000  -1.6752   0.0000   0.0000   0.0000   0.3334
  24.000   0.8413   0.33879   0.33421  -0.0896  0.0316  1.0000  -1.5553   0.0000   0.0000   0.0000   0.3339
  24.100   0.8326   0.33712   0.33257  -0.0892  0.0316  1.0000  -1.5212   0.0000   0.0000   0.0000   0.3346
  24.200   0.8258   0.33589   0.33137  -0.0891  0.0316  1.0000  -1.4911   0.0000   0.0000   0.0000   0.3353
  24.300   0.8201   0.33489   0.33040  -0.0891  0.0315  1.0000  -1.4633   0.0000   0.0000   0.0000   0.3361
  24.400   0.8151   0.33406   0.32959  -0.0892  0.0315  1.0000  -1.4372   0.0000   0.0000   0.0000   0.3368
  24.500   0.8107   0.33334   0.32889  -0.0893  0.0314  1.0000  -1.4122   0.0000   0.0000   0.0000   0.3376
  24.600   0.8067   0.33271   0.32828  -0.0896  0.0314  1.0000  -1.3882   0.0000   0.0000   0.0000   0.3384
  24.700   0.8031   0.33217   0.32775  -0.0898  0.0313  1.0000  -1.3648   0.0000   0.0000   0.0000   0.3392
  24.800   0.7998   0.33169   0.32730  -0.0902  0.0312  1.0000  -1.3421   0.0000   0.0000   0.0000   0.3400
  24.900   0.7969   0.33128   0.32691  -0.0905  0.0312  1.0000  -1.3199   0.0000   0.0000   0.0000   0.3408
  25.000   0.7942   0.33095   0.32659  -0.0909  0.0311  1.0000  -1.2981   0.0000   0.0000   0.0000   0.3416
  25.100   0.7919   0.33069   0.32634  -0.0914  0.0309  1.0000  -1.2767   0.0000   0.0000   0.0000   0.3424
  25.200   0.7898   0.33053   0.32619  -0.0919  0.0308  1.0000  -1.2557   0.0000   0.0000   0.0000   0.3432
  25.300   0.7880   0.33047   0.32615  -0.0924  0.0306  1.0000  -1.2351   0.0000   0.0000   0.0000   0.3441
  25.400   0.7866   0.33053   0.32623  -0.0929  0.0304  1.0000  -1.2152   0.0000   0.0000   0.0000   0.3449
  25.500   0.7854   0.33071   0.32642  -0.0935  0.0302  1.0000  -1.1963   0.0000   0.0000   0.0000   0.3456
  25.600   0.7844   0.33100   0.32672  -0.0940  0.0299  1.0000  -1.1825   0.0000   0.0000   0.0000   0.3463
  25.700   0.7836   0.33136   0.32710  -0.0945  0.0296  1.0000  -1.1721   0.0000   0.0000   0.0000   0.3470
  25.800   0.7828   0.33178   0.32753  -0.0950  0.0293  1.0000  -1.1628   0.0000   0.0000   0.0000   0.3476
  25.900   0.7820   0.33222   0.32799  -0.0954  0.0289  1.0000  -1.1547   0.0000   0.0000   0.0000   0.3482
  26.000   0.7813   0.33268   0.32846  -0.0958  0.0285  1.0000  -1.1476   0.0000   0.0000   0.0000   0.3487
  26.100   0.7805   0.33315   0.32895  -0.0962  0.0282  1.0000  -1.1412   0.0000   0.0000   0.0000   0.3493
  26.200   0.7798   0.33362   0.32943  -0.0966  0.0278  1.0000  -1.1355   0.0000   0.0000   0.0000   0.3498
  26.300   0.7791   0.33410   0.32992  -0.0970  0.0275  1.0000  -1.1304   0.0000   0.0000   0.0000   0.3503
  26.400   0.7784   0.33457   0.33041  -0.0974  0.0271  1.0000  -1.1257   0.0000   0.0000   0.0000   0.3507
  26.500   0.7777   0.33505   0.33091  -0.0978  0.0268  1.0000  -1.1213   0.0000   0.0000   0.0000   0.3512
  26.600   0.7771   0.33553   0.33140  -0.0981  0.0265  1.0000  -1.1173   0.0000   0.0000   0.0000   0.3517
  26.700   0.7765   0.33602   0.33190  -0.0985  0.0261  1.0000  -1.1136   0.0000   0.0000   0.0000   0.3521
  26.800   0.7759   0.33650   0.33240  -0.0989  0.0258  1.0000  -1.1101   0.0000   0.0000   0.0000   0.3526
  26.900   0.7753   0.33699   0.33290  -0.0992  0.0255  1.0000  -1.1069   0.0000   0.0000   0.0000   0.3530
  27.000   0.7748   0.33747   0.33340  -0.0996  0.0252  1.0000  -1.1038   0.0000   0.0000   0.0000   0.3535
  27.100   0.7743   0.33796   0.33391  -0.1000  0.0249  1.0000  -1.1010   0.0000   0.0000   0.0000   0.3539
  27.200   0.7738   0.33846   0.33441  -0.1004  0.0246  1.0000  -1.0983   0.0000   0.0000   0.0000   0.3543
  27.300   0.7733   0.33895   0.33500  -0.1007  0.0244  1.0000  -1.0948   0.0000   0.0000   0.0000   0.3548
  27.400   0.7729   0.33945   0.33551  -0.1011  0.0241  1.0000  -1.0923   0.0000   0.0000   0.0000   0.3552
  27.500   0.7724   0.33995   0.33603  -0.1015  0.0238  1.0000  -1.0900   0.0000   0.0000   0.0000   0.3556
  27.600   0.7720   0.34045   0.33654  -0.1019  0.0236  1.0000  -1.0878   0.0000   0.0000   0.0000   0.3560
  27.700   0.7717   0.34095   0.33706  -0.1023  0.0233  1.0000  -1.0857   0.0000   0.0000   0.0000   0.3564
  27.800   0.7713   0.34145   0.33758  -0.1027  0.0231  1.0000  -1.0837   0.0000   0.0000   0.0000   0.3569
  27.900   0.7710   0.34196   0.33810  -0.1030  0.0229  1.0000  -1.0818   0.0000   0.0000   0.0000   0.3573
  28.000   0.7706   0.34247   0.33862  -0.1034  0.0226  1.0000  -1.0800   0.0000   0.0000   0.0000   0.3577
  28.100   0.7703   0.34298   0.33914  -0.1038  0.0224  1.0000  -1.0783   0.0000   0.0000   0.0000   0.3581
  28.200   0.7700   0.34348   0.33966  -0.1042  0.0222  1.0000  -1.0768   0.0000   0.0000   0.0000   0.3585
  28.300   0.7698   0.34399   0.34019  -0.1046  0.0220  1.0000  -1.0753   0.0000   0.0000   0.0000   0.3589
  28.400   0.7695   0.34450   0.34071  -0.1050  0.0218  1.0000  -1.0741   0.0000   0.0000   0.0000   0.3593
  28.500   0.7692   0.34501   0.34123  -0.1054  0.0216  1.0000  -1.0730   0.0000   0.0000   0.0000   0.3597
  28.600   0.7690   0.34552   0.34176  -0.1058  0.0214  1.0000  -1.0720   0.0000   0.0000   0.0000   0.3601
  28.700   0.7688   0.34603   0.34228  -0.1062  0.0212  1.0000  -1.0713   0.0000   0.0000   0.0000   0.3605
  28.800   0.7686   0.34654   0.34280  -0.1066  0.0210  1.0000  -1.0707   0.0000   0.0000   0.0000   0.3608
  28.900   0.7683   0.34705   0.34332  -0.1070  0.0208  1.0000  -1.0703   0.0000   0.0000   0.0000   0.3612
  29.000   0.7681   0.34755   0.34384  -0.1074  0.0206  1.0000  -1.0702   0.0000   0.0000   0.0000   0.3616
  29.100   0.7679   0.34805   0.34436  -0.1077  0.0204  1.0000  -1.0702   0.0000   0.0000   0.0000   0.3620
  29.200   0.7678   0.34856   0.34488  -0.1081  0.0203  1.0000  -1.0706   0.0000   0.0000   0.0000   0.3623
  29.300   0.7676   0.34906   0.34539  -0.1085  0.0201  1.0000  -1.0712   0.0000   0.0000   0.0000   0.3627
  29.400   0.7674   0.34956   0.34591  -0.1089  0.0199  1.0000  -1.0722   0.0000   0.0000   0.0000   0.3630
  29.500   0.7672   0.35005   0.34642  -0.1093  0.0197  1.0000  -1.0734   0.0000   0.0000   0.0000   0.3634
  29.600   0.7671   0.35055   0.34693  -0.1096  0.0196  1.0000  -1.0751   0.0000   0.0000   0.0000   0.3637
  29.700   0.7669   0.35105   0.34744  -0.1100  0.0194  1.0000  -1.0772   0.0000   0.0000   0.0000   0.3640
  29.800   0.7667   0.35155   0.34795  -0.1103  0.0192  1.0000  -1.0798   0.0000   0.0000   0.0000   0.3643
  29.900   0.7666   0.35205   0.34847  -0.1107  0.0191  1.0000  -1.0829   0.0000   0.0000   0.0000   0.3646
  30.000   0.7664   0.35256   0.34900  -0.1110  0.0189  1.0000  -1.0867   0.0000   0.0000   0.0000   0.3649


