xflr5 v6.61

 Calculated polar for: MH 20

 1 1 Reynolds number fixed          Mach number fixed         

 xtrf =   1.000 (top)        1.000 (bottom)
 Mach =   0.000     Re =     0.200 e 6     Ncrit =   9.000

  alpha     CL        CD       CDp       Cm    Top Xtr Bot Xtr   Cpmin    Chinge    XCp    
 ------- -------- --------- --------- -------- ------- ------- -------- --------- ---------
 -10.000  -0.5278   0.12077   0.11761   0.0110  1.0000  0.0334  -1.9836   0.0000   0.0000   0.0000   0.2660
  -9.900  -0.5260   0.11923   0.11609   0.0100  1.0000  0.0334  -1.9988   0.0000   0.0000   0.0000   0.2644
  -9.800  -0.5243   0.11768   0.11455   0.0091  1.0000  0.0335  -2.0145   0.0000   0.0000   0.0000   0.2627
  -9.700  -0.5227   0.11611   0.11299   0.0082  1.0000  0.0335  -2.0306   0.0000   0.0000   0.0000   0.2611
  -9.600  -0.5211   0.11453   0.11142   0.0072  1.0000  0.0336  -2.0472   0.0000   0.0000   0.0000   0.2594
  -9.500  -0.5197   0.11294   0.10984   0.0063  1.0000  0.0336  -2.0644   0.0000   0.0000   0.0000   0.2576
  -9.400  -0.5183   0.11133   0.10824   0.0053  1.0000  0.0336  -2.0820   0.0000   0.0000   0.0000   0.2558
  -9.300  -0.5169   0.10970   0.10663   0.0043  1.0000  0.0336  -2.1002   0.0000   0.0000   0.0000   0.2540
  -9.200  -0.5154   0.10804   0.10498   0.0033  1.0000  0.0337  -2.1190   0.0000   0.0000   0.0000   0.2521
  -9.100  -0.5141   0.10636   0.10332   0.0022  1.0000  0.0337  -2.1384   0.0000   0.0000   0.0000   0.2501
  -9.000  -0.5128   0.10467   0.10164   0.0011  1.0000  0.0337  -2.1584   0.0000   0.0000   0.0000   0.2480
  -8.900  -0.5116   0.10297   0.09995  -0.0000  1.0000  0.0337  -2.1792   0.0000   0.0000   0.0000   0.2459
  -8.800  -0.5105   0.10124   0.09824  -0.0012  1.0000  0.0337  -2.2007   0.0000   0.0000   0.0000   0.2436
  -8.700  -0.5095   0.09951   0.09652  -0.0024  1.0000  0.0338  -2.2231   0.0000   0.0000   0.0000   0.2413
  -8.600  -0.5086   0.09774   0.09477  -0.0037  1.0000  0.0338  -2.2465   0.0000   0.0000   0.0000   0.2388
  -8.500  -0.5077   0.09594   0.09299  -0.0051  1.0000  0.0338  -2.2712   0.0000   0.0000   0.0000   0.2361
  -8.400  -0.5125   0.09258   0.08970  -0.0071  1.0000  0.0340  -2.3583   0.0000   0.0000   0.0000   0.2323
  -8.300  -0.5176   0.08932   0.08647  -0.0092  1.0000  0.0343  -2.4391   0.0000   0.0000   0.0000   0.2285
  -8.200  -0.5213   0.08650   0.08368  -0.0113  1.0000  0.0346  -2.5005   0.0000   0.0000   0.0000   0.2248
  -8.100  -0.5244   0.08393   0.08112  -0.0133  1.0000  0.0348  -2.5512   0.0000   0.0000   0.0000   0.2211
  -8.000  -0.5272   0.08150   0.07870  -0.0148  1.0000  0.0351  -2.5938   0.0000   0.0000   0.0000   0.2184
  -7.900  -0.5291   0.07920   0.07640  -0.0161  1.0000  0.0354  -2.6250   0.0000   0.0000   0.0000   0.2161
  -7.800  -0.5297   0.07704   0.07424  -0.0173  1.0000  0.0358  -2.6420   0.0000   0.0000   0.0000   0.2140
  -7.700  -0.5293   0.07509   0.07230  -0.0183  1.0000  0.0363  -2.6467   0.0000   0.0000   0.0000   0.2122
  -7.600  -0.5256   0.07429   0.07152  -0.0172  1.0000  0.0371  -2.5670   0.0000   0.0000   0.0000   0.2140
  -7.500  -0.5222   0.07316   0.07040  -0.0172  1.0000  0.0378  -2.5221   0.0000   0.0000   0.0000   0.2139
  -7.400  -0.5192   0.07181   0.06905  -0.0178  1.0000  0.0385  -2.4965   0.0000   0.0000   0.0000   0.2126
  -7.300  -0.5161   0.07032   0.06755  -0.0187  1.0000  0.0391  -2.4816   0.0000   0.0000   0.0000   0.2108
  -7.200  -0.5127   0.06878   0.06601  -0.0196  1.0000  0.0398  -2.4700   0.0000   0.0000   0.0000   0.2087
  -7.100  -0.5092   0.06714   0.06437  -0.0208  1.0000  0.0405  -2.4653   0.0000   0.0000   0.0000   0.2063
  -7.000  -0.5054   0.06543   0.06264  -0.0220  1.0000  0.0412  -2.4654   0.0000   0.0000   0.0000   0.2036
  -6.900  -0.5014   0.06366   0.06086  -0.0233  1.0000  0.0419  -2.4690   0.0000   0.0000   0.0000   0.2006
  -6.800  -0.4970   0.06184   0.05901  -0.0247  1.0000  0.0427  -2.4756   0.0000   0.0000   0.0000   0.1975
  -6.700  -0.4922   0.05999   0.05713  -0.0261  1.0000  0.0435  -2.4847   0.0000   0.0000   0.0000   0.1941
  -6.600  -0.4869   0.05812   0.05522  -0.0275  1.0000  0.0445  -2.4962   0.0000   0.0000   0.0000   0.1907
  -6.500  -0.4813   0.05624   0.05329  -0.0289  1.0000  0.0455  -2.5100   0.0000   0.0000   0.0000   0.1872
  -6.400  -0.4755   0.05441   0.05140  -0.0302  1.0000  0.0465  -2.5257   0.0000   0.0000   0.0000   0.1837
  -6.300  -0.4680   0.05251   0.04942  -0.0317  0.9916  0.0478  -2.5441   0.0000   0.0000   0.0000   0.1794
  -6.200  -0.4553   0.05041   0.04718  -0.0340  0.9788  0.0497  -2.5655   0.0000   0.0000   0.0000   0.1724
  -6.100  -0.4300   0.05271   0.04918  -0.0353  0.9697  0.0545  -2.5103   0.0000   0.0000   0.0000   0.1649
  -6.000  -0.4206   0.05113   0.04747  -0.0363  0.9605  0.0546  -2.5147   0.0000   0.0000   0.0000   0.1608
  -5.900  -0.4118   0.04946   0.04567  -0.0370  0.9525  0.0547  -2.5194   0.0000   0.0000   0.0000   0.1572
  -5.800  -0.4045   0.04788   0.04396  -0.0372  0.9449  0.0547  -2.5240   0.0000   0.0000   0.0000   0.1550
  -5.700  -0.4124   0.04087   0.03697  -0.0379  0.9371  0.0502  -2.6526   0.0000   0.0000   0.0000   0.1551
  -5.600  -0.4093   0.03504   0.03061  -0.0365  0.9297  0.0306  -3.1014   0.0000   0.0000   0.0000   0.1574
  -5.500  -0.4056   0.03304   0.02841  -0.0357  0.9232  0.0290  -3.1561   0.0000   0.0000   0.0000   0.1585
  -5.400  -0.4007   0.03122   0.02638  -0.0349  0.9174  0.0276  -3.2114   0.0000   0.0000   0.0000   0.1595
  -5.300  -0.3947   0.02940   0.02434  -0.0341  0.9118  0.0262  -3.2754   0.0000   0.0000   0.0000   0.1602
  -5.200  -0.3884   0.02763   0.02232  -0.0331  0.9064  0.0249  -3.3468   0.0000   0.0000   0.0000   0.1611
  -5.100  -0.3816   0.02596   0.02036  -0.0321  0.9015  0.0237  -3.4213   0.0000   0.0000   0.0000   0.1623
  -5.000  -0.3743   0.02448   0.01862  -0.0311  0.8970  0.0228  -3.4817   0.0000   0.0000   0.0000   0.1634
  -4.900  -0.3665   0.02327   0.01718  -0.0301  0.8929  0.0222  -3.5135   0.0000   0.0000   0.0000   0.1643
  -4.800  -0.3584   0.02225   0.01595  -0.0292  0.8890  0.0217  -3.5257   0.0000   0.0000   0.0000   0.1650
  -4.700  -0.3493   0.02132   0.01472  -0.0285  0.8853  0.0215  -3.5235   0.0000   0.0000   0.0000   0.1648
  -4.600  -0.3393   0.02044   0.01369  -0.0281  0.8820  0.0214  -3.5023   0.0000   0.0000   0.0000   0.1635
  -4.500  -0.3294   0.01964   0.01276  -0.0277  0.8785  0.0215  -3.4713   0.0000   0.0000   0.0000   0.1623
  -4.400  -0.3195   0.01891   0.01192  -0.0272  0.8750  0.0217  -3.4331   0.0000   0.0000   0.0000   0.1610
  -4.300  -0.3098   0.01825   0.01116  -0.0268  0.8714  0.0220  -3.3890   0.0000   0.0000   0.0000   0.1598
  -4.200  -0.3002   0.01773   0.01057  -0.0263  0.8680  0.0229  -3.3222   0.0000   0.0000   0.0000   0.1585
  -4.100  -0.2907   0.01736   0.01017  -0.0259  0.8647  0.0245  -3.2357   0.0000   0.0000   0.0000   0.1570
  -4.000  -0.2811   0.01701   0.00977  -0.0255  0.8615  0.0263  -3.1562   0.0000   0.0000   0.0000   0.1556
  -3.900  -0.2717   0.01659   0.00928  -0.0249  0.8585  0.0279  -3.0963   0.0000   0.0000   0.0000   0.1545
  -3.800  -0.2624   0.01611   0.00872  -0.0243  0.8555  0.0293  -3.0537   0.0000   0.0000   0.0000   0.1536
  -3.700  -0.2532   0.01567   0.00820  -0.0236  0.8526  0.0309  -3.0143   0.0000   0.0000   0.0000   0.1528
  -3.600  -0.2436   0.01537   0.00782  -0.0231  0.8494  0.0330  -2.9656   0.0000   0.0000   0.0000   0.1513
  -3.500  -0.2353   0.01442   0.00681  -0.0224  0.8471  0.0395  -2.9967   0.0000   0.0000   0.0000   0.1511
  -3.400  -0.2264   0.01374   0.00625  -0.0218  0.8446  0.0648  -3.0217   0.0000   0.0000   0.0000   0.1497
  -3.300  -0.2174   0.01323   0.00595  -0.0215  0.8417  0.1094  -2.9848   0.0000   0.0000   0.0000   0.1473
  -3.200  -0.2080   0.01296   0.00584  -0.0213  0.8387  0.1448  -2.8802   0.0000   0.0000   0.0000   0.1436
  -3.100  -0.1989   0.01264   0.00568  -0.0210  0.8355  0.1772  -2.7764   0.0000   0.0000   0.0000   0.1406
  -3.000  -0.1898   0.01238   0.00553  -0.0207  0.8323  0.2095  -2.6660   0.0000   0.0000   0.0000   0.1372
  -2.900  -0.1808   0.01212   0.00540  -0.0203  0.8293  0.2474  -2.5531   0.0000   0.0000   0.0000   0.1338
  -2.800  -0.1721   0.01186   0.00529  -0.0199  0.8265  0.2903  -2.4407   0.0000   0.0000   0.0000   0.1304
  -2.700  -0.1636   0.01158   0.00518  -0.0194  0.8239  0.3387  -2.3298   0.0000   0.0000   0.0000   0.1272
  -2.600  -0.1557   0.01129   0.00509  -0.0188  0.8214  0.3942  -2.2216   0.0000   0.0000   0.0000   0.1250
  -2.500  -0.1487   0.01096   0.00502  -0.0180  0.8189  0.4645  -2.1185   0.0000   0.0000   0.0000   0.1247
  -2.400  -0.1431   0.01058   0.00498  -0.0168  0.8162  0.5498  -2.0226   0.0000   0.0000   0.0000   0.1282
  -2.300  -0.1378   0.01020   0.00497  -0.0154  0.8135  0.6470  -1.9288   0.0000   0.0000   0.0000   0.1343
  -2.200  -0.1298   0.00986   0.00503  -0.0142  0.8106  0.7563  -1.8187   0.0000   0.0000   0.0000   0.1364
  -2.100  -0.0881   0.00972   0.00512  -0.0195  0.8090  0.8886  -1.5261   0.0000   0.0000   0.0000   0.0232
  -2.000  -0.0560   0.00981   0.00509  -0.0233  0.8073  0.9304  -1.3022   0.0000   0.0000   0.0000  -0.1735
  -1.900  -0.0345   0.00990   0.00510  -0.0251  0.8057  0.9532  -1.1362   0.0000   0.0000   0.0000  -0.4881
  -1.800  -0.0118   0.00997   0.00509  -0.0272  0.8041  0.9688  -0.9703   0.0000   0.0000   0.0000  -2.0875
  -1.700   0.0113   0.01000   0.00503  -0.0296  0.8022  0.9799  -0.8088   0.0000   0.0000   0.0000   2.9097
  -1.600   0.0371   0.01000   0.00494  -0.0326  0.8001  0.9906  -0.6413   0.0000   0.0000   0.0000   1.1387
  -1.500   0.0654   0.00993   0.00477  -0.0362  0.7978  0.9999  -0.5331   0.0000   0.0000   0.0000   0.8084
  -1.400   0.0754   0.00992   0.00470  -0.0361  0.7948  1.0000  -0.5044   0.0000   0.0000   0.0000   0.7326
  -1.300   0.0851   0.00990   0.00464  -0.0359  0.7917  1.0000  -0.4763   0.0000   0.0000   0.0000   0.6750
  -1.200   0.0947   0.00990   0.00456  -0.0357  0.7887  1.0000  -0.4485   0.0000   0.0000   0.0000   0.6291
  -1.100   0.1043   0.00989   0.00451  -0.0354  0.7858  1.0000  -0.4209   0.0000   0.0000   0.0000   0.5915
  -1.000   0.1140   0.00989   0.00445  -0.0352  0.7830  1.0000  -0.4095   0.0000   0.0000   0.0000   0.5603
  -0.900   0.1235   0.00989   0.00440  -0.0349  0.7802  1.0000  -0.4167   0.0000   0.0000   0.0000   0.5337
  -0.800   0.1329   0.00990   0.00436  -0.0345  0.7774  1.0000  -0.4239   0.0000   0.0000   0.0000   0.5109
  -0.700   0.1423   0.00991   0.00431  -0.0342  0.7745  1.0000  -0.4311   0.0000   0.0000   0.0000   0.4910
  -0.600   0.1517   0.00994   0.00429  -0.0338  0.7715  1.0000  -0.4383   0.0000   0.0000   0.0000   0.4735
  -0.500   0.1611   0.01000   0.00430  -0.0335  0.7682  1.0000  -0.4465   0.0000   0.0000   0.0000   0.4582
  -0.400   0.1709   0.01014   0.00438  -0.0333  0.7644  1.0000  -0.4547   0.0000   0.0000   0.0000   0.4450
  -0.300   0.1813   0.01014   0.00436  -0.0332  0.7624  1.0000  -0.4634   0.0000   0.0000   0.0000   0.4333
  -0.200   0.1917   0.01014   0.00434  -0.0332  0.7605  1.0000  -0.4721   0.0000   0.0000   0.0000   0.4229
  -0.100   0.2021   0.01015   0.00433  -0.0331  0.7585  1.0000  -0.4808   0.0000   0.0000   0.0000   0.4135
   0.000   0.2124   0.01016   0.00432  -0.0330  0.7561  1.0000  -0.4896   0.0000   0.0000   0.0000   0.4050
   0.100   0.2227   0.01017   0.00431  -0.0329  0.7535  1.0000  -0.4983   0.0000   0.0000   0.0000   0.3972
   0.200   0.2328   0.01018   0.00430  -0.0327  0.7505  1.0000  -0.5070   0.0000   0.0000   0.0000   0.3899
   0.300   0.2428   0.01019   0.00429  -0.0325  0.7474  1.0000  -0.5156   0.0000   0.0000   0.0000   0.3832
   0.400   0.2527   0.01020   0.00427  -0.0322  0.7442  1.0000  -0.5243   0.0000   0.0000   0.0000   0.3768
   0.500   0.2625   0.01020   0.00424  -0.0319  0.7410  1.0000  -0.5330   0.0000   0.0000   0.0000   0.3708
   0.600   0.2722   0.01020   0.00422  -0.0316  0.7378  1.0000  -0.5430   0.0000   0.0000   0.0000   0.3652
   0.700   0.2820   0.01021   0.00420  -0.0313  0.7348  1.0000  -0.5529   0.0000   0.0000   0.0000   0.3599
   0.800   0.2917   0.01023   0.00419  -0.0310  0.7320  1.0000  -0.5629   0.0000   0.0000   0.0000   0.3550
   0.900   0.3015   0.01025   0.00419  -0.0307  0.7293  1.0000  -0.5729   0.0000   0.0000   0.0000   0.3505
   1.000   0.3112   0.01029   0.00420  -0.0303  0.7265  1.0000  -0.5829   0.0000   0.0000   0.0000   0.3462
   1.100   0.3210   0.01037   0.00425  -0.0300  0.7232  1.0000  -0.5928   0.0000   0.0000   0.0000   0.3422
   1.200   0.3307   0.01051   0.00436  -0.0298  0.7192  1.0000  -0.6027   0.0000   0.0000   0.0000   0.3386
   1.300   0.3410   0.01058   0.00442  -0.0296  0.7163  1.0000  -0.6130   0.0000   0.0000   0.0000   0.3355
   1.400   0.3514   0.01056   0.00441  -0.0295  0.7139  1.0000  -0.6234   0.0000   0.0000   0.0000   0.3324
   1.500   0.3617   0.01055   0.00441  -0.0293  0.7110  1.0000  -0.6351   0.0000   0.0000   0.0000   0.3295
   1.600   0.3719   0.01055   0.00441  -0.0292  0.7077  1.0000  -0.6471   0.0000   0.0000   0.0000   0.3267
   1.700   0.3821   0.01055   0.00442  -0.0290  0.7042  1.0000  -0.6591   0.0000   0.0000   0.0000   0.3240
   1.800   0.3922   0.01056   0.00444  -0.0287  0.7007  1.0000  -0.6711   0.0000   0.0000   0.0000   0.3214
   1.900   0.4024   0.01057   0.00445  -0.0285  0.6973  1.0000  -0.6831   0.0000   0.0000   0.0000   0.3190
   2.000   0.4124   0.01058   0.00446  -0.0282  0.6940  1.0000  -0.6952   0.0000   0.0000   0.0000   0.3165
   2.100   0.4224   0.01059   0.00446  -0.0280  0.6906  1.0000  -0.7085   0.0000   0.0000   0.0000   0.3142
   2.200   0.4323   0.01059   0.00445  -0.0276  0.6871  1.0000  -0.7226   0.0000   0.0000   0.0000   0.3118
   2.300   0.4421   0.01059   0.00443  -0.0272  0.6836  1.0000  -0.7367   0.0000   0.0000   0.0000   0.3095
   2.400   0.4518   0.01060   0.00442  -0.0268  0.6798  1.0000  -0.7508   0.0000   0.0000   0.0000   0.3072
   2.500   0.4615   0.01066   0.00447  -0.0264  0.6756  1.0000  -0.7649   0.0000   0.0000   0.0000   0.3050
   2.600   0.4712   0.01084   0.00462  -0.0261  0.6700  1.0000  -0.7801   0.0000   0.0000   0.0000   0.3031
   2.700   0.4816   0.01082   0.00463  -0.0260  0.6672  1.0000  -0.7973   0.0000   0.0000   0.0000   0.3015
   2.800   0.4920   0.01080   0.00464  -0.0258  0.6640  1.0000  -0.8145   0.0000   0.0000   0.0000   0.3000
   2.900   0.5023   0.01080   0.00467  -0.0256  0.6604  1.0000  -0.8318   0.0000   0.0000   0.0000   0.2985
   3.000   0.5126   0.01080   0.00469  -0.0255  0.6564  1.0000  -0.8492   0.0000   0.0000   0.0000   0.2970
   3.100   0.5228   0.01079   0.00471  -0.0252  0.6520  1.0000  -0.8665   0.0000   0.0000   0.0000   0.2955
   3.200   0.5329   0.01078   0.00470  -0.0249  0.6473  1.0000  -0.8867   0.0000   0.0000   0.0000   0.2940
   3.300   0.5429   0.01075   0.00468  -0.0246  0.6426  1.0000  -0.9077   0.0000   0.0000   0.0000   0.2924
   3.400   0.5528   0.01073   0.00465  -0.0242  0.6378  1.0000  -0.9288   0.0000   0.0000   0.0000   0.2908
   3.500   0.5627   0.01072   0.00465  -0.0238  0.6329  1.0000  -0.9500   0.0000   0.0000   0.0000   0.2893
   3.600   0.5725   0.01074   0.00465  -0.0234  0.6278  1.0000  -0.9729   0.0000   0.0000   0.0000   0.2878
   3.700   0.5823   0.01088   0.00475  -0.0230  0.6212  1.0000  -0.9989   0.0000   0.0000   0.0000   0.2864
   3.800   0.5927   0.01086   0.00478  -0.0229  0.6174  1.0000  -1.0257   0.0000   0.0000   0.0000   0.2854
   3.900   0.6030   0.01083   0.00480  -0.0227  0.6126  1.0000  -1.0579   0.0000   0.0000   0.0000   0.2843
   4.000   0.6133   0.01080   0.00482  -0.0224  0.6067  1.0000  -1.0953   0.0000   0.0000   0.0000   0.2832
   4.100   0.6235   0.01078   0.00482  -0.0222  0.6002  1.0000  -1.1442   0.0000   0.0000   0.0000   0.2821
   4.200   0.6336   0.01075   0.00481  -0.0219  0.5936  1.0000  -1.1936   0.0000   0.0000   0.0000   0.2810
   4.300   0.6436   0.01073   0.00478  -0.0215  0.5870  1.0000  -1.2648   0.0000   0.0000   0.0000   0.2798
   4.400   0.6535   0.01073   0.00475  -0.0211  0.5801  1.0000  -1.3809   0.0000   0.0000   0.0000   0.2786
   4.500   0.6632   0.01080   0.00480  -0.0207  0.5718  1.0000  -1.4973   0.0000   0.0000   0.0000   0.2774
   4.600   0.6736   0.01079   0.00486  -0.0205  0.5657  1.0000  -1.6203   0.0000   0.0000   0.0000   0.2766
   4.700   0.6840   0.01078   0.00492  -0.0203  0.5579  1.0000  -1.7460   0.0000   0.0000   0.0000   0.2758
   4.800   0.6941   0.01078   0.00495  -0.0201  0.5490  1.0000  -1.8738   0.0000   0.0000   0.0000   0.2749
   4.900   0.7041   0.01078   0.00495  -0.0197  0.5395  1.0000  -2.0033   0.0000   0.0000   0.0000   0.2739
   5.000   0.7138   0.01081   0.00493  -0.0193  0.5295  1.0000  -2.1342   0.0000   0.0000   0.0000   0.2728
   5.100   0.7236   0.01088   0.00497  -0.0190  0.5195  1.0000  -2.2672   0.0000   0.0000   0.0000   0.2719
   5.200   0.7339   0.01091   0.00507  -0.0188  0.5095  1.0000  -2.4047   0.0000   0.0000   0.0000   0.2712
   5.300   0.7438   0.01095   0.00513  -0.0185  0.4977  1.0000  -2.5431   0.0000   0.0000   0.0000   0.2704
   5.400   0.7533   0.01103   0.00515  -0.0181  0.4850  1.0000  -2.6817   0.0000   0.0000   0.0000   0.2695
   5.500   0.7627   0.01116   0.00527  -0.0178  0.4713  1.0000  -2.8230   0.0000   0.0000   0.0000   0.2686
   5.600   0.7726   0.01123   0.00540  -0.0175  0.4587  1.0000  -2.9689   0.0000   0.0000   0.0000   0.2679
   5.700   0.7820   0.01136   0.00548  -0.0172  0.4434  1.0000  -3.1128   0.0000   0.0000   0.0000   0.2671
   5.800   0.7907   0.01156   0.00557  -0.0168  0.4264  1.0000  -3.2538   0.0000   0.0000   0.0000   0.2662
   5.900   0.8005   0.01167   0.00572  -0.0166  0.4122  1.0000  -3.4026   0.0000   0.0000   0.0000   0.2656
   6.000   0.8095   0.01185   0.00585  -0.0162  0.3941  1.0000  -3.5485   0.0000   0.0000   0.0000   0.2648
   6.100   0.8179   0.01211   0.00600  -0.0158  0.3749  1.0000  -3.6910   0.0000   0.0000   0.0000   0.2640
   6.200   0.8272   0.01226   0.00617  -0.0156  0.3574  1.0000  -3.8418   0.0000   0.0000   0.0000   0.2634
   6.300   0.8353   0.01256   0.00634  -0.0152  0.3353  1.0000  -3.9837   0.0000   0.0000   0.0000   0.2626
   6.400   0.8440   0.01278   0.00653  -0.0149  0.3127  1.0000  -4.1312   0.0000   0.0000   0.0000   0.2620
   6.500   0.8512   0.01318   0.00675  -0.0144  0.2836  1.0000  -4.2673   0.0000   0.0000   0.0000   0.2612
   6.600   0.8594   0.01348   0.00697  -0.0141  0.2567  1.0000  -4.4097   0.0000   0.0000   0.0000   0.2605
   6.700   0.8669   0.01386   0.00725  -0.0137  0.2301  1.0000  -4.5443   0.0000   0.0000   0.0000   0.2598
   6.800   0.8735   0.01437   0.00757  -0.0132  0.1954  1.0000  -4.6672   0.0000   0.0000   0.0000   0.2591
   6.900   0.8784   0.01509   0.00801  -0.0127  0.1461  1.0000  -4.7669   0.0000   0.0000   0.0000   0.2582
   7.000   0.8785   0.01649   0.00883  -0.0117  0.0756  1.0000  -4.7936   0.0000   0.0000   0.0000   0.2570
   7.100   0.8805   0.01768   0.00982  -0.0105  0.0467  1.0000  -4.7746   0.0000   0.0000   0.0000   0.2555
   7.200   0.8854   0.01843   0.01052  -0.0097  0.0375  1.0000  -4.8128   0.0000   0.0000   0.0000   0.2544
   7.300   0.8859   0.01970   0.01188  -0.0082  0.0318  1.0000  -4.7564   0.0000   0.0000   0.0000   0.2526
   7.400   0.8943   0.01996   0.01217  -0.0078  0.0291  1.0000  -4.8438   0.0000   0.0000   0.0000   0.2520
   7.500   0.9009   0.02042   0.01267  -0.0071  0.0260  1.0000  -4.9021   0.0000   0.0000   0.0000   0.2511
   7.600   0.9064   0.02104   0.01333  -0.0063  0.0239  1.0000  -4.9314   0.0000   0.0000   0.0000   0.2500
   7.700   0.9114   0.02170   0.01403  -0.0055  0.0224  1.0000  -4.9906   0.0000   0.0000   0.0000   0.2490
   7.800   0.9159   0.02247   0.01483  -0.0046  0.0211  1.0000  -5.0422   0.0000   0.0000   0.0000   0.2478
   7.900   0.9199   0.02337   0.01576  -0.0036  0.0201  1.0000  -5.0767   0.0000   0.0000   0.0000   0.2466
   8.000   0.9238   0.02443   0.01688  -0.0025  0.0192  1.0000  -5.0972   0.0000   0.0000   0.0000   0.2454
   8.100   0.9280   0.02577   0.01828  -0.0015  0.0184  1.0000  -5.1014   0.0000   0.0000   0.0000   0.2442
   8.200   0.9326   0.02766   0.02028  -0.0006  0.0176  1.0000  -5.0748   0.0000   0.0000   0.0000   0.2431
   8.300   0.9389   0.02880   0.02151   0.0001  0.0171  1.0000  -5.1205   0.0000   0.0000   0.0000   0.2422
   8.400   0.9466   0.02897   0.02174   0.0006  0.0165  1.0000  -5.2484   0.0000   0.0000   0.0000   0.2416
   8.500   0.9539   0.02946   0.02231   0.0011  0.0160  1.0000  -5.3484   0.0000   0.0000   0.0000   0.2410
   8.600   0.9606   0.03025   0.02319   0.0017  0.0157  1.0000  -5.4202   0.0000   0.0000   0.0000   0.2402
   8.700   0.9670   0.03128   0.02432   0.0024  0.0155  1.0000  -5.4665   0.0000   0.0000   0.0000   0.2394
   8.800   0.9730   0.03238   0.02554   0.0030  0.0154  1.0000  -5.5063   0.0000   0.0000   0.0000   0.2387
   8.900   0.9785   0.03354   0.02682   0.0037  0.0153  1.0000  -5.5409   0.0000   0.0000   0.0000   0.2379
   9.000   0.9834   0.03475   0.02816   0.0044  0.0152  1.0000  -5.5701   0.0000   0.0000   0.0000   0.2371
   9.100   0.9877   0.03601   0.02954   0.0052  0.0152  1.0000  -5.5939   0.0000   0.0000   0.0000   0.2362
   9.200   0.9913   0.03731   0.03098   0.0059  0.0152  1.0000  -5.6121   0.0000   0.0000   0.0000   0.2354
   9.300   0.9941   0.03864   0.03245   0.0067  0.0153  1.0000  -5.6250   0.0000   0.0000   0.0000   0.2345
   9.400   0.9962   0.04002   0.03396   0.0076  0.0153  1.0000  -5.6329   0.0000   0.0000   0.0000   0.2336
   9.500   0.9974   0.04141   0.03549   0.0084  0.0154  1.0000  -5.6358   0.0000   0.0000   0.0000   0.2326
   9.600   0.9977   0.04283   0.03705   0.0092  0.0155  1.0000  -5.6342   0.0000   0.0000   0.0000   0.2317
   9.700   0.9972   0.04427   0.03861   0.0101  0.0156  1.0000  -5.6286   0.0000   0.0000   0.0000   0.2307
   9.800   0.9958   0.04571   0.04018   0.0110  0.0157  1.0000  -5.6190   0.0000   0.0000   0.0000   0.2297
   9.900   0.9935   0.04716   0.04174   0.0119  0.0158  1.0000  -5.6057   0.0000   0.0000   0.0000   0.2287
  10.000   0.9900   0.04855   0.04324   0.0129  0.0158  1.0000  -5.5895   0.0000   0.0000   0.0000   0.2275
  10.100   0.9853   0.04986   0.04465   0.0139  0.0159  1.0000  -5.5710   0.0000   0.0000   0.0000   0.2263
  10.200   0.9800   0.05119   0.04607   0.0149  0.0160  1.0000  -5.5502   0.0000   0.0000   0.0000   0.2251
  10.300   0.9744   0.05257   0.04754   0.0156  0.0161  1.0000  -5.5270   0.0000   0.0000   0.0000   0.2241
  10.400   0.9685   0.05402   0.04907   0.0162  0.0162  1.0000  -5.5014   0.0000   0.0000   0.0000   0.2233
  10.500   0.9623   0.05553   0.05067   0.0167  0.0163  1.0000  -5.4733   0.0000   0.0000   0.0000   0.2226
  10.600   0.9558   0.05712   0.05234   0.0169  0.0163  1.0000  -5.4425   0.0000   0.0000   0.0000   0.2221
  10.700   0.9490   0.05878   0.05408   0.0170  0.0164  1.0000  -5.4090   0.0000   0.0000   0.0000   0.2217
  10.800   0.9419   0.06054   0.05591   0.0170  0.0165  1.0000  -5.3717   0.0000   0.0000   0.0000   0.2215
  10.900   0.9345   0.06241   0.05786   0.0167  0.0166  1.0000  -5.3301   0.0000   0.0000   0.0000   0.2215
  11.000   0.9266   0.06445   0.05997   0.0163  0.0167  1.0000  -5.2802   0.0000   0.0000   0.0000   0.2216
  12.300   0.8688   0.08988   0.08621   0.0039  0.0203  1.0000  -4.9054   0.0000   0.0000   0.0000   0.2331
  12.400   0.8615   0.09277   0.08914   0.0018  0.0202  1.0000  -4.8496   0.0000   0.0000   0.0000   0.2353
  12.500   0.8543   0.09585   0.09226  -0.0003  0.0202  1.0000  -4.7857   0.0000   0.0000   0.0000   0.2377
  12.600   0.8469   0.09915   0.09559  -0.0026  0.0202  1.0000  -4.7115   0.0000   0.0000   0.0000   0.2403
  12.700   0.8395   0.10272   0.09920  -0.0051  0.0202  1.0000  -4.6253   0.0000   0.0000   0.0000   0.2433
  12.800   0.8318   0.10670   0.10320  -0.0078  0.0202  1.0000  -4.5149   0.0000   0.0000   0.0000   0.2465
  12.900   0.8232   0.11143   0.10796  -0.0108  0.0205  1.0000  -4.3560   0.0000   0.0000   0.0000   0.2503
  13.000   0.8102   0.11886   0.11540  -0.0150  0.0211  1.0000  -4.0294   0.0000   0.0000   0.0000   0.2560
  13.100   0.7974   0.12639   0.12290  -0.0189  0.0224  1.0000  -3.6648   0.0000   0.0000   0.0000   0.2614
  13.200   0.7908   0.13095   0.12743  -0.0211  0.0234  1.0000  -3.4774   0.0000   0.0000   0.0000   0.2644
  13.300   0.7863   0.13461   0.13107  -0.0228  0.0244  1.0000  -3.3458   0.0000   0.0000   0.0000   0.2667
  13.400   0.7831   0.13778   0.13422  -0.0242  0.0255  1.0000  -3.2452   0.0000   0.0000   0.0000   0.2686
  13.500   0.7808   0.14063   0.13706  -0.0254  0.0265  1.0000  -3.1658   0.0000   0.0000   0.0000   0.2702
  13.600   0.7789   0.14324   0.13966  -0.0264  0.0277  1.0000  -3.1023   0.0000   0.0000   0.0000   0.2715
  13.700   0.7768   0.14574   0.14214  -0.0272  0.0291  1.0000  -3.0492   0.0000   0.0000   0.0000   0.2726
  13.800   0.7756   0.15092   0.14733  -0.0295  0.0378  1.0000  -2.7698   0.0000   0.0000   0.0000   0.2758
  13.900   0.7753   0.15311   0.14952  -0.0305  0.0378  1.0000  -2.7364   0.0000   0.0000   0.0000   0.2770
  14.000   0.7755   0.15517   0.15157  -0.0314  0.0377  1.0000  -2.7116   0.0000   0.0000   0.0000   0.2781
  14.100   0.7760   0.15711   0.15350  -0.0323  0.0375  1.0000  -2.6937   0.0000   0.0000   0.0000   0.2791
  14.200   0.7768   0.15895   0.15534  -0.0330  0.0372  1.0000  -2.6817   0.0000   0.0000   0.0000   0.2799
  14.300   0.7779   0.16072   0.15710  -0.0337  0.0369  1.0000  -2.6752   0.0000   0.0000   0.0000   0.2806
  14.400   0.7792   0.16240   0.15878  -0.0343  0.0366  1.0000  -2.6739   0.0000   0.0000   0.0000   0.2813
  14.500   0.7807   0.16403   0.16041  -0.0349  0.0362  1.0000  -2.6761   0.0000   0.0000   0.0000   0.2818
  14.600   0.7824   0.16561   0.16198  -0.0354  0.0358  1.0000  -2.6827   0.0000   0.0000   0.0000   0.2823
  14.700   0.7843   0.16713   0.16350  -0.0359  0.0355  1.0000  -2.6938   0.0000   0.0000   0.0000   0.2826
  14.800   0.7864   0.16860   0.16498  -0.0363  0.0351  1.0000  -2.7096   0.0000   0.0000   0.0000   0.2828
  14.900   0.7887   0.17002   0.16640  -0.0366  0.0347  1.0000  -2.7300   0.0000   0.0000   0.0000   0.2829
  15.000   0.7913   0.17140   0.16778  -0.0367  0.0343  1.0000  -2.7550   0.0000   0.0000   0.0000   0.2829
  15.100   0.7932   0.17293   0.16932  -0.0370  0.0339  1.0000  -2.7711   0.0000   0.0000   0.0000   0.2830
  15.200   0.7937   0.17480   0.17118  -0.0376  0.0334  1.0000  -2.7675   0.0000   0.0000   0.0000   0.2835
  15.300   0.7925   0.17739   0.17377  -0.0382  0.0329  1.0000  -2.7357   0.0000   0.0000   0.0000   0.2844
  15.400   0.7836   0.18320   0.17950  -0.0400  0.0320  1.0000  -2.5589   0.0000   0.0000   0.0000   0.2872
  15.500   0.7852   0.18508   0.18138  -0.0408  0.0320  1.0000  -2.5389   0.0000   0.0000   0.0000   0.2881
  15.600   0.7867   0.18696   0.18326  -0.0417  0.0319  1.0000  -2.5193   0.0000   0.0000   0.0000   0.2890
  15.700   0.7883   0.18884   0.18513  -0.0425  0.0319  1.0000  -2.5001   0.0000   0.0000   0.0000   0.2899
  15.800   0.7899   0.19071   0.18700  -0.0434  0.0319  1.0000  -2.4812   0.0000   0.0000   0.0000   0.2907
  15.900   0.7916   0.19258   0.18886  -0.0442  0.0319  1.0000  -2.4627   0.0000   0.0000   0.0000   0.2916
  16.000   0.7933   0.19444   0.19072  -0.0451  0.0319  1.0000  -2.4444   0.0000   0.0000   0.0000   0.2924
  16.100   0.7950   0.19629   0.19257  -0.0459  0.0318  1.0000  -2.4265   0.0000   0.0000   0.0000   0.2933
  16.200   0.7968   0.19813   0.19440  -0.0467  0.0318  1.0000  -2.4088   0.0000   0.0000   0.0000   0.2941
  16.300   0.7986   0.19996   0.19623  -0.0476  0.0318  1.0000  -2.3914   0.0000   0.0000   0.0000   0.2949
  16.400   0.8004   0.20177   0.19804  -0.0484  0.0317  1.0000  -2.3743   0.0000   0.0000   0.0000   0.2958
  16.500   0.8022   0.20356   0.19983  -0.0493  0.0317  1.0000  -2.3575   0.0000   0.0000   0.0000   0.2966
  16.600   0.8041   0.20532   0.20159  -0.0502  0.0316  1.0000  -2.3409   0.0000   0.0000   0.0000   0.2974
  16.700   0.8060   0.20706   0.20332  -0.0510  0.0316  1.0000  -2.3247   0.0000   0.0000   0.0000   0.2982
  16.800   0.8079   0.20874   0.20500  -0.0519  0.0315  1.0000  -2.3087   0.0000   0.0000   0.0000   0.2991
  16.900   0.8099   0.21036   0.20662  -0.0528  0.0314  1.0000  -2.2930   0.0000   0.0000   0.0000   0.2999
  17.000   0.8120   0.21189   0.20814  -0.0538  0.0312  1.0000  -2.2776   0.0000   0.0000   0.0000   0.3008
  17.100   0.8142   0.21327   0.20952  -0.0548  0.0310  1.0000  -2.2619   0.0000   0.0000   0.0000   0.3018
  17.200   0.8160   0.21452   0.21077  -0.0560  0.0306  1.0000  -2.2371   0.0000   0.0000   0.0000   0.3030
  17.300   0.8170   0.21581   0.21205  -0.0574  0.0300  1.0000  -2.2012   0.0000   0.0000   0.0000   0.3046
  17.400   0.8181   0.21729   0.21352  -0.0588  0.0294  1.0000  -2.1655   0.0000   0.0000   0.0000   0.3060
  17.500   0.8197   0.21896   0.21518  -0.0600  0.0287  1.0000  -2.1362   0.0000   0.0000   0.0000   0.3072
  17.600   0.8214   0.22072   0.21694  -0.0610  0.0281  1.0000  -2.1132   0.0000   0.0000   0.0000   0.3082
  17.700   0.8233   0.22251   0.21873  -0.0619  0.0275  1.0000  -2.0946   0.0000   0.0000   0.0000   0.3091
  17.800   0.8253   0.22432   0.22054  -0.0628  0.0269  1.0000  -2.0792   0.0000   0.0000   0.0000   0.3098
  17.900   0.8272   0.22614   0.22236  -0.0636  0.0264  1.0000  -2.0662   0.0000   0.0000   0.0000   0.3105
  18.000   0.8292   0.22796   0.22418  -0.0644  0.0259  1.0000  -2.0550   0.0000   0.0000   0.0000   0.3112
  18.100   0.8312   0.22978   0.22599  -0.0652  0.0254  1.0000  -2.0454   0.0000   0.0000   0.0000   0.3118
  18.200   0.8333   0.23159   0.22781  -0.0659  0.0249  1.0000  -2.0371   0.0000   0.0000   0.0000   0.3124
  18.300   0.8353   0.23340   0.22962  -0.0667  0.0245  1.0000  -2.0301   0.0000   0.0000   0.0000   0.3130
  18.400   0.8374   0.23521   0.23143  -0.0674  0.0240  1.0000  -2.0246   0.0000   0.0000   0.0000   0.3135
  18.500   0.8394   0.23701   0.23323  -0.0681  0.0236  1.0000  -2.0206   0.0000   0.0000   0.0000   0.3140
  18.600   0.8415   0.23879   0.23502  -0.0688  0.0231  1.0000  -2.0182   0.0000   0.0000   0.0000   0.3145
  18.700   0.8436   0.24057   0.23679  -0.0695  0.0227  1.0000  -2.0177   0.0000   0.0000   0.0000   0.3150
  18.800   0.8458   0.24234   0.23856  -0.0702  0.0223  1.0000  -2.0191   0.0000   0.0000   0.0000   0.3154
  18.900   0.8479   0.24409   0.24031  -0.0708  0.0219  1.0000  -2.0229   0.0000   0.0000   0.0000   0.3159
  19.000   0.8501   0.24582   0.24205  -0.0714  0.0214  1.0000  -2.0293   0.0000   0.0000   0.0000   0.3162
  19.100   0.8523   0.24753   0.24377  -0.0720  0.0210  1.0000  -2.0387   0.0000   0.0000   0.0000   0.3166
  19.200   0.8546   0.24923   0.24546  -0.0726  0.0206  1.0000  -2.0518   0.0000   0.0000   0.0000   0.3168
  19.300   0.8570   0.25091   0.24726  -0.0731  0.0202  1.0000  -2.0702   0.0000   0.0000   0.0000   0.3170
  19.400   0.8594   0.25257   0.24893  -0.0735  0.0199  1.0000  -2.0930   0.0000   0.0000   0.0000   0.3171
  19.500   0.8620   0.25423   0.25060  -0.0738  0.0195  1.0000  -2.1227   0.0000   0.0000   0.0000   0.3171
  19.600   0.8648   0.25592   0.25230  -0.0740  0.0191  1.0000  -2.1607   0.0000   0.0000   0.0000   0.3169
  19.700   0.8680   0.25773   0.25412  -0.0741  0.0188  1.0000  -2.2091   0.0000   0.0000   0.0000   0.3164
  19.800   0.8716   0.25993   0.25634  -0.0738  0.0184  1.0000  -2.2656   0.0000   0.0000   0.0000   0.3156
  19.900   0.8732   0.26282   0.25924  -0.0740  0.0180  1.0000  -2.2727   0.0000   0.0000   0.0000   0.3156
  20.000   0.8691   0.26991   0.26631  -0.0748  0.0173  1.0000  -2.1214   0.0000   0.0000   0.0000   0.3169


