xflr5 v6.61

 Calculated polar for: MH 22

 1 1 Reynolds number fixed          Mach number fixed         

 xtrf =   1.000 (top)        1.000 (bottom)
 Mach =   0.000     Re =     0.563 e 6     Ncrit =   9.000

  alpha     CL        CD       CDp       Cm    Top Xtr Bot Xtr   Cpmin    Chinge    XCp    
 ------- -------- --------- --------- -------- ------- ------- -------- --------- ---------
 -10.000  -0.5625   0.11793   0.11590   0.0211  1.0000  0.0084  -2.0519   0.0000   0.0000   0.0000   0.2841
  -9.900  -0.5607   0.11646   0.11443   0.0204  1.0000  0.0085  -2.0504   0.0000   0.0000   0.0000   0.2831
  -9.800  -0.5589   0.11499   0.11296   0.0198  1.0000  0.0086  -2.0497   0.0000   0.0000   0.0000   0.2821
  -9.700  -0.5572   0.11352   0.11150   0.0191  1.0000  0.0087  -2.0500   0.0000   0.0000   0.0000   0.2811
  -9.600  -0.5555   0.11204   0.11003   0.0184  1.0000  0.0088  -2.0511   0.0000   0.0000   0.0000   0.2800
  -9.500  -0.5540   0.11057   0.10856   0.0178  1.0000  0.0089  -2.0531   0.0000   0.0000   0.0000   0.2790
  -9.400  -0.5525   0.10910   0.10709   0.0171  1.0000  0.0090  -2.0560   0.0000   0.0000   0.0000   0.2779
  -9.300  -0.5511   0.10763   0.10563   0.0164  1.0000  0.0091  -2.0597   0.0000   0.0000   0.0000   0.2768
  -9.200  -0.5497   0.10616   0.10417   0.0158  1.0000  0.0092  -2.0642   0.0000   0.0000   0.0000   0.2757
  -9.100  -0.5484   0.10469   0.10270   0.0151  1.0000  0.0093  -2.0695   0.0000   0.0000   0.0000   0.2746
  -9.000  -0.5471   0.10320   0.10122   0.0143  1.0000  0.0094  -2.0752   0.0000   0.0000   0.0000   0.2734
  -8.900  -0.5457   0.10169   0.09972   0.0136  1.0000  0.0095  -2.0817   0.0000   0.0000   0.0000   0.2721
  -8.800  -0.5444   0.10018   0.09822   0.0129  1.0000  0.0096  -2.0889   0.0000   0.0000   0.0000   0.2709
  -8.700  -0.5431   0.09867   0.09671   0.0121  1.0000  0.0097  -2.0971   0.0000   0.0000   0.0000   0.2696
  -8.600  -0.5420   0.09716   0.09521   0.0113  1.0000  0.0098  -2.1060   0.0000   0.0000   0.0000   0.2682
  -8.500  -0.5409   0.09564   0.09370   0.0105  1.0000  0.0099  -2.1158   0.0000   0.0000   0.0000   0.2669
  -8.400  -0.5400   0.09413   0.09220   0.0097  1.0000  0.0101  -2.1265   0.0000   0.0000   0.0000   0.2655
  -8.300  -0.5391   0.09262   0.09070   0.0089  1.0000  0.0102  -2.1381   0.0000   0.0000   0.0000   0.2641
  -8.200  -0.5383   0.09110   0.08919   0.0081  1.0000  0.0103  -2.1505   0.0000   0.0000   0.0000   0.2626
  -8.100  -0.5376   0.08956   0.08766   0.0072  1.0000  0.0104  -2.1638   0.0000   0.0000   0.0000   0.2611
  -8.000  -0.5370   0.08802   0.08613   0.0064  1.0000  0.0105  -2.1780   0.0000   0.0000   0.0000   0.2595
  -7.900  -0.5366   0.08648   0.08460   0.0055  1.0000  0.0106  -2.1935   0.0000   0.0000   0.0000   0.2579
  -7.800  -0.5363   0.08494   0.08307   0.0045  1.0000  0.0107  -2.2101   0.0000   0.0000   0.0000   0.2562
  -7.700  -0.5363   0.08339   0.08153   0.0035  1.0000  0.0107  -2.2280   0.0000   0.0000   0.0000   0.2544
  -7.600  -0.5366   0.08184   0.07999   0.0025  1.0000  0.0108  -2.2475   0.0000   0.0000   0.0000   0.2525
  -7.500  -0.5373   0.08027   0.07845   0.0014  1.0000  0.0109  -2.2690   0.0000   0.0000   0.0000   0.2505
  -7.400  -0.5378   0.07864   0.07683  -0.0000  1.0000  0.0109  -2.2923   0.0000   0.0000   0.0000   0.2480
  -7.300  -0.5364   0.07678   0.07497  -0.0020  1.0000  0.0110  -2.3162   0.0000   0.0000   0.0000   0.2444
  -7.200  -0.5344   0.07484   0.07304  -0.0040  1.0000  0.0111  -2.3407   0.0000   0.0000   0.0000   0.2407
  -7.100  -0.5319   0.07285   0.07104  -0.0060  1.0000  0.0112  -2.3657   0.0000   0.0000   0.0000   0.2368
  -7.000  -0.5289   0.07080   0.06899  -0.0081  1.0000  0.0113  -2.3914   0.0000   0.0000   0.0000   0.2329
  -6.900  -0.5255   0.06871   0.06689  -0.0102  1.0000  0.0115  -2.4176   0.0000   0.0000   0.0000   0.2290
  -6.800  -0.5217   0.06659   0.06475  -0.0121  1.0000  0.0116  -2.4444   0.0000   0.0000   0.0000   0.2250
  -6.700  -0.5174   0.06444   0.06258  -0.0141  1.0000  0.0118  -2.4716   0.0000   0.0000   0.0000   0.2211
  -6.600  -0.5127   0.06227   0.06039  -0.0159  1.0000  0.0119  -2.4991   0.0000   0.0000   0.0000   0.2173
  -6.500  -0.5077   0.06010   0.05819  -0.0176  1.0000  0.0121  -2.5262   0.0000   0.0000   0.0000   0.2137
  -6.400  -0.5022   0.05793   0.05598  -0.0192  1.0000  0.0124  -2.5531   0.0000   0.0000   0.0000   0.2102
  -6.300  -0.4964   0.05576   0.05378  -0.0206  1.0000  0.0126  -2.5802   0.0000   0.0000   0.0000   0.2069
  -6.200  -0.4902   0.05362   0.05159  -0.0219  1.0000  0.0129  -2.6071   0.0000   0.0000   0.0000   0.2038
  -6.100  -0.4836   0.05150   0.04941  -0.0230  1.0000  0.0132  -2.6343   0.0000   0.0000   0.0000   0.2008
  -6.000  -0.4766   0.04942   0.04720  -0.0240  1.0000  0.0136  -2.6614   0.0000   0.0000   0.0000   0.1981
  -5.900  -0.4691   0.04742   0.04514  -0.0247  1.0000  0.0140  -2.6861   0.0000   0.0000   0.0000   0.1956
  -5.800  -0.4607   0.04572   0.04338  -0.0253  1.0000  0.0146  -2.6952   0.0000   0.0000   0.0000   0.1935
  -5.700  -0.4475   0.04544   0.04306  -0.0252  1.0000  0.0159  -2.6282   0.0000   0.0000   0.0000   0.1920
  -5.600  -0.4357   0.04492   0.04248  -0.0252  1.0000  0.0165  -2.5769   0.0000   0.0000   0.0000   0.1904
  -5.500  -0.4278   0.04339   0.04087  -0.0255  1.0000  0.0166  -2.5816   0.0000   0.0000   0.0000   0.1887
  -5.400  -0.4203   0.04180   0.03919  -0.0257  1.0000  0.0166  -2.5902   0.0000   0.0000   0.0000   0.1870
  -5.300  -0.4128   0.04020   0.03750  -0.0259  1.0000  0.0167  -2.5992   0.0000   0.0000   0.0000   0.1855
  -5.200  -0.4054   0.03863   0.03583  -0.0260  1.0000  0.0167  -2.6068   0.0000   0.0000   0.0000   0.1841
  -5.100  -0.3979   0.03709   0.03419  -0.0260  1.0000  0.0167  -2.6135   0.0000   0.0000   0.0000   0.1829
  -5.000  -0.3903   0.03558   0.03258  -0.0259  1.0000  0.0168  -2.6185   0.0000   0.0000   0.0000   0.1817
  -4.900  -0.3827   0.03411   0.03100  -0.0258  1.0000  0.0168  -2.6214   0.0000   0.0000   0.0000   0.1806
  -4.800  -0.3750   0.03267   0.02945  -0.0257  1.0000  0.0168  -2.6230   0.0000   0.0000   0.0000   0.1796
  -4.700  -0.3672   0.03127   0.02793  -0.0255  1.0000  0.0168  -2.6234   0.0000   0.0000   0.0000   0.1787
  -4.300  -0.3330   0.02007   0.01588  -0.0262  0.9778  0.0136  -3.0350   0.0000   0.0000   0.0000   0.1693
  -4.200  -0.3198   0.01539   0.01053  -0.0254  0.9654  0.0084  -3.6852   0.0000   0.0000   0.0000   0.1683
  -4.000  -0.2905   0.01378   0.00858  -0.0261  0.9345  0.0073  -3.6787   0.0000   0.0000   0.0000   0.1577
  -3.900  -0.2793   0.01325   0.00793  -0.0259  0.9174  0.0071  -3.6281   0.0000   0.0000   0.0000   0.1551
  -3.800  -0.2698   0.01273   0.00729  -0.0252  0.8996  0.0071  -3.5870   0.0000   0.0000   0.0000   0.1542
  -3.700  -0.2606   0.01220   0.00664  -0.0246  0.8848  0.0071  -3.5510   0.0000   0.0000   0.0000   0.1534
  -3.600  -0.2515   0.01168   0.00599  -0.0239  0.8704  0.0072  -3.5157   0.0000   0.0000   0.0000   0.1526
  -3.500  -0.2428   0.01109   0.00526  -0.0232  0.8573  0.0077  -3.4855   0.0000   0.0000   0.0000   0.1522
  -3.400  -0.2332   0.01065   0.00474  -0.0228  0.8472  0.0085  -3.4095   0.0000   0.0000   0.0000   0.1500
  -3.300  -0.2234   0.01034   0.00435  -0.0223  0.8368  0.0091  -3.3162   0.0000   0.0000   0.0000   0.1477
  -3.200  -0.2136   0.01005   0.00396  -0.0218  0.8265  0.0094  -3.2395   0.0000   0.0000   0.0000   0.1455
  -3.100  -0.2036   0.00979   0.00359  -0.0214  0.8169  0.0096  -3.1594   0.0000   0.0000   0.0000   0.1426
  -3.000  -0.1931   0.00954   0.00326  -0.0211  0.8103  0.0100  -3.0713   0.0000   0.0000   0.0000   0.1384
  -2.900  -0.1826   0.00932   0.00296  -0.0208  0.8031  0.0107  -2.9800   0.0000   0.0000   0.0000   0.1337
  -2.800  -0.1720   0.00914   0.00270  -0.0205  0.7959  0.0119  -2.8884   0.0000   0.0000   0.0000   0.1285
  -2.700  -0.1615   0.00898   0.00245  -0.0202  0.7889  0.0143  -2.8037   0.0000   0.0000   0.0000   0.1228
  -2.600  -0.1520   0.00852   0.00215  -0.0197  0.7815  0.0605  -2.7746   0.0000   0.0000   0.0000   0.1177
  -2.500  -0.1422   0.00827   0.00206  -0.0196  0.7744  0.0983  -2.6266   0.0000   0.0000   0.0000   0.1098
  -2.400  -0.1318   0.00806   0.00197  -0.0195  0.7708  0.1297  -2.4780   0.0000   0.0000   0.0000   0.0995
  -2.300  -0.1213   0.00790   0.00191  -0.0194  0.7664  0.1591  -2.3381   0.0000   0.0000   0.0000   0.0875
  -2.200  -0.1110   0.00774   0.00184  -0.0193  0.7617  0.1921  -2.1973   0.0000   0.0000   0.0000   0.0735
  -2.100  -0.1007   0.00759   0.00177  -0.0192  0.7570  0.2209  -2.0580   0.0000   0.0000   0.0000   0.0567
  -2.000  -0.0903   0.00746   0.00168  -0.0191  0.7523  0.2498  -1.9223   0.0000   0.0000   0.0000   0.0360
  -1.900  -0.0799   0.00734   0.00162  -0.0189  0.7478  0.2815  -1.7841   0.0000   0.0000   0.0000   0.0101
  -1.700  -0.0599   0.00700   0.00152  -0.0186  0.7381  0.3715  -1.5189   0.0000   0.0000   0.0000  -0.0639
  -1.600  -0.0504   0.00678   0.00148  -0.0184  0.7325  0.4346  -1.3928   0.0000   0.0000   0.0000  -0.1185
  -1.500  -0.0413   0.00650   0.00145  -0.0181  0.7284  0.5126  -1.2716   0.0000   0.0000   0.0000  -0.1917
  -1.400  -0.0324   0.00621   0.00141  -0.0176  0.7263  0.5900  -1.1536   0.0000   0.0000   0.0000  -0.3002
  -1.300  -0.0238   0.00593   0.00139  -0.0171  0.7238  0.6633  -1.0402   0.0000   0.0000   0.0000  -0.4720
  -1.200  -0.0152   0.00571   0.00137  -0.0165  0.7210  0.7273  -0.9284   0.0000   0.0000   0.0000  -0.8399
  -1.100  -0.0071   0.00548   0.00135  -0.0156  0.7178  0.7910  -0.8214   0.0000   0.0000   0.0000  -1.9711
  -1.000   0.0019   0.00529   0.00135  -0.0149  0.7145  0.8578  -0.7111   0.0000   0.0000   0.0000   8.1936
  -0.900   0.0218   0.00520   0.00136  -0.0165  0.7113  0.9262  -0.5470   0.0000   0.0000   0.0000   1.0079
  -0.800   0.0528   0.00522   0.00136  -0.0206  0.7081  0.9655  -0.4621   0.0000   0.0000   0.0000   0.6420
  -0.700   0.0712   0.00526   0.00134  -0.0222  0.7046  0.9797  -0.4203   0.0000   0.0000   0.0000   0.5615
  -0.600   0.0874   0.00529   0.00133  -0.0232  0.7007  0.9883  -0.3823   0.0000   0.0000   0.0000   0.5156
  -0.500   0.1067   0.00531   0.00129  -0.0250  0.6961  0.9935  -0.3707   0.0000   0.0000   0.0000   0.4841
  -0.400   0.1280   0.00534   0.00125  -0.0272  0.6905  0.9993  -0.3846   0.0000   0.0000   0.0000   0.4625
  -0.300   0.1401   0.00538   0.00123  -0.0275  0.6846  1.0000  -0.3939   0.0000   0.0000   0.0000   0.4456
  -0.200   0.1506   0.00540   0.00122  -0.0273  0.6804  1.0000  -0.4024   0.0000   0.0000   0.0000   0.4309
  -0.100   0.1612   0.00540   0.00120  -0.0272  0.6789  1.0000  -0.4118   0.0000   0.0000   0.0000   0.4181
   0.000   0.1717   0.00540   0.00118  -0.0270  0.6773  1.0000  -0.4217   0.0000   0.0000   0.0000   0.4069
   0.100   0.1823   0.00540   0.00117  -0.0269  0.6753  1.0000  -0.4315   0.0000   0.0000   0.0000   0.3969
   0.200   0.1928   0.00540   0.00116  -0.0267  0.6732  1.0000  -0.4414   0.0000   0.0000   0.0000   0.3880
   0.300   0.2034   0.00540   0.00115  -0.0266  0.6707  1.0000  -0.4513   0.0000   0.0000   0.0000   0.3801
   0.400   0.2139   0.00541   0.00114  -0.0265  0.6679  1.0000  -0.4613   0.0000   0.0000   0.0000   0.3729
   0.500   0.2244   0.00542   0.00113  -0.0263  0.6645  1.0000  -0.4712   0.0000   0.0000   0.0000   0.3663
   0.600   0.2349   0.00544   0.00112  -0.0261  0.6607  1.0000  -0.4812   0.0000   0.0000   0.0000   0.3604
   0.700   0.2453   0.00546   0.00112  -0.0260  0.6566  1.0000  -0.4912   0.0000   0.0000   0.0000   0.3549
   0.800   0.2557   0.00548   0.00111  -0.0258  0.6522  1.0000  -0.5021   0.0000   0.0000   0.0000   0.3498
   0.900   0.2661   0.00551   0.00111  -0.0256  0.6476  1.0000  -0.5137   0.0000   0.0000   0.0000   0.3451
   1.000   0.2765   0.00555   0.00111  -0.0254  0.6427  1.0000  -0.5252   0.0000   0.0000   0.0000   0.3408
   1.100   0.2870   0.00559   0.00112  -0.0253  0.6376  1.0000  -0.5368   0.0000   0.0000   0.0000   0.3369
   1.200   0.2975   0.00565   0.00115  -0.0251  0.6323  1.0000  -0.5485   0.0000   0.0000   0.0000   0.3333
   1.300   0.3081   0.00566   0.00115  -0.0250  0.6301  1.0000  -0.5603   0.0000   0.0000   0.0000   0.3299
   1.400   0.3188   0.00565   0.00116  -0.0249  0.6283  1.0000  -0.5732   0.0000   0.0000   0.0000   0.3267
   1.500   0.3294   0.00565   0.00117  -0.0247  0.6259  1.0000  -0.5871   0.0000   0.0000   0.0000   0.3238
   1.600   0.3401   0.00566   0.00117  -0.0246  0.6228  1.0000  -0.6011   0.0000   0.0000   0.0000   0.3210
   1.700   0.3507   0.00566   0.00119  -0.0245  0.6188  1.0000  -0.6150   0.0000   0.0000   0.0000   0.3183
   1.800   0.3612   0.00568   0.00119  -0.0243  0.6143  1.0000  -0.6290   0.0000   0.0000   0.0000   0.3158
   1.900   0.3718   0.00570   0.00120  -0.0241  0.6095  1.0000  -0.6452   0.0000   0.0000   0.0000   0.3134
   2.000   0.3823   0.00572   0.00121  -0.0240  0.6047  1.0000  -0.6618   0.0000   0.0000   0.0000   0.3112
   2.100   0.3927   0.00576   0.00122  -0.0238  0.5990  1.0000  -0.6784   0.0000   0.0000   0.0000   0.3090
   2.200   0.4030   0.00580   0.00124  -0.0236  0.5921  1.0000  -0.6950   0.0000   0.0000   0.0000   0.3069
   2.300   0.4134   0.00587   0.00126  -0.0234  0.5836  1.0000  -0.7116   0.0000   0.0000   0.0000   0.3050
   2.400   0.4240   0.00589   0.00129  -0.0233  0.5790  1.0000  -0.7288   0.0000   0.0000   0.0000   0.3032
   2.500   0.4347   0.00589   0.00131  -0.0232  0.5756  1.0000  -0.7495   0.0000   0.0000   0.0000   0.3015
   2.600   0.4454   0.00590   0.00134  -0.0231  0.5709  1.0000  -0.7703   0.0000   0.0000   0.0000   0.2999
   2.700   0.4560   0.00592   0.00136  -0.0229  0.5643  1.0000  -0.7911   0.0000   0.0000   0.0000   0.2983
   2.800   0.4664   0.00596   0.00137  -0.0227  0.5557  1.0000  -0.8119   0.0000   0.0000   0.0000   0.2967
   2.900   0.4767   0.00601   0.00139  -0.0225  0.5453  1.0000  -0.8363   0.0000   0.0000   0.0000   0.2952
   3.000   0.4869   0.00609   0.00141  -0.0223  0.5331  1.0000  -0.8619   0.0000   0.0000   0.0000   0.2937
   3.100   0.4974   0.00612   0.00145  -0.0222  0.5266  1.0000  -0.8885   0.0000   0.0000   0.0000   0.2924
   3.200   0.5080   0.00616   0.00148  -0.0221  0.5195  1.0000  -0.9229   0.0000   0.0000   0.0000   0.2912
   3.300   0.5185   0.00621   0.00151  -0.0219  0.5089  1.0000  -0.9641   0.0000   0.0000   0.0000   0.2899
   3.400   0.5286   0.00629   0.00156  -0.0217  0.4951  1.0000  -1.0127   0.0000   0.0000   0.0000   0.2886
   3.500   0.5387   0.00639   0.00160  -0.0215  0.4795  1.0000  -1.0745   0.0000   0.0000   0.0000   0.2874
   3.600   0.5492   0.00644   0.00165  -0.0213  0.4712  1.0000  -1.2074   0.0000   0.0000   0.0000   0.2863
   3.700   0.5596   0.00651   0.00170  -0.0212  0.4615  1.0000  -1.3432   0.0000   0.0000   0.0000   0.2853
   3.800   0.5697   0.00661   0.00176  -0.0210  0.4491  1.0000  -1.4811   0.0000   0.0000   0.0000   0.2842
   3.900   0.5797   0.00674   0.00183  -0.0208  0.4324  1.0000  -1.6211   0.0000   0.0000   0.0000   0.2831
   4.000   0.5902   0.00680   0.00189  -0.0207  0.4233  1.0000  -1.7681   0.0000   0.0000   0.0000   0.2822
   4.100   0.6004   0.00689   0.00196  -0.0205  0.4102  1.0000  -1.9171   0.0000   0.0000   0.0000   0.2812
   4.200   0.6103   0.00704   0.00204  -0.0203  0.3942  1.0000  -2.0670   0.0000   0.0000   0.0000   0.2803
   4.300   0.6204   0.00716   0.00214  -0.0201  0.3797  1.0000  -2.2200   0.0000   0.0000   0.0000   0.2794
   4.400   0.6308   0.00723   0.00221  -0.0200  0.3706  1.0000  -2.3800   0.0000   0.0000   0.0000   0.2786
   4.500   0.6407   0.00739   0.00230  -0.0198  0.3524  1.0000  -2.5392   0.0000   0.0000   0.0000   0.2777
   4.600   0.6504   0.00757   0.00240  -0.0196  0.3293  1.0000  -2.7002   0.0000   0.0000   0.0000   0.2769
   4.700   0.6600   0.00777   0.00250  -0.0194  0.3057  1.0000  -2.8638   0.0000   0.0000   0.0000   0.2760
   4.800   0.6698   0.00796   0.00262  -0.0192  0.2844  1.0000  -3.0302   0.0000   0.0000   0.0000   0.2752
   4.900   0.6798   0.00811   0.00272  -0.0190  0.2686  1.0000  -3.2013   0.0000   0.0000   0.0000   0.2745
   5.000   0.6893   0.00833   0.00286  -0.0188  0.2457  1.0000  -3.3702   0.0000   0.0000   0.0000   0.2737
   5.100   0.6993   0.00849   0.00298  -0.0187  0.2303  1.0000  -3.5452   0.0000   0.0000   0.0000   0.2730
   5.200   0.7086   0.00876   0.00313  -0.0185  0.2039  1.0000  -3.7146   0.0000   0.0000   0.0000   0.2723
   5.300   0.7176   0.00909   0.00335  -0.0182  0.1737  1.0000  -3.8845   0.0000   0.0000   0.0000   0.2716
   5.400   0.7259   0.00955   0.00358  -0.0180  0.1304  1.0000  -4.0460   0.0000   0.0000   0.0000   0.2709
   5.500   0.7338   0.01007   0.00386  -0.0177  0.0873  1.0000  -4.1995   0.0000   0.0000   0.0000   0.2701
   5.600   0.7415   0.01067   0.00421  -0.0174  0.0466  1.0000  -4.3395   0.0000   0.0000   0.0000   0.2693
   5.700   0.7490   0.01136   0.00472  -0.0168  0.0172  1.0000  -4.3967   0.0000   0.0000   0.0000   0.2683
   5.800   0.7582   0.01174   0.00509  -0.0165  0.0111  1.0000  -4.5134   0.0000   0.0000   0.0000   0.2675
   6.000   0.7734   0.01331   0.00699  -0.0150  0.0070  1.0000  -4.4787   0.0000   0.0000   0.0000   0.2649
   6.100   0.7827   0.01364   0.00737  -0.0146  0.0067  1.0000  -4.6171   0.0000   0.0000   0.0000   0.2642
   6.200   0.7915   0.01406   0.00786  -0.0142  0.0065  1.0000  -4.7365   0.0000   0.0000   0.0000   0.2633
   6.300   0.8000   0.01456   0.00842  -0.0137  0.0063  1.0000  -4.8429   0.0000   0.0000   0.0000   0.2624
   6.400   0.8082   0.01511   0.00904  -0.0132  0.0062  1.0000  -4.9392   0.0000   0.0000   0.0000   0.2615
   6.500   0.8163   0.01572   0.00972  -0.0126  0.0061  1.0000  -5.0269   0.0000   0.0000   0.0000   0.2606
   6.600   0.8245   0.01632   0.01039  -0.0121  0.0059  1.0000  -5.1221   0.0000   0.0000   0.0000   0.2597
   6.700   0.8331   0.01684   0.01096  -0.0116  0.0057  1.0000  -5.2423   0.0000   0.0000   0.0000   0.2589
   6.800   0.8419   0.01728   0.01144  -0.0113  0.0054  1.0000  -5.3869   0.0000   0.0000   0.0000   0.2582
   6.900   0.8509   0.01767   0.01187  -0.0109  0.0050  1.0000  -5.5470   0.0000   0.0000   0.0000   0.2576
   7.000   0.8597   0.01810   0.01234  -0.0106  0.0047  1.0000  -5.7010   0.0000   0.0000   0.0000   0.2570
   7.100   0.8680   0.01875   0.01306  -0.0101  0.0046  1.0000  -5.7979   0.0000   0.0000   0.0000   0.2562
   7.200   0.8760   0.01954   0.01392  -0.0096  0.0045  1.0000  -5.8634   0.0000   0.0000   0.0000   0.2554
   7.300   0.8839   0.02039   0.01486  -0.0090  0.0044  1.0000  -5.9159   0.0000   0.0000   0.0000   0.2545
   7.400   0.8916   0.02133   0.01590  -0.0084  0.0044  1.0000  -5.9518   0.0000   0.0000   0.0000   0.2537
   7.500   0.8992   0.02238   0.01706  -0.0078  0.0044  1.0000  -5.9673   0.0000   0.0000   0.0000   0.2528
   7.600   0.9064   0.02358   0.01838  -0.0072  0.0044  1.0000  -5.9586   0.0000   0.0000   0.0000   0.2520
   7.700   0.9132   0.02495   0.01989  -0.0065  0.0045  1.0000  -5.9238   0.0000   0.0000   0.0000   0.2510
   7.800   0.9193   0.02649   0.02160  -0.0057  0.0047  1.0000  -5.8644   0.0000   0.0000   0.0000   0.2501
   7.900   0.9246   0.02820   0.02349  -0.0049  0.0049  1.0000  -5.7862   0.0000   0.0000   0.0000   0.2491
   8.000   0.9290   0.03007   0.02554  -0.0041  0.0051  1.0000  -5.6959   0.0000   0.0000   0.0000   0.2481
   8.100   0.9321   0.03208   0.02775  -0.0033  0.0055  1.0000  -5.5972   0.0000   0.0000   0.0000   0.2472
   8.200   0.9337   0.03428   0.03015  -0.0024  0.0058  1.0000  -5.4869   0.0000   0.0000   0.0000   0.2462
   8.300   0.9326   0.03688   0.03296  -0.0015  0.0062  1.0000  -5.3424   0.0000   0.0000   0.0000   0.2452
   8.500   0.9426   0.03986   0.03602  -0.0006  0.0079  1.0000  -5.3279   0.0000   0.0000   0.0000   0.2440
   8.600   0.9474   0.04077   0.03702  -0.0001  0.0080  1.0000  -5.3794   0.0000   0.0000   0.0000   0.2434
   8.700   0.9502   0.04203   0.03838   0.0004  0.0081  1.0000  -5.4007   0.0000   0.0000   0.0000   0.2427
   8.800   0.9517   0.04347   0.03993   0.0010  0.0081  1.0000  -5.4074   0.0000   0.0000   0.0000   0.2421
   8.900   0.9520   0.04502   0.04159   0.0015  0.0081  1.0000  -5.4051   0.0000   0.0000   0.0000   0.2414
   9.000   0.9511   0.04662   0.04330   0.0020  0.0080  1.0000  -5.3955   0.0000   0.0000   0.0000   0.2408
   9.100   0.9493   0.04827   0.04505   0.0025  0.0080  1.0000  -5.3793   0.0000   0.0000   0.0000   0.2402
   9.200   0.9464   0.04993   0.04680   0.0030  0.0079  1.0000  -5.3576   0.0000   0.0000   0.0000   0.2396
   9.300   0.9426   0.05157   0.04854   0.0035  0.0079  1.0000  -5.3321   0.0000   0.0000   0.0000   0.2390
   9.400   0.9379   0.05316   0.05020   0.0039  0.0078  1.0000  -5.3048   0.0000   0.0000   0.0000   0.2384
   9.500   0.9318   0.05449   0.05160   0.0047  0.0078  1.0000  -5.2805   0.0000   0.0000   0.0000   0.2375
   9.600   0.9252   0.05577   0.05295   0.0053  0.0078  1.0000  -5.2581   0.0000   0.0000   0.0000   0.2367
   9.700   0.9187   0.05711   0.05435   0.0054  0.0078  1.0000  -5.2361   0.0000   0.0000   0.0000   0.2364
   9.800   0.9124   0.05855   0.05584   0.0053  0.0078  1.0000  -5.2142   0.0000   0.0000   0.0000   0.2364
   9.900   0.9063   0.06009   0.05744   0.0048  0.0078  1.0000  -5.1921   0.0000   0.0000   0.0000   0.2368
  10.000   0.9003   0.06172   0.05911   0.0040  0.0078  1.0000  -5.1698   0.0000   0.0000   0.0000   0.2374
  10.100   0.8946   0.06347   0.06091   0.0030  0.0078  1.0000  -5.1468   0.0000   0.0000   0.0000   0.2384
  10.200   0.8891   0.06533   0.06283   0.0019  0.0078  1.0000  -5.1225   0.0000   0.0000   0.0000   0.2396
  10.300   0.8837   0.06730   0.06485   0.0005  0.0078  1.0000  -5.0971   0.0000   0.0000   0.0000   0.2409
  10.400   0.8784   0.06933   0.06692  -0.0009  0.0079  1.0000  -5.0709   0.0000   0.0000   0.0000   0.2425
  10.500   0.8732   0.07146   0.06909  -0.0025  0.0079  1.0000  -5.0423   0.0000   0.0000   0.0000   0.2442
  10.600   0.8681   0.07373   0.07141  -0.0043  0.0079  1.0000  -5.0112   0.0000   0.0000   0.0000   0.2461
  10.700   0.8632   0.07616   0.07389  -0.0062  0.0079  1.0000  -4.9760   0.0000   0.0000   0.0000   0.2483
  10.800   0.8585   0.07876   0.07652  -0.0083  0.0080  1.0000  -4.9358   0.0000   0.0000   0.0000   0.2507
  10.900   0.8538   0.08155   0.07936  -0.0107  0.0080  1.0000  -4.8889   0.0000   0.0000   0.0000   0.2534
  11.000   0.8492   0.08455   0.08240  -0.0131  0.0081  1.0000  -4.8331   0.0000   0.0000   0.0000   0.2562
  11.100   0.8447   0.08777   0.08565  -0.0156  0.0081  1.0000  -4.7664   0.0000   0.0000   0.0000   0.2592
  11.200   0.8401   0.09123   0.08915  -0.0182  0.0082  1.0000  -4.6859   0.0000   0.0000   0.0000   0.2624
  11.300   0.8355   0.09496   0.09290  -0.0209  0.0082  1.0000  -4.5882   0.0000   0.0000   0.0000   0.2657
  11.400   0.8311   0.09890   0.09687  -0.0234  0.0083  1.0000  -4.4722   0.0000   0.0000   0.0000   0.2689
  11.500   0.8270   0.10300   0.10099  -0.0258  0.0083  1.0000  -4.3382   0.0000   0.0000   0.0000   0.2719
  11.600   0.8233   0.10713   0.10513  -0.0278  0.0084  1.0000  -4.1885   0.0000   0.0000   0.0000   0.2745
  11.700   0.8201   0.11059   0.10858  -0.0293  0.0084  1.0000  -4.0730   0.0000   0.0000   0.0000   0.2766
  11.800   0.8174   0.11367   0.11165  -0.0308  0.0084  1.0000  -3.9797   0.0000   0.0000   0.0000   0.2784
  11.900   0.8150   0.11657   0.11455  -0.0321  0.0085  1.0000  -3.8980   0.0000   0.0000   0.0000   0.2802
  12.000   0.8129   0.11935   0.11732  -0.0334  0.0085  1.0000  -3.8244   0.0000   0.0000   0.0000   0.2818
  12.100   0.8111   0.12202   0.11999  -0.0347  0.0085  1.0000  -3.7572   0.0000   0.0000   0.0000   0.2834
  12.200   0.8095   0.12462   0.12257  -0.0359  0.0085  1.0000  -3.6954   0.0000   0.0000   0.0000   0.2849
  12.300   0.8082   0.12714   0.12509  -0.0370  0.0084  1.0000  -3.6384   0.0000   0.0000   0.0000   0.2864
  12.400   0.8071   0.12959   0.12753  -0.0381  0.0084  1.0000  -3.5857   0.0000   0.0000   0.0000   0.2878
  12.500   0.8062   0.13199   0.12992  -0.0392  0.0084  1.0000  -3.5369   0.0000   0.0000   0.0000   0.2892
  12.600   0.8055   0.13433   0.13226  -0.0403  0.0084  1.0000  -3.4914   0.0000   0.0000   0.0000   0.2905
  12.700   0.8050   0.13662   0.13455  -0.0413  0.0083  1.0000  -3.4490   0.0000   0.0000   0.0000   0.2917
  12.800   0.8046   0.13887   0.13680  -0.0424  0.0083  1.0000  -3.4091   0.0000   0.0000   0.0000   0.2930
  12.900   0.8043   0.14109   0.13901  -0.0434  0.0083  1.0000  -3.3714   0.0000   0.0000   0.0000   0.2942
  13.000   0.8041   0.14328   0.14120  -0.0443  0.0082  1.0000  -3.3352   0.0000   0.0000   0.0000   0.2953
  13.100   0.8040   0.14545   0.14336  -0.0453  0.0082  1.0000  -3.3001   0.0000   0.0000   0.0000   0.2965
  13.200   0.8040   0.14761   0.14551  -0.0463  0.0081  1.0000  -3.2653   0.0000   0.0000   0.0000   0.2976
  13.300   0.8041   0.14976   0.14766  -0.0472  0.0081  1.0000  -3.2300   0.0000   0.0000   0.0000   0.2987
  13.400   0.8041   0.15191   0.14981  -0.0482  0.0080  1.0000  -3.1932   0.0000   0.0000   0.0000   0.2998
  13.500   0.8041   0.15409   0.15198  -0.0492  0.0079  1.0000  -3.1535   0.0000   0.0000   0.0000   0.3010
  13.600   0.8041   0.15630   0.15418  -0.0501  0.0078  1.0000  -3.1092   0.0000   0.0000   0.0000   0.3021
  13.700   0.8039   0.15857   0.15645  -0.0511  0.0078  1.0000  -3.0582   0.0000   0.0000   0.0000   0.3033
  13.800   0.8035   0.16093   0.15881  -0.0521  0.0077  1.0000  -2.9971   0.0000   0.0000   0.0000   0.3045
  13.900   0.8028   0.16344   0.16132  -0.0532  0.0076  1.0000  -2.9207   0.0000   0.0000   0.0000   0.3058
  14.000   0.8016   0.16622   0.16409  -0.0543  0.0075  1.0000  -2.8184   0.0000   0.0000   0.0000   0.3073
  14.100   0.7987   0.16968   0.16753  -0.0557  0.0073  1.0000  -2.6524   0.0000   0.0000   0.0000   0.3093


