xflr5 v6.61

 Calculated polar for: MH 22

 1 1 Reynolds number fixed          Mach number fixed         

 xtrf =   1.000 (top)        1.000 (bottom)
 Mach =   0.000     Re =     0.160 e 6     Ncrit =   9.000

  alpha     CL        CD       CDp       Cm    Top Xtr Bot Xtr   Cpmin    Chinge    XCp    
 ------- -------- --------- --------- -------- ------- ------- -------- --------- ---------
 -10.000  -0.5592   0.12856   0.12483   0.0148  1.0000  0.0325  -1.9442   0.0000   0.0000   0.0000   0.2734
  -9.900  -0.5599   0.12581   0.12214   0.0139  1.0000  0.0327  -1.9938   0.0000   0.0000   0.0000   0.2717
  -9.800  -0.5640   0.12155   0.11791   0.0131  1.0000  0.0333  -2.0712   0.0000   0.0000   0.0000   0.2702
  -9.700  -0.5648   0.11878   0.11514   0.0127  1.0000  0.0338  -2.0920   0.0000   0.0000   0.0000   0.2695
  -9.600  -0.5615   0.11649   0.11285   0.0135  1.0000  0.0346  -2.0455   0.0000   0.0000   0.0000   0.2710
  -9.500  -0.5573   0.11480   0.11115   0.0141  1.0000  0.0353  -1.9926   0.0000   0.0000   0.0000   0.2724
  -9.400  -0.5534   0.11331   0.10967   0.0144  1.0000  0.0360  -1.9512   0.0000   0.0000   0.0000   0.2732
  -9.300  -0.5502   0.11189   0.10825   0.0144  1.0000  0.0366  -1.9241   0.0000   0.0000   0.0000   0.2734
  -9.200  -0.5475   0.11050   0.10686   0.0142  1.0000  0.0372  -1.9068   0.0000   0.0000   0.0000   0.2732
  -9.100  -0.5452   0.10911   0.10548   0.0139  1.0000  0.0378  -1.8956   0.0000   0.0000   0.0000   0.2727
  -9.000  -0.5431   0.10771   0.10409   0.0135  1.0000  0.0383  -1.8890   0.0000   0.0000   0.0000   0.2721
  -8.900  -0.5411   0.10631   0.10270   0.0130  1.0000  0.0389  -1.8857   0.0000   0.0000   0.0000   0.2713
  -8.800  -0.5393   0.10489   0.10129   0.0124  1.0000  0.0394  -1.8852   0.0000   0.0000   0.0000   0.2704
  -8.700  -0.5376   0.10347   0.09988   0.0118  1.0000  0.0400  -1.8869   0.0000   0.0000   0.0000   0.2694
  -8.600  -0.5360   0.10204   0.09846   0.0111  1.0000  0.0405  -1.8906   0.0000   0.0000   0.0000   0.2683
  -8.500  -0.5345   0.10061   0.09704   0.0104  1.0000  0.0411  -1.8960   0.0000   0.0000   0.0000   0.2671
  -8.400  -0.5332   0.09917   0.09562   0.0097  1.0000  0.0416  -1.9030   0.0000   0.0000   0.0000   0.2658
  -8.300  -0.5320   0.09773   0.09420   0.0090  1.0000  0.0422  -1.9114   0.0000   0.0000   0.0000   0.2645
  -8.200  -0.5308   0.09629   0.09277   0.0082  1.0000  0.0427  -1.9211   0.0000   0.0000   0.0000   0.2631
  -8.100  -0.5298   0.09484   0.09133   0.0073  1.0000  0.0433  -1.9321   0.0000   0.0000   0.0000   0.2616
  -8.000  -0.5288   0.09337   0.08988   0.0064  1.0000  0.0438  -1.9444   0.0000   0.0000   0.0000   0.2600
  -7.900  -0.5279   0.09190   0.08843   0.0055  1.0000  0.0444  -1.9581   0.0000   0.0000   0.0000   0.2583
  -7.800  -0.5272   0.09043   0.08698   0.0045  1.0000  0.0449  -1.9732   0.0000   0.0000   0.0000   0.2565
  -7.700  -0.5267   0.08896   0.08553   0.0034  1.0000  0.0455  -1.9900   0.0000   0.0000   0.0000   0.2545
  -7.600  -0.5262   0.08747   0.08406   0.0023  1.0000  0.0460  -2.0081   0.0000   0.0000   0.0000   0.2524
  -7.500  -0.5260   0.08598   0.08260   0.0010  1.0000  0.0466  -2.0281   0.0000   0.0000   0.0000   0.2501
  -7.400  -0.5259   0.08447   0.08111  -0.0004  1.0000  0.0471  -2.0503   0.0000   0.0000   0.0000   0.2474
  -7.300  -0.5250   0.08286   0.07951  -0.0023  1.0000  0.0477  -2.0755   0.0000   0.0000   0.0000   0.2439
  -7.200  -0.5227   0.08111   0.07765  -0.0047  1.0000  0.0485  -2.1056   0.0000   0.0000   0.0000   0.2394
  -7.100  -0.5192   0.07937   0.07591  -0.0073  1.0000  0.0494  -2.1393   0.0000   0.0000   0.0000   0.2342
  -7.000  -0.5143   0.07770   0.07423  -0.0107  1.0000  0.0504  -2.1835   0.0000   0.0000   0.0000   0.2276
  -6.900  -0.5060   0.07672   0.07320  -0.0141  1.0000  0.0518  -2.2233   0.0000   0.0000   0.0000   0.2204
  -6.800  -0.4995   0.07555   0.07197  -0.0163  1.0000  0.0523  -2.2492   0.0000   0.0000   0.0000   0.2158
  -6.700  -0.4943   0.07409   0.07046  -0.0178  1.0000  0.0526  -2.2722   0.0000   0.0000   0.0000   0.2123
  -6.600  -0.4894   0.07253   0.06885  -0.0191  1.0000  0.0527  -2.2936   0.0000   0.0000   0.0000   0.2094
  -6.500  -0.4846   0.07091   0.06717  -0.0202  1.0000  0.0528  -2.3136   0.0000   0.0000   0.0000   0.2067
  -6.400  -0.4796   0.06927   0.06547  -0.0212  1.0000  0.0529  -2.3324   0.0000   0.0000   0.0000   0.2043
  -6.300  -0.4746   0.06760   0.06374  -0.0220  1.0000  0.0530  -2.3497   0.0000   0.0000   0.0000   0.2021
  -6.200  -0.4773   0.06291   0.05902  -0.0240  1.0000  0.0537  -2.4499   0.0000   0.0000   0.0000   0.1983
  -6.100  -0.4805   0.05820   0.05431  -0.0253  1.0000  0.0552  -2.5080   0.0000   0.0000   0.0000   0.1958
  -6.000  -0.4772   0.05597   0.05209  -0.0256  1.0000  0.0563  -2.4906   0.0000   0.0000   0.0000   0.1949
  -5.900  -0.4718   0.05448   0.05063  -0.0254  1.0000  0.0573  -2.4474   0.0000   0.0000   0.0000   0.1948
  -5.800  -0.4660   0.05313   0.04929  -0.0253  1.0000  0.0583  -2.4105   0.0000   0.0000   0.0000   0.1943
  -5.700  -0.4599   0.05179   0.04794  -0.0254  1.0000  0.0593  -2.3814   0.0000   0.0000   0.0000   0.1934
  -5.600  -0.4535   0.05042   0.04655  -0.0256  1.0000  0.0605  -2.3598   0.0000   0.0000   0.0000   0.1922
  -5.500  -0.4467   0.04901   0.04509  -0.0259  1.0000  0.0617  -2.3446   0.0000   0.0000   0.0000   0.1907
  -5.400  -0.4396   0.04756   0.04359  -0.0262  1.0000  0.0630  -2.3345   0.0000   0.0000   0.0000   0.1890
  -5.300  -0.4321   0.04609   0.04205  -0.0266  1.0000  0.0643  -2.3287   0.0000   0.0000   0.0000   0.1872
  -5.200  -0.4245   0.04460   0.04048  -0.0269  1.0000  0.0657  -2.3270   0.0000   0.0000   0.0000   0.1853
  -5.100  -0.4165   0.04310   0.03890  -0.0272  1.0000  0.0671  -2.3286   0.0000   0.0000   0.0000   0.1834
  -5.000  -0.4083   0.04160   0.03730  -0.0275  1.0000  0.0684  -2.3332   0.0000   0.0000   0.0000   0.1814
  -4.800  -0.3890   0.03548   0.03062  -0.0277  1.0000  0.0468  -2.6338   0.0000   0.0000   0.0000   0.1772
  -4.600  -0.3684   0.03045   0.02493  -0.0264  1.0000  0.0308  -2.9903   0.0000   0.0000   0.0000   0.1765
  -4.500  -0.3613   0.02845   0.02274  -0.0261  1.0000  0.0297  -3.0328   0.0000   0.0000   0.0000   0.1759
  -4.400  -0.3532   0.02680   0.02091  -0.0257  1.0000  0.0289  -3.0616   0.0000   0.0000   0.0000   0.1753
  -4.300  -0.3448   0.02534   0.01925  -0.0252  1.0000  0.0282  -3.0839   0.0000   0.0000   0.0000   0.1748
  -4.200  -0.3360   0.02400   0.01773  -0.0247  1.0000  0.0275  -3.1005   0.0000   0.0000   0.0000   0.1744
  -4.100  -0.3270   0.02278   0.01632  -0.0242  1.0000  0.0271  -3.1113   0.0000   0.0000   0.0000   0.1739
  -4.000  -0.3179   0.02166   0.01503  -0.0237  1.0000  0.0267  -3.1158   0.0000   0.0000   0.0000   0.1734
  -3.900  -0.3087   0.02064   0.01385  -0.0231  1.0000  0.0265  -3.1126   0.0000   0.0000   0.0000   0.1730
  -3.800  -0.2996   0.01981   0.01289  -0.0226  1.0000  0.0269  -3.0897   0.0000   0.0000   0.0000   0.1725
  -3.700  -0.2906   0.01913   0.01211  -0.0221  1.0000  0.0277  -3.0512   0.0000   0.0000   0.0000   0.1720
  -3.600  -0.2819   0.01854   0.01143  -0.0215  1.0000  0.0288  -3.0072   0.0000   0.0000   0.0000   0.1716
  -3.500  -0.2736   0.01798   0.01080  -0.0209  1.0000  0.0297  -2.9657   0.0000   0.0000   0.0000   0.1715
  -3.400  -0.2659   0.01742   0.01017  -0.0202  1.0000  0.0304  -2.9312   0.0000   0.0000   0.0000   0.1719
  -3.300  -0.2591   0.01688   0.00955  -0.0194  1.0000  0.0310  -2.9045   0.0000   0.0000   0.0000   0.1731
  -3.200  -0.2535   0.01641   0.00903  -0.0185  1.0000  0.0315  -2.8798   0.0000   0.0000   0.0000   0.1751
  -3.100  -0.2480   0.01604   0.00860  -0.0176  0.9998  0.0321  -2.8501   0.0000   0.0000   0.0000   0.1770
  -3.000  -0.2315   0.01471   0.00718  -0.0185  0.9960  0.0343  -2.8583   0.0000   0.0000   0.0000   0.1681
  -2.900  -0.2150   0.01370   0.00615  -0.0195  0.9913  0.0413  -2.8469   0.0000   0.0000   0.0000   0.1572
  -2.800  -0.1976   0.01280   0.00535  -0.0206  0.9875  0.0728  -2.9000   0.0000   0.0000   0.0000   0.1435
  -2.700  -0.1828   0.01189   0.00495  -0.0217  0.9818  0.1659  -2.8749   0.0000   0.0000   0.0000   0.1289
  -2.600  -0.1657   0.01148   0.00473  -0.0232  0.9768  0.2262  -2.7257   0.0000   0.0000   0.0000   0.1078
  -2.500  -0.1490   0.01093   0.00453  -0.0246  0.9725  0.3049  -2.5636   0.0000   0.0000   0.0000   0.0823
  -2.400  -0.1359   0.01044   0.00438  -0.0252  0.9652  0.3922  -2.4164   0.0000   0.0000   0.0000   0.0617
  -2.300  -0.1241   0.00982   0.00430  -0.0255  0.9587  0.5281  -2.2728   0.0000   0.0000   0.0000   0.0423
  -2.200  -0.1138   0.00912   0.00429  -0.0248  0.9538  0.6995  -2.1339   0.0000   0.0000   0.0000   0.0294
  -2.100  -0.0767   0.00866   0.00422  -0.0285  0.9616  0.9279  -1.8262   0.0000   0.0000   0.0000  -0.1252
  -2.000  -0.0334   0.00859   0.00398  -0.0347  0.9728  0.9996  -1.4946   0.0000   0.0000   0.0000  -0.7960
  -1.900  -0.0148   0.00858   0.00384  -0.0363  0.9640  1.0000  -1.3222   0.0000   0.0000   0.0000  -2.2140
  -1.800   0.0042   0.00856   0.00370  -0.0380  0.9558  1.0000  -1.1514   0.0000   0.0000   0.0000   9.4066
  -1.700   0.0220   0.00855   0.00357  -0.0394  0.9475  1.0000  -0.9921   0.0000   0.0000   0.0000   2.0530
  -1.600   0.0372   0.00854   0.00347  -0.0402  0.9377  1.0000  -0.8508   0.0000   0.0000   0.0000   1.3359
  -1.500   0.0526   0.00854   0.00337  -0.0411  0.9293  1.0000  -0.7120   0.0000   0.0000   0.0000   1.0336
  -1.400   0.0656   0.00855   0.00327  -0.0414  0.9208  1.0000  -0.5879   0.0000   0.0000   0.0000   0.8833
  -1.300   0.0766   0.00858   0.00321  -0.0414  0.9113  1.0000  -0.5070   0.0000   0.0000   0.0000   0.7915
  -1.200   0.0876   0.00860   0.00315  -0.0412  0.9028  1.0000  -0.4757   0.0000   0.0000   0.0000   0.7218
  -1.100   0.0983   0.00864   0.00310  -0.0410  0.8954  1.0000  -0.4453   0.0000   0.0000   0.0000   0.6679
  -1.000   0.1078   0.00868   0.00308  -0.0406  0.8875  1.0000  -0.4169   0.0000   0.0000   0.0000   0.6276
  -0.900   0.1170   0.00871   0.00306  -0.0402  0.8795  1.0000  -0.3892   0.0000   0.0000   0.0000   0.5941
  -0.800   0.1261   0.00875   0.00303  -0.0397  0.8721  1.0000  -0.3662   0.0000   0.0000   0.0000   0.5650
  -0.700   0.1352   0.00880   0.00301  -0.0391  0.8655  1.0000  -0.3738   0.0000   0.0000   0.0000   0.5397
  -0.600   0.1444   0.00887   0.00300  -0.0386  0.8596  1.0000  -0.3816   0.0000   0.0000   0.0000   0.5175
  -0.500   0.1542   0.00892   0.00300  -0.0383  0.8541  1.0000  -0.3895   0.0000   0.0000   0.0000   0.4986
  -0.400   0.1639   0.00896   0.00299  -0.0381  0.8482  1.0000  -0.3974   0.0000   0.0000   0.0000   0.4821
  -0.300   0.1734   0.00900   0.00299  -0.0377  0.8421  1.0000  -0.4053   0.0000   0.0000   0.0000   0.4672
  -0.200   0.1827   0.00905   0.00299  -0.0372  0.8360  1.0000  -0.4142   0.0000   0.0000   0.0000   0.4536
  -0.100   0.1918   0.00910   0.00298  -0.0367  0.8302  1.0000  -0.4232   0.0000   0.0000   0.0000   0.4410
   0.000   0.2009   0.00916   0.00298  -0.0361  0.8245  1.0000  -0.4322   0.0000   0.0000   0.0000   0.4295
   0.100   0.2101   0.00926   0.00301  -0.0356  0.8188  1.0000  -0.4413   0.0000   0.0000   0.0000   0.4191
   0.200   0.2201   0.00930   0.00303  -0.0354  0.8139  1.0000  -0.4507   0.0000   0.0000   0.0000   0.4103
   0.300   0.2301   0.00934   0.00304  -0.0352  0.8087  1.0000  -0.4601   0.0000   0.0000   0.0000   0.4023
   0.400   0.2399   0.00938   0.00307  -0.0349  0.8035  1.0000  -0.4695   0.0000   0.0000   0.0000   0.3948
   0.500   0.2498   0.00943   0.00309  -0.0346  0.7985  1.0000  -0.4790   0.0000   0.0000   0.0000   0.3878
   0.600   0.2594   0.00947   0.00310  -0.0342  0.7933  1.0000  -0.4884   0.0000   0.0000   0.0000   0.3811
   0.700   0.2689   0.00952   0.00311  -0.0338  0.7882  1.0000  -0.4988   0.0000   0.0000   0.0000   0.3748
   0.800   0.2783   0.00959   0.00313  -0.0333  0.7830  1.0000  -0.5096   0.0000   0.0000   0.0000   0.3687
   0.900   0.2876   0.00970   0.00319  -0.0328  0.7774  1.0000  -0.5205   0.0000   0.0000   0.0000   0.3631
   1.000   0.2976   0.00977   0.00325  -0.0325  0.7724  1.0000  -0.5316   0.0000   0.0000   0.0000   0.3583
   1.100   0.3077   0.00980   0.00328  -0.0323  0.7674  1.0000  -0.5429   0.0000   0.0000   0.0000   0.3540
   1.200   0.3176   0.00983   0.00331  -0.0320  0.7619  1.0000  -0.5541   0.0000   0.0000   0.0000   0.3498
   1.300   0.3275   0.00987   0.00334  -0.0317  0.7564  1.0000  -0.5660   0.0000   0.0000   0.0000   0.3457
   1.400   0.3374   0.00992   0.00337  -0.0314  0.7512  1.0000  -0.5792   0.0000   0.0000   0.0000   0.3418
   1.500   0.3472   0.00996   0.00340  -0.0310  0.7462  1.0000  -0.5924   0.0000   0.0000   0.0000   0.3381
   1.600   0.3569   0.01002   0.00343  -0.0306  0.7412  1.0000  -0.6056   0.0000   0.0000   0.0000   0.3345
   1.700   0.3665   0.01011   0.00349  -0.0302  0.7358  1.0000  -0.6189   0.0000   0.0000   0.0000   0.3310
   1.800   0.3761   0.01026   0.00360  -0.0298  0.7296  1.0000  -0.6324   0.0000   0.0000   0.0000   0.3278
   1.900   0.3863   0.01029   0.00365  -0.0296  0.7250  1.0000  -0.6485   0.0000   0.0000   0.0000   0.3251
   2.000   0.3965   0.01031   0.00369  -0.0293  0.7196  1.0000  -0.6647   0.0000   0.0000   0.0000   0.3225
   2.100   0.4065   0.01034   0.00373  -0.0290  0.7135  1.0000  -0.6809   0.0000   0.0000   0.0000   0.3199
   2.200   0.4164   0.01037   0.00377  -0.0287  0.7073  1.0000  -0.6971   0.0000   0.0000   0.0000   0.3173
   2.300   0.4263   0.01040   0.00379  -0.0283  0.7014  1.0000  -0.7134   0.0000   0.0000   0.0000   0.3148
   2.400   0.4361   0.01045   0.00385  -0.0279  0.6957  1.0000  -0.7306   0.0000   0.0000   0.0000   0.3123
   2.500   0.4458   0.01052   0.00389  -0.0275  0.6899  1.0000  -0.7504   0.0000   0.0000   0.0000   0.3099
   2.600   0.4556   0.01067   0.00400  -0.0271  0.6832  1.0000  -0.7701   0.0000   0.0000   0.0000   0.3076
   2.700   0.4657   0.01073   0.00408  -0.0268  0.6775  1.0000  -0.7903   0.0000   0.0000   0.0000   0.3058
   2.800   0.4759   0.01074   0.00413  -0.0266  0.6714  1.0000  -0.8107   0.0000   0.0000   0.0000   0.3040
   2.900   0.4860   0.01075   0.00418  -0.0263  0.6645  1.0000  -0.8354   0.0000   0.0000   0.0000   0.3021
   3.000   0.4960   0.01077   0.00421  -0.0260  0.6573  1.0000  -0.8609   0.0000   0.0000   0.0000   0.3003
   3.100   0.5059   0.01079   0.00424  -0.0256  0.6503  1.0000  -0.8865   0.0000   0.0000   0.0000   0.2984
   3.200   0.5157   0.01084   0.00426  -0.0251  0.6434  1.0000  -0.9199   0.0000   0.0000   0.0000   0.2965
   3.300   0.5255   0.01095   0.00433  -0.0247  0.6359  1.0000  -0.9590   0.0000   0.0000   0.0000   0.2947
   3.400   0.5355   0.01105   0.00446  -0.0244  0.6284  1.0000  -1.0072   0.0000   0.0000   0.0000   0.2932
   3.500   0.5458   0.01103   0.00452  -0.0241  0.6213  1.0000  -1.0566   0.0000   0.0000   0.0000   0.2919
   3.600   0.5560   0.01104   0.00457  -0.0239  0.6129  1.0000  -1.1575   0.0000   0.0000   0.0000   0.2905
   3.700   0.5660   0.01104   0.00460  -0.0235  0.6042  1.0000  -1.2874   0.0000   0.0000   0.0000   0.2890
   3.800   0.5759   0.01107   0.00461  -0.0231  0.5956  1.0000  -1.4199   0.0000   0.0000   0.0000   0.2875
   3.900   0.5856   0.01114   0.00464  -0.0226  0.5867  1.0000  -1.5548   0.0000   0.0000   0.0000   0.2860
   4.000   0.5957   0.01123   0.00473  -0.0223  0.5777  1.0000  -1.6934   0.0000   0.0000   0.0000   0.2847
   4.100   0.6060   0.01122   0.00481  -0.0221  0.5685  1.0000  -1.8371   0.0000   0.0000   0.0000   0.2836
   4.200   0.6162   0.01123   0.00487  -0.0218  0.5580  1.0000  -1.9833   0.0000   0.0000   0.0000   0.2825
   4.300   0.6261   0.01126   0.00492  -0.0214  0.5472  1.0000  -2.1304   0.0000   0.0000   0.0000   0.2812
   4.400   0.6358   0.01133   0.00494  -0.0209  0.5361  1.0000  -2.2797   0.0000   0.0000   0.0000   0.2799
   4.500   0.6458   0.01140   0.00503  -0.0206  0.5252  1.0000  -2.4331   0.0000   0.0000   0.0000   0.2788
   4.600   0.6560   0.01143   0.00513  -0.0203  0.5130  1.0000  -2.5908   0.0000   0.0000   0.0000   0.2778
   4.700   0.6659   0.01149   0.00518  -0.0200  0.4995  1.0000  -2.7492   0.0000   0.0000   0.0000   0.2767
   4.800   0.6753   0.01160   0.00522  -0.0195  0.4855  1.0000  -2.9073   0.0000   0.0000   0.0000   0.2755
   4.900   0.6853   0.01169   0.00535  -0.0192  0.4718  1.0000  -3.0700   0.0000   0.0000   0.0000   0.2746
   5.000   0.6950   0.01177   0.00545  -0.0188  0.4555  1.0000  -3.2341   0.0000   0.0000   0.0000   0.2736
   5.100   0.7041   0.01193   0.00551  -0.0184  0.4373  1.0000  -3.3952   0.0000   0.0000   0.0000   0.2725
   5.200   0.7137   0.01205   0.00566  -0.0180  0.4192  1.0000  -3.5612   0.0000   0.0000   0.0000   0.2716
   5.300   0.7228   0.01221   0.00576  -0.0176  0.3967  1.0000  -3.7248   0.0000   0.0000   0.0000   0.2706
   5.400   0.7318   0.01241   0.00597  -0.0172  0.3732  1.0000  -3.8900   0.0000   0.0000   0.0000   0.2697
   5.500   0.7404   0.01264   0.00610  -0.0168  0.3442  1.0000  -4.0506   0.0000   0.0000   0.0000   0.2687
   5.600   0.7490   0.01292   0.00626  -0.0164  0.3085  1.0000  -4.2071   0.0000   0.0000   0.0000   0.2679
   5.700   0.7571   0.01328   0.00646  -0.0161  0.2691  1.0000  -4.3538   0.0000   0.0000   0.0000   0.2670
   5.800   0.7645   0.01380   0.00674  -0.0156  0.2173  1.0000  -4.4786   0.0000   0.0000   0.0000   0.2662
   5.900   0.7663   0.01543   0.00751  -0.0149  0.0923  1.0000  -4.4892   0.0000   0.0000   0.0000   0.2651
   6.000   0.7697   0.01709   0.00885  -0.0138  0.0498  1.0000  -4.3842   0.0000   0.0000   0.0000   0.2635
   6.100   0.7779   0.01769   0.00948  -0.0133  0.0403  1.0000  -4.4141   0.0000   0.0000   0.0000   0.2625
   6.200   0.7831   0.01887   0.01068  -0.0124  0.0342  1.0000  -4.3731   0.0000   0.0000   0.0000   0.2612
   6.300   0.7903   0.01967   0.01154  -0.0117  0.0308  1.0000  -4.3809   0.0000   0.0000   0.0000   0.2601
   6.400   0.7987   0.02025   0.01217  -0.0112  0.0281  1.0000  -4.4256   0.0000   0.0000   0.0000   0.2592
   6.500   0.8067   0.02102   0.01300  -0.0105  0.0265  1.0000  -4.4710   0.0000   0.0000   0.0000   0.2582
   6.600   0.8147   0.02182   0.01386  -0.0099  0.0253  1.0000  -4.5188   0.0000   0.0000   0.0000   0.2571
   6.700   0.8229   0.02268   0.01477  -0.0093  0.0243  1.0000  -4.5676   0.0000   0.0000   0.0000   0.2562
   6.800   0.8313   0.02358   0.01574  -0.0087  0.0236  1.0000  -4.6159   0.0000   0.0000   0.0000   0.2552
   6.900   0.8399   0.02452   0.01675  -0.0081  0.0231  1.0000  -4.6663   0.0000   0.0000   0.0000   0.2544
   7.000   0.8483   0.02543   0.01772  -0.0076  0.0223  1.0000  -4.7316   0.0000   0.0000   0.0000   0.2536
   7.100   0.8565   0.02633   0.01867  -0.0072  0.0214  1.0000  -4.8124   0.0000   0.0000   0.0000   0.2529
   7.200   0.8642   0.02737   0.01977  -0.0067  0.0204  1.0000  -4.8914   0.0000   0.0000   0.0000   0.2523
   7.300   0.8715   0.02871   0.02120  -0.0063  0.0196  1.0000  -4.9442   0.0000   0.0000   0.0000   0.2516
   7.400   0.8786   0.03024   0.02286  -0.0058  0.0191  1.0000  -4.9733   0.0000   0.0000   0.0000   0.2509
   7.500   0.8857   0.03170   0.02447  -0.0052  0.0189  1.0000  -4.9988   0.0000   0.0000   0.0000   0.2501
   7.600   0.8932   0.03292   0.02583  -0.0047  0.0190  1.0000  -5.0352   0.0000   0.0000   0.0000   0.2494
   7.700   0.9006   0.03405   0.02711  -0.0042  0.0191  1.0000  -5.0728   0.0000   0.0000   0.0000   0.2487
   7.800   0.9079   0.03517   0.02839  -0.0036  0.0194  1.0000  -5.1060   0.0000   0.0000   0.0000   0.2479
   7.900   0.9149   0.03632   0.02972  -0.0030  0.0198  1.0000  -5.1255   0.0000   0.0000   0.0000   0.2472
   8.000   0.9213   0.03767   0.03129  -0.0023  0.0204  1.0000  -5.1120   0.0000   0.0000   0.0000   0.2463
   8.100   0.9265   0.03948   0.03338  -0.0015  0.0214  1.0000  -5.0428   0.0000   0.0000   0.0000   0.2453
   8.200   0.9294   0.04178   0.03598  -0.0006  0.0226  1.0000  -4.9283   0.0000   0.0000   0.0000   0.2443
   8.300   0.9305   0.04413   0.03862   0.0002  0.0239  1.0000  -4.8237   0.0000   0.0000   0.0000   0.2434
   8.400   0.9309   0.04640   0.04112   0.0009  0.0250  1.0000  -4.7435   0.0000   0.0000   0.0000   0.2427
   8.500   0.9309   0.04862   0.04352   0.0014  0.0260  1.0000  -4.6784   0.0000   0.0000   0.0000   0.2420
   8.600   0.9300   0.05079   0.04585   0.0019  0.0270  1.0000  -4.6245   0.0000   0.0000   0.0000   0.2415
   8.700   0.9283   0.05292   0.04812   0.0022  0.0279  1.0000  -4.5778   0.0000   0.0000   0.0000   0.2410
   8.800   0.9257   0.05504   0.05036   0.0025  0.0287  1.0000  -4.5347   0.0000   0.0000   0.0000   0.2406
   8.900   0.9221   0.05719   0.05261   0.0028  0.0294  1.0000  -4.4924   0.0000   0.0000   0.0000   0.2403
   9.000   0.9174   0.05939   0.05491   0.0029  0.0300  1.0000  -4.4481   0.0000   0.0000   0.0000   0.2400
   9.100   0.9112   0.06180   0.05740   0.0030  0.0307  1.0000  -4.3952   0.0000   0.0000   0.0000   0.2399
  10.400   0.8181   0.09686   0.09324  -0.0186  0.0426  1.0000  -3.3438   0.0000   0.0000   0.0000   0.2651
  10.500   0.8135   0.10021   0.09657  -0.0207  0.0433  1.0000  -3.2650   0.0000   0.0000   0.0000   0.2678
  10.600   0.8095   0.10334   0.09968  -0.0224  0.0444  1.0000  -3.1932   0.0000   0.0000   0.0000   0.2700
  10.700   0.8059   0.10622   0.10255  -0.0238  0.0458  1.0000  -3.1328   0.0000   0.0000   0.0000   0.2718
  11.500   0.8078   0.12335   0.11966  -0.0291  0.0544  1.0000  -2.9542   0.0000   0.0000   0.0000   0.2778
  11.600   0.8073   0.12538   0.12168  -0.0295  0.0539  1.0000  -2.9523   0.0000   0.0000   0.0000   0.2782
  11.700   0.8055   0.12779   0.12408  -0.0299  0.0533  1.0000  -2.9395   0.0000   0.0000   0.0000   0.2788
  11.800   0.7888   0.13473   0.13093  -0.0319  0.0516  1.0000  -2.7775   0.0000   0.0000   0.0000   0.2821
  11.900   0.7884   0.13698   0.13318  -0.0330  0.0515  1.0000  -2.7470   0.0000   0.0000   0.0000   0.2835
  12.000   0.7882   0.13919   0.13538  -0.0341  0.0515  1.0000  -2.7178   0.0000   0.0000   0.0000   0.2848
  12.100   0.7882   0.14137   0.13755  -0.0352  0.0515  1.0000  -2.6896   0.0000   0.0000   0.0000   0.2862
  12.200   0.7882   0.14349   0.13967  -0.0363  0.0514  1.0000  -2.6623   0.0000   0.0000   0.0000   0.2875
  12.300   0.7884   0.14558   0.14174  -0.0374  0.0514  1.0000  -2.6359   0.0000   0.0000   0.0000   0.2888
  12.400   0.7887   0.14761   0.14376  -0.0385  0.0513  1.0000  -2.6103   0.0000   0.0000   0.0000   0.2901
  12.500   0.7891   0.14958   0.14573  -0.0396  0.0513  1.0000  -2.5854   0.0000   0.0000   0.0000   0.2914
  12.600   0.7896   0.15148   0.14762  -0.0407  0.0512  1.0000  -2.5611   0.0000   0.0000   0.0000   0.2927
  12.700   0.7902   0.15326   0.14940  -0.0419  0.0510  1.0000  -2.5372   0.0000   0.0000   0.0000   0.2941
  12.800   0.7910   0.15486   0.15098  -0.0431  0.0507  1.0000  -2.5134   0.0000   0.0000   0.0000   0.2955
  12.900   0.7924   0.15585   0.15197  -0.0448  0.0498  1.0000  -2.4856   0.0000   0.0000   0.0000   0.2975
  13.000   0.7922   0.15723   0.15332  -0.0469  0.0485  1.0000  -2.4361   0.0000   0.0000   0.0000   0.3001
  13.100   0.7924   0.15897   0.15506  -0.0484  0.0474  1.0000  -2.3988   0.0000   0.0000   0.0000   0.3020
  13.200   0.7928   0.16077   0.15685  -0.0497  0.0465  1.0000  -2.3691   0.0000   0.0000   0.0000   0.3035
  13.300   0.7934   0.16257   0.15864  -0.0508  0.0456  1.0000  -2.3449   0.0000   0.0000   0.0000   0.3047
  13.400   0.7942   0.16433   0.16040  -0.0518  0.0448  1.0000  -2.3247   0.0000   0.0000   0.0000   0.3058
  13.500   0.7951   0.16606   0.16212  -0.0527  0.0440  1.0000  -2.3075   0.0000   0.0000   0.0000   0.3069
  13.600   0.7961   0.16777   0.16382  -0.0536  0.0433  1.0000  -2.2928   0.0000   0.0000   0.0000   0.3078
  13.700   0.7973   0.16945   0.16550  -0.0544  0.0426  1.0000  -2.2805   0.0000   0.0000   0.0000   0.3086
  13.800   0.7987   0.17112   0.16716  -0.0552  0.0419  1.0000  -2.2704   0.0000   0.0000   0.0000   0.3094
  13.900   0.8002   0.17276   0.16880  -0.0560  0.0412  1.0000  -2.2622   0.0000   0.0000   0.0000   0.3102
  14.000   0.8018   0.17439   0.17043  -0.0567  0.0406  1.0000  -2.2559   0.0000   0.0000   0.0000   0.3108
  14.100   0.8035   0.17598   0.17202  -0.0574  0.0400  1.0000  -2.2517   0.0000   0.0000   0.0000   0.3115
  14.200   0.8054   0.17751   0.17354  -0.0580  0.0394  1.0000  -2.2498   0.0000   0.0000   0.0000   0.3120
  14.300   0.8074   0.17899   0.17502  -0.0587  0.0388  1.0000  -2.2503   0.0000   0.0000   0.0000   0.3125
  14.400   0.8096   0.18044   0.17647  -0.0592  0.0382  1.0000  -2.2535   0.0000   0.0000   0.0000   0.3129
  14.500   0.8119   0.18188   0.17791  -0.0598  0.0376  1.0000  -2.2598   0.0000   0.0000   0.0000   0.3132
  14.600   0.8145   0.18333   0.17936  -0.0602  0.0371  1.0000  -2.2700   0.0000   0.0000   0.0000   0.3134
  14.700   0.8173   0.18478   0.18081  -0.0606  0.0365  1.0000  -2.2852   0.0000   0.0000   0.0000   0.3135
  14.800   0.8205   0.18626   0.18230  -0.0608  0.0360  1.0000  -2.3072   0.0000   0.0000   0.0000   0.3134
  14.900   0.8244   0.18783   0.18387  -0.0608  0.0354  1.0000  -2.3398   0.0000   0.0000   0.0000   0.3129
  15.000   0.8284   0.18947   0.18552  -0.0606  0.0348  1.0000  -2.3806   0.0000   0.0000   0.0000   0.3122
  15.100   0.8322   0.19132   0.18738  -0.0604  0.0342  1.0000  -2.4225   0.0000   0.0000   0.0000   0.3115
  15.200   0.8346   0.19392   0.18998  -0.0602  0.0335  1.0000  -2.4466   0.0000   0.0000   0.0000   0.3109
  15.300   0.8288   0.20052   0.19652  -0.0613  0.0325  1.0000  -2.3216   0.0000   0.0000   0.0000   0.3127
  15.400   0.8307   0.20228   0.19828  -0.0621  0.0325  1.0000  -2.3047   0.0000   0.0000   0.0000   0.3135
  15.500   0.8327   0.20404   0.20003  -0.0630  0.0324  1.0000  -2.2881   0.0000   0.0000   0.0000   0.3142
  15.600   0.8347   0.20578   0.20177  -0.0638  0.0324  1.0000  -2.2716   0.0000   0.0000   0.0000   0.3150
  15.700   0.8366   0.20752   0.20351  -0.0647  0.0324  1.0000  -2.2554   0.0000   0.0000   0.0000   0.3157
  15.800   0.8386   0.20925   0.20523  -0.0655  0.0324  1.0000  -2.2395   0.0000   0.0000   0.0000   0.3165
  15.900   0.8406   0.21096   0.20694  -0.0664  0.0323  1.0000  -2.2237   0.0000   0.0000   0.0000   0.3172
  16.000   0.8426   0.21265   0.20863  -0.0673  0.0323  1.0000  -2.2082   0.0000   0.0000   0.0000   0.3180
  16.100   0.8447   0.21433   0.21031  -0.0682  0.0322  1.0000  -2.1929   0.0000   0.0000   0.0000   0.3187
  16.200   0.8467   0.21598   0.21195  -0.0690  0.0322  1.0000  -2.1778   0.0000   0.0000   0.0000   0.3195
  16.300   0.8487   0.21760   0.21357  -0.0699  0.0321  1.0000  -2.1629   0.0000   0.0000   0.0000   0.3202
  16.400   0.8508   0.21917   0.21514  -0.0708  0.0321  1.0000  -2.1481   0.0000   0.0000   0.0000   0.3210
  16.500   0.8528   0.22070   0.21667  -0.0717  0.0320  1.0000  -2.1335   0.0000   0.0000   0.0000   0.3217
  16.600   0.8549   0.22216   0.21813  -0.0727  0.0319  1.0000  -2.1188   0.0000   0.0000   0.0000   0.3225
  16.700   0.8570   0.22353   0.21950  -0.0736  0.0317  1.0000  -2.1038   0.0000   0.0000   0.0000   0.3233
  16.800   0.8585   0.22477   0.22073  -0.0748  0.0315  1.0000  -2.0811   0.0000   0.0000   0.0000   0.3244
  16.900   0.8596   0.22589   0.22184  -0.0760  0.0313  1.0000  -2.0550   0.0000   0.0000   0.0000   0.3256
  17.000   0.8606   0.22696   0.22291  -0.0774  0.0310  1.0000  -2.0253   0.0000   0.0000   0.0000   0.3270
  17.100   0.8618   0.22812   0.22406  -0.0787  0.0306  1.0000  -1.9954   0.0000   0.0000   0.0000   0.3283
  17.200   0.8635   0.22945   0.22539  -0.0800  0.0301  1.0000  -1.9673   0.0000   0.0000   0.0000   0.3295
  17.300   0.8653   0.23096   0.22690  -0.0811  0.0296  1.0000  -1.9431   0.0000   0.0000   0.0000   0.3305
  17.400   0.8674   0.23261   0.22854  -0.0821  0.0291  1.0000  -1.9231   0.0000   0.0000   0.0000   0.3313
  17.500   0.8695   0.23434   0.23027  -0.0831  0.0285  1.0000  -1.9067   0.0000   0.0000   0.0000   0.3321
  17.600   0.8717   0.23611   0.23204  -0.0839  0.0280  1.0000  -1.8931   0.0000   0.0000   0.0000   0.3327
  17.700   0.8738   0.23792   0.23385  -0.0848  0.0275  1.0000  -1.8816   0.0000   0.0000   0.0000   0.3333
  17.800   0.8759   0.23974   0.23567  -0.0856  0.0270  1.0000  -1.8718   0.0000   0.0000   0.0000   0.3339
  17.900   0.8781   0.24157   0.23750  -0.0864  0.0265  1.0000  -1.8633   0.0000   0.0000   0.0000   0.3344
  18.000   0.8802   0.24340   0.23934  -0.0871  0.0260  1.0000  -1.8561   0.0000   0.0000   0.0000   0.3349
  18.100   0.8824   0.24525   0.24118  -0.0879  0.0255  1.0000  -1.8500   0.0000   0.0000   0.0000   0.3354
  18.200   0.8845   0.24709   0.24303  -0.0886  0.0251  1.0000  -1.8450   0.0000   0.0000   0.0000   0.3359
  18.300   0.8866   0.24894   0.24488  -0.0893  0.0246  1.0000  -1.8410   0.0000   0.0000   0.0000   0.3364
  18.400   0.8887   0.25079   0.24673  -0.0900  0.0242  1.0000  -1.8381   0.0000   0.0000   0.0000   0.3368
  18.500   0.8908   0.25264   0.24858  -0.0907  0.0237  1.0000  -1.8362   0.0000   0.0000   0.0000   0.3372
  18.600   0.8929   0.25449   0.25043  -0.0914  0.0233  1.0000  -1.8355   0.0000   0.0000   0.0000   0.3376
  18.700   0.8950   0.25633   0.25228  -0.0921  0.0229  1.0000  -1.8359   0.0000   0.0000   0.0000   0.3380
  18.800   0.8971   0.25818   0.25413  -0.0928  0.0225  1.0000  -1.8376   0.0000   0.0000   0.0000   0.3384
  18.900   0.8991   0.26003   0.25599  -0.0934  0.0221  1.0000  -1.8406   0.0000   0.0000   0.0000   0.3387
  19.000   0.9012   0.26188   0.25784  -0.0940  0.0218  1.0000  -1.8451   0.0000   0.0000   0.0000   0.3391
  19.100   0.9033   0.26373   0.25969  -0.0947  0.0214  1.0000  -1.8513   0.0000   0.0000   0.0000   0.3394
  19.200   0.9053   0.26558   0.26154  -0.0952  0.0211  1.0000  -1.8593   0.0000   0.0000   0.0000   0.3396
  19.300   0.9074   0.26743   0.26340  -0.0958  0.0207  1.0000  -1.8693   0.0000   0.0000   0.0000   0.3399
  19.400   0.9095   0.26931   0.26542  -0.0963  0.0204  1.0000  -1.8820   0.0000   0.0000   0.0000   0.3401
  19.500   0.9115   0.27120   0.26731  -0.0968  0.0201  1.0000  -1.8968   0.0000   0.0000   0.0000   0.3402
  19.600   0.9136   0.27312   0.26924  -0.0972  0.0198  1.0000  -1.9144   0.0000   0.0000   0.0000   0.3403
  19.700   0.9158   0.27509   0.27123  -0.0976  0.0195  1.0000  -1.9353   0.0000   0.0000   0.0000   0.3403
  19.800   0.9180   0.27716   0.27331  -0.0979  0.0192  1.0000  -1.9601   0.0000   0.0000   0.0000   0.3402
  19.900   0.9204   0.27940   0.27556  -0.0980  0.0190  1.0000  -1.9894   0.0000   0.0000   0.0000   0.3399
  20.000   0.9231   0.28197   0.27814  -0.0980  0.0187  1.0000  -2.0236   0.0000   0.0000   0.0000   0.3395
  20.100   0.9265   0.28548   0.28167  -0.0976  0.0183  1.0000  -2.0659   0.0000   0.0000   0.0000   0.3385
  20.200   0.9271   0.29030   0.28650  -0.0978  0.0179  1.0000  -2.0388   0.0000   0.0000   0.0000   0.3386
  20.300   0.9260   0.29571   0.29185  -0.0984  0.0176  1.0000  -1.9554   0.0000   0.0000   0.0000   0.3393
  20.400   0.9274   0.29774   0.29388  -0.0991  0.0176  1.0000  -1.9448   0.0000   0.0000   0.0000   0.3398
  20.500   0.9288   0.29976   0.29591  -0.0998  0.0176  1.0000  -1.9343   0.0000   0.0000   0.0000   0.3403
  20.600   0.9301   0.30178   0.29793  -0.1005  0.0176  1.0000  -1.9238   0.0000   0.0000   0.0000   0.3407
  20.700   0.9314   0.30379   0.29995  -0.1012  0.0176  1.0000  -1.9134   0.0000   0.0000   0.0000   0.3412
  20.800   0.9326   0.30579   0.30196  -0.1019  0.0176  1.0000  -1.9028   0.0000   0.0000   0.0000   0.3417
  20.900   0.9337   0.30779   0.30396  -0.1026  0.0176  1.0000  -1.8922   0.0000   0.0000   0.0000   0.3422
  21.000   0.9348   0.30978   0.30595  -0.1033  0.0176  1.0000  -1.8817   0.0000   0.0000   0.0000   0.3426
  21.100   0.9359   0.31177   0.30795  -0.1040  0.0176  1.0000  -1.8711   0.0000   0.0000   0.0000   0.3431
  21.200   0.9368   0.31375   0.30993  -0.1046  0.0175  1.0000  -1.8605   0.0000   0.0000   0.0000   0.3436
  21.300   0.9377   0.31572   0.31191  -0.1053  0.0175  1.0000  -1.8499   0.0000   0.0000   0.0000   0.3441
  21.400   0.9385   0.31767   0.31386  -0.1060  0.0175  1.0000  -1.8390   0.0000   0.0000   0.0000   0.3445
  21.500   0.9392   0.31961   0.31581  -0.1066  0.0175  1.0000  -1.8281   0.0000   0.0000   0.0000   0.3450
  21.600   0.9399   0.32153   0.31774  -0.1073  0.0175  1.0000  -1.8171   0.0000   0.0000   0.0000   0.3455
  21.700   0.9404   0.32345   0.31966  -0.1079  0.0175  1.0000  -1.8060   0.0000   0.0000   0.0000   0.3460
  21.800   0.9408   0.32534   0.32156  -0.1085  0.0175  1.0000  -1.7948   0.0000   0.0000   0.0000   0.3465
  21.900   0.9412   0.32722   0.32345  -0.1091  0.0174  1.0000  -1.7834   0.0000   0.0000   0.0000   0.3470
  22.000   0.9413   0.32906   0.32530  -0.1097  0.0174  1.0000  -1.7715   0.0000   0.0000   0.0000   0.3474
  22.100   0.9413   0.33088   0.32713  -0.1103  0.0174  1.0000  -1.7593   0.0000   0.0000   0.0000   0.3479
  22.200   0.9412   0.33267   0.32892  -0.1109  0.0174  1.0000  -1.7470   0.0000   0.0000   0.0000   0.3484
  22.300   0.9409   0.33443   0.33069  -0.1115  0.0174  1.0000  -1.7343   0.0000   0.0000   0.0000   0.3489
  22.400   0.9403   0.33613   0.33240  -0.1120  0.0173  1.0000  -1.7210   0.0000   0.0000   0.0000   0.3494
  22.500   0.9395   0.33778   0.33406  -0.1125  0.0173  1.0000  -1.7068   0.0000   0.0000   0.0000   0.3500
  22.600   0.9382   0.33933   0.33563  -0.1130  0.0173  1.0000  -1.6905   0.0000   0.0000   0.0000   0.3505
  22.700   0.9364   0.34079   0.33710  -0.1134  0.0173  1.0000  -1.6726   0.0000   0.0000   0.0000   0.3511
  22.800   0.9342   0.34214   0.33846  -0.1138  0.0172  1.0000  -1.6537   0.0000   0.0000   0.0000   0.3517
  22.900   0.9312   0.34333   0.33966  -0.1141  0.0172  1.0000  -1.6375   0.0000   0.0000   0.0000   0.3523
  23.000   0.9270   0.34424   0.34060  -0.1142  0.0172  1.0000  -1.6217   0.0000   0.0000   0.0000   0.3530
  23.100   0.8651   0.32992   0.32645  -0.1067  0.0173  1.0000  -1.4775   0.0000   0.0000   0.0000   0.3540
  23.200   0.8588   0.32910   0.32565  -0.1065  0.0173  1.0000  -1.4573   0.0000   0.0000   0.0000   0.3546
  23.300   0.8536   0.32854   0.32511  -0.1065  0.0172  1.0000  -1.4397   0.0000   0.0000   0.0000   0.3553
  23.400   0.8492   0.32814   0.32473  -0.1065  0.0172  1.0000  -1.4238   0.0000   0.0000   0.0000   0.3559
  23.500   0.8454   0.32785   0.32447  -0.1066  0.0172  1.0000  -1.4091   0.0000   0.0000   0.0000   0.3565
  23.600   0.8420   0.32766   0.32429  -0.1068  0.0172  1.0000  -1.3952   0.0000   0.0000   0.0000   0.3571
  23.700   0.8389   0.32754   0.32418  -0.1070  0.0171  1.0000  -1.3820   0.0000   0.0000   0.0000   0.3578
  23.800   0.8362   0.32748   0.32414  -0.1072  0.0171  1.0000  -1.3694   0.0000   0.0000   0.0000   0.3584
  23.900   0.8337   0.32747   0.32414  -0.1075  0.0171  1.0000  -1.3572   0.0000   0.0000   0.0000   0.3590
  24.000   0.8314   0.32750   0.32419  -0.1078  0.0170  1.0000  -1.3454   0.0000   0.0000   0.0000   0.3596
  24.100   0.8294   0.32758   0.32428  -0.1081  0.0170  1.0000  -1.3338   0.0000   0.0000   0.0000   0.3603
  24.200   0.8275   0.32770   0.32441  -0.1085  0.0169  1.0000  -1.3224   0.0000   0.0000   0.0000   0.3609
  24.300   0.8259   0.32786   0.32459  -0.1089  0.0168  1.0000  -1.3112   0.0000   0.0000   0.0000   0.3615
  24.400   0.8244   0.32807   0.32481  -0.1093  0.0168  1.0000  -1.3002   0.0000   0.0000   0.0000   0.3621
  24.500   0.8231   0.32832   0.32507  -0.1097  0.0167  1.0000  -1.2892   0.0000   0.0000   0.0000   0.3627
  24.600   0.8220   0.32862   0.32539  -0.1101  0.0166  1.0000  -1.2784   0.0000   0.0000   0.0000   0.3633
  24.700   0.8210   0.32897   0.32575  -0.1106  0.0165  1.0000  -1.2677   0.0000   0.0000   0.0000   0.3639
  24.800   0.8202   0.32936   0.32615  -0.1110  0.0164  1.0000  -1.2573   0.0000   0.0000   0.0000   0.3644
  24.900   0.8194   0.32979   0.32659  -0.1115  0.0162  1.0000  -1.2472   0.0000   0.0000   0.0000   0.3650
  25.000   0.8187   0.33025   0.32706  -0.1119  0.0161  1.0000  -1.2375   0.0000   0.0000   0.0000   0.3655
  25.100   0.8180   0.33072   0.32755  -0.1123  0.0159  1.0000  -1.2284   0.0000   0.0000   0.0000   0.3660
  25.200   0.8174   0.33121   0.32805  -0.1127  0.0158  1.0000  -1.2197   0.0000   0.0000   0.0000   0.3665
  25.300   0.8168   0.33171   0.32855  -0.1131  0.0156  1.0000  -1.2116   0.0000   0.0000   0.0000   0.3669
  25.400   0.8161   0.33221   0.32906  -0.1135  0.0154  1.0000  -1.2039   0.0000   0.0000   0.0000   0.3674
  25.500   0.8155   0.33271   0.32958  -0.1139  0.0153  1.0000  -1.1967   0.0000   0.0000   0.0000   0.3678
  25.600   0.8149   0.33321   0.33009  -0.1142  0.0151  1.0000  -1.1898   0.0000   0.0000   0.0000   0.3683
  25.700   0.8143   0.33371   0.33061  -0.1146  0.0149  1.0000  -1.1832   0.0000   0.0000   0.0000   0.3687
  25.800   0.8137   0.33422   0.33112  -0.1150  0.0148  1.0000  -1.1768   0.0000   0.0000   0.0000   0.3691
  25.900   0.8131   0.33472   0.33164  -0.1153  0.0146  1.0000  -1.1707   0.0000   0.0000   0.0000   0.3695
  26.000   0.8125   0.33523   0.33216  -0.1157  0.0144  1.0000  -1.1647   0.0000   0.0000   0.0000   0.3699
  26.100   0.8119   0.33574   0.33268  -0.1160  0.0143  1.0000  -1.1589   0.0000   0.0000   0.0000   0.3703
  26.200   0.8114   0.33625   0.33320  -0.1164  0.0141  1.0000  -1.1532   0.0000   0.0000   0.0000   0.3707
  26.300   0.8109   0.33676   0.33373  -0.1168  0.0140  1.0000  -1.1476   0.0000   0.0000   0.0000   0.3711
  26.400   0.8104   0.33728   0.33425  -0.1171  0.0138  1.0000  -1.1421   0.0000   0.0000   0.0000   0.3715
  26.500   0.8099   0.33780   0.33478  -0.1175  0.0137  1.0000  -1.1367   0.0000   0.0000   0.0000   0.3719
  26.600   0.8094   0.33832   0.33532  -0.1179  0.0135  1.0000  -1.1313   0.0000   0.0000   0.0000   0.3723
  26.700   0.8090   0.33884   0.33585  -0.1182  0.0134  1.0000  -1.1260   0.0000   0.0000   0.0000   0.3727
  26.800   0.8086   0.33937   0.33645  -0.1186  0.0133  1.0000  -1.1200   0.0000   0.0000   0.0000   0.3731
  26.900   0.8082   0.33989   0.33699  -0.1190  0.0131  1.0000  -1.1146   0.0000   0.0000   0.0000   0.3735
  27.000   0.8078   0.34043   0.33753  -0.1194  0.0130  1.0000  -1.1094   0.0000   0.0000   0.0000   0.3739
  27.100   0.8074   0.34096   0.33808  -0.1198  0.0129  1.0000  -1.1041   0.0000   0.0000   0.0000   0.3742
  27.200   0.8070   0.34149   0.33862  -0.1201  0.0127  1.0000  -1.0989   0.0000   0.0000   0.0000   0.3746
  27.300   0.8067   0.34203   0.33917  -0.1205  0.0126  1.0000  -1.0937   0.0000   0.0000   0.0000   0.3750
  27.400   0.8064   0.34257   0.33973  -0.1209  0.0125  1.0000  -1.0885   0.0000   0.0000   0.0000   0.3754
  27.500   0.8060   0.34312   0.34028  -0.1213  0.0123  1.0000  -1.0834   0.0000   0.0000   0.0000   0.3757
  27.600   0.8058   0.34366   0.34084  -0.1217  0.0122  1.0000  -1.0782   0.0000   0.0000   0.0000   0.3761
  27.700   0.8055   0.34421   0.34139  -0.1221  0.0121  1.0000  -1.0730   0.0000   0.0000   0.0000   0.3765
  27.800   0.8052   0.34476   0.34195  -0.1225  0.0120  1.0000  -1.0679   0.0000   0.0000   0.0000   0.3769
  27.900   0.8049   0.34531   0.34252  -0.1229  0.0119  1.0000  -1.0628   0.0000   0.0000   0.0000   0.3772
  28.000   0.8047   0.34586   0.34308  -0.1233  0.0117  1.0000  -1.0577   0.0000   0.0000   0.0000   0.3776
  28.100   0.8044   0.34642   0.34365  -0.1237  0.0116  1.0000  -1.0526   0.0000   0.0000   0.0000   0.3780
  28.200   0.8042   0.34697   0.34421  -0.1241  0.0115  1.0000  -1.0475   0.0000   0.0000   0.0000   0.3783
  28.300   0.8040   0.34753   0.34478  -0.1245  0.0114  1.0000  -1.0425   0.0000   0.0000   0.0000   0.3787
  28.400   0.8038   0.34809   0.34535  -0.1249  0.0113  1.0000  -1.0375   0.0000   0.0000   0.0000   0.3791
  28.500   0.8036   0.34865   0.34592  -0.1253  0.0112  1.0000  -1.0325   0.0000   0.0000   0.0000   0.3794
  28.600   0.8034   0.34921   0.34650  -0.1257  0.0111  1.0000  -1.0276   0.0000   0.0000   0.0000   0.3798
  28.700   0.8032   0.34978   0.34707  -0.1261  0.0110  1.0000  -1.0228   0.0000   0.0000   0.0000   0.3801
  28.800   0.8030   0.35034   0.34764  -0.1265  0.0109  1.0000  -1.0180   0.0000   0.0000   0.0000   0.3805
  28.900   0.8028   0.35091   0.34822  -0.1269  0.0108  1.0000  -1.0133   0.0000   0.0000   0.0000   0.3808
  29.000   0.8026   0.35147   0.34880  -0.1273  0.0107  1.0000  -1.0087   0.0000   0.0000   0.0000   0.3812
  29.100   0.8025   0.35204   0.34937  -0.1277  0.0106  1.0000  -1.0041   0.0000   0.0000   0.0000   0.3816
  29.200   0.8023   0.35261   0.34995  -0.1281  0.0105  1.0000  -0.9996   0.0000   0.0000   0.0000   0.3819
  29.300   0.8022   0.35318   0.35053  -0.1286  0.0104  1.0000  -0.9952   0.0000   0.0000   0.0000   0.3823
  29.400   0.8020   0.35374   0.35111  -0.1290  0.0103  1.0000  -0.9909   0.0000   0.0000   0.0000   0.3826
  29.500   0.8019   0.35431   0.35169  -0.1294  0.0102  1.0000  -0.9868   0.0000   0.0000   0.0000   0.3830
  29.600   0.8017   0.35488   0.35227  -0.1298  0.0101  1.0000  -0.9827   0.0000   0.0000   0.0000   0.3833
  29.700   0.8016   0.35545   0.35285  -0.1302  0.0100  1.0000  -0.9787   0.0000   0.0000   0.0000   0.3837
  29.800   0.8014   0.35602   0.35343  -0.1307  0.0099  1.0000  -0.9748   0.0000   0.0000   0.0000   0.3840
  29.900   0.8013   0.35659   0.35401  -0.1311  0.0099  1.0000  -0.9710   0.0000   0.0000   0.0000   0.3843
  30.000   0.8012   0.35716   0.35459  -0.1315  0.0098  1.0000  -0.9674   0.0000   0.0000   0.0000   0.3847


