xflr5 v6.61

 Calculated polar for: MH 30

 1 1 Reynolds number fixed          Mach number fixed         

 xtrf =   1.000 (top)        1.000 (bottom)
 Mach =   0.000     Re =     0.200 e 6     Ncrit =   9.000

  alpha     CL        CD       CDp       Cm    Top Xtr Bot Xtr   Cpmin    Chinge    XCp    
 ------- -------- --------- --------- -------- ------- ------- -------- --------- ---------
 -10.000  -0.4964   0.11641   0.11290  -0.0089  1.0000  0.0300  -2.0019   0.0000   0.0000   0.0000   0.2277
  -9.900  -0.4949   0.11488   0.11139  -0.0096  1.0000  0.0300  -2.0178   0.0000   0.0000   0.0000   0.2261
  -9.800  -0.4933   0.11335   0.10987  -0.0104  1.0000  0.0300  -2.0342   0.0000   0.0000   0.0000   0.2245
  -9.700  -0.4919   0.11182   0.10834  -0.0112  1.0000  0.0301  -2.0511   0.0000   0.0000   0.0000   0.2230
  -9.600  -0.4905   0.11027   0.10680  -0.0120  1.0000  0.0301  -2.0684   0.0000   0.0000   0.0000   0.2213
  -9.500  -0.4890   0.10870   0.10524  -0.0128  1.0000  0.0301  -2.0862   0.0000   0.0000   0.0000   0.2196
  -9.400  -0.4876   0.10711   0.10367  -0.0136  1.0000  0.0301  -2.1045   0.0000   0.0000   0.0000   0.2179
  -9.300  -0.4862   0.10551   0.10208  -0.0145  1.0000  0.0301  -2.1234   0.0000   0.0000   0.0000   0.2161
  -9.200  -0.4849   0.10390   0.10049  -0.0153  1.0000  0.0301  -2.1428   0.0000   0.0000   0.0000   0.2143
  -9.100  -0.4837   0.10229   0.09889  -0.0162  1.0000  0.0302  -2.1628   0.0000   0.0000   0.0000   0.2124
  -9.000  -0.4845   0.10005   0.09671  -0.0173  1.0000  0.0303  -2.2095   0.0000   0.0000   0.0000   0.2103
  -8.900  -0.4899   0.09658   0.09327  -0.0186  1.0000  0.0306  -2.3068   0.0000   0.0000   0.0000   0.2080
  -8.800  -0.4938   0.09370   0.09041  -0.0197  1.0000  0.0310  -2.3728   0.0000   0.0000   0.0000   0.2062
  -8.700  -0.4963   0.09128   0.08801  -0.0206  1.0000  0.0314  -2.4134   0.0000   0.0000   0.0000   0.2048
  -8.600  -0.4978   0.08923   0.08598  -0.0212  1.0000  0.0318  -2.4340   0.0000   0.0000   0.0000   0.2036
  -8.500  -0.4985   0.08745   0.08421  -0.0218  1.0000  0.0322  -2.4405   0.0000   0.0000   0.0000   0.2026
  -8.400  -0.4961   0.08633   0.08310  -0.0211  1.0000  0.0330  -2.3828   0.0000   0.0000   0.0000   0.2040
  -8.300  -0.4935   0.08531   0.08207  -0.0207  1.0000  0.0337  -2.3345   0.0000   0.0000   0.0000   0.2046
  -8.200  -0.4917   0.08417   0.08081  -0.0207  1.0000  0.0343  -2.3047   0.0000   0.0000   0.0000   0.2044
  -8.100  -0.4901   0.08296   0.07962  -0.0210  1.0000  0.0349  -2.2859   0.0000   0.0000   0.0000   0.2038
  -8.000  -0.4891   0.08167   0.07834  -0.0215  1.0000  0.0354  -2.2779   0.0000   0.0000   0.0000   0.2028
  -7.900  -0.4887   0.08031   0.07700  -0.0221  1.0000  0.0358  -2.2776   0.0000   0.0000   0.0000   0.2015
  -7.800  -0.4888   0.07891   0.07561  -0.0229  1.0000  0.0362  -2.2833   0.0000   0.0000   0.0000   0.2001
  -7.700  -0.4894   0.07745   0.07418  -0.0238  1.0000  0.0366  -2.2941   0.0000   0.0000   0.0000   0.1984
  -7.600  -0.4901   0.07591   0.07266  -0.0250  1.0000  0.0369  -2.3087   0.0000   0.0000   0.0000   0.1961
  -7.500  -0.4896   0.07419   0.07096  -0.0266  1.0000  0.0373  -2.3247   0.0000   0.0000   0.0000   0.1928
  -7.400  -0.4887   0.07239   0.06916  -0.0284  1.0000  0.0377  -2.3424   0.0000   0.0000   0.0000   0.1891
  -7.300  -0.4875   0.07054   0.06731  -0.0301  1.0000  0.0381  -2.3614   0.0000   0.0000   0.0000   0.1855
  -7.200  -0.4862   0.06867   0.06544  -0.0318  1.0000  0.0386  -2.3814   0.0000   0.0000   0.0000   0.1820
  -7.100  -0.4847   0.06680   0.06356  -0.0333  1.0000  0.0391  -2.4020   0.0000   0.0000   0.0000   0.1786
  -7.000  -0.4830   0.06493   0.06168  -0.0348  1.0000  0.0396  -2.4232   0.0000   0.0000   0.0000   0.1755
  -6.900  -0.4813   0.06309   0.05981  -0.0360  1.0000  0.0402  -2.4447   0.0000   0.0000   0.0000   0.1727
  -6.800  -0.4795   0.06127   0.05797  -0.0371  1.0000  0.0408  -2.4665   0.0000   0.0000   0.0000   0.1702
  -6.700  -0.4776   0.05949   0.05616  -0.0380  1.0000  0.0415  -2.4886   0.0000   0.0000   0.0000   0.1680
  -6.600  -0.4757   0.05777   0.05440  -0.0387  1.0000  0.0422  -2.5108   0.0000   0.0000   0.0000   0.1662
  -6.500  -0.4738   0.05610   0.05269  -0.0392  1.0000  0.0430  -2.5333   0.0000   0.0000   0.0000   0.1649
  -6.400  -0.4718   0.05450   0.05103  -0.0395  1.0000  0.0438  -2.5563   0.0000   0.0000   0.0000   0.1638
  -6.300  -0.4694   0.05299   0.04945  -0.0397  1.0000  0.0448  -2.5800   0.0000   0.0000   0.0000   0.1630
  -6.200  -0.4559   0.05430   0.05059  -0.0396  1.0000  0.0493  -2.5596   0.0000   0.0000   0.0000   0.1608
  -6.100  -0.4515   0.05420   0.05036  -0.0391  1.0000  0.0498  -2.5532   0.0000   0.0000   0.0000   0.1611
  -6.000  -0.4491   0.05316   0.04925  -0.0386  1.0000  0.0500  -2.5598   0.0000   0.0000   0.0000   0.1618
  -5.900  -0.4468   0.05203   0.04804  -0.0380  1.0000  0.0501  -2.5668   0.0000   0.0000   0.0000   0.1627
  -5.800  -0.4445   0.05084   0.04678  -0.0374  1.0000  0.0501  -2.5732   0.0000   0.0000   0.0000   0.1636
  -5.700  -0.4421   0.04962   0.04548  -0.0368  1.0000  0.0502  -2.5791   0.0000   0.0000   0.0000   0.1645
  -5.600  -0.4394   0.04837   0.04415  -0.0361  1.0000  0.0502  -2.5843   0.0000   0.0000   0.0000   0.1655
  -5.500  -0.4531   0.04132   0.03692  -0.0368  1.0000  0.0526  -2.7644   0.0000   0.0000   0.0000   0.1664
  -5.400  -0.4508   0.03946   0.03501  -0.0364  1.0000  0.0535  -2.7615   0.0000   0.0000   0.0000   0.1670
  -5.300  -0.4471   0.03805   0.03355  -0.0359  1.0000  0.0543  -2.7467   0.0000   0.0000   0.0000   0.1675
  -5.200  -0.4386   0.03681   0.03236  -0.0349  1.0000  0.0445  -2.7670   0.0000   0.0000   0.0000   0.1682
  -5.100  -0.4304   0.03250   0.02752  -0.0335  1.0000  0.0280  -3.1720   0.0000   0.0000   0.0000   0.1696
  -5.000  -0.4261   0.03056   0.02541  -0.0330  1.0000  0.0270  -3.2177   0.0000   0.0000   0.0000   0.1701
  -4.900  -0.4205   0.02892   0.02360  -0.0324  1.0000  0.0261  -3.2511   0.0000   0.0000   0.0000   0.1704
  -4.800  -0.4140   0.02743   0.02193  -0.0318  1.0000  0.0254  -3.2792   0.0000   0.0000   0.0000   0.1707
  -4.700  -0.4070   0.02604   0.02036  -0.0312  1.0000  0.0247  -3.3029   0.0000   0.0000   0.0000   0.1708
  -4.600  -0.3993   0.02475   0.01888  -0.0307  1.0000  0.0241  -3.3218   0.0000   0.0000   0.0000   0.1707
  -4.500  -0.3912   0.02355   0.01749  -0.0301  1.0000  0.0236  -3.3347   0.0000   0.0000   0.0000   0.1705
  -4.400  -0.3827   0.02243   0.01620  -0.0296  1.0000  0.0233  -3.3406   0.0000   0.0000   0.0000   0.1702
  -4.300  -0.3738   0.02141   0.01501  -0.0290  1.0000  0.0231  -3.3387   0.0000   0.0000   0.0000   0.1698
  -4.200  -0.3647   0.02048   0.01392  -0.0286  1.0000  0.0230  -3.3287   0.0000   0.0000   0.0000   0.1692
  -4.100  -0.3553   0.01962   0.01293  -0.0281  1.0000  0.0230  -3.3111   0.0000   0.0000   0.0000   0.1684
  -4.000  -0.3459   0.01884   0.01202  -0.0276  1.0000  0.0231  -3.2865   0.0000   0.0000   0.0000   0.1676
  -3.900  -0.3365   0.01824   0.01131  -0.0272  1.0000  0.0238  -3.2398   0.0000   0.0000   0.0000   0.1666
  -3.800  -0.3272   0.01778   0.01078  -0.0268  1.0000  0.0251  -3.1759   0.0000   0.0000   0.0000   0.1655
  -3.700  -0.3178   0.01735   0.01029  -0.0264  1.0000  0.0264  -3.1115   0.0000   0.0000   0.0000   0.1643
  -3.600  -0.3081   0.01690   0.00976  -0.0261  1.0000  0.0275  -3.0553   0.0000   0.0000   0.0000   0.1629
  -3.500  -0.2982   0.01639   0.00917  -0.0257  1.0000  0.0284  -3.0093   0.0000   0.0000   0.0000   0.1614
  -3.400  -0.2883   0.01593   0.00864  -0.0253  1.0000  0.0292  -2.9614   0.0000   0.0000   0.0000   0.1597
  -3.300  -0.2786   0.01562   0.00828  -0.0250  1.0000  0.0301  -2.8997   0.0000   0.0000   0.0000   0.1580
  -3.200  -0.2681   0.01430   0.00686  -0.0247  1.0000  0.0331  -2.9332   0.0000   0.0000   0.0000   0.1555
  -3.100  -0.2585   0.01373   0.00629  -0.0245  1.0000  0.0393  -2.8838   0.0000   0.0000   0.0000   0.1529
  -3.000  -0.2490   0.01351   0.00606  -0.0242  1.0000  0.0466  -2.8308   0.0000   0.0000   0.0000   0.1505
  -2.900  -0.2391   0.01293   0.00550  -0.0239  1.0000  0.0617  -2.8247   0.0000   0.0000   0.0000   0.1474
  -2.800  -0.2287   0.01194   0.00494  -0.0239  1.0000  0.1468  -2.8414   0.0000   0.0000   0.0000   0.1429
  -2.700  -0.2150   0.01148   0.00481  -0.0249  0.9987  0.2257  -2.7171   0.0000   0.0000   0.0000   0.1320
  -2.600  -0.1999   0.01117   0.00476  -0.0260  0.9970  0.2902  -2.5688   0.0000   0.0000   0.0000   0.1177
  -2.400  -0.1726   0.01052   0.00473  -0.0275  0.9933  0.4461  -2.2796   0.0000   0.0000   0.0000   0.0881
  -2.300  -0.1595   0.01024   0.00475  -0.0280  0.9914  0.5265  -2.1376   0.0000   0.0000   0.0000   0.0716
  -2.200  -0.1465   0.00998   0.00480  -0.0284  0.9895  0.6073  -1.9971   0.0000   0.0000   0.0000   0.0535
  -2.100  -0.1327   0.00980   0.00486  -0.0288  0.9877  0.6777  -1.8540   0.0000   0.0000   0.0000   0.0305
  -2.000  -0.1213   0.00964   0.00489  -0.0285  0.9851  0.7360  -1.7264   0.0000   0.0000   0.0000   0.0119
  -1.900  -0.1102   0.00950   0.00492  -0.0282  0.9822  0.7925  -1.6018   0.0000   0.0000   0.0000  -0.0086
  -1.800  -0.0973   0.00942   0.00495  -0.0281  0.9798  0.8512  -1.4707   0.0000   0.0000   0.0000  -0.0416
  -1.700  -0.0762   0.00935   0.00489  -0.0296  0.9793  0.9149  -1.3023   0.0000   0.0000   0.0000  -0.1422
  -1.600  -0.0421   0.00927   0.00476  -0.0342  0.9809  0.9821  -1.0706   0.0000   0.0000   0.0000  -0.5690
  -1.500  -0.0211   0.00929   0.00469  -0.0363  0.9794  1.0000  -0.9144   0.0000   0.0000   0.0000  -1.4813
  -1.400  -0.0033   0.00932   0.00465  -0.0378  0.9770  1.0000  -0.7780   0.0000   0.0000   0.0000  -11.3096
  -1.300   0.0154   0.00936   0.00461  -0.0395  0.9749  1.0000  -0.6419   0.0000   0.0000   0.0000   2.8222
  -1.200   0.0347   0.00939   0.00458  -0.0412  0.9731  1.0000  -0.5485   0.0000   0.0000   0.0000   1.4436
  -1.100   0.0542   0.00943   0.00455  -0.0430  0.9717  1.0000  -0.4881   0.0000   0.0000   0.0000   1.0466
  -1.000   0.0652   0.00943   0.00449  -0.0431  0.9674  1.0000  -0.4562   0.0000   0.0000   0.0000   0.9124
  -0.900   0.0799   0.00944   0.00445  -0.0439  0.9639  1.0000  -0.4192   0.0000   0.0000   0.0000   0.8004
  -0.800   0.0966   0.00944   0.00441  -0.0451  0.9610  1.0000  -0.3796   0.0000   0.0000   0.0000   0.7172
  -0.700   0.1149   0.00944   0.00436  -0.0466  0.9584  1.0000  -0.3383   0.0000   0.0000   0.0000   0.6556
  -0.600   0.1343   0.00943   0.00432  -0.0483  0.9563  1.0000  -0.3473   0.0000   0.0000   0.0000   0.6096
  -0.500   0.1544   0.00942   0.00427  -0.0501  0.9545  1.0000  -0.3618   0.0000   0.0000   0.0000   0.5747
  -0.400   0.1749   0.00940   0.00422  -0.0521  0.9530  1.0000  -0.3766   0.0000   0.0000   0.0000   0.5475
  -0.300   0.1950   0.00938   0.00416  -0.0539  0.9515  1.0000  -0.3924   0.0000   0.0000   0.0000   0.5260
  -0.200   0.2065   0.00937   0.00414  -0.0540  0.9470  1.0000  -0.4039   0.0000   0.0000   0.0000   0.5108
  -0.100   0.2180   0.00935   0.00410  -0.0540  0.9418  1.0000  -0.4155   0.0000   0.0000   0.0000   0.4971
   0.000   0.2336   0.00931   0.00404  -0.0548  0.9376  1.0000  -0.4296   0.0000   0.0000   0.0000   0.4840
   0.100   0.2503   0.00925   0.00397  -0.0558  0.9339  1.0000  -0.4445   0.0000   0.0000   0.0000   0.4723
   0.200   0.2675   0.00919   0.00389  -0.0569  0.9306  1.0000  -0.4599   0.0000   0.0000   0.0000   0.4620
   0.300   0.2847   0.00913   0.00382  -0.0580  0.9276  1.0000  -0.4777   0.0000   0.0000   0.0000   0.4529
   0.400   0.3012   0.00909   0.00376  -0.0589  0.9248  1.0000  -0.4951   0.0000   0.0000   0.0000   0.4447
   0.500   0.3062   0.00911   0.00377  -0.0576  0.9176  1.0000  -0.5044   0.0000   0.0000   0.0000   0.4371
   0.600   0.3161   0.00909   0.00375  -0.0572  0.9116  1.0000  -0.5172   0.0000   0.0000   0.0000   0.4299
   0.700   0.3280   0.00904   0.00370  -0.0572  0.9065  1.0000  -0.5315   0.0000   0.0000   0.0000   0.4232
   0.800   0.3405   0.00899   0.00363  -0.0572  0.9018  1.0000  -0.5471   0.0000   0.0000   0.0000   0.4169
   0.900   0.3530   0.00893   0.00357  -0.0572  0.8974  1.0000  -0.5647   0.0000   0.0000   0.0000   0.4109
   1.000   0.3643   0.00891   0.00354  -0.0570  0.8927  1.0000  -0.5814   0.0000   0.0000   0.0000   0.4053
   1.100   0.3714   0.00891   0.00354  -0.0561  0.8854  1.0000  -0.5946   0.0000   0.0000   0.0000   0.3998
   1.200   0.3804   0.00889   0.00352  -0.0555  0.8786  1.0000  -0.6095   0.0000   0.0000   0.0000   0.3945
   1.300   0.3904   0.00886   0.00348  -0.0550  0.8725  1.0000  -0.6254   0.0000   0.0000   0.0000   0.3896
   1.400   0.4008   0.00881   0.00342  -0.0546  0.8668  1.0000  -0.6417   0.0000   0.0000   0.0000   0.3847
   1.500   0.4118   0.00876   0.00335  -0.0542  0.8614  1.0000  -0.6587   0.0000   0.0000   0.0000   0.3802
   1.600   0.4207   0.00876   0.00336  -0.0536  0.8544  1.0000  -0.6766   0.0000   0.0000   0.0000   0.3759
   1.700   0.4293   0.00875   0.00336  -0.0530  0.8462  1.0000  -0.6946   0.0000   0.0000   0.0000   0.3718
   1.800   0.4386   0.00873   0.00333  -0.0524  0.8383  1.0000  -0.7135   0.0000   0.0000   0.0000   0.3678
   1.900   0.4486   0.00869   0.00328  -0.0519  0.8312  1.0000  -0.7333   0.0000   0.0000   0.0000   0.3639
   2.000   0.4590   0.00866   0.00322  -0.0514  0.8245  1.0000  -0.7536   0.0000   0.0000   0.0000   0.3602
   2.100   0.4686   0.00866   0.00323  -0.0509  0.8167  1.0000  -0.7731   0.0000   0.0000   0.0000   0.3569
   2.200   0.4777   0.00866   0.00324  -0.0504  0.8069  1.0000  -0.7960   0.0000   0.0000   0.0000   0.3536
   2.300   0.4872   0.00865   0.00323  -0.0498  0.7969  1.0000  -0.8202   0.0000   0.0000   0.0000   0.3504
   2.400   0.4972   0.00863   0.00318  -0.0493  0.7876  1.0000  -0.8453   0.0000   0.0000   0.0000   0.3472
   2.500   0.5074   0.00863   0.00315  -0.0488  0.7787  1.0000  -0.8708   0.0000   0.0000   0.0000   0.3442
   2.600   0.5168   0.00865   0.00319  -0.0484  0.7680  1.0000  -0.8952   0.0000   0.0000   0.0000   0.3416
   2.700   0.5264   0.00866   0.00319  -0.0479  0.7563  1.0000  -0.9203   0.0000   0.0000   0.0000   0.3389
   2.800   0.5363   0.00867   0.00315  -0.0474  0.7443  1.0000  -0.9458   0.0000   0.0000   0.0000   0.3362
   2.900   0.5461   0.00870   0.00315  -0.0469  0.7324  1.0000  -0.9715   0.0000   0.0000   0.0000   0.3337
   3.000   0.5557   0.00873   0.00318  -0.0465  0.7188  1.0000  -1.0027   0.0000   0.0000   0.0000   0.3314
   3.100   0.5654   0.00878   0.00318  -0.0460  0.7042  1.0000  -1.0359   0.0000   0.0000   0.0000   0.3290
   3.200   0.5752   0.00885   0.00317  -0.0455  0.6904  1.0000  -1.0696   0.0000   0.0000   0.0000   0.3267
   3.300   0.5850   0.00890   0.00327  -0.0452  0.6770  1.0000  -1.1097   0.0000   0.0000   0.0000   0.3247
   3.400   0.5946   0.00898   0.00331  -0.0447  0.6608  1.0000  -1.1561   0.0000   0.0000   0.0000   0.3226
   3.500   0.6039   0.00909   0.00332  -0.0442  0.6437  1.0000  -1.2025   0.0000   0.0000   0.0000   0.3205
   3.600   0.6136   0.00917   0.00339  -0.0438  0.6277  1.0000  -1.2500   0.0000   0.0000   0.0000   0.3187
   3.700   0.6230   0.00928   0.00344  -0.0434  0.6091  1.0000  -1.2973   0.0000   0.0000   0.0000   0.3168
   3.800   0.6321   0.00944   0.00350  -0.0428  0.5912  1.0000  -1.3445   0.0000   0.0000   0.0000   0.3149
   3.900   0.6419   0.00953   0.00359  -0.0425  0.5752  1.0000  -1.3936   0.0000   0.0000   0.0000   0.3133
   4.000   0.6512   0.00967   0.00366  -0.0421  0.5564  1.0000  -1.4420   0.0000   0.0000   0.0000   0.3116
   4.100   0.6603   0.00984   0.00375  -0.0416  0.5380  1.0000  -1.4961   0.0000   0.0000   0.0000   0.3099
   4.200   0.6698   0.00996   0.00385  -0.0413  0.5187  1.0000  -1.5696   0.0000   0.0000   0.0000   0.3084
   4.300   0.6785   0.01017   0.00394  -0.0408  0.4971  1.0000  -1.6412   0.0000   0.0000   0.0000   0.3068
   4.400   0.6880   0.01031   0.00405  -0.0404  0.4783  1.0000  -1.7162   0.0000   0.0000   0.0000   0.3054
   4.500   0.6971   0.01049   0.00423  -0.0400  0.4576  1.0000  -1.8215   0.0000   0.0000   0.0000   0.3040
   4.600   0.7059   0.01071   0.00435  -0.0396  0.4382  1.0000  -1.9439   0.0000   0.0000   0.0000   0.3025
   4.700   0.7154   0.01086   0.00448  -0.0393  0.4194  1.0000  -2.0742   0.0000   0.0000   0.0000   0.3013
   4.800   0.7239   0.01111   0.00461  -0.0388  0.3971  1.0000  -2.2003   0.0000   0.0000   0.0000   0.2999
   4.900   0.7333   0.01129   0.00476  -0.0385  0.3776  1.0000  -2.3346   0.0000   0.0000   0.0000   0.2987
   5.000   0.7419   0.01153   0.00490  -0.0381  0.3553  1.0000  -2.4666   0.0000   0.0000   0.0000   0.2975
   5.100   0.7509   0.01176   0.00506  -0.0377  0.3353  1.0000  -2.6028   0.0000   0.0000   0.0000   0.2963
   5.200   0.7599   0.01198   0.00522  -0.0374  0.3158  1.0000  -2.7418   0.0000   0.0000   0.0000   0.2952
   5.300   0.7684   0.01227   0.00541  -0.0370  0.2955  1.0000  -2.8775   0.0000   0.0000   0.0000   0.2940
   5.400   0.7779   0.01246   0.00558  -0.0367  0.2784  1.0000  -3.0239   0.0000   0.0000   0.0000   0.2930
   5.500   0.7860   0.01280   0.00578  -0.0363  0.2565  1.0000  -3.1614   0.0000   0.0000   0.0000   0.2919
   5.600   0.7954   0.01300   0.00597  -0.0361  0.2387  1.0000  -3.3109   0.0000   0.0000   0.0000   0.2910
   5.700   0.8036   0.01333   0.00617  -0.0357  0.2178  1.0000  -3.4532   0.0000   0.0000   0.0000   0.2899
   5.800   0.8128   0.01357   0.00639  -0.0354  0.2009  1.0000  -3.6035   0.0000   0.0000   0.0000   0.2890
   5.900   0.8213   0.01390   0.00660  -0.0351  0.1819  1.0000  -3.7505   0.0000   0.0000   0.0000   0.2880
   6.000   0.8302   0.01419   0.00685  -0.0348  0.1640  1.0000  -3.9003   0.0000   0.0000   0.0000   0.2871
   6.100   0.8383   0.01456   0.00708  -0.0344  0.1441  1.0000  -4.0479   0.0000   0.0000   0.0000   0.2862
   6.200   0.8473   0.01485   0.00734  -0.0342  0.1267  1.0000  -4.1999   0.0000   0.0000   0.0000   0.2853
   6.300   0.8547   0.01535   0.00768  -0.0337  0.1071  1.0000  -4.3372   0.0000   0.0000   0.0000   0.2844
   6.400   0.8637   0.01566   0.00799  -0.0334  0.0935  1.0000  -4.4838   0.0000   0.0000   0.0000   0.2835
   6.500   0.8701   0.01637   0.00855  -0.0327  0.0759  1.0000  -4.5902   0.0000   0.0000   0.0000   0.2823
   6.600   0.8789   0.01675   0.00894  -0.0323  0.0650  1.0000  -4.7203   0.0000   0.0000   0.0000   0.2814
   6.700   0.8831   0.01788   0.01000  -0.0312  0.0532  1.0000  -4.7651   0.0000   0.0000   0.0000   0.2799
   6.800   0.8925   0.01818   0.01037  -0.0308  0.0490  1.0000  -4.8882   0.0000   0.0000   0.0000   0.2789
   6.900   0.9006   0.01869   0.01092  -0.0302  0.0441  1.0000  -4.9859   0.0000   0.0000   0.0000   0.2779
   7.000   0.9081   0.01931   0.01156  -0.0296  0.0404  1.0000  -5.0761   0.0000   0.0000   0.0000   0.2768
   7.100   0.9142   0.02028   0.01255  -0.0287  0.0373  1.0000  -5.1306   0.0000   0.0000   0.0000   0.2756
   7.200   0.9181   0.02226   0.01463  -0.0276  0.0339  1.0000  -5.1108   0.0000   0.0000   0.0000   0.2741
   7.300   0.9287   0.02198   0.01439  -0.0275  0.0322  1.0000  -5.2892   0.0000   0.0000   0.0000   0.2736
   7.400   0.9375   0.02249   0.01498  -0.0271  0.0305  1.0000  -5.3818   0.0000   0.0000   0.0000   0.2727
   7.500   0.9461   0.02298   0.01553  -0.0266  0.0283  1.0000  -5.4740   0.0000   0.0000   0.0000   0.2719
   7.600   0.9546   0.02329   0.01587  -0.0263  0.0256  1.0000  -5.5894   0.0000   0.0000   0.0000   0.2712
   7.700   0.9623   0.02374   0.01632  -0.0259  0.0233  1.0000  -5.6951   0.0000   0.0000   0.0000   0.2704
   7.800   0.9691   0.02473   0.01736  -0.0253  0.0218  1.0000  -5.7324   0.0000   0.0000   0.0000   0.2695
   7.900   0.9748   0.02640   0.01915  -0.0245  0.0204  1.0000  -5.7323   0.0000   0.0000   0.0000   0.2684
   8.000   0.9795   0.02874   0.02170  -0.0235  0.0195  1.0000  -5.6821   0.0000   0.0000   0.0000   0.2673
   8.100   0.9830   0.03136   0.02460  -0.0226  0.0190  1.0000  -5.6109   0.0000   0.0000   0.0000   0.2662
   8.200   0.9874   0.03318   0.02659  -0.0217  0.0187  1.0000  -5.6028   0.0000   0.0000   0.0000   0.2651
   8.300   0.9947   0.03374   0.02727  -0.0211  0.0184  1.0000  -5.6945   0.0000   0.0000   0.0000   0.2643
   8.400   1.0018   0.03435   0.02800  -0.0205  0.0180  1.0000  -5.7851   0.0000   0.0000   0.0000   0.2634
   8.500   1.0085   0.03502   0.02880  -0.0199  0.0174  1.0000  -5.8731   0.0000   0.0000   0.0000   0.2626
   8.600   1.0146   0.03582   0.02971  -0.0193  0.0168  1.0000  -5.9527   0.0000   0.0000   0.0000   0.2617
   8.700   1.0200   0.03677   0.03080  -0.0186  0.0163  1.0000  -6.0186   0.0000   0.0000   0.0000   0.2609
   8.800   1.0244   0.03789   0.03206  -0.0179  0.0158  1.0000  -6.0673   0.0000   0.0000   0.0000   0.2600
   8.900   1.0276   0.03920   0.03352  -0.0171  0.0155  1.0000  -6.0953   0.0000   0.0000   0.0000   0.2590
   9.000   1.0297   0.04069   0.03518  -0.0162  0.0154  1.0000  -6.1009   0.0000   0.0000   0.0000   0.2581
   9.100   1.0306   0.04228   0.03694  -0.0153  0.0154  1.0000  -6.0932   0.0000   0.0000   0.0000   0.2571
   9.200   1.0307   0.04390   0.03872  -0.0143  0.0153  1.0000  -6.0803   0.0000   0.0000   0.0000   0.2561
   9.300   1.0299   0.04554   0.04052  -0.0134  0.0154  1.0000  -6.0631   0.0000   0.0000   0.0000   0.2551
   9.400   1.0283   0.04719   0.04232  -0.0124  0.0154  1.0000  -6.0419   0.0000   0.0000   0.0000   0.2541
   9.500   1.0257   0.04883   0.04410  -0.0114  0.0154  1.0000  -6.0175   0.0000   0.0000   0.0000   0.2531
   9.600   1.0223   0.05046   0.04586  -0.0105  0.0155  1.0000  -5.9906   0.0000   0.0000   0.0000   0.2521
   9.700   1.0178   0.05211   0.04786  -0.0095  0.0155  1.0000  -5.9585   0.0000   0.0000   0.0000   0.2511
   9.800   1.0122   0.05356   0.04943  -0.0084  0.0156  1.0000  -5.9290   0.0000   0.0000   0.0000   0.2500
   9.900   1.0058   0.05498   0.05094  -0.0073  0.0156  1.0000  -5.8992   0.0000   0.0000   0.0000   0.2489
  10.000   0.9990   0.05642   0.05246  -0.0065  0.0157  1.0000  -5.8683   0.0000   0.0000   0.0000   0.2480
  10.100   0.9919   0.05791   0.05404  -0.0058  0.0157  1.0000  -5.8363   0.0000   0.0000   0.0000   0.2473
  10.200   0.9849   0.05944   0.05542  -0.0054  0.0158  1.0000  -5.8050   0.0000   0.0000   0.0000   0.2468
  10.300   0.9774   0.06109   0.05714  -0.0053  0.0158  1.0000  -5.7691   0.0000   0.0000   0.0000   0.2466
  10.400   0.9698   0.06285   0.05898  -0.0055  0.0159  1.0000  -5.7309   0.0000   0.0000   0.0000   0.2467
  10.500   0.9622   0.06474   0.06094  -0.0059  0.0159  1.0000  -5.6902   0.0000   0.0000   0.0000   0.2471
  10.600   0.9544   0.06677   0.06304  -0.0067  0.0160  1.0000  -5.6466   0.0000   0.0000   0.0000   0.2478
  10.700   0.9465   0.06891   0.06525  -0.0078  0.0160  1.0000  -5.6000   0.0000   0.0000   0.0000   0.2489
  10.800   0.9386   0.07125   0.06764  -0.0092  0.0161  1.0000  -5.5491   0.0000   0.0000   0.0000   0.2503
  10.900   0.9307   0.07381   0.07026  -0.0109  0.0161  1.0000  -5.4929   0.0000   0.0000   0.0000   0.2522
  11.000   0.9229   0.07661   0.07313  -0.0130  0.0162  1.0000  -5.4302   0.0000   0.0000   0.0000   0.2544
  11.100   0.9151   0.07969   0.07625  -0.0155  0.0163  1.0000  -5.3594   0.0000   0.0000   0.0000   0.2571
  11.200   0.9073   0.08306   0.07967  -0.0182  0.0164  1.0000  -5.2787   0.0000   0.0000   0.0000   0.2602
  11.300   0.8996   0.08674   0.08339  -0.0212  0.0165  1.0000  -5.1856   0.0000   0.0000   0.0000   0.2636
  11.400   0.8918   0.09072   0.08741  -0.0243  0.0166  1.0000  -5.0781   0.0000   0.0000   0.0000   0.2672
  11.500   0.8841   0.09497   0.09168  -0.0274  0.0168  1.0000  -4.9542   0.0000   0.0000   0.0000   0.2709
  11.600   0.8757   0.09947   0.09620  -0.0304  0.0171  1.0000  -4.8050   0.0000   0.0000   0.0000   0.2746
  11.700   0.8662   0.10406   0.10078  -0.0331  0.0176  1.0000  -4.6324   0.0000   0.0000   0.0000   0.2781
  12.200   0.8336   0.12913   0.12580  -0.0450  0.0263  1.0000  -3.4121   0.0000   0.0000   0.0000   0.2944
  12.300   0.8305   0.13217   0.12883  -0.0464  0.0272  1.0000  -3.3189   0.0000   0.0000   0.0000   0.2963
  12.400   0.8283   0.13494   0.13158  -0.0477  0.0281  1.0000  -3.2460   0.0000   0.0000   0.0000   0.2978
  12.500   0.8265   0.13755   0.13418  -0.0488  0.0290  1.0000  -3.1852   0.0000   0.0000   0.0000   0.2992
  12.600   0.8251   0.14004   0.13667  -0.0498  0.0298  1.0000  -3.1330   0.0000   0.0000   0.0000   0.3005
  12.700   0.8236   0.14250   0.13911  -0.0506  0.0308  1.0000  -3.0870   0.0000   0.0000   0.0000   0.3016
  12.800   0.8289   0.14331   0.13999  -0.0480  0.0348  1.0000  -3.1813   0.0000   0.0000   0.0000   0.2978
  12.900   0.8288   0.14566   0.14233  -0.0490  0.0348  1.0000  -3.1452   0.0000   0.0000   0.0000   0.2990
  13.000   0.8280   0.14819   0.14485  -0.0501  0.0347  1.0000  -3.1024   0.0000   0.0000   0.0000   0.3003
  13.100   0.8265   0.15093   0.14758  -0.0513  0.0346  1.0000  -3.0508   0.0000   0.0000   0.0000   0.3017
  13.200   0.8243   0.15396   0.15060  -0.0525  0.0344  1.0000  -2.9862   0.0000   0.0000   0.0000   0.3033
  13.300   0.8212   0.15739   0.15401  -0.0538  0.0341  1.0000  -2.9036   0.0000   0.0000   0.0000   0.3052
  13.400   0.8185   0.16079   0.15736  -0.0552  0.0339  1.0000  -2.8219   0.0000   0.0000   0.0000   0.3070
  13.500   0.8193   0.16294   0.15950  -0.0562  0.0339  1.0000  -2.7947   0.0000   0.0000   0.0000   0.3081
  13.600   0.8202   0.16507   0.16163  -0.0571  0.0339  1.0000  -2.7684   0.0000   0.0000   0.0000   0.3091
  13.700   0.8212   0.16717   0.16372  -0.0581  0.0339  1.0000  -2.7432   0.0000   0.0000   0.0000   0.3101
  13.800   0.8223   0.16925   0.16580  -0.0590  0.0339  1.0000  -2.7188   0.0000   0.0000   0.0000   0.3111
  13.900   0.8234   0.17130   0.16785  -0.0600  0.0339  1.0000  -2.6953   0.0000   0.0000   0.0000   0.3120
  14.000   0.8247   0.17334   0.16988  -0.0609  0.0338  1.0000  -2.6727   0.0000   0.0000   0.0000   0.3130
  14.100   0.8260   0.17536   0.17190  -0.0618  0.0338  1.0000  -2.6509   0.0000   0.0000   0.0000   0.3139
  14.200   0.8274   0.17732   0.17385  -0.0627  0.0338  1.0000  -2.6300   0.0000   0.0000   0.0000   0.3148
  14.300   0.8288   0.17922   0.17575  -0.0636  0.0338  1.0000  -2.6099   0.0000   0.0000   0.0000   0.3156
  14.400   0.8304   0.18107   0.17760  -0.0645  0.0338  1.0000  -2.5903   0.0000   0.0000   0.0000   0.3165
  14.500   0.8320   0.18290   0.17942  -0.0654  0.0337  1.0000  -2.5714   0.0000   0.0000   0.0000   0.3173
  14.600   0.8336   0.18471   0.18122  -0.0663  0.0337  1.0000  -2.5530   0.0000   0.0000   0.0000   0.3182
  14.700   0.8354   0.18650   0.18301  -0.0672  0.0337  1.0000  -2.5351   0.0000   0.0000   0.0000   0.3190
  14.800   0.8371   0.18827   0.18478  -0.0681  0.0336  1.0000  -2.5177   0.0000   0.0000   0.0000   0.3198
  14.900   0.8389   0.19003   0.18653  -0.0690  0.0336  1.0000  -2.5008   0.0000   0.0000   0.0000   0.3206
  15.000   0.8408   0.19176   0.18826  -0.0700  0.0335  1.0000  -2.4844   0.0000   0.0000   0.0000   0.3215
  15.100   0.8427   0.19345   0.18995  -0.0709  0.0334  1.0000  -2.4683   0.0000   0.0000   0.0000   0.3223
  15.200   0.8447   0.19509   0.19158  -0.0719  0.0333  1.0000  -2.4528   0.0000   0.0000   0.0000   0.3231
  15.300   0.8467   0.19664   0.19313  -0.0728  0.0332  1.0000  -2.4376   0.0000   0.0000   0.0000   0.3240
  15.400   0.8490   0.19803   0.19451  -0.0739  0.0330  1.0000  -2.4226   0.0000   0.0000   0.0000   0.3249
  15.500   0.8510   0.19915   0.19563  -0.0752  0.0325  1.0000  -2.4005   0.0000   0.0000   0.0000   0.3261
  15.600   0.8519   0.20024   0.19671  -0.0768  0.0318  1.0000  -2.3595   0.0000   0.0000   0.0000   0.3278
  15.700   0.8529   0.20162   0.19808  -0.0784  0.0310  1.0000  -2.3203   0.0000   0.0000   0.0000   0.3294
  15.800   0.8544   0.20324   0.19970  -0.0796  0.0303  1.0000  -2.2911   0.0000   0.0000   0.0000   0.3306
  15.900   0.8562   0.20496   0.20142  -0.0807  0.0295  1.0000  -2.2697   0.0000   0.0000   0.0000   0.3316
  16.000   0.8581   0.20671   0.20317  -0.0816  0.0289  1.0000  -2.2531   0.0000   0.0000   0.0000   0.3324
  16.100   0.8601   0.20848   0.20494  -0.0826  0.0282  1.0000  -2.2400   0.0000   0.0000   0.0000   0.3331
  16.200   0.8621   0.21026   0.20671  -0.0834  0.0277  1.0000  -2.2294   0.0000   0.0000   0.0000   0.3338
  16.300   0.8642   0.21203   0.20848  -0.0843  0.0271  1.0000  -2.2208   0.0000   0.0000   0.0000   0.3344
  16.400   0.8663   0.21380   0.21025  -0.0851  0.0266  1.0000  -2.2138   0.0000   0.0000   0.0000   0.3350
  16.500   0.8684   0.21557   0.21202  -0.0859  0.0261  1.0000  -2.2083   0.0000   0.0000   0.0000   0.3356
  16.600   0.8706   0.21734   0.21379  -0.0867  0.0256  1.0000  -2.2042   0.0000   0.0000   0.0000   0.3361
  16.700   0.8727   0.21910   0.21555  -0.0874  0.0251  1.0000  -2.2014   0.0000   0.0000   0.0000   0.3366
  16.800   0.8750   0.22086   0.21731  -0.0882  0.0247  1.0000  -2.2000   0.0000   0.0000   0.0000   0.3371
  16.900   0.8772   0.22262   0.21907  -0.0889  0.0242  1.0000  -2.1999   0.0000   0.0000   0.0000   0.3376
  17.000   0.8794   0.22437   0.22082  -0.0896  0.0238  1.0000  -2.2012   0.0000   0.0000   0.0000   0.3380
  17.100   0.8817   0.22611   0.22257  -0.0903  0.0234  1.0000  -2.2040   0.0000   0.0000   0.0000   0.3384
  17.200   0.8840   0.22786   0.22431  -0.0910  0.0231  1.0000  -2.2085   0.0000   0.0000   0.0000   0.3388
  17.300   0.8864   0.22959   0.22605  -0.0916  0.0227  1.0000  -2.2148   0.0000   0.0000   0.0000   0.3391
  17.400   0.8887   0.23133   0.22779  -0.0923  0.0224  1.0000  -2.2231   0.0000   0.0000   0.0000   0.3394
  17.500   0.8912   0.23307   0.22968  -0.0928  0.0220  1.0000  -2.2350   0.0000   0.0000   0.0000   0.3396
  17.600   0.8936   0.23481   0.23143  -0.0934  0.0217  1.0000  -2.2483   0.0000   0.0000   0.0000   0.3398
  17.700   0.8962   0.23654   0.23317  -0.0939  0.0214  1.0000  -2.2647   0.0000   0.0000   0.0000   0.3399
  17.800   0.8988   0.23830   0.23493  -0.0943  0.0211  1.0000  -2.2850   0.0000   0.0000   0.0000   0.3400
  17.900   0.9015   0.24008   0.23672  -0.0947  0.0208  1.0000  -2.3099   0.0000   0.0000   0.0000   0.3399
  18.000   0.9045   0.24194   0.23859  -0.0950  0.0205  1.0000  -2.3402   0.0000   0.0000   0.0000   0.3397
  18.100   0.9077   0.24394   0.24060  -0.0951  0.0202  1.0000  -2.3776   0.0000   0.0000   0.0000   0.3393
  18.200   0.9113   0.24630   0.24297  -0.0950  0.0199  1.0000  -2.4195   0.0000   0.0000   0.0000   0.3386
  18.300   0.9130   0.24924   0.24592  -0.0953  0.0195  1.0000  -2.4217   0.0000   0.0000   0.0000   0.3387
  18.400   0.9088   0.25663   0.25325  -0.0962  0.0188  1.0000  -2.2601   0.0000   0.0000   0.0000   0.3402
  18.500   0.9108   0.25870   0.25532  -0.0970  0.0188  1.0000  -2.2452   0.0000   0.0000   0.0000   0.3407
  18.600   0.9127   0.26078   0.25740  -0.0978  0.0188  1.0000  -2.2305   0.0000   0.0000   0.0000   0.3412
  18.700   0.9146   0.26285   0.25948  -0.0986  0.0188  1.0000  -2.2158   0.0000   0.0000   0.0000   0.3417
  18.800   0.9164   0.26492   0.26155  -0.0993  0.0188  1.0000  -2.2012   0.0000   0.0000   0.0000   0.3422
  18.900   0.9183   0.26698   0.26361  -0.1001  0.0188  1.0000  -2.1867   0.0000   0.0000   0.0000   0.3427
  19.000   0.9201   0.26904   0.26567  -0.1009  0.0187  1.0000  -2.1722   0.0000   0.0000   0.0000   0.3433
  19.100   0.9218   0.27109   0.26772  -0.1017  0.0187  1.0000  -2.1580   0.0000   0.0000   0.0000   0.3438
  19.200   0.9236   0.27314   0.26977  -0.1025  0.0187  1.0000  -2.1438   0.0000   0.0000   0.0000   0.3443
  19.300   0.9253   0.27518   0.27181  -0.1033  0.0187  1.0000  -2.1298   0.0000   0.0000   0.0000   0.3448
  19.400   0.9270   0.27721   0.27385  -0.1041  0.0187  1.0000  -2.1158   0.0000   0.0000   0.0000   0.3453
  19.500   0.9286   0.27924   0.27587  -0.1048  0.0187  1.0000  -2.1020   0.0000   0.0000   0.0000   0.3458
  19.600   0.9303   0.28125   0.27789  -0.1056  0.0186  1.0000  -2.0883   0.0000   0.0000   0.0000   0.3463
  19.700   0.9319   0.28326   0.27990  -0.1064  0.0186  1.0000  -2.0748   0.0000   0.0000   0.0000   0.3469
  19.800   0.9334   0.28526   0.28191  -0.1072  0.0186  1.0000  -2.0614   0.0000   0.0000   0.0000   0.3474
  19.900   0.9349   0.28725   0.28390  -0.1080  0.0186  1.0000  -2.0481   0.0000   0.0000   0.0000   0.3479
  20.000   0.9364   0.28923   0.28588  -0.1088  0.0186  1.0000  -2.0348   0.0000   0.0000   0.0000   0.3484
  20.100   0.9378   0.29119   0.28785  -0.1095  0.0185  1.0000  -2.0216   0.0000   0.0000   0.0000   0.3489
  20.200   0.9393   0.29315   0.28981  -0.1103  0.0185  1.0000  -2.0086   0.0000   0.0000   0.0000   0.3495
  20.300   0.9406   0.29509   0.29175  -0.1111  0.0185  1.0000  -1.9956   0.0000   0.0000   0.0000   0.3500
  20.400   0.9419   0.29701   0.29368  -0.1119  0.0184  1.0000  -1.9823   0.0000   0.0000   0.0000   0.3505
  20.500   0.9432   0.29892   0.29559  -0.1127  0.0184  1.0000  -1.9691   0.0000   0.0000   0.0000   0.3510
  20.600   0.9444   0.30081   0.29748  -0.1135  0.0183  1.0000  -1.9556   0.0000   0.0000   0.0000   0.3516
  20.700   0.9454   0.30266   0.29933  -0.1143  0.0183  1.0000  -1.9397   0.0000   0.0000   0.0000   0.3522
  20.800   0.9462   0.30448   0.30115  -0.1152  0.0182  1.0000  -1.9215   0.0000   0.0000   0.0000   0.3529
  20.900   0.9470   0.30629   0.30297  -0.1160  0.0181  1.0000  -1.9032   0.0000   0.0000   0.0000   0.3536
  21.000   0.9478   0.30808   0.30476  -0.1169  0.0181  1.0000  -1.8847   0.0000   0.0000   0.0000   0.3543
  21.100   0.9487   0.30986   0.30655  -0.1178  0.0180  1.0000  -1.8658   0.0000   0.0000   0.0000   0.3549
  21.200   0.9495   0.31162   0.30831  -0.1187  0.0179  1.0000  -1.8461   0.0000   0.0000   0.0000   0.3556
  21.300   0.9504   0.31337   0.31006  -0.1196  0.0177  1.0000  -1.8257   0.0000   0.0000   0.0000   0.3563
  21.400   0.9513   0.31514   0.31183  -0.1205  0.0175  1.0000  -1.8045   0.0000   0.0000   0.0000   0.3570
  21.500   0.9524   0.31695   0.31365  -0.1214  0.0173  1.0000  -1.7831   0.0000   0.0000   0.0000   0.3577
  21.600   0.9533   0.31883   0.31553  -0.1222  0.0170  1.0000  -1.7624   0.0000   0.0000   0.0000   0.3583
  21.700   0.9542   0.32078   0.31748  -0.1230  0.0167  1.0000  -1.7433   0.0000   0.0000   0.0000   0.3588
  21.800   0.9549   0.32277   0.31949  -0.1237  0.0164  1.0000  -1.7260   0.0000   0.0000   0.0000   0.3593
  21.900   0.9554   0.32479   0.32151  -0.1243  0.0161  1.0000  -1.7104   0.0000   0.0000   0.0000   0.3598
  22.000   0.9557   0.32681   0.32354  -0.1249  0.0158  1.0000  -1.6961   0.0000   0.0000   0.0000   0.3603
  22.100   0.9558   0.32882   0.32556  -0.1255  0.0156  1.0000  -1.6826   0.0000   0.0000   0.0000   0.3607
  22.200   0.9556   0.33080   0.32755  -0.1260  0.0153  1.0000  -1.6695   0.0000   0.0000   0.0000   0.3612
  22.300   0.9552   0.33275   0.32951  -0.1265  0.0151  1.0000  -1.6568   0.0000   0.0000   0.0000   0.3616
  22.400   0.9544   0.33466   0.33143  -0.1269  0.0148  1.0000  -1.6439   0.0000   0.0000   0.0000   0.3620
  22.500   0.9533   0.33650   0.33328  -0.1273  0.0146  1.0000  -1.6308   0.0000   0.0000   0.0000   0.3625
  22.600   0.9516   0.33825   0.33504  -0.1276  0.0144  1.0000  -1.6169   0.0000   0.0000   0.0000   0.3629
  22.700   0.9493   0.33986   0.33667  -0.1278  0.0142  1.0000  -1.6018   0.0000   0.0000   0.0000   0.3634
  22.800   0.9459   0.34126   0.33809  -0.1279  0.0141  1.0000  -1.5844   0.0000   0.0000   0.0000   0.3639
  22.900   0.8781   0.32658   0.32359  -0.1201  0.0147  1.0000  -1.4141   0.0000   0.0000   0.0000   0.3665
  23.000   0.8725   0.32619   0.32321  -0.1199  0.0145  1.0000  -1.3915   0.0000   0.0000   0.0000   0.3671
  23.100   0.8679   0.32599   0.32304  -0.1198  0.0144  1.0000  -1.3716   0.0000   0.0000   0.0000   0.3676
  23.200   0.8639   0.32593   0.32299  -0.1198  0.0142  1.0000  -1.3536   0.0000   0.0000   0.0000   0.3682
  23.300   0.8604   0.32595   0.32304  -0.1198  0.0140  1.0000  -1.3371   0.0000   0.0000   0.0000   0.3687
  23.400   0.8573   0.32605   0.32315  -0.1199  0.0139  1.0000  -1.3217   0.0000   0.0000   0.0000   0.3692
  23.500   0.8545   0.32620   0.32331  -0.1200  0.0137  1.0000  -1.3073   0.0000   0.0000   0.0000   0.3697
  23.600   0.8519   0.32637   0.32350  -0.1201  0.0135  1.0000  -1.2937   0.0000   0.0000   0.0000   0.3702
  23.700   0.8496   0.32658   0.32373  -0.1203  0.0134  1.0000  -1.2809   0.0000   0.0000   0.0000   0.3707
  23.800   0.8474   0.32683   0.32399  -0.1204  0.0132  1.0000  -1.2688   0.0000   0.0000   0.0000   0.3711
  23.900   0.8454   0.32710   0.32427  -0.1206  0.0130  1.0000  -1.2573   0.0000   0.0000   0.0000   0.3716
  24.000   0.8435   0.32739   0.32458  -0.1208  0.0129  1.0000  -1.2464   0.0000   0.0000   0.0000   0.3721
  24.100   0.8418   0.32770   0.32490  -0.1210  0.0127  1.0000  -1.2361   0.0000   0.0000   0.0000   0.3725
  24.200   0.8402   0.32803   0.32525  -0.1213  0.0126  1.0000  -1.2262   0.0000   0.0000   0.0000   0.3729
  24.300   0.8387   0.32838   0.32561  -0.1215  0.0124  1.0000  -1.2168   0.0000   0.0000   0.0000   0.3734
  24.400   0.8372   0.32874   0.32598  -0.1217  0.0123  1.0000  -1.2079   0.0000   0.0000   0.0000   0.3738
  24.500   0.8359   0.32912   0.32637  -0.1220  0.0121  1.0000  -1.2013   0.0000   0.0000   0.0000   0.3742
  24.600   0.8347   0.32950   0.32677  -0.1223  0.0120  1.0000  -1.1998   0.0000   0.0000   0.0000   0.3747
  24.700   0.8335   0.32990   0.32718  -0.1225  0.0119  1.0000  -1.1985   0.0000   0.0000   0.0000   0.3751
  24.800   0.8324   0.33031   0.32759  -0.1228  0.0117  1.0000  -1.1975   0.0000   0.0000   0.0000   0.3755
  24.900   0.8313   0.33072   0.32802  -0.1231  0.0116  1.0000  -1.1967   0.0000   0.0000   0.0000   0.3759
  25.000   0.8303   0.33114   0.32845  -0.1234  0.0115  1.0000  -1.1962   0.0000   0.0000   0.0000   0.3763
  25.100   0.8294   0.33157   0.32889  -0.1237  0.0113  1.0000  -1.1959   0.0000   0.0000   0.0000   0.3767
  25.200   0.8285   0.33200   0.32934  -0.1240  0.0112  1.0000  -1.1958   0.0000   0.0000   0.0000   0.3771
  25.300   0.8277   0.33245   0.32979  -0.1243  0.0111  1.0000  -1.1959   0.0000   0.0000   0.0000   0.3775
  25.400   0.8269   0.33289   0.33025  -0.1246  0.0110  1.0000  -1.1962   0.0000   0.0000   0.0000   0.3779
  25.500   0.8261   0.33335   0.33077  -0.1249  0.0109  1.0000  -1.1947   0.0000   0.0000   0.0000   0.3782
  25.600   0.8254   0.33380   0.33124  -0.1253  0.0108  1.0000  -1.1953   0.0000   0.0000   0.0000   0.3786
  25.700   0.8247   0.33426   0.33170  -0.1256  0.0106  1.0000  -1.1961   0.0000   0.0000   0.0000   0.3790
  25.800   0.8241   0.33472   0.33218  -0.1259  0.0105  1.0000  -1.1972   0.0000   0.0000   0.0000   0.3794
  25.900   0.8235   0.33518   0.33265  -0.1262  0.0104  1.0000  -1.1986   0.0000   0.0000   0.0000   0.3797
  26.000   0.8229   0.33565   0.33312  -0.1266  0.0103  1.0000  -1.2002   0.0000   0.0000   0.0000   0.3801
  26.100   0.8223   0.33611   0.33360  -0.1269  0.0102  1.0000  -1.2020   0.0000   0.0000   0.0000   0.3804
  26.200   0.8218   0.33658   0.33408  -0.1272  0.0101  1.0000  -1.2041   0.0000   0.0000   0.0000   0.3808
  26.300   0.8212   0.33705   0.33456  -0.1276  0.0100  1.0000  -1.2064   0.0000   0.0000   0.0000   0.3811
  26.400   0.8207   0.33752   0.33504  -0.1279  0.0099  1.0000  -1.2090   0.0000   0.0000   0.0000   0.3815
  26.500   0.8203   0.33799   0.33552  -0.1283  0.0098  1.0000  -1.2118   0.0000   0.0000   0.0000   0.3818
  26.600   0.8198   0.33846   0.33600  -0.1286  0.0097  1.0000  -1.2149   0.0000   0.0000   0.0000   0.3822
  26.700   0.8193   0.33893   0.33648  -0.1289  0.0097  1.0000  -1.2184   0.0000   0.0000   0.0000   0.3825
  26.800   0.8189   0.33939   0.33696  -0.1293  0.0096  1.0000  -1.2221   0.0000   0.0000   0.0000   0.3828
  26.900   0.8185   0.33986   0.33743  -0.1296  0.0095  1.0000  -1.2262   0.0000   0.0000   0.0000   0.3831
  27.000   0.8181   0.34033   0.33791  -0.1299  0.0094  1.0000  -1.2306   0.0000   0.0000   0.0000   0.3834
  27.100   0.8177   0.34079   0.33838  -0.1302  0.0093  1.0000  -1.2354   0.0000   0.0000   0.0000   0.3837
  27.200   0.8173   0.34125   0.33885  -0.1305  0.0092  1.0000  -1.2405   0.0000   0.0000   0.0000   0.3840
  27.300   0.8169   0.34171   0.33933  -0.1309  0.0091  1.0000  -1.2461   0.0000   0.0000   0.0000   0.3843
  27.400   0.8165   0.34217   0.33980  -0.1312  0.0091  1.0000  -1.2522   0.0000   0.0000   0.0000   0.3846
  27.500   0.8161   0.34264   0.34027  -0.1314  0.0090  1.0000  -1.2587   0.0000   0.0000   0.0000   0.3848
  27.600   0.8157   0.34310   0.34075  -0.1317  0.0089  1.0000  -1.2656   0.0000   0.0000   0.0000   0.3851
  27.700   0.8154   0.34358   0.34124  -0.1320  0.0088  1.0000  -1.2730   0.0000   0.0000   0.0000   0.3853
  27.800   0.8150   0.34407   0.34174  -0.1322  0.0088  1.0000  -1.2807   0.0000   0.0000   0.0000   0.3855
  27.900   0.8146   0.34459   0.34227  -0.1325  0.0087  1.0000  -1.2888   0.0000   0.0000   0.0000   0.3856
  28.000   0.8143   0.34515   0.34285  -0.1327  0.0086  1.0000  -1.2969   0.0000   0.0000   0.0000   0.3858
  28.100   0.8140   0.34579   0.34350  -0.1328  0.0085  1.0000  -1.3048   0.0000   0.0000   0.0000   0.3859
  28.200   0.8137   0.34657   0.34428  -0.1330  0.0084  1.0000  -1.3117   0.0000   0.0000   0.0000   0.3859
  28.300   0.8134   0.34762   0.34535  -0.1330  0.0083  1.0000  -1.3159   0.0000   0.0000   0.0000   0.3859
  28.400   0.8128   0.34922   0.34696  -0.1330  0.0082  1.0000  -1.2997   0.0000   0.0000   0.0000   0.3859


