xflr5 v6.61

 Calculated polar for: MH 30

 1 1 Reynolds number fixed          Mach number fixed         

 xtrf =   1.000 (top)        1.000 (bottom)
 Mach =   0.000     Re =     0.130 e 6     Ncrit =   9.000

  alpha     CL        CD       CDp       Cm    Top Xtr Bot Xtr   Cpmin    Chinge    XCp    
 ------- -------- --------- --------- -------- ------- ------- -------- --------- ---------
 -10.000  -0.5068   0.12127   0.11700  -0.0108  1.0000  0.0501  -1.9865   0.0000   0.0000   0.0000   0.2245
  -9.900  -0.5056   0.11982   0.11557  -0.0116  1.0000  0.0501  -2.0033   0.0000   0.0000   0.0000   0.2228
  -9.800  -0.5043   0.11835   0.11410  -0.0125  1.0000  0.0501  -2.0204   0.0000   0.0000   0.0000   0.2211
  -9.700  -0.5030   0.11685   0.11262  -0.0134  1.0000  0.0502  -2.0379   0.0000   0.0000   0.0000   0.2193
  -9.600  -0.5018   0.11533   0.11111  -0.0143  1.0000  0.0502  -2.0558   0.0000   0.0000   0.0000   0.2174
  -9.500  -0.5094   0.10989   0.10575  -0.0154  1.0000  0.0512  -2.1522   0.0000   0.0000   0.0000   0.2158
  -9.400  -0.5103   0.10664   0.10252  -0.0152  1.0000  0.0522  -2.1602   0.0000   0.0000   0.0000   0.2162
  -9.300  -0.5049   0.10464   0.10050  -0.0138  1.0000  0.0533  -2.1027   0.0000   0.0000   0.0000   0.2187
  -9.200  -0.5004   0.10314   0.09900  -0.0131  1.0000  0.0542  -2.0617   0.0000   0.0000   0.0000   0.2199
  -9.100  -0.4965   0.10177   0.09763  -0.0128  1.0000  0.0550  -2.0308   0.0000   0.0000   0.0000   0.2204
  -9.000  -0.4933   0.10043   0.09614  -0.0127  1.0000  0.0559  -2.0095   0.0000   0.0000   0.0000   0.2205
  -8.900  -0.4906   0.09911   0.09482  -0.0128  1.0000  0.0568  -1.9958   0.0000   0.0000   0.0000   0.2202
  -8.800  -0.4884   0.09777   0.09350  -0.0131  1.0000  0.0576  -1.9878   0.0000   0.0000   0.0000   0.2196
  -8.700  -0.4865   0.09643   0.09217  -0.0135  1.0000  0.0584  -1.9843   0.0000   0.0000   0.0000   0.2187
  -8.600  -0.4849   0.09508   0.09084  -0.0139  1.0000  0.0592  -1.9842   0.0000   0.0000   0.0000   0.2178
  -8.500  -0.4836   0.09372   0.08949  -0.0145  1.0000  0.0601  -1.9870   0.0000   0.0000   0.0000   0.2166
  -8.400  -0.4826   0.09235   0.08813  -0.0151  1.0000  0.0609  -1.9923   0.0000   0.0000   0.0000   0.2154
  -8.300  -0.4817   0.09095   0.08676  -0.0157  1.0000  0.0617  -1.9999   0.0000   0.0000   0.0000   0.2140
  -8.200  -0.4810   0.08955   0.08537  -0.0165  1.0000  0.0626  -2.0095   0.0000   0.0000   0.0000   0.2125
  -8.100  -0.4806   0.08813   0.08397  -0.0173  1.0000  0.0634  -2.0212   0.0000   0.0000   0.0000   0.2108
  -8.000  -0.4804   0.08671   0.08257  -0.0181  1.0000  0.0643  -2.0351   0.0000   0.0000   0.0000   0.2091
  -7.900  -0.4806   0.08528   0.08116  -0.0191  1.0000  0.0651  -2.0512   0.0000   0.0000   0.0000   0.2072
  -7.800  -0.4811   0.08384   0.07975  -0.0201  1.0000  0.0659  -2.0697   0.0000   0.0000   0.0000   0.2052
  -7.700  -0.4822   0.08239   0.07833  -0.0212  1.0000  0.0667  -2.0909   0.0000   0.0000   0.0000   0.2030
  -7.600  -0.4835   0.08093   0.07690  -0.0225  1.0000  0.0675  -2.1143   0.0000   0.0000   0.0000   0.2006
  -7.500  -0.4841   0.07933   0.07533  -0.0243  1.0000  0.0684  -2.1414   0.0000   0.0000   0.0000   0.1970
  -7.400  -0.4837   0.07756   0.07356  -0.0268  1.0000  0.0694  -2.1746   0.0000   0.0000   0.0000   0.1919
  -7.300  -0.4827   0.07575   0.07175  -0.0298  1.0000  0.0707  -2.2168   0.0000   0.0000   0.0000   0.1857
  -7.200  -0.4799   0.07458   0.07052  -0.0340  1.0000  0.0729  -2.2797   0.0000   0.0000   0.0000   0.1766
  -7.100  -0.4760   0.07450   0.07034  -0.0365  1.0000  0.0743  -2.3149   0.0000   0.0000   0.0000   0.1709
  -7.000  -0.4739   0.07340   0.06918  -0.0375  1.0000  0.0746  -2.3357   0.0000   0.0000   0.0000   0.1685
  -6.900  -0.4719   0.07214   0.06786  -0.0381  1.0000  0.0748  -2.3534   0.0000   0.0000   0.0000   0.1668
  -6.800  -0.4698   0.07080   0.06647  -0.0386  1.0000  0.0749  -2.3691   0.0000   0.0000   0.0000   0.1655
  -6.700  -0.4676   0.06943   0.06505  -0.0390  1.0000  0.0750  -2.3829   0.0000   0.0000   0.0000   0.1644
  -6.600  -0.4809   0.06275   0.05842  -0.0407  1.0000  0.0769  -2.5028   0.0000   0.0000   0.0000   0.1630
  -6.500  -0.4823   0.05991   0.05559  -0.0408  1.0000  0.0782  -2.5096   0.0000   0.0000   0.0000   0.1631
  -6.400  -0.4790   0.05822   0.05396  -0.0402  1.0000  0.0794  -2.4761   0.0000   0.0000   0.0000   0.1639
  -6.300  -0.4752   0.05696   0.05275  -0.0394  1.0000  0.0806  -2.4391   0.0000   0.0000   0.0000   0.1649
  -6.200  -0.4717   0.05582   0.05162  -0.0388  1.0000  0.0817  -2.4087   0.0000   0.0000   0.0000   0.1657
  -6.100  -0.4683   0.05469   0.05049  -0.0383  1.0000  0.0830  -2.3850   0.0000   0.0000   0.0000   0.1662
  -6.000  -0.4651   0.05354   0.04933  -0.0379  1.0000  0.0843  -2.3674   0.0000   0.0000   0.0000   0.1666
  -5.900  -0.4620   0.05235   0.04812  -0.0375  1.0000  0.0857  -2.3554   0.0000   0.0000   0.0000   0.1667
  -5.400  -0.4395   0.03988   0.03464  -0.0374  1.0000  0.0464  -2.8947   0.0000   0.0000   0.0000   0.1626
  -5.300  -0.4366   0.03781   0.03245  -0.0370  1.0000  0.0444  -2.9302   0.0000   0.0000   0.0000   0.1630
  -5.200  -0.4323   0.03596   0.03045  -0.0364  1.0000  0.0426  -2.9669   0.0000   0.0000   0.0000   0.1633
  -5.100  -0.4272   0.03420   0.02852  -0.0359  1.0000  0.0410  -3.0066   0.0000   0.0000   0.0000   0.1636
  -5.000  -0.4213   0.03253   0.02666  -0.0353  1.0000  0.0398  -3.0453   0.0000   0.0000   0.0000   0.1638
  -4.900  -0.4148   0.03102   0.02495  -0.0347  1.0000  0.0390  -3.0746   0.0000   0.0000   0.0000   0.1639
  -4.800  -0.4079   0.02970   0.02344  -0.0341  1.0000  0.0386  -3.0885   0.0000   0.0000   0.0000   0.1639
  -4.700  -0.4007   0.02852   0.02208  -0.0336  1.0000  0.0386  -3.0903   0.0000   0.0000   0.0000   0.1638
  -4.600  -0.3930   0.02740   0.02080  -0.0330  1.0000  0.0386  -3.0868   0.0000   0.0000   0.0000   0.1636
  -4.500  -0.3850   0.02631   0.01952  -0.0325  1.0000  0.0387  -3.0835   0.0000   0.0000   0.0000   0.1633
  -4.400  -0.3767   0.02522   0.01825  -0.0319  1.0000  0.0385  -3.0826   0.0000   0.0000   0.0000   0.1629
  -4.300  -0.3679   0.02413   0.01698  -0.0313  1.0000  0.0383  -3.0838   0.0000   0.0000   0.0000   0.1624
  -4.200  -0.3588   0.02308   0.01574  -0.0308  1.0000  0.0380  -3.0844   0.0000   0.0000   0.0000   0.1617
  -4.100  -0.3496   0.02214   0.01464  -0.0303  1.0000  0.0380  -3.0743   0.0000   0.0000   0.0000   0.1609
  -4.000  -0.3402   0.02128   0.01364  -0.0298  1.0000  0.0383  -3.0565   0.0000   0.0000   0.0000   0.1600
  -3.900  -0.3307   0.02048   0.01273  -0.0293  1.0000  0.0389  -3.0330   0.0000   0.0000   0.0000   0.1589
  -3.800  -0.3211   0.01975   0.01189  -0.0288  1.0000  0.0397  -3.0049   0.0000   0.0000   0.0000   0.1577
  -3.700  -0.3115   0.01906   0.01112  -0.0284  1.0000  0.0409  -2.9738   0.0000   0.0000   0.0000   0.1564
  -3.600  -0.3018   0.01843   0.01041  -0.0279  1.0000  0.0425  -2.9400   0.0000   0.0000   0.0000   0.1550
  -3.500  -0.2924   0.01802   0.00995  -0.0275  1.0000  0.0458  -2.8843   0.0000   0.0000   0.0000   0.1535
  -3.400  -0.2830   0.01783   0.00970  -0.0270  1.0000  0.0492  -2.8180   0.0000   0.0000   0.0000   0.1520
  -3.300  -0.2730   0.01674   0.00855  -0.0267  1.0000  0.0530  -2.8283   0.0000   0.0000   0.0000   0.1499
  -3.200  -0.2635   0.01590   0.00773  -0.0263  1.0000  0.0600  -2.8276   0.0000   0.0000   0.0000   0.1475
  -3.000  -0.2442   0.01482   0.00673  -0.0257  1.0000  0.0892  -2.7935   0.0000   0.0000   0.0000   0.1422
  -2.900  -0.2339   0.01362   0.00594  -0.0255  1.0000  0.1673  -2.8370   0.0000   0.0000   0.0000   0.1385
  -2.800  -0.2250   0.01298   0.00572  -0.0254  1.0000  0.2595  -2.7577   0.0000   0.0000   0.0000   0.1346
  -2.700  -0.2167   0.01249   0.00565  -0.0252  1.0000  0.3469  -2.6554   0.0000   0.0000   0.0000   0.1314
  -2.600  -0.2090   0.01207   0.00562  -0.0247  1.0000  0.4335  -2.5507   0.0000   0.0000   0.0000   0.1294
  -2.500  -0.2015   0.01175   0.00560  -0.0240  1.0000  0.5137  -2.4456   0.0000   0.0000   0.0000   0.1285
  -2.400  -0.1947   0.01143   0.00562  -0.0230  1.0000  0.5926  -2.3426   0.0000   0.0000   0.0000   0.1295
  -2.300  -0.1884   0.01119   0.00565  -0.0218  1.0000  0.6676  -2.2423   0.0000   0.0000   0.0000   0.1322
  -2.200  -0.1828   0.01100   0.00568  -0.0202  1.0000  0.7343  -2.1453   0.0000   0.0000   0.0000   0.1370
  -2.100  -0.1766   0.01086   0.00571  -0.0187  1.0000  0.8038  -2.0453   0.0000   0.0000   0.0000   0.1420
  -2.000  -0.1645   0.01074   0.00572  -0.0181  1.0000  0.8894  -1.9125   0.0000   0.0000   0.0000   0.1379
  -1.900  -0.1288   0.01062   0.00552  -0.0229  1.0000  1.0000  -1.6544   0.0000   0.0000   0.0000   0.0699
  -1.800  -0.1207   0.01065   0.00544  -0.0226  1.0000  1.0000  -1.5550   0.0000   0.0000   0.0000   0.0604
  -1.700  -0.1125   0.01069   0.00538  -0.0223  1.0000  1.0000  -1.4566   0.0000   0.0000   0.0000   0.0494
  -1.600  -0.1042   0.01073   0.00526  -0.0220  1.0000  1.0000  -1.3621   0.0000   0.0000   0.0000   0.0363
  -1.500  -0.0959   0.01078   0.00522  -0.0217  1.0000  1.0000  -1.2651   0.0000   0.0000   0.0000   0.0207
  -1.400  -0.0875   0.01084   0.00520  -0.0215  1.0000  1.0000  -1.1694   0.0000   0.0000   0.0000   0.0019
  -1.300  -0.0791   0.01090   0.00518  -0.0212  1.0000  1.0000  -1.0751   0.0000   0.0000   0.0000  -0.0211
  -1.200  -0.0707   0.01096   0.00517  -0.0210  1.0000  1.0000  -0.9824   0.0000   0.0000   0.0000  -0.0497
  -1.100  -0.0622   0.01103   0.00517  -0.0208  1.0000  1.0000  -0.8914   0.0000   0.0000   0.0000  -0.0863
  -1.000  -0.0538   0.01111   0.00518  -0.0205  1.0000  1.0000  -0.8022   0.0000   0.0000   0.0000  -0.1344
  -0.900  -0.0454   0.01119   0.00519  -0.0203  1.0000  1.0000  -0.7150   0.0000   0.0000   0.0000  -0.2005
  -0.800  -0.0259   0.01134   0.00526  -0.0222  0.9969  1.0000  -0.5947   0.0000   0.0000   0.0000  -0.6124
  -0.700  -0.0070   0.01146   0.00531  -0.0240  0.9933  1.0000  -0.5224   0.0000   0.0000   0.0000  -3.1897
  -0.600   0.0123   0.01160   0.00538  -0.0259  0.9900  1.0000  -0.4769   0.0000   0.0000   0.0000   2.3511
  -0.500   0.0324   0.01176   0.00545  -0.0278  0.9873  1.0000  -0.4318   0.0000   0.0000   0.0000   1.1117
  -0.400   0.0487   0.01184   0.00548  -0.0291  0.9832  1.0000  -0.3928   0.0000   0.0000   0.0000   0.8477
  -0.300   0.0663   0.01195   0.00554  -0.0306  0.9794  1.0000  -0.3525   0.0000   0.0000   0.0000   0.7111
  -0.200   0.0856   0.01206   0.00560  -0.0324  0.9760  1.0000  -0.3317   0.0000   0.0000   0.0000   0.6279
  -0.100   0.1065   0.01218   0.00569  -0.0345  0.9731  1.0000  -0.3464   0.0000   0.0000   0.0000   0.5731
   0.000   0.1237   0.01226   0.00573  -0.0358  0.9690  1.0000  -0.3592   0.0000   0.0000   0.0000   0.5388
   0.100   0.1391   0.01231   0.00576  -0.0368  0.9638  1.0000  -0.3726   0.0000   0.0000   0.0000   0.5136
   0.200   0.1572   0.01238   0.00579  -0.0383  0.9596  1.0000  -0.3879   0.0000   0.0000   0.0000   0.4925
   0.300   0.1771   0.01245   0.00583  -0.0401  0.9560  1.0000  -0.4043   0.0000   0.0000   0.0000   0.4754
   0.400   0.1985   0.01251   0.00588  -0.0422  0.9531  1.0000  -0.4218   0.0000   0.0000   0.0000   0.4616
   0.500   0.2218   0.01257   0.00593  -0.0447  0.9507  1.0000  -0.4406   0.0000   0.0000   0.0000   0.4503
   0.600   0.2305   0.01258   0.00593  -0.0442  0.9434  1.0000  -0.4520   0.0000   0.0000   0.0000   0.4406
   0.700   0.2476   0.01258   0.00592  -0.0454  0.9379  1.0000  -0.4694   0.0000   0.0000   0.0000   0.4320
   0.800   0.2683   0.01256   0.00590  -0.0472  0.9336  1.0000  -0.4896   0.0000   0.0000   0.0000   0.4247
   0.900   0.2912   0.01252   0.00587  -0.0494  0.9302  1.0000  -0.5115   0.0000   0.0000   0.0000   0.4185
   1.000   0.3142   0.01247   0.00584  -0.0517  0.9273  1.0000  -0.5339   0.0000   0.0000   0.0000   0.4132
   1.100   0.3371   0.01242   0.00581  -0.0539  0.9247  1.0000  -0.5599   0.0000   0.0000   0.0000   0.4084
   1.200   0.3413   0.01245   0.00584  -0.0524  0.9156  1.0000  -0.5703   0.0000   0.0000   0.0000   0.4022
   1.300   0.3556   0.01241   0.00581  -0.0529  0.9094  1.0000  -0.5895   0.0000   0.0000   0.0000   0.3973
   1.400   0.3728   0.01234   0.00576  -0.0538  0.9044  1.0000  -0.6111   0.0000   0.0000   0.0000   0.3929
   1.500   0.3910   0.01225   0.00568  -0.0549  0.9000  1.0000  -0.6338   0.0000   0.0000   0.0000   0.3890
   1.600   0.4097   0.01214   0.00560  -0.0561  0.8960  1.0000  -0.6579   0.0000   0.0000   0.0000   0.3853
   1.700   0.4197   0.01213   0.00561  -0.0557  0.8891  1.0000  -0.6771   0.0000   0.0000   0.0000   0.3810
   1.800   0.4281   0.01212   0.00561  -0.0549  0.8805  1.0000  -0.6949   0.0000   0.0000   0.0000   0.3766
   1.900   0.4405   0.01204   0.00556  -0.0548  0.8735  1.0000  -0.7169   0.0000   0.0000   0.0000   0.3727
   2.000   0.4546   0.01194   0.00547  -0.0550  0.8675  1.0000  -0.7410   0.0000   0.0000   0.0000   0.3692
   2.100   0.4689   0.01182   0.00536  -0.0551  0.8621  1.0000  -0.7655   0.0000   0.0000   0.0000   0.3657
   2.200   0.4786   0.01179   0.00535  -0.0545  0.8544  1.0000  -0.7875   0.0000   0.0000   0.0000   0.3620
   2.300   0.4866   0.01177   0.00538  -0.0537  0.8446  1.0000  -0.8097   0.0000   0.0000   0.0000   0.3584
   2.400   0.4972   0.01170   0.00532  -0.0532  0.8361  1.0000  -0.8355   0.0000   0.0000   0.0000   0.3550
   2.500   0.5087   0.01159   0.00522  -0.0528  0.8288  1.0000  -0.8628   0.0000   0.0000   0.0000   0.3517
   2.600   0.5212   0.01149   0.00511  -0.0525  0.8221  1.0000  -0.8917   0.0000   0.0000   0.0000   0.3486
   2.700   0.5289   0.01151   0.00516  -0.0517  0.8112  1.0000  -0.9140   0.0000   0.0000   0.0000   0.3455
   2.800   0.5380   0.01146   0.00514  -0.0509  0.8001  1.0000  -0.9384   0.0000   0.0000   0.0000   0.3425
   2.900   0.5483   0.01138   0.00506  -0.0503  0.7903  1.0000  -0.9649   0.0000   0.0000   0.0000   0.3395
   3.000   0.5598   0.01130   0.00495  -0.0498  0.7814  1.0000  -0.9985   0.0000   0.0000   0.0000   0.3367
   3.100   0.5684   0.01132   0.00500  -0.0492  0.7691  1.0000  -1.0296   0.0000   0.0000   0.0000   0.3341
   3.200   0.5776   0.01130   0.00500  -0.0485  0.7562  1.0000  -1.0624   0.0000   0.0000   0.0000   0.3315
   3.300   0.5879   0.01125   0.00496  -0.0479  0.7440  1.0000  -1.1023   0.0000   0.0000   0.0000   0.3289
   3.400   0.5980   0.01125   0.00493  -0.0473  0.7316  1.0000  -1.1501   0.0000   0.0000   0.0000   0.3265
   3.500   0.6070   0.01127   0.00498  -0.0467  0.7161  1.0000  -1.1952   0.0000   0.0000   0.0000   0.3242
   3.600   0.6168   0.01127   0.00495  -0.0460  0.7010  1.0000  -1.2433   0.0000   0.0000   0.0000   0.3219
   3.700   0.6268   0.01132   0.00493  -0.0454  0.6867  1.0000  -1.2924   0.0000   0.0000   0.0000   0.3197
   3.800   0.6360   0.01137   0.00501  -0.0449  0.6701  1.0000  -1.3393   0.0000   0.0000   0.0000   0.3177
   3.900   0.6454   0.01144   0.00502  -0.0442  0.6526  1.0000  -1.3880   0.0000   0.0000   0.0000   0.3156
   4.000   0.6549   0.01154   0.00505  -0.0436  0.6355  1.0000  -1.4370   0.0000   0.0000   0.0000   0.3136
   4.100   0.6640   0.01163   0.00514  -0.0431  0.6160  1.0000  -1.4853   0.0000   0.0000   0.0000   0.3118
   4.200   0.6730   0.01177   0.00516  -0.0424  0.5965  1.0000  -1.5550   0.0000   0.0000   0.0000   0.3098
   4.300   0.6823   0.01189   0.00528  -0.0419  0.5777  1.0000  -1.6277   0.0000   0.0000   0.0000   0.3082
   4.400   0.6912   0.01204   0.00536  -0.0413  0.5572  1.0000  -1.7009   0.0000   0.0000   0.0000   0.3064
   4.500   0.7001   0.01224   0.00555  -0.0407  0.5374  1.0000  -1.7856   0.0000   0.0000   0.0000   0.3047
   4.600   0.7091   0.01238   0.00568  -0.0402  0.5159  1.0000  -1.9070   0.0000   0.0000   0.0000   0.3032
   4.700   0.7174   0.01263   0.00577  -0.0395  0.4932  1.0000  -2.0282   0.0000   0.0000   0.0000   0.3015
   4.800   0.7265   0.01278   0.00593  -0.0391  0.4717  1.0000  -2.1556   0.0000   0.0000   0.0000   0.3002
   4.900   0.7346   0.01304   0.00605  -0.0385  0.4486  1.0000  -2.2805   0.0000   0.0000   0.0000   0.2986
   5.000   0.7436   0.01324   0.00623  -0.0380  0.4277  1.0000  -2.4108   0.0000   0.0000   0.0000   0.2973
   5.100   0.7520   0.01349   0.00639  -0.0375  0.4053  1.0000  -2.5403   0.0000   0.0000   0.0000   0.2959
   5.200   0.7604   0.01377   0.00658  -0.0370  0.3837  1.0000  -2.6710   0.0000   0.0000   0.0000   0.2946
   5.300   0.7688   0.01402   0.00676  -0.0365  0.3607  1.0000  -2.8045   0.0000   0.0000   0.0000   0.2934
   5.400   0.7768   0.01435   0.00697  -0.0359  0.3381  1.0000  -2.9357   0.0000   0.0000   0.0000   0.2921
   5.500   0.7854   0.01460   0.00718  -0.0355  0.3159  1.0000  -3.0731   0.0000   0.0000   0.0000   0.2909
   5.600   0.7930   0.01500   0.00743  -0.0349  0.2941  1.0000  -3.2038   0.0000   0.0000   0.0000   0.2897
   5.700   0.8019   0.01524   0.00768  -0.0346  0.2745  1.0000  -3.3454   0.0000   0.0000   0.0000   0.2887
   5.800   0.8089   0.01573   0.00796  -0.0340  0.2519  1.0000  -3.4730   0.0000   0.0000   0.0000   0.2875
   5.900   0.8180   0.01594   0.00822  -0.0337  0.2324  1.0000  -3.6191   0.0000   0.0000   0.0000   0.2865
   6.000   0.8248   0.01646   0.00853  -0.0331  0.2096  1.0000  -3.7469   0.0000   0.0000   0.0000   0.2854
   6.100   0.8338   0.01669   0.00879  -0.0328  0.1905  1.0000  -3.8932   0.0000   0.0000   0.0000   0.2844
   6.200   0.8405   0.01731   0.00922  -0.0321  0.1701  1.0000  -4.0140   0.0000   0.0000   0.0000   0.2833
   6.300   0.8492   0.01763   0.00957  -0.0317  0.1523  1.0000  -4.1515   0.0000   0.0000   0.0000   0.2823
   6.400   0.8556   0.01833   0.01011  -0.0311  0.1326  1.0000  -4.2616   0.0000   0.0000   0.0000   0.2812
   6.500   0.8635   0.01873   0.01044  -0.0307  0.1144  1.0000  -4.3933   0.0000   0.0000   0.0000   0.2803
   6.600   0.8705   0.01936   0.01100  -0.0301  0.0974  1.0000  -4.5020   0.0000   0.0000   0.0000   0.2792
   6.700   0.8778   0.01992   0.01147  -0.0296  0.0839  1.0000  -4.6160   0.0000   0.0000   0.0000   0.2783
   6.800   0.8837   0.02097   0.01249  -0.0287  0.0743  1.0000  -4.6760   0.0000   0.0000   0.0000   0.2769
   6.900   0.8922   0.02149   0.01308  -0.0281  0.0672  1.0000  -4.7715   0.0000   0.0000   0.0000   0.2759
   7.000   0.8999   0.02211   0.01370  -0.0275  0.0611  1.0000  -4.8642   0.0000   0.0000   0.0000   0.2749
   7.100   0.9056   0.02355   0.01511  -0.0267  0.0554  1.0000  -4.8986   0.0000   0.0000   0.0000   0.2736
   7.200   0.9136   0.02507   0.01672  -0.0260  0.0524  1.0000  -4.9228   0.0000   0.0000   0.0000   0.2725
   7.300   0.9229   0.02588   0.01765  -0.0254  0.0506  1.0000  -4.9863   0.0000   0.0000   0.0000   0.2715
   7.400   0.9321   0.02690   0.01880  -0.0248  0.0489  1.0000  -5.0341   0.0000   0.0000   0.0000   0.2706
   7.500   0.9409   0.02768   0.01968  -0.0243  0.0464  1.0000  -5.1008   0.0000   0.0000   0.0000   0.2697
   7.600   0.9488   0.02792   0.01994  -0.0239  0.0424  1.0000  -5.2177   0.0000   0.0000   0.0000   0.2689
   7.700   0.9559   0.02831   0.02029  -0.0236  0.0389  1.0000  -5.3368   0.0000   0.0000   0.0000   0.2683
   7.800   0.9632   0.02966   0.02171  -0.0230  0.0371  1.0000  -5.3680   0.0000   0.0000   0.0000   0.2674
   7.900   0.9693   0.03177   0.02398  -0.0224  0.0355  1.0000  -5.3444   0.0000   0.0000   0.0000   0.2665
   8.000   0.9725   0.03481   0.02731  -0.0216  0.0343  1.0000  -5.2617   0.0000   0.0000   0.0000   0.2656
   8.100   0.9788   0.03556   0.02821  -0.0209  0.0331  1.0000  -5.2999   0.0000   0.0000   0.0000   0.2646
   8.200   0.9868   0.03580   0.02857  -0.0203  0.0315  1.0000  -5.3694   0.0000   0.0000   0.0000   0.2637
   8.300   0.9932   0.03674   0.02967  -0.0196  0.0303  1.0000  -5.4068   0.0000   0.0000   0.0000   0.2628
   8.400   0.9982   0.03816   0.03127  -0.0188  0.0297  1.0000  -5.4227   0.0000   0.0000   0.0000   0.2618
   8.500   1.0023   0.03969   0.03300  -0.0180  0.0293  1.0000  -5.4282   0.0000   0.0000   0.0000   0.2608
   8.600   1.0057   0.04129   0.03479  -0.0171  0.0290  1.0000  -5.4273   0.0000   0.0000   0.0000   0.2598
   8.700   1.0081   0.04294   0.03664  -0.0162  0.0288  1.0000  -5.4204   0.0000   0.0000   0.0000   0.2589
   8.800   1.0097   0.04465   0.03854  -0.0153  0.0287  1.0000  -5.4079   0.0000   0.0000   0.0000   0.2579
   8.900   1.0105   0.04640   0.04047  -0.0144  0.0287  1.0000  -5.3903   0.0000   0.0000   0.0000   0.2569
   9.000   1.0103   0.04817   0.04242  -0.0135  0.0287  1.0000  -5.3684   0.0000   0.0000   0.0000   0.2560
   9.100   1.0093   0.04997   0.04439  -0.0127  0.0288  1.0000  -5.3430   0.0000   0.0000   0.0000   0.2550
   9.200   1.0073   0.05177   0.04635  -0.0118  0.0289  1.0000  -5.3146   0.0000   0.0000   0.0000   0.2541
   9.300   1.0046   0.05357   0.04830  -0.0110  0.0290  1.0000  -5.2840   0.0000   0.0000   0.0000   0.2533
   9.400   1.0010   0.05536   0.05022  -0.0102  0.0292  1.0000  -5.2518   0.0000   0.0000   0.0000   0.2524
   9.500   0.9966   0.05712   0.05211  -0.0094  0.0293  1.0000  -5.2183   0.0000   0.0000   0.0000   0.2516
   9.600   0.9915   0.05885   0.05396  -0.0087  0.0295  1.0000  -5.1841   0.0000   0.0000   0.0000   0.2508
   9.700   0.9853   0.06045   0.05565  -0.0078  0.0296  1.0000  -5.1505   0.0000   0.0000   0.0000   0.2500
   9.800   0.9783   0.06199   0.05727  -0.0070  0.0297  1.0000  -5.1171   0.0000   0.0000   0.0000   0.2491
   9.900   0.9709   0.06356   0.05892  -0.0064  0.0299  1.0000  -5.0829   0.0000   0.0000   0.0000   0.2484
  10.000   0.9633   0.06519   0.06062  -0.0060  0.0300  1.0000  -5.0475   0.0000   0.0000   0.0000   0.2480
  10.100   0.9555   0.06690   0.06240  -0.0059  0.0301  1.0000  -5.0103   0.0000   0.0000   0.0000   0.2479
  10.200   0.9474   0.06870   0.06427  -0.0062  0.0302  1.0000  -4.9713   0.0000   0.0000   0.0000   0.2481
  10.300   0.9393   0.07063   0.06626  -0.0067  0.0304  1.0000  -4.9296   0.0000   0.0000   0.0000   0.2486
  10.400   0.9312   0.07271   0.06840  -0.0076  0.0305  1.0000  -4.8848   0.0000   0.0000   0.0000   0.2494
  10.500   0.9229   0.07493   0.07067  -0.0087  0.0306  1.0000  -4.8367   0.0000   0.0000   0.0000   0.2507
  10.600   0.9146   0.07732   0.07312  -0.0102  0.0307  1.0000  -4.7844   0.0000   0.0000   0.0000   0.2523
  10.700   0.9064   0.07994   0.07578  -0.0120  0.0309  1.0000  -4.7265   0.0000   0.0000   0.0000   0.2543
  10.800   0.8983   0.08281   0.07870  -0.0142  0.0311  1.0000  -4.6621   0.0000   0.0000   0.0000   0.2567
  10.900   0.8903   0.08594   0.08186  -0.0166  0.0313  1.0000  -4.5902   0.0000   0.0000   0.0000   0.2595
  11.000   0.8826   0.08932   0.08526  -0.0193  0.0315  1.0000  -4.5101   0.0000   0.0000   0.0000   0.2626
  11.100   0.8751   0.09291   0.08887  -0.0220  0.0318  1.0000  -4.4221   0.0000   0.0000   0.0000   0.2658
  11.200   0.8680   0.09664   0.09261  -0.0247  0.0321  1.0000  -4.3278   0.0000   0.0000   0.0000   0.2690
  11.300   0.8613   0.10040   0.09637  -0.0271  0.0324  1.0000  -4.2298   0.0000   0.0000   0.0000   0.2721
  11.400   0.8549   0.10408   0.10004  -0.0293  0.0328  1.0000  -4.1314   0.0000   0.0000   0.0000   0.2748
  11.500   0.8484   0.10761   0.10356  -0.0310  0.0333  1.0000  -4.0352   0.0000   0.0000   0.0000   0.2770
  11.700   0.8496   0.11156   0.10754  -0.0318  0.0346  1.0000  -4.0025   0.0000   0.0000   0.0000   0.2778
  11.800   0.8517   0.11418   0.11018  -0.0336  0.0353  1.0000  -3.9491   0.0000   0.0000   0.0000   0.2797
  11.900   0.8299   0.12636   0.12227  -0.0425  0.0419  1.0000  -3.2665   0.0000   0.0000   0.0000   0.2920
  12.000   0.8258   0.12978   0.12566  -0.0442  0.0437  1.0000  -3.1582   0.0000   0.0000   0.0000   0.2943
  12.100   0.8231   0.13272   0.12859  -0.0455  0.0454  1.0000  -3.0810   0.0000   0.0000   0.0000   0.2960
  12.200   0.8215   0.13537   0.13123  -0.0465  0.0471  1.0000  -3.0255   0.0000   0.0000   0.0000   0.2973
  12.300   0.8210   0.13781   0.13366  -0.0469  0.0491  1.0000  -2.9930   0.0000   0.0000   0.0000   0.2978
  12.500   0.8108   0.14754   0.14336  -0.0526  0.0693  1.0000  -2.5799   0.0000   0.0000   0.0000   0.3057
  12.600   0.8106   0.14954   0.14535  -0.0537  0.0685  1.0000  -2.5529   0.0000   0.0000   0.0000   0.3070
  12.700   0.8107   0.15149   0.14730  -0.0547  0.0676  1.0000  -2.5302   0.0000   0.0000   0.0000   0.3082
  12.800   0.8109   0.15342   0.14921  -0.0557  0.0668  1.0000  -2.5097   0.0000   0.0000   0.0000   0.3093
  12.900   0.8113   0.15532   0.15111  -0.0566  0.0661  1.0000  -2.4910   0.0000   0.0000   0.0000   0.3103
  13.000   0.8119   0.15717   0.15296  -0.0575  0.0653  1.0000  -2.4754   0.0000   0.0000   0.0000   0.3112
  13.100   0.8127   0.15898   0.15476  -0.0583  0.0644  1.0000  -2.4628   0.0000   0.0000   0.0000   0.3120
  13.200   0.8138   0.16074   0.15652  -0.0590  0.0636  1.0000  -2.4534   0.0000   0.0000   0.0000   0.3128
  13.300   0.8151   0.16247   0.15824  -0.0597  0.0627  1.0000  -2.4474   0.0000   0.0000   0.0000   0.3134
  13.400   0.8167   0.16415   0.15993  -0.0604  0.0619  1.0000  -2.4447   0.0000   0.0000   0.0000   0.3139
  13.500   0.8185   0.16581   0.16158  -0.0609  0.0610  1.0000  -2.4457   0.0000   0.0000   0.0000   0.3144
  13.600   0.8207   0.16745   0.16322  -0.0614  0.0602  1.0000  -2.4510   0.0000   0.0000   0.0000   0.3146
  13.700   0.8232   0.16906   0.16484  -0.0617  0.0594  1.0000  -2.4612   0.0000   0.0000   0.0000   0.3147
  13.800   0.8262   0.17067   0.16644  -0.0620  0.0586  1.0000  -2.4773   0.0000   0.0000   0.0000   0.3146
  13.900   0.8297   0.17228   0.16806  -0.0621  0.0579  1.0000  -2.5005   0.0000   0.0000   0.0000   0.3143
  14.000   0.8336   0.17391   0.16970  -0.0619  0.0571  1.0000  -2.5319   0.0000   0.0000   0.0000   0.3137
  14.100   0.8382   0.17566   0.17145  -0.0616  0.0563  1.0000  -2.5731   0.0000   0.0000   0.0000   0.3127
  14.200   0.8429   0.17774   0.17355  -0.0610  0.0555  1.0000  -2.6207   0.0000   0.0000   0.0000   0.3115
  14.300   0.8446   0.18126   0.17707  -0.0606  0.0544  1.0000  -2.6356   0.0000   0.0000   0.0000   0.3108
  14.500   0.8395   0.18970   0.18544  -0.0629  0.0534  1.0000  -2.5090   0.0000   0.0000   0.0000   0.3139
  14.600   0.8410   0.19151   0.18725  -0.0639  0.0533  1.0000  -2.4909   0.0000   0.0000   0.0000   0.3148
  14.700   0.8425   0.19327   0.18900  -0.0648  0.0533  1.0000  -2.4731   0.0000   0.0000   0.0000   0.3157
  14.800   0.8440   0.19498   0.19070  -0.0658  0.0532  1.0000  -2.4557   0.0000   0.0000   0.0000   0.3166
  14.900   0.8455   0.19664   0.19236  -0.0668  0.0532  1.0000  -2.4385   0.0000   0.0000   0.0000   0.3176
  15.000   0.8471   0.19824   0.19395  -0.0678  0.0531  1.0000  -2.4215   0.0000   0.0000   0.0000   0.3185
  15.100   0.8486   0.19977   0.19548  -0.0688  0.0530  1.0000  -2.4045   0.0000   0.0000   0.0000   0.3194
  15.200   0.8502   0.20121   0.19692  -0.0698  0.0529  1.0000  -2.3875   0.0000   0.0000   0.0000   0.3204
  15.300   0.8518   0.20253   0.19823  -0.0709  0.0527  1.0000  -2.3702   0.0000   0.0000   0.0000   0.3214
  15.400   0.8535   0.20365   0.19935  -0.0720  0.0525  1.0000  -2.3521   0.0000   0.0000   0.0000   0.3225
  15.500   0.8542   0.20450   0.20018  -0.0735  0.0521  1.0000  -2.3237   0.0000   0.0000   0.0000   0.3240
  15.600   0.8542   0.20507   0.20075  -0.0751  0.0516  1.0000  -2.2869   0.0000   0.0000   0.0000   0.3258
  15.700   0.8533   0.20557   0.20123  -0.0769  0.0509  1.0000  -2.2442   0.0000   0.0000   0.0000   0.3279
  15.800   0.8533   0.20641   0.20205  -0.0786  0.0499  1.0000  -2.2051   0.0000   0.0000   0.0000   0.3298
  15.900   0.8542   0.20767   0.20331  -0.0800  0.0488  1.0000  -2.1762   0.0000   0.0000   0.0000   0.3312
  16.000   0.8557   0.20918   0.20481  -0.0811  0.0476  1.0000  -2.1566   0.0000   0.0000   0.0000   0.3323
  16.100   0.8574   0.21079   0.20642  -0.0821  0.0465  1.0000  -2.1436   0.0000   0.0000   0.0000   0.3331
  16.200   0.8594   0.21244   0.20807  -0.0830  0.0454  1.0000  -2.1352   0.0000   0.0000   0.0000   0.3338
  16.300   0.8614   0.21411   0.20974  -0.0838  0.0443  1.0000  -2.1305   0.0000   0.0000   0.0000   0.3344
  16.400   0.8636   0.21578   0.21141  -0.0846  0.0433  1.0000  -2.1292   0.0000   0.0000   0.0000   0.3349
  16.500   0.8659   0.21744   0.21307  -0.0853  0.0423  1.0000  -2.1311   0.0000   0.0000   0.0000   0.3353
  16.600   0.8682   0.21909   0.21472  -0.0859  0.0414  1.0000  -2.1365   0.0000   0.0000   0.0000   0.3357
  16.700   0.8707   0.22073   0.21637  -0.0865  0.0405  1.0000  -2.1456   0.0000   0.0000   0.0000   0.3360
  16.800   0.8733   0.22237   0.21801  -0.0871  0.0396  1.0000  -2.1589   0.0000   0.0000   0.0000   0.3361
  16.900   0.8761   0.22402   0.21967  -0.0875  0.0388  1.0000  -2.1766   0.0000   0.0000   0.0000   0.3362
  17.000   0.8791   0.22570   0.22135  -0.0878  0.0381  1.0000  -2.1989   0.0000   0.0000   0.0000   0.3361
  17.100   0.8822   0.22745   0.22310  -0.0881  0.0374  1.0000  -2.2255   0.0000   0.0000   0.0000   0.3359
  17.200   0.8856   0.22931   0.22497  -0.0883  0.0368  1.0000  -2.2552   0.0000   0.0000   0.0000   0.3356
  17.300   0.8894   0.23137   0.22704  -0.0883  0.0363  1.0000  -2.2906   0.0000   0.0000   0.0000   0.3350
  17.400   0.8946   0.23400   0.22989  -0.0878  0.0357  1.0000  -2.3475   0.0000   0.0000   0.0000   0.3337
  17.500   0.9007   0.23807   0.23398  -0.0868  0.0349  1.0000  -2.4132   0.0000   0.0000   0.0000   0.3319
  18.300   0.9106   0.25959   0.25544  -0.0933  0.0338  1.0000  -2.2238   0.0000   0.0000   0.0000   0.3371
  18.400   0.9123   0.26142   0.25728  -0.0941  0.0337  1.0000  -2.2101   0.0000   0.0000   0.0000   0.3378
  18.500   0.9140   0.26323   0.25909  -0.0950  0.0337  1.0000  -2.1963   0.0000   0.0000   0.0000   0.3384
  18.600   0.9157   0.26501   0.26087  -0.0959  0.0336  1.0000  -2.1825   0.0000   0.0000   0.0000   0.3390
  18.700   0.9174   0.26675   0.26261  -0.0967  0.0336  1.0000  -2.1685   0.0000   0.0000   0.0000   0.3396
  18.800   0.9190   0.26845   0.26431  -0.0976  0.0335  1.0000  -2.1544   0.0000   0.0000   0.0000   0.3402
  18.900   0.9206   0.27010   0.26596  -0.0985  0.0334  1.0000  -2.1399   0.0000   0.0000   0.0000   0.3409
  19.000   0.9217   0.27162   0.26748  -0.0994  0.0334  1.0000  -2.1217   0.0000   0.0000   0.0000   0.3417
  19.100   0.9226   0.27304   0.26889  -0.1005  0.0333  1.0000  -2.1006   0.0000   0.0000   0.0000   0.3426
  19.200   0.9231   0.27435   0.27020  -0.1016  0.0332  1.0000  -2.0767   0.0000   0.0000   0.0000   0.3436
  19.300   0.9237   0.27561   0.27146  -0.1028  0.0330  1.0000  -2.0520   0.0000   0.0000   0.0000   0.3446
  19.400   0.9244   0.27684   0.27268  -0.1039  0.0328  1.0000  -2.0262   0.0000   0.0000   0.0000   0.3457
  19.500   0.9252   0.27804   0.27389  -0.1052  0.0326  1.0000  -1.9990   0.0000   0.0000   0.0000   0.3468
  19.600   0.9262   0.27929   0.27513  -0.1064  0.0323  1.0000  -1.9709   0.0000   0.0000   0.0000   0.3479
  19.700   0.9274   0.28067   0.27651  -0.1076  0.0318  1.0000  -1.9432   0.0000   0.0000   0.0000   0.3489
  19.800   0.9289   0.28224   0.27808  -0.1087  0.0313  1.0000  -1.9182   0.0000   0.0000   0.0000   0.3498
  19.900   0.9305   0.28401   0.27985  -0.1097  0.0308  1.0000  -1.8972   0.0000   0.0000   0.0000   0.3505
  20.000   0.9321   0.28589   0.28174  -0.1106  0.0303  1.0000  -1.8800   0.0000   0.0000   0.0000   0.3511
  20.100   0.9337   0.28785   0.28370  -0.1115  0.0298  1.0000  -1.8655   0.0000   0.0000   0.0000   0.3517
  20.200   0.9352   0.28985   0.28570  -0.1122  0.0292  1.0000  -1.8530   0.0000   0.0000   0.0000   0.3522
  20.300   0.9367   0.29187   0.28773  -0.1130  0.0288  1.0000  -1.8418   0.0000   0.0000   0.0000   0.3527
  20.400   0.9381   0.29390   0.28977  -0.1137  0.0283  1.0000  -1.8316   0.0000   0.0000   0.0000   0.3531
  20.500   0.9395   0.29595   0.29182  -0.1144  0.0279  1.0000  -1.8223   0.0000   0.0000   0.0000   0.3535
  20.600   0.9408   0.29800   0.29387  -0.1151  0.0274  1.0000  -1.8136   0.0000   0.0000   0.0000   0.3539
  20.700   0.9420   0.30005   0.29593  -0.1157  0.0270  1.0000  -1.8054   0.0000   0.0000   0.0000   0.3544
  20.800   0.9432   0.30210   0.29798  -0.1164  0.0266  1.0000  -1.7978   0.0000   0.0000   0.0000   0.3547
  20.900   0.9443   0.30415   0.30004  -0.1170  0.0263  1.0000  -1.7905   0.0000   0.0000   0.0000   0.3551
  21.000   0.9454   0.30619   0.30209  -0.1176  0.0259  1.0000  -1.7836   0.0000   0.0000   0.0000   0.3555
  21.100   0.9464   0.30823   0.30414  -0.1182  0.0255  1.0000  -1.7771   0.0000   0.0000   0.0000   0.3559
  21.200   0.9473   0.31027   0.30619  -0.1188  0.0252  1.0000  -1.7709   0.0000   0.0000   0.0000   0.3562
  21.300   0.9481   0.31230   0.30822  -0.1194  0.0249  1.0000  -1.7651   0.0000   0.0000   0.0000   0.3566
  21.400   0.9488   0.31432   0.31025  -0.1199  0.0246  1.0000  -1.7595   0.0000   0.0000   0.0000   0.3570
  21.500   0.9494   0.31633   0.31227  -0.1205  0.0243  1.0000  -1.7542   0.0000   0.0000   0.0000   0.3573
  21.600   0.9499   0.31833   0.31428  -0.1210  0.0240  1.0000  -1.7491   0.0000   0.0000   0.0000   0.3576
  21.700   0.9503   0.32031   0.31627  -0.1215  0.0237  1.0000  -1.7444   0.0000   0.0000   0.0000   0.3580
  21.800   0.9506   0.32228   0.31825  -0.1220  0.0234  1.0000  -1.7398   0.0000   0.0000   0.0000   0.3583
  21.900   0.9507   0.32422   0.32020  -0.1224  0.0231  1.0000  -1.7355   0.0000   0.0000   0.0000   0.3586
  22.000   0.9506   0.32614   0.32213  -0.1229  0.0229  1.0000  -1.7313   0.0000   0.0000   0.0000   0.3590
  22.100   0.9503   0.32802   0.32403  -0.1233  0.0226  1.0000  -1.7273   0.0000   0.0000   0.0000   0.3593
  22.200   0.9498   0.32987   0.32588  -0.1236  0.0224  1.0000  -1.7237   0.0000   0.0000   0.0000   0.3596
  22.300   0.9489   0.33166   0.32769  -0.1239  0.0221  1.0000  -1.7201   0.0000   0.0000   0.0000   0.3599
  22.400   0.9477   0.33338   0.32943  -0.1242  0.0219  1.0000  -1.7165   0.0000   0.0000   0.0000   0.3602
  22.500   0.9460   0.33501   0.33108  -0.1243  0.0217  1.0000  -1.7125   0.0000   0.0000   0.0000   0.3605
  22.600   0.9437   0.33651   0.33260  -0.1244  0.0215  1.0000  -1.7076   0.0000   0.0000   0.0000   0.3608
  22.700   0.9402   0.33780   0.33390  -0.1244  0.0213  1.0000  -1.7005   0.0000   0.0000   0.0000   0.3611
  22.800   0.8791   0.32522   0.32151  -0.1175  0.0218  1.0000  -1.5144   0.0000   0.0000   0.0000   0.3634
  22.900   0.8724   0.32454   0.32085  -0.1171  0.0216  1.0000  -1.4954   0.0000   0.0000   0.0000   0.3639
  23.000   0.8671   0.32413   0.32047  -0.1167  0.0215  1.0000  -1.4811   0.0000   0.0000   0.0000   0.3643
  23.100   0.8626   0.32389   0.32025  -0.1165  0.0213  1.0000  -1.4702   0.0000   0.0000   0.0000   0.3647
  23.200   0.8588   0.32375   0.32014  -0.1164  0.0211  1.0000  -1.4621   0.0000   0.0000   0.0000   0.3651
  23.300   0.8554   0.32370   0.32012  -0.1162  0.0209  1.0000  -1.4565   0.0000   0.0000   0.0000   0.3654
  23.400   0.8523   0.32372   0.32016  -0.1161  0.0207  1.0000  -1.4534   0.0000   0.0000   0.0000   0.3656
  23.500   0.8496   0.32381   0.32027  -0.1160  0.0205  1.0000  -1.4529   0.0000   0.0000   0.0000   0.3658
  23.600   0.8471   0.32399   0.32047  -0.1158  0.0203  1.0000  -1.4554   0.0000   0.0000   0.0000   0.3659
  23.700   0.8450   0.32429   0.32079  -0.1156  0.0200  1.0000  -1.4613   0.0000   0.0000   0.0000   0.3660
  23.800   0.8433   0.32483   0.32135  -0.1153  0.0198  1.0000  -1.4721   0.0000   0.0000   0.0000   0.3658
  23.900   0.8424   0.32602   0.32257  -0.1149  0.0195  1.0000  -1.4902   0.0000   0.0000   0.0000   0.3653


