xflr5 v6.61

 Calculated polar for: MH 30

 1 1 Reynolds number fixed          Mach number fixed         

 xtrf =   1.000 (top)        1.000 (bottom)
 Mach =   0.000     Re =     0.100 e 6     Ncrit =   9.000

  alpha     CL        CD       CDp       Cm    Top Xtr Bot Xtr   Cpmin    Chinge    XCp    
 ------- -------- --------- --------- -------- ------- ------- -------- --------- ---------
 -10.000  -0.5096   0.12170   0.11686  -0.0083  1.0000  0.0733  -1.8817   0.0000   0.0000   0.0000   0.2297
  -9.900  -0.5106   0.12111   0.11629  -0.0097  1.0000  0.0737  -1.9111   0.0000   0.0000   0.0000   0.2269
  -9.800  -0.5102   0.12034   0.11555  -0.0110  1.0000  0.0741  -1.9321   0.0000   0.0000   0.0000   0.2245
  -9.700  -0.5095   0.11938   0.11461  -0.0121  1.0000  0.0743  -1.9509   0.0000   0.0000   0.0000   0.2224
  -9.600  -0.5088   0.11830   0.11354  -0.0132  1.0000  0.0745  -1.9693   0.0000   0.0000   0.0000   0.2203
  -9.500  -0.5082   0.11712   0.11238  -0.0142  1.0000  0.0746  -1.9876   0.0000   0.0000   0.0000   0.2182
  -9.400  -0.5076   0.11587   0.11115  -0.0153  1.0000  0.0747  -2.0060   0.0000   0.0000   0.0000   0.2162
  -9.300  -0.5071   0.11457   0.10987  -0.0164  1.0000  0.0748  -2.0248   0.0000   0.0000   0.0000   0.2142
  -9.200  -0.5067   0.11321   0.10853  -0.0174  1.0000  0.0749  -2.0440   0.0000   0.0000   0.0000   0.2121
  -9.100  -0.5064   0.11181   0.10715  -0.0186  1.0000  0.0750  -2.0638   0.0000   0.0000   0.0000   0.2099
  -8.900  -0.5137   0.10335   0.09880  -0.0199  1.0000  0.0769  -2.1498   0.0000   0.0000   0.0000   0.2080
  -8.800  -0.5020   0.10022   0.09544  -0.0163  1.0000  0.0790  -2.0538   0.0000   0.0000   0.0000   0.2140
  -8.700  -0.4952   0.09859   0.09381  -0.0151  1.0000  0.0805  -2.0053   0.0000   0.0000   0.0000   0.2161
  -8.600  -0.4902   0.09721   0.09243  -0.0145  1.0000  0.0820  -1.9723   0.0000   0.0000   0.0000   0.2171
  -8.500  -0.4861   0.09592   0.09115  -0.0141  1.0000  0.0837  -1.9469   0.0000   0.0000   0.0000   0.2176
  -8.400  -0.4831   0.09467   0.08990  -0.0141  1.0000  0.0855  -1.9318   0.0000   0.0000   0.0000   0.2175
  -8.300  -0.4810   0.09342   0.08867  -0.0143  1.0000  0.0873  -1.9250   0.0000   0.0000   0.0000   0.2169
  -8.200  -0.4796   0.09216   0.08742  -0.0148  1.0000  0.0891  -1.9245   0.0000   0.0000   0.0000   0.2160
  -8.100  -0.4788   0.09088   0.08616  -0.0154  1.0000  0.0909  -1.9294   0.0000   0.0000   0.0000   0.2147
  -8.000  -0.4786   0.08961   0.08491  -0.0162  1.0000  0.0926  -1.9393   0.0000   0.0000   0.0000   0.2131
  -7.900  -0.4791   0.08834   0.08367  -0.0172  1.0000  0.0944  -1.9541   0.0000   0.0000   0.0000   0.2112
  -7.800  -0.4803   0.08709   0.08246  -0.0184  1.0000  0.0960  -1.9742   0.0000   0.0000   0.0000   0.2089
  -7.700  -0.4823   0.08589   0.08129  -0.0198  1.0000  0.0974  -1.9995   0.0000   0.0000   0.0000   0.2062
  -7.600  -0.4848   0.08472   0.08015  -0.0217  1.0000  0.0988  -2.0303   0.0000   0.0000   0.0000   0.2027
  -7.500  -0.4862   0.08344   0.07890  -0.0252  1.0000  0.1004  -2.0749   0.0000   0.0000   0.0000   0.1957
  -7.400  -0.4874   0.08270   0.07813  -0.0299  1.0000  0.1023  -2.1370   0.0000   0.0000   0.0000   0.1863
  -7.300  -0.4861   0.08277   0.07813  -0.0328  1.0000  0.1036  -2.1761   0.0000   0.0000   0.0000   0.1803
  -7.200  -0.4848   0.08197   0.07727  -0.0341  1.0000  0.1040  -2.1990   0.0000   0.0000   0.0000   0.1773
  -7.100  -0.4832   0.08089   0.07614  -0.0351  1.0000  0.1043  -2.2174   0.0000   0.0000   0.0000   0.1752
  -6.900  -0.4938   0.07196   0.06731  -0.0373  1.0000  0.1070  -2.3121   0.0000   0.0000   0.0000   0.1723
  -6.800  -0.4877   0.06965   0.06514  -0.0346  1.0000  0.1097  -2.2338   0.0000   0.0000   0.0000   0.1770
  -6.700  -0.4819   0.06867   0.06421  -0.0323  1.0000  0.1122  -2.1698   0.0000   0.0000   0.0000   0.1808
  -6.600  -0.4771   0.06770   0.06328  -0.0311  1.0000  0.1147  -2.1303   0.0000   0.0000   0.0000   0.1828
  -6.500  -0.4735   0.06658   0.06216  -0.0306  1.0000  0.1172  -2.1102   0.0000   0.0000   0.0000   0.1833
  -6.400  -0.4706   0.06533   0.06092  -0.0307  1.0000  0.1197  -2.1020   0.0000   0.0000   0.0000   0.1827
  -6.300  -0.4681   0.06401   0.05959  -0.0312  1.0000  0.1223  -2.1017   0.0000   0.0000   0.0000   0.1815
  -5.400  -0.4367   0.04413   0.03855  -0.0379  1.0000  0.0715  -2.6561   0.0000   0.0000   0.0000   0.1611
  -5.300  -0.4347   0.04157   0.03592  -0.0377  1.0000  0.0679  -2.6888   0.0000   0.0000   0.0000   0.1612
  -5.200  -0.4308   0.03933   0.03354  -0.0374  1.0000  0.0640  -2.7351   0.0000   0.0000   0.0000   0.1611
  -5.100  -0.4257   0.03649   0.03036  -0.0371  1.0000  0.0583  -2.8568   0.0000   0.0000   0.0000   0.1606
  -5.000  -0.4164   0.03487   0.02820  -0.0362  1.0000  0.0524  -3.0006   0.0000   0.0000   0.0000   0.1607
  -4.900  -0.4073   0.03481   0.02802  -0.0353  1.0000  0.0512  -2.9678   0.0000   0.0000   0.0000   0.1608
  -4.700  -0.3931   0.03226   0.02524  -0.0342  1.0000  0.0491  -2.9597   0.0000   0.0000   0.0000   0.1606
  -4.600  -0.3865   0.03058   0.02339  -0.0338  1.0000  0.0486  -2.9749   0.0000   0.0000   0.0000   0.1602
  -4.500  -0.3791   0.02917   0.02180  -0.0333  1.0000  0.0482  -2.9811   0.0000   0.0000   0.0000   0.1598
  -4.400  -0.3713   0.02791   0.02036  -0.0328  1.0000  0.0480  -2.9816   0.0000   0.0000   0.0000   0.1593
  -4.300  -0.3630   0.02676   0.01903  -0.0323  1.0000  0.0480  -2.9773   0.0000   0.0000   0.0000   0.1587
  -4.200  -0.3543   0.02572   0.01781  -0.0317  1.0000  0.0481  -2.9684   0.0000   0.0000   0.0000   0.1580
  -4.100  -0.3454   0.02476   0.01670  -0.0312  1.0000  0.0484  -2.9549   0.0000   0.0000   0.0000   0.1572
  -4.000  -0.3362   0.02398   0.01577  -0.0307  1.0000  0.0490  -2.9323   0.0000   0.0000   0.0000   0.1563
  -3.900  -0.3271   0.02358   0.01526  -0.0301  1.0000  0.0504  -2.8879   0.0000   0.0000   0.0000   0.1554
  -3.800  -0.3177   0.02150   0.01299  -0.0299  1.0000  0.0530  -2.9113   0.0000   0.0000   0.0000   0.1533
  -3.700  -0.3086   0.02046   0.01193  -0.0296  1.0000  0.0566  -2.8741   0.0000   0.0000   0.0000   0.1515
  -3.600  -0.2994   0.01981   0.01127  -0.0292  1.0000  0.0599  -2.8303   0.0000   0.0000   0.0000   0.1500
  -3.500  -0.2898   0.01917   0.01059  -0.0287  1.0000  0.0632  -2.8104   0.0000   0.0000   0.0000   0.1484
  -3.400  -0.2804   0.01879   0.01016  -0.0283  1.0000  0.0696  -2.7853   0.0000   0.0000   0.0000   0.1467
  -3.300  -0.2710   0.01821   0.00954  -0.0279  1.0000  0.0786  -2.7614   0.0000   0.0000   0.0000   0.1446
  -3.200  -0.2617   0.01732   0.00871  -0.0275  1.0000  0.0881  -2.7573   0.0000   0.0000   0.0000   0.1425
  -3.000  -0.2421   0.01557   0.00710  -0.0264  1.0000  0.1422  -2.8153   0.0000   0.0000   0.0000   0.1385
  -2.900  -0.2333   0.01437   0.00659  -0.0262  1.0000  0.2512  -2.7903   0.0000   0.0000   0.0000   0.1351
  -2.800  -0.2254   0.01368   0.00646  -0.0259  1.0000  0.3642  -2.7030   0.0000   0.0000   0.0000   0.1327
  -2.600  -0.2115   0.01276   0.00639  -0.0242  1.0000  0.5555  -2.5096   0.0000   0.0000   0.0000   0.1335
  -2.500  -0.2056   0.01244   0.00641  -0.0227  1.0000  0.6431  -2.4135   0.0000   0.0000   0.0000   0.1375
  -2.400  -0.2002   0.01221   0.00642  -0.0209  1.0000  0.7224  -2.3192   0.0000   0.0000   0.0000   0.1432
  -2.300  -0.1950   0.01202   0.00645  -0.0189  1.0000  0.7987  -2.2252   0.0000   0.0000   0.0000   0.1509
  -2.200  -0.1778   0.01186   0.00642  -0.0189  1.0000  0.9061  -2.0622   0.0000   0.0000   0.0000   0.1414
  -2.100  -0.1394   0.01177   0.00613  -0.0242  1.0000  1.0000  -1.7901   0.0000   0.0000   0.0000   0.0739
  -2.000  -0.1321   0.01178   0.00600  -0.0238  1.0000  1.0000  -1.6957   0.0000   0.0000   0.0000   0.0674
  -1.900  -0.1245   0.01179   0.00590  -0.0234  1.0000  1.0000  -1.6000   0.0000   0.0000   0.0000   0.0594
  -1.800  -0.1167   0.01181   0.00581  -0.0230  1.0000  1.0000  -1.5040   0.0000   0.0000   0.0000   0.0498
  -1.700  -0.1087   0.01184   0.00573  -0.0227  1.0000  1.0000  -1.4091   0.0000   0.0000   0.0000   0.0383
  -1.600  -0.1006   0.01188   0.00558  -0.0224  1.0000  1.0000  -1.3166   0.0000   0.0000   0.0000   0.0246
  -1.500  -0.0925   0.01192   0.00553  -0.0221  1.0000  1.0000  -1.2222   0.0000   0.0000   0.0000   0.0081
  -1.400  -0.0842   0.01197   0.00548  -0.0218  1.0000  1.0000  -1.1289   0.0000   0.0000   0.0000  -0.0119
  -1.300  -0.0759   0.01202   0.00545  -0.0215  1.0000  1.0000  -1.0369   0.0000   0.0000   0.0000  -0.0366
  -1.200  -0.0676   0.01208   0.00542  -0.0213  1.0000  1.0000  -0.9463   0.0000   0.0000   0.0000  -0.0676
  -1.100  -0.0593   0.01214   0.00541  -0.0210  1.0000  1.0000  -0.8573   0.0000   0.0000   0.0000  -0.1076
  -1.000  -0.0509   0.01221   0.00540  -0.0208  1.0000  1.0000  -0.7700   0.0000   0.0000   0.0000  -0.1609
  -0.900  -0.0425   0.01228   0.00540  -0.0205  1.0000  1.0000  -0.6845   0.0000   0.0000   0.0000  -0.2356
  -0.800  -0.0342   0.01236   0.00541  -0.0203  1.0000  1.0000  -0.6110   0.0000   0.0000   0.0000  -0.3470
  -0.700  -0.0258   0.01245   0.00544  -0.0201  1.0000  1.0000  -0.5648   0.0000   0.0000   0.0000  -0.5308
  -0.600  -0.0175   0.01254   0.00547  -0.0198  1.0000  1.0000  -0.5214   0.0000   0.0000   0.0000  -0.8893
  -0.500  -0.0092   0.01263   0.00551  -0.0196  1.0000  1.0000  -0.4937   0.0000   0.0000   0.0000  -1.8967
  -0.400  -0.0009   0.01273   0.00553  -0.0194  1.0000  1.0000  -0.4662   0.0000   0.0000   0.0000  -21.7732
  -0.300   0.0074   0.01284   0.00559  -0.0192  1.0000  1.0000  -0.4392   0.0000   0.0000   0.0000   2.8632
  -0.200   0.0156   0.01296   0.00565  -0.0190  1.0000  1.0000  -0.4124   0.0000   0.0000   0.0000   1.4726
  -0.100   0.0237   0.01308   0.00573  -0.0188  1.0000  1.0000  -0.3860   0.0000   0.0000   0.0000   1.0435
   0.000   0.0320   0.01321   0.00582  -0.0187  0.9999  1.0000  -0.3596   0.0000   0.0000   0.0000   0.8326
   0.100   0.0523   0.01342   0.00599  -0.0209  0.9959  1.0000  -0.3229   0.0000   0.0000   0.0000   0.6473
   0.200   0.0723   0.01362   0.00614  -0.0229  0.9914  1.0000  -0.3354   0.0000   0.0000   0.0000   0.5657
   0.300   0.0940   0.01386   0.00634  -0.0253  0.9876  1.0000  -0.3516   0.0000   0.0000   0.0000   0.5176
   0.400   0.1124   0.01400   0.00646  -0.0270  0.9822  1.0000  -0.3666   0.0000   0.0000   0.0000   0.4887
   0.500   0.1327   0.01418   0.00659  -0.0290  0.9772  1.0000  -0.3829   0.0000   0.0000   0.0000   0.4674
   0.600   0.1549   0.01438   0.00677  -0.0314  0.9733  1.0000  -0.4006   0.0000   0.0000   0.0000   0.4515
   0.700   0.1729   0.01451   0.00689  -0.0330  0.9681  1.0000  -0.4157   0.0000   0.0000   0.0000   0.4393
   0.800   0.1898   0.01462   0.00698  -0.0343  0.9621  1.0000  -0.4311   0.0000   0.0000   0.0000   0.4293
   0.900   0.2105   0.01475   0.00710  -0.0363  0.9570  1.0000  -0.4507   0.0000   0.0000   0.0000   0.4210
   1.000   0.2340   0.01488   0.00723  -0.0388  0.9528  1.0000  -0.4726   0.0000   0.0000   0.0000   0.4145
   1.100   0.2520   0.01496   0.00732  -0.0402  0.9470  1.0000  -0.4906   0.0000   0.0000   0.0000   0.4082
   1.200   0.2671   0.01500   0.00737  -0.0411  0.9395  1.0000  -0.5066   0.0000   0.0000   0.0000   0.4022
   1.300   0.2878   0.01504   0.00743  -0.0429  0.9337  1.0000  -0.5283   0.0000   0.0000   0.0000   0.3975
   1.400   0.3115   0.01507   0.00748  -0.0453  0.9292  1.0000  -0.5548   0.0000   0.0000   0.0000   0.3938
   1.500   0.3381   0.01507   0.00752  -0.0482  0.9257  1.0000  -0.5839   0.0000   0.0000   0.0000   0.3910
   1.600   0.3482   0.01510   0.00756  -0.0480  0.9175  1.0000  -0.5992   0.0000   0.0000   0.0000   0.3862
   1.700   0.3639   0.01509   0.00757  -0.0488  0.9100  1.0000  -0.6194   0.0000   0.0000   0.0000   0.3823
   1.800   0.3846   0.01504   0.00756  -0.0504  0.9044  1.0000  -0.6444   0.0000   0.0000   0.0000   0.3794
   1.900   0.4070   0.01494   0.00752  -0.0523  0.8996  1.0000  -0.6761   0.0000   0.0000   0.0000   0.3767
   2.000   0.4303   0.01482   0.00745  -0.0543  0.8955  1.0000  -0.7091   0.0000   0.0000   0.0000   0.3743
   2.100   0.4382   0.01485   0.00750  -0.0535  0.8863  1.0000  -0.7263   0.0000   0.0000   0.0000   0.3702
   2.200   0.4501   0.01480   0.00748  -0.0534  0.8774  1.0000  -0.7478   0.0000   0.0000   0.0000   0.3666
   2.300   0.4666   0.01468   0.00740  -0.0540  0.8705  1.0000  -0.7757   0.0000   0.0000   0.0000   0.3636
   2.400   0.4848   0.01451   0.00731  -0.0548  0.8647  1.0000  -0.8108   0.0000   0.0000   0.0000   0.3609
   2.500   0.5036   0.01434   0.00718  -0.0556  0.8596  1.0000  -0.8473   0.0000   0.0000   0.0000   0.3583
   2.600   0.5075   0.01440   0.00726  -0.0541  0.8476  1.0000  -0.8642   0.0000   0.0000   0.0000   0.3544
   2.700   0.5188   0.01430   0.00720  -0.0536  0.8381  1.0000  -0.8913   0.0000   0.0000   0.0000   0.3512
   2.800   0.5329   0.01413   0.00706  -0.0536  0.8302  1.0000  -0.9225   0.0000   0.0000   0.0000   0.3483
   2.900   0.5476   0.01395   0.00691  -0.0535  0.8234  1.0000  -0.9548   0.0000   0.0000   0.0000   0.3454
   3.000   0.5556   0.01395   0.00694  -0.0526  0.8123  1.0000  -0.9799   0.0000   0.0000   0.0000   0.3424
   3.100   0.5647   0.01388   0.00691  -0.0518  0.8004  1.0000  -1.0121   0.0000   0.0000   0.0000   0.3394
   3.200   0.5763   0.01373   0.00678  -0.0513  0.7902  1.0000  -1.0492   0.0000   0.0000   0.0000   0.3365
   3.300   0.5892   0.01356   0.00666  -0.0508  0.7814  1.0000  -1.0912   0.0000   0.0000   0.0000   0.3337
   3.400   0.5969   0.01358   0.00672  -0.0499  0.7678  1.0000  -1.1326   0.0000   0.0000   0.0000   0.3310
   3.500   0.6063   0.01352   0.00669  -0.0491  0.7542  1.0000  -1.1788   0.0000   0.0000   0.0000   0.3284
   3.600   0.6175   0.01339   0.00655  -0.0484  0.7423  1.0000  -1.2308   0.0000   0.0000   0.0000   0.3257
   3.700   0.6274   0.01337   0.00653  -0.0477  0.7287  1.0000  -1.2795   0.0000   0.0000   0.0000   0.3233
   3.800   0.6361   0.01337   0.00656  -0.0469  0.7121  1.0000  -1.3251   0.0000   0.0000   0.0000   0.3209
   3.900   0.6465   0.01331   0.00646  -0.0461  0.6971  1.0000  -1.3766   0.0000   0.0000   0.0000   0.3185
   4.000   0.6561   0.01335   0.00648  -0.0455  0.6811  1.0000  -1.4258   0.0000   0.0000   0.0000   0.3163
   4.100   0.6650   0.01339   0.00654  -0.0447  0.6627  1.0000  -1.4737   0.0000   0.0000   0.0000   0.3142
   4.200   0.6750   0.01343   0.00648  -0.0439  0.6453  1.0000  -1.5386   0.0000   0.0000   0.0000   0.3119
   4.300   0.6838   0.01352   0.00659  -0.0433  0.6258  1.0000  -1.6094   0.0000   0.0000   0.0000   0.3101
   4.400   0.6927   0.01362   0.00662  -0.0425  0.6051  1.0000  -1.6829   0.0000   0.0000   0.0000   0.3080
   4.500   0.7018   0.01377   0.00679  -0.0418  0.5852  1.0000  -1.7571   0.0000   0.0000   0.0000   0.3061
   4.600   0.7105   0.01390   0.00691  -0.0411  0.5632  1.0000  -1.8672   0.0000   0.0000   0.0000   0.3044
   4.700   0.7193   0.01413   0.00695  -0.0403  0.5418  1.0000  -1.9908   0.0000   0.0000   0.0000   0.3025
   4.800   0.7279   0.01427   0.00715  -0.0397  0.5197  1.0000  -2.1126   0.0000   0.0000   0.0000   0.3010
   4.900   0.7362   0.01451   0.00724  -0.0389  0.4965  1.0000  -2.2367   0.0000   0.0000   0.0000   0.2992
   5.000   0.7447   0.01471   0.00743  -0.0383  0.4734  1.0000  -2.3625   0.0000   0.0000   0.0000   0.2977
   5.100   0.7527   0.01498   0.00755  -0.0376  0.4492  1.0000  -2.4881   0.0000   0.0000   0.0000   0.2961
   5.200   0.7611   0.01523   0.00777  -0.0370  0.4263  1.0000  -2.6163   0.0000   0.0000   0.0000   0.2947
   5.300   0.7691   0.01553   0.00795  -0.0364  0.4028  1.0000  -2.7440   0.0000   0.0000   0.0000   0.2932
   5.400   0.7773   0.01584   0.00820  -0.0358  0.3804  1.0000  -2.8733   0.0000   0.0000   0.0000   0.2919
   5.500   0.7852   0.01615   0.00842  -0.0352  0.3567  1.0000  -3.0026   0.0000   0.0000   0.0000   0.2906
   5.600   0.7930   0.01652   0.00869  -0.0346  0.3336  1.0000  -3.1318   0.0000   0.0000   0.0000   0.2893
   5.700   0.8007   0.01684   0.00892  -0.0340  0.3101  1.0000  -3.2625   0.0000   0.0000   0.0000   0.2880
   5.800   0.8084   0.01727   0.00925  -0.0334  0.2877  1.0000  -3.3913   0.0000   0.0000   0.0000   0.2868
   5.900   0.8162   0.01764   0.00955  -0.0329  0.2662  1.0000  -3.5219   0.0000   0.0000   0.0000   0.2856
   6.000   0.8237   0.01816   0.00996  -0.0323  0.2447  1.0000  -3.6467   0.0000   0.0000   0.0000   0.2845
   6.100   0.8312   0.01852   0.01026  -0.0317  0.2231  1.0000  -3.7770   0.0000   0.0000   0.0000   0.2834
   6.200   0.8385   0.01905   0.01068  -0.0311  0.2012  1.0000  -3.9002   0.0000   0.0000   0.0000   0.2822
   6.300   0.8454   0.01950   0.01100  -0.0306  0.1800  1.0000  -4.0260   0.0000   0.0000   0.0000   0.2812
   6.400   0.8529   0.02014   0.01161  -0.0299  0.1608  1.0000  -4.1359   0.0000   0.0000   0.0000   0.2800
   6.500   0.8594   0.02084   0.01216  -0.0293  0.1426  1.0000  -4.2409   0.0000   0.0000   0.0000   0.2789
   6.600   0.8670   0.02163   0.01296  -0.0286  0.1261  1.0000  -4.3296   0.0000   0.0000   0.0000   0.2776
   6.700   0.8735   0.02224   0.01343  -0.0280  0.1108  1.0000  -4.4363   0.0000   0.0000   0.0000   0.2766
   6.800   0.8809   0.02296   0.01416  -0.0274  0.0972  1.0000  -4.5317   0.0000   0.0000   0.0000   0.2756
   6.900   0.8885   0.02338   0.01455  -0.0269  0.0865  1.0000  -4.6435   0.0000   0.0000   0.0000   0.2747
   7.000   0.8944   0.02516   0.01622  -0.0261  0.0775  1.0000  -4.6813   0.0000   0.0000   0.0000   0.2736
   7.100   0.9038   0.02579   0.01697  -0.0256  0.0731  1.0000  -4.7578   0.0000   0.0000   0.0000   0.2725
   7.200   0.9128   0.02660   0.01789  -0.0250  0.0682  1.0000  -4.8211   0.0000   0.0000   0.0000   0.2715
   7.300   0.9215   0.02747   0.01883  -0.0244  0.0640  1.0000  -4.8834   0.0000   0.0000   0.0000   0.2705
   7.400   0.9300   0.02844   0.01983  -0.0239  0.0607  1.0000  -4.9465   0.0000   0.0000   0.0000   0.2696
   7.500   0.9384   0.02968   0.02111  -0.0234  0.0582  1.0000  -4.9979   0.0000   0.0000   0.0000   0.2687
   7.600   0.9465   0.03141   0.02295  -0.0228  0.0563  1.0000  -5.0195   0.0000   0.0000   0.0000   0.2679
   7.700   0.9535   0.03370   0.02542  -0.0223  0.0549  1.0000  -5.0073   0.0000   0.0000   0.0000   0.2670
   7.900   0.9661   0.03620   0.02831  -0.0209  0.0508  1.0000  -5.0577   0.0000   0.0000   0.0000   0.2651
   8.000   0.9736   0.03649   0.02874  -0.0203  0.0474  1.0000  -5.1314   0.0000   0.0000   0.0000   0.2642
   8.100   0.9799   0.03774   0.03017  -0.0196  0.0458  1.0000  -5.1429   0.0000   0.0000   0.0000   0.2633
   8.200   0.9853   0.03925   0.03187  -0.0188  0.0450  1.0000  -5.1333   0.0000   0.0000   0.0000   0.2623
   8.300   0.9899   0.04083   0.03365  -0.0180  0.0443  1.0000  -5.1175   0.0000   0.0000   0.0000   0.2613
   8.400   0.9940   0.04238   0.03539  -0.0172  0.0435  1.0000  -5.1050   0.0000   0.0000   0.0000   0.2604
   8.500   0.9978   0.04378   0.03694  -0.0164  0.0425  1.0000  -5.1065   0.0000   0.0000   0.0000   0.2595
   8.600   1.0021   0.04490   0.03816  -0.0158  0.0411  1.0000  -5.1352   0.0000   0.0000   0.0000   0.2587
   8.700   1.0062   0.04582   0.03914  -0.0152  0.0395  1.0000  -5.1953   0.0000   0.0000   0.0000   0.2580
   8.800   1.0099   0.04680   0.04013  -0.0148  0.0378  1.0000  -5.2795   0.0000   0.0000   0.0000   0.2573
   8.900   1.0119   0.04833   0.04173  -0.0142  0.0368  1.0000  -5.3213   0.0000   0.0000   0.0000   0.2567
   9.000   1.0122   0.05016   0.04369  -0.0135  0.0362  1.0000  -5.3257   0.0000   0.0000   0.0000   0.2559
   9.100   1.0118   0.05200   0.04568  -0.0127  0.0360  1.0000  -5.3158   0.0000   0.0000   0.0000   0.2551
   9.200   1.0111   0.05374   0.04758  -0.0120  0.0360  1.0000  -5.3003   0.0000   0.0000   0.0000   0.2543
   9.300   1.0098   0.05542   0.04942  -0.0112  0.0361  1.0000  -5.2813   0.0000   0.0000   0.0000   0.2534
   9.400   1.0078   0.05708   0.05124  -0.0104  0.0363  1.0000  -5.2578   0.0000   0.0000   0.0000   0.2526
   9.500   1.0049   0.05874   0.05305  -0.0096  0.0365  1.0000  -5.2277   0.0000   0.0000   0.0000   0.2518
   9.600   1.0007   0.06042   0.05489  -0.0088  0.0368  1.0000  -5.1887   0.0000   0.0000   0.0000   0.2510
   9.700   0.9954   0.06217   0.05679  -0.0081  0.0372  1.0000  -5.1389   0.0000   0.0000   0.0000   0.2502
   9.800   0.9884   0.06392   0.05867  -0.0073  0.0376  1.0000  -5.0804   0.0000   0.0000   0.0000   0.2494
   9.900   0.9799   0.06563   0.06050  -0.0066  0.0380  1.0000  -5.0185   0.0000   0.0000   0.0000   0.2486
  10.000   0.9706   0.06743   0.06240  -0.0061  0.0384  1.0000  -4.9542   0.0000   0.0000   0.0000   0.2481
  10.100   0.9602   0.06935   0.06443  -0.0059  0.0388  1.0000  -4.8837   0.0000   0.0000   0.0000   0.2480
  10.200   0.9479   0.07149   0.06666  -0.0063  0.0393  1.0000  -4.7994   0.0000   0.0000   0.0000   0.2484
  10.300   0.9356   0.07390   0.06917  -0.0073  0.0398  1.0000  -4.7100   0.0000   0.0000   0.0000   0.2494
  10.400   0.9202   0.07717   0.07253  -0.0093  0.0409  1.0000  -4.5722   0.0000   0.0000   0.0000   0.2516
  10.500   0.8984   0.08235   0.07780  -0.0132  0.0442  1.0000  -4.3295   0.0000   0.0000   0.0000   0.2561
  10.600   0.8868   0.08624   0.08172  -0.0160  0.0461  1.0000  -4.2059   0.0000   0.0000   0.0000   0.2594
  10.700   0.8777   0.08992   0.08542  -0.0186  0.0474  1.0000  -4.1141   0.0000   0.0000   0.0000   0.2626
  10.800   0.8700   0.09355   0.08905  -0.0211  0.0486  1.0000  -4.0335   0.0000   0.0000   0.0000   0.2656
  10.900   0.8633   0.09714   0.09262  -0.0235  0.0495  1.0000  -3.9566   0.0000   0.0000   0.0000   0.2684
  11.000   0.8575   0.10065   0.09613  -0.0255  0.0504  1.0000  -3.8826   0.0000   0.0000   0.0000   0.2710
  11.100   0.8523   0.10401   0.09947  -0.0273  0.0511  1.0000  -3.8136   0.0000   0.0000   0.0000   0.2732
  11.200   0.8476   0.10721   0.10265  -0.0287  0.0519  1.0000  -3.7505   0.0000   0.0000   0.0000   0.2749
  11.300   0.8413   0.11445   0.10990  -0.0349  0.0596  1.0000  -3.4335   0.0000   0.0000   0.0000   0.2828
  11.400   0.8287   0.12011   0.11551  -0.0389  0.0641  1.0000  -3.2281   0.0000   0.0000   0.0000   0.2884
  11.500   0.8239   0.12348   0.11884  -0.0406  0.0669  1.0000  -3.1376   0.0000   0.0000   0.0000   0.2908
  11.600   0.8216   0.12632   0.12168  -0.0416  0.0696  1.0000  -3.0774   0.0000   0.0000   0.0000   0.2921
  11.700   0.8225   0.12897   0.12432  -0.0413  0.0731  1.0000  -3.0505   0.0000   0.0000   0.0000   0.2916
  11.900   0.8269   0.14495   0.14034  -0.0419  0.1048  1.0000  -2.7682   0.0000   0.0000   0.0000   0.2923
  12.000   0.8260   0.14709   0.14247  -0.0431  0.1047  1.0000  -2.7355   0.0000   0.0000   0.0000   0.2937
  12.100   0.8251   0.14915   0.14451  -0.0443  0.1046  1.0000  -2.7032   0.0000   0.0000   0.0000   0.2951
  12.200   0.8242   0.15109   0.14644  -0.0455  0.1045  1.0000  -2.6713   0.0000   0.0000   0.0000   0.2965
  12.300   0.8234   0.15291   0.14825  -0.0467  0.1043  1.0000  -2.6396   0.0000   0.0000   0.0000   0.2980
  12.400   0.8224   0.15451   0.14983  -0.0480  0.1041  1.0000  -2.6077   0.0000   0.0000   0.0000   0.2996
  12.500   0.8211   0.15569   0.15100  -0.0495  0.1036  1.0000  -2.5742   0.0000   0.0000   0.0000   0.3014
  12.600   0.8169   0.15609   0.15137  -0.0519  0.1025  1.0000  -2.5273   0.0000   0.0000   0.0000   0.3046
  12.700   0.8111   0.15645   0.15170  -0.0548  0.1002  1.0000  -2.4694   0.0000   0.0000   0.0000   0.3085
  12.800   0.8086   0.15778   0.15301  -0.0566  0.0983  1.0000  -2.4287   0.0000   0.0000   0.0000   0.3108
  12.900   0.8076   0.15936   0.15457  -0.0579  0.0966  1.0000  -2.3972   0.0000   0.0000   0.0000   0.3125
  13.000   0.8074   0.16100   0.15621  -0.0590  0.0951  1.0000  -2.3710   0.0000   0.0000   0.0000   0.3137
  13.100   0.8077   0.16264   0.15784  -0.0600  0.0935  1.0000  -2.3487   0.0000   0.0000   0.0000   0.3148
  13.200   0.8085   0.16426   0.15945  -0.0608  0.0918  1.0000  -2.3305   0.0000   0.0000   0.0000   0.3156
  13.300   0.8098   0.16582   0.16102  -0.0614  0.0900  1.0000  -2.3176   0.0000   0.0000   0.0000   0.3162
  13.400   0.8120   0.16733   0.16252  -0.0619  0.0880  1.0000  -2.3128   0.0000   0.0000   0.0000   0.3164
  13.500   0.8163   0.16874   0.16394  -0.0618  0.0853  1.0000  -2.3361   0.0000   0.0000   0.0000   0.3158
  13.600   0.8368   0.17049   0.16577  -0.0567  0.0797  1.0000  -2.5595   0.0000   0.0000   0.0000   0.3077
  13.800   0.8367   0.18143   0.17666  -0.0566  0.0771  1.0000  -2.5239   0.0000   0.0000   0.0000   0.3075
  13.900   0.8375   0.18331   0.17853  -0.0576  0.0770  1.0000  -2.5038   0.0000   0.0000   0.0000   0.3086
  14.000   0.8383   0.18514   0.18035  -0.0587  0.0769  1.0000  -2.4839   0.0000   0.0000   0.0000   0.3096
  14.100   0.8392   0.18689   0.18210  -0.0597  0.0769  1.0000  -2.4644   0.0000   0.0000   0.0000   0.3107
  14.200   0.8401   0.18856   0.18376  -0.0607  0.0768  1.0000  -2.4449   0.0000   0.0000   0.0000   0.3118
  14.300   0.8410   0.19013   0.18532  -0.0618  0.0766  1.0000  -2.4255   0.0000   0.0000   0.0000   0.3129
  14.400   0.8418   0.19157   0.18675  -0.0629  0.0765  1.0000  -2.4058   0.0000   0.0000   0.0000   0.3140
  14.500   0.8427   0.19281   0.18799  -0.0641  0.0762  1.0000  -2.3855   0.0000   0.0000   0.0000   0.3152
  14.600   0.8428   0.19368   0.18884  -0.0655  0.0759  1.0000  -2.3587   0.0000   0.0000   0.0000   0.3168
  14.700   0.8420   0.19410   0.18924  -0.0672  0.0754  1.0000  -2.3235   0.0000   0.0000   0.0000   0.3188
  14.800   0.8404   0.19414   0.18926  -0.0691  0.0746  1.0000  -2.2806   0.0000   0.0000   0.0000   0.3211
  14.900   0.8381   0.19415   0.18926  -0.0710  0.0736  1.0000  -2.2363   0.0000   0.0000   0.0000   0.3235
  15.000   0.8372   0.19473   0.18983  -0.0727  0.0723  1.0000  -2.2008   0.0000   0.0000   0.0000   0.3255
  15.100   0.8376   0.19583   0.19091  -0.0740  0.0709  1.0000  -2.1761   0.0000   0.0000   0.0000   0.3269
  15.200   0.8387   0.19719   0.19226  -0.0751  0.0696  1.0000  -2.1592   0.0000   0.0000   0.0000   0.3279
  15.300   0.8402   0.19867   0.19374  -0.0760  0.0683  1.0000  -2.1472   0.0000   0.0000   0.0000   0.3288
  15.400   0.8420   0.20022   0.19529  -0.0769  0.0671  1.0000  -2.1386   0.0000   0.0000   0.0000   0.3295
  15.500   0.8439   0.20180   0.19687  -0.0777  0.0659  1.0000  -2.1330   0.0000   0.0000   0.0000   0.3301
  15.600   0.8460   0.20340   0.19847  -0.0784  0.0647  1.0000  -2.1298   0.0000   0.0000   0.0000   0.3306
  15.700   0.8482   0.20502   0.20008  -0.0791  0.0637  1.0000  -2.1292   0.0000   0.0000   0.0000   0.3311
  15.800   0.8506   0.20664   0.20171  -0.0797  0.0626  1.0000  -2.1313   0.0000   0.0000   0.0000   0.3314
  15.900   0.8531   0.20828   0.20335  -0.0802  0.0616  1.0000  -2.1364   0.0000   0.0000   0.0000   0.3317
  16.000   0.8558   0.20993   0.20501  -0.0807  0.0606  1.0000  -2.1450   0.0000   0.0000   0.0000   0.3318
  16.100   0.8588   0.21162   0.20670  -0.0811  0.0596  1.0000  -2.1580   0.0000   0.0000   0.0000   0.3318
  16.200   0.8621   0.21338   0.20846  -0.0814  0.0586  1.0000  -2.1766   0.0000   0.0000   0.0000   0.3316
  16.300   0.8660   0.21528   0.21036  -0.0814  0.0577  1.0000  -2.2031   0.0000   0.0000   0.0000   0.3312
  16.400   0.8709   0.21748   0.21259  -0.0812  0.0568  1.0000  -2.2423   0.0000   0.0000   0.0000   0.3302
  16.500   0.8787   0.22080   0.21592  -0.0802  0.0557  1.0000  -2.3122   0.0000   0.0000   0.0000   0.3281
  16.600   0.8846   0.23238   0.22754  -0.0781  0.0535  1.0000  -2.3514   0.0000   0.0000   0.0000   0.3252
  16.800   0.8875   0.23636   0.23145  -0.0800  0.0533  1.0000  -2.3153   0.0000   0.0000   0.0000   0.3268
  16.900   0.8891   0.23802   0.23312  -0.0809  0.0533  1.0000  -2.3010   0.0000   0.0000   0.0000   0.3276
  17.000   0.8908   0.23964   0.23473  -0.0819  0.0532  1.0000  -2.2866   0.0000   0.0000   0.0000   0.3284
  17.100   0.8924   0.24120   0.23629  -0.0828  0.0532  1.0000  -2.2721   0.0000   0.0000   0.0000   0.3292
  17.200   0.8940   0.24269   0.23778  -0.0838  0.0531  1.0000  -2.2576   0.0000   0.0000   0.0000   0.3299
  17.300   0.8955   0.24409   0.23939  -0.0848  0.0530  1.0000  -2.2425   0.0000   0.0000   0.0000   0.3308
  17.400   0.8968   0.24535   0.24064  -0.0858  0.0528  1.0000  -2.2253   0.0000   0.0000   0.0000   0.3317
  17.500   0.8975   0.24639   0.24168  -0.0870  0.0527  1.0000  -2.2030   0.0000   0.0000   0.0000   0.3328
  17.600   0.8979   0.24725   0.24254  -0.0882  0.0525  1.0000  -2.1792   0.0000   0.0000   0.0000   0.3340
  17.700   0.8975   0.24784   0.24312  -0.0896  0.0523  1.0000  -2.1506   0.0000   0.0000   0.0000   0.3354
  17.800   0.8970   0.24831   0.24358  -0.0910  0.0520  1.0000  -2.1195   0.0000   0.0000   0.0000   0.3369
  17.900   0.8967   0.24876   0.24402  -0.0925  0.0516  1.0000  -2.0866   0.0000   0.0000   0.0000   0.3385
  18.000   0.8968   0.24932   0.24456  -0.0941  0.0510  1.0000  -2.0530   0.0000   0.0000   0.0000   0.3401
  18.100   0.8975   0.25019   0.24543  -0.0956  0.0502  1.0000  -2.0222   0.0000   0.0000   0.0000   0.3415
  18.200   0.8988   0.25147   0.24671  -0.0968  0.0493  1.0000  -1.9983   0.0000   0.0000   0.0000   0.3426
  18.300   0.9004   0.25304   0.24828  -0.0979  0.0483  1.0000  -1.9810   0.0000   0.0000   0.0000   0.3435
  18.400   0.9022   0.25477   0.25001  -0.0988  0.0473  1.0000  -1.9684   0.0000   0.0000   0.0000   0.3442
  18.500   0.9041   0.25657   0.25181  -0.0997  0.0463  1.0000  -1.9592   0.0000   0.0000   0.0000   0.3448
  18.600   0.9060   0.25842   0.25366  -0.1005  0.0454  1.0000  -1.9522   0.0000   0.0000   0.0000   0.3453
  18.700   0.9079   0.26028   0.25553  -0.1012  0.0445  1.0000  -1.9471   0.0000   0.0000   0.0000   0.3457
  18.800   0.9099   0.26216   0.25741  -0.1019  0.0437  1.0000  -1.9435   0.0000   0.0000   0.0000   0.3462
  18.900   0.9118   0.26405   0.25930  -0.1026  0.0429  1.0000  -1.9412   0.0000   0.0000   0.0000   0.3465
  19.000   0.9137   0.26594   0.26120  -0.1033  0.0421  1.0000  -1.9402   0.0000   0.0000   0.0000   0.3469
  19.100   0.9157   0.26784   0.26311  -0.1039  0.0414  1.0000  -1.9403   0.0000   0.0000   0.0000   0.3472
  19.200   0.9176   0.26975   0.26502  -0.1045  0.0407  1.0000  -1.9416   0.0000   0.0000   0.0000   0.3475
  19.300   0.9196   0.27167   0.26695  -0.1051  0.0401  1.0000  -1.9438   0.0000   0.0000   0.0000   0.3477
  19.400   0.9215   0.27360   0.26888  -0.1057  0.0396  1.0000  -1.9470   0.0000   0.0000   0.0000   0.3480
  19.500   0.9235   0.27554   0.27083  -0.1062  0.0390  1.0000  -1.9512   0.0000   0.0000   0.0000   0.3482
  19.600   0.9254   0.27750   0.27280  -0.1067  0.0385  1.0000  -1.9573   0.0000   0.0000   0.0000   0.3483
  19.700   0.9274   0.27949   0.27480  -0.1071  0.0380  1.0000  -1.9655   0.0000   0.0000   0.0000   0.3484
  19.800   0.9295   0.28152   0.27684  -0.1075  0.0375  1.0000  -1.9763   0.0000   0.0000   0.0000   0.3484
  19.900   0.9316   0.28362   0.27895  -0.1078  0.0370  1.0000  -1.9903   0.0000   0.0000   0.0000   0.3484
  20.000   0.9339   0.28584   0.28118  -0.1081  0.0365  1.0000  -2.0087   0.0000   0.0000   0.0000   0.3481
  20.100   0.9365   0.28829   0.28365  -0.1081  0.0361  1.0000  -2.0331   0.0000   0.0000   0.0000   0.3477
  20.200   0.9398   0.29126   0.28664  -0.1079  0.0356  1.0000  -2.0674   0.0000   0.0000   0.0000   0.3470
  20.300   0.9458   0.29641   0.29183  -0.1068  0.0349  1.0000  -2.1306   0.0000   0.0000   0.0000   0.3450
  20.400   0.9494   0.30758   0.30295  -0.1061  0.0339  1.0000  -2.1095   0.0000   0.0000   0.0000   0.3438
  20.500   0.9504   0.30949   0.30487  -0.1068  0.0339  1.0000  -2.0956   0.0000   0.0000   0.0000   0.3444
  20.600   0.9513   0.31139   0.30677  -0.1076  0.0339  1.0000  -2.0816   0.0000   0.0000   0.0000   0.3449
  20.700   0.9522   0.31326   0.30864  -0.1083  0.0339  1.0000  -2.0674   0.0000   0.0000   0.0000   0.3455
  20.800   0.9530   0.31511   0.31050  -0.1091  0.0338  1.0000  -2.0531   0.0000   0.0000   0.0000   0.3460
  20.900   0.9537   0.31694   0.31233  -0.1098  0.0338  1.0000  -2.0388   0.0000   0.0000   0.0000   0.3465
  21.000   0.9543   0.31873   0.31413  -0.1105  0.0338  1.0000  -2.0242   0.0000   0.0000   0.0000   0.3471
  21.100   0.9548   0.32050   0.31590  -0.1112  0.0338  1.0000  -2.0095   0.0000   0.0000   0.0000   0.3476
  21.200   0.9553   0.32224   0.31765  -0.1119  0.0337  1.0000  -1.9946   0.0000   0.0000   0.0000   0.3482
  21.300   0.9555   0.32393   0.31935  -0.1126  0.0337  1.0000  -1.9792   0.0000   0.0000   0.0000   0.3488
  21.400   0.9553   0.32549   0.32091  -0.1134  0.0336  1.0000  -1.9605   0.0000   0.0000   0.0000   0.3495
  21.500   0.9548   0.32696   0.32239  -0.1142  0.0336  1.0000  -1.9405   0.0000   0.0000   0.0000   0.3502
  21.600   0.9539   0.32836   0.32379  -0.1149  0.0335  1.0000  -1.9191   0.0000   0.0000   0.0000   0.3510
  21.700   0.9529   0.32973   0.32516  -0.1157  0.0335  1.0000  -1.8973   0.0000   0.0000   0.0000   0.3517
  21.800   0.9518   0.33105   0.32650  -0.1164  0.0334  1.0000  -1.8751   0.0000   0.0000   0.0000   0.3525
  21.900   0.9504   0.33233   0.32779  -0.1171  0.0334  1.0000  -1.8525   0.0000   0.0000   0.0000   0.3533
  22.000   0.9489   0.33356   0.32902  -0.1178  0.0333  1.0000  -1.8293   0.0000   0.0000   0.0000   0.3541
  22.100   0.9471   0.33473   0.33020  -0.1185  0.0332  1.0000  -1.8054   0.0000   0.0000   0.0000   0.3549
  22.200   0.9450   0.33583   0.33132  -0.1191  0.0331  1.0000  -1.7806   0.0000   0.0000   0.0000   0.3557
  22.300   0.9425   0.33685   0.33235  -0.1196  0.0330  1.0000  -1.7549   0.0000   0.0000   0.0000   0.3565
  22.400   0.9395   0.33776   0.33327  -0.1201  0.0329  1.0000  -1.7279   0.0000   0.0000   0.0000   0.3573
  22.500   0.9357   0.33853   0.33405  -0.1205  0.0328  1.0000  -1.6993   0.0000   0.0000   0.0000   0.3582
  23.400   0.8433   0.32365   0.31955  -0.1144  0.0317  1.0000  -1.3484   0.0000   0.0000   0.0000   0.3654
  23.500   0.8412   0.32381   0.31973  -0.1147  0.0313  1.0000  -1.3276   0.0000   0.0000   0.0000   0.3660
  23.600   0.8392   0.32403   0.31997  -0.1150  0.0310  1.0000  -1.3084   0.0000   0.0000   0.0000   0.3666
  23.700   0.8373   0.32430   0.32025  -0.1153  0.0307  1.0000  -1.2908   0.0000   0.0000   0.0000   0.3672
  23.800   0.8356   0.32460   0.32057  -0.1156  0.0303  1.0000  -1.2744   0.0000   0.0000   0.0000   0.3677
  23.900   0.8339   0.32493   0.32091  -0.1158  0.0300  1.0000  -1.2591   0.0000   0.0000   0.0000   0.3682
  24.000   0.8323   0.32527   0.32127  -0.1161  0.0296  1.0000  -1.2447   0.0000   0.0000   0.0000   0.3687
  24.100   0.8308   0.32563   0.32165  -0.1163  0.0293  1.0000  -1.2312   0.0000   0.0000   0.0000   0.3691
  24.200   0.8294   0.32600   0.32204  -0.1166  0.0289  1.0000  -1.2184   0.0000   0.0000   0.0000   0.3696
  24.300   0.8280   0.32639   0.32244  -0.1169  0.0286  1.0000  -1.2063   0.0000   0.0000   0.0000   0.3700
  24.400   0.8268   0.32678   0.32285  -0.1171  0.0283  1.0000  -1.1947   0.0000   0.0000   0.0000   0.3705
  24.500   0.8255   0.32718   0.32327  -0.1174  0.0280  1.0000  -1.1837   0.0000   0.0000   0.0000   0.3709
  24.600   0.8244   0.32760   0.32370  -0.1177  0.0276  1.0000  -1.1731   0.0000   0.0000   0.0000   0.3713
  24.700   0.8233   0.32802   0.32413  -0.1180  0.0273  1.0000  -1.1630   0.0000   0.0000   0.0000   0.3717
  24.800   0.8223   0.32845   0.32458  -0.1183  0.0270  1.0000  -1.1533   0.0000   0.0000   0.0000   0.3721
  24.900   0.8213   0.32888   0.32503  -0.1185  0.0267  1.0000  -1.1440   0.0000   0.0000   0.0000   0.3725
  25.000   0.8204   0.32932   0.32548  -0.1188  0.0264  1.0000  -1.1351   0.0000   0.0000   0.0000   0.3729
  25.100   0.8195   0.32977   0.32595  -0.1191  0.0262  1.0000  -1.1267   0.0000   0.0000   0.0000   0.3733
  25.200   0.8187   0.33022   0.32641  -0.1194  0.0259  1.0000  -1.1186   0.0000   0.0000   0.0000   0.3737
  25.300   0.8179   0.33068   0.32688  -0.1197  0.0256  1.0000  -1.1109   0.0000   0.0000   0.0000   0.3741
  25.400   0.8171   0.33114   0.32736  -0.1200  0.0253  1.0000  -1.1043   0.0000   0.0000   0.0000   0.3744
  25.500   0.8164   0.33160   0.32784  -0.1204  0.0250  1.0000  -1.1032   0.0000   0.0000   0.0000   0.3748
  25.600   0.8157   0.33207   0.32832  -0.1207  0.0247  1.0000  -1.1022   0.0000   0.0000   0.0000   0.3752
  25.700   0.8151   0.33254   0.32889  -0.1210  0.0245  1.0000  -1.0997   0.0000   0.0000   0.0000   0.3756
  25.800   0.8145   0.33302   0.32938  -0.1213  0.0242  1.0000  -1.0991   0.0000   0.0000   0.0000   0.3759
  25.900   0.8139   0.33349   0.32986  -0.1216  0.0239  1.0000  -1.0989   0.0000   0.0000   0.0000   0.3763
  26.000   0.8134   0.33396   0.33035  -0.1219  0.0237  1.0000  -1.0991   0.0000   0.0000   0.0000   0.3766
  26.100   0.8128   0.33444   0.33084  -0.1223  0.0234  1.0000  -1.0996   0.0000   0.0000   0.0000   0.3770
  26.200   0.8123   0.33491   0.33133  -0.1226  0.0231  1.0000  -1.1004   0.0000   0.0000   0.0000   0.3773
  26.300   0.8119   0.33539   0.33182  -0.1229  0.0229  1.0000  -1.1015   0.0000   0.0000   0.0000   0.3776
  26.400   0.8114   0.33586   0.33231  -0.1232  0.0226  1.0000  -1.1031   0.0000   0.0000   0.0000   0.3779
  26.500   0.8110   0.33633   0.33280  -0.1235  0.0224  1.0000  -1.1051   0.0000   0.0000   0.0000   0.3783
  26.600   0.8106   0.33681   0.33328  -0.1238  0.0221  1.0000  -1.1075   0.0000   0.0000   0.0000   0.3786
  26.700   0.8102   0.33728   0.33377  -0.1241  0.0219  1.0000  -1.1105   0.0000   0.0000   0.0000   0.3789
  26.800   0.8098   0.33774   0.33425  -0.1244  0.0217  1.0000  -1.1139   0.0000   0.0000   0.0000   0.3791
  26.900   0.8094   0.33821   0.33473  -0.1247  0.0214  1.0000  -1.1180   0.0000   0.0000   0.0000   0.3794
  27.000   0.8090   0.33868   0.33522  -0.1250  0.0212  1.0000  -1.1227   0.0000   0.0000   0.0000   0.3796
  27.100   0.8087   0.33915   0.33570  -0.1253  0.0210  1.0000  -1.1282   0.0000   0.0000   0.0000   0.3799
  27.200   0.8083   0.33964   0.33620  -0.1255  0.0208  1.0000  -1.1344   0.0000   0.0000   0.0000   0.3801
  27.300   0.8080   0.34013   0.33671  -0.1258  0.0206  1.0000  -1.1416   0.0000   0.0000   0.0000   0.3803
  27.400   0.8077   0.34065   0.33725  -0.1260  0.0203  1.0000  -1.1499   0.0000   0.0000   0.0000   0.3804
  27.500   0.8075   0.34123   0.33784  -0.1261  0.0201  1.0000  -1.1594   0.0000   0.0000   0.0000   0.3805
  27.600   0.8073   0.34189   0.33852  -0.1263  0.0199  1.0000  -1.1705   0.0000   0.0000   0.0000   0.3805
  27.700   0.8072   0.34272   0.33936  -0.1263  0.0198  1.0000  -1.1835   0.0000   0.0000   0.0000   0.3805
  27.800   0.8074   0.34387   0.34054  -0.1263  0.0195  1.0000  -1.1990   0.0000   0.0000   0.0000   0.3803
  27.900   0.8083   0.34584   0.34252  -0.1262  0.0193  1.0000  -1.2190   0.0000   0.0000   0.0000   0.3798
  28.000   0.8146   0.35434   0.35105  -0.1256  0.0189  1.0000  -1.2553   0.0000   0.0000   0.0000   0.3778


