xflr5 v6.61

 Calculated polar for: MH 30

 1 1 Reynolds number fixed          Mach number fixed         

 xtrf =   1.000 (top)        1.000 (bottom)
 Mach =   0.000     Re =     0.450 e 6     Ncrit =   9.000

  alpha     CL        CD       CDp       Cm    Top Xtr Bot Xtr   Cpmin    Chinge    XCp    
 ------- -------- --------- --------- -------- ------- ------- -------- --------- ---------
 -10.000  -0.4892   0.11271   0.11033  -0.0064  1.0000  0.0149  -1.9500   0.0000   0.0000   0.0000   0.2323
  -9.900  -0.4876   0.11114   0.10877  -0.0071  1.0000  0.0149  -1.9643   0.0000   0.0000   0.0000   0.2309
  -9.800  -0.4860   0.10958   0.10721  -0.0077  1.0000  0.0149  -1.9789   0.0000   0.0000   0.0000   0.2295
  -9.700  -0.4845   0.10801   0.10565  -0.0084  1.0000  0.0149  -1.9939   0.0000   0.0000   0.0000   0.2281
  -9.600  -0.4831   0.10645   0.10410  -0.0091  1.0000  0.0149  -2.0094   0.0000   0.0000   0.0000   0.2267
  -9.500  -0.4817   0.10489   0.10254  -0.0098  1.0000  0.0149  -2.0253   0.0000   0.0000   0.0000   0.2252
  -9.400  -0.4804   0.10333   0.10099  -0.0105  1.0000  0.0149  -2.0416   0.0000   0.0000   0.0000   0.2238
  -9.300  -0.4790   0.10174   0.09941  -0.0112  1.0000  0.0149  -2.0584   0.0000   0.0000   0.0000   0.2223
  -9.200  -0.4776   0.10014   0.09781  -0.0120  1.0000  0.0149  -2.0757   0.0000   0.0000   0.0000   0.2207
  -9.100  -0.4763   0.09853   0.09621  -0.0127  1.0000  0.0149  -2.0935   0.0000   0.0000   0.0000   0.2190
  -9.000  -0.4751   0.09692   0.09461  -0.0135  1.0000  0.0149  -2.1118   0.0000   0.0000   0.0000   0.2174
  -8.900  -0.4739   0.09531   0.09300  -0.0143  1.0000  0.0149  -2.1308   0.0000   0.0000   0.0000   0.2157
  -8.800  -0.4728   0.09369   0.09139  -0.0151  1.0000  0.0149  -2.1503   0.0000   0.0000   0.0000   0.2140
  -8.700  -0.4718   0.09206   0.08968  -0.0159  1.0000  0.0149  -2.1708   0.0000   0.0000   0.0000   0.2123
  -8.600  -0.4709   0.09043   0.08807  -0.0167  1.0000  0.0149  -2.1918   0.0000   0.0000   0.0000   0.2105
  -8.500  -0.4701   0.08880   0.08645  -0.0176  1.0000  0.0149  -2.2135   0.0000   0.0000   0.0000   0.2087
  -8.400  -0.4693   0.08714   0.08480  -0.0185  1.0000  0.0149  -2.2361   0.0000   0.0000   0.0000   0.2067
  -8.300  -0.4686   0.08547   0.08314  -0.0195  1.0000  0.0149  -2.2596   0.0000   0.0000   0.0000   0.2047
  -8.200  -0.4681   0.08378   0.08147  -0.0204  1.0000  0.0149  -2.2841   0.0000   0.0000   0.0000   0.2027
  -8.100  -0.4677   0.08209   0.07979  -0.0215  1.0000  0.0149  -2.3097   0.0000   0.0000   0.0000   0.2005
  -8.000  -0.4675   0.08038   0.07809  -0.0225  1.0000  0.0149  -2.3365   0.0000   0.0000   0.0000   0.1982
  -7.900  -0.4676   0.07864   0.07636  -0.0237  1.0000  0.0149  -2.3649   0.0000   0.0000   0.0000   0.1958
  -7.800  -0.4680   0.07688   0.07462  -0.0250  1.0000  0.0150  -2.3951   0.0000   0.0000   0.0000   0.1932
  -7.700  -0.4688   0.07509   0.07285  -0.0264  1.0000  0.0150  -2.4278   0.0000   0.0000   0.0000   0.1903
  -7.600  -0.4695   0.07315   0.07091  -0.0284  1.0000  0.0150  -2.4648   0.0000   0.0000   0.0000   0.1863
  -7.500  -0.4682   0.07081   0.06858  -0.0311  1.0000  0.0150  -2.5084   0.0000   0.0000   0.0000   0.1804
  -7.400  -0.4664   0.06843   0.06618  -0.0335  1.0000  0.0150  -2.5543   0.0000   0.0000   0.0000   0.1750
  -7.300  -0.4646   0.06611   0.06384  -0.0355  1.0000  0.0150  -2.6000   0.0000   0.0000   0.0000   0.1706
  -7.200  -0.4629   0.06389   0.06159  -0.0371  1.0000  0.0150  -2.6443   0.0000   0.0000   0.0000   0.1669
  -7.100  -0.4614   0.06177   0.05945  -0.0383  1.0000  0.0150  -2.6864   0.0000   0.0000   0.0000   0.1639
  -7.000  -0.4600   0.05977   0.05741  -0.0393  1.0000  0.0150  -2.7257   0.0000   0.0000   0.0000   0.1616
  -6.900  -0.4588   0.05789   0.05548  -0.0400  1.0000  0.0150  -2.7618   0.0000   0.0000   0.0000   0.1599
  -6.800  -0.4580   0.05612   0.05367  -0.0404  1.0000  0.0150  -2.7948   0.0000   0.0000   0.0000   0.1589
  -6.700  -0.4576   0.05447   0.05199  -0.0405  1.0000  0.0150  -2.8248   0.0000   0.0000   0.0000   0.1586
  -6.600  -0.4575   0.05294   0.05040  -0.0403  1.0000  0.0150  -2.8519   0.0000   0.0000   0.0000   0.1590
  -6.500  -0.4579   0.05151   0.04893  -0.0399  1.0000  0.0150  -2.8765   0.0000   0.0000   0.0000   0.1601
  -6.400  -0.4588   0.05018   0.04755  -0.0392  1.0000  0.0150  -2.8990   0.0000   0.0000   0.0000   0.1618
  -6.300  -0.4598   0.04892   0.04624  -0.0383  1.0000  0.0150  -2.9195   0.0000   0.0000   0.0000   0.1639
  -6.200  -0.4608   0.04769   0.04496  -0.0374  1.0000  0.0150  -2.9385   0.0000   0.0000   0.0000   0.1662
  -6.100  -0.4615   0.04646   0.04367  -0.0364  1.0000  0.0150  -2.9566   0.0000   0.0000   0.0000   0.1684
  -6.000  -0.4618   0.04521   0.04237  -0.0355  1.0000  0.0150  -2.9740   0.0000   0.0000   0.0000   0.1705
  -5.900  -0.4616   0.04395   0.04104  -0.0346  1.0000  0.0150  -2.9907   0.0000   0.0000   0.0000   0.1724
  -5.800  -0.4568   0.04226   0.03926  -0.0348  0.9995  0.0150  -3.0094   0.0000   0.0000   0.0000   0.1713
  -5.700  -0.4458   0.03998   0.03686  -0.0363  0.9982  0.0150  -3.0316   0.0000   0.0000   0.0000   0.1659
  -5.600  -0.4432   0.03298   0.02955  -0.0390  0.9961  0.0135  -3.3680   0.0000   0.0000   0.0000   0.1592
  -5.500  -0.4339   0.02959   0.02589  -0.0402  0.9942  0.0125  -3.5195   0.0000   0.0000   0.0000   0.1546
  -5.400  -0.4226   0.02713   0.02318  -0.0410  0.9926  0.0117  -3.6165   0.0000   0.0000   0.0000   0.1501
  -5.300  -0.4105   0.02498   0.02080  -0.0417  0.9912  0.0111  -3.7006   0.0000   0.0000   0.0000   0.1455
  -5.200  -0.3976   0.02306   0.01865  -0.0423  0.9900  0.0107  -3.7744   0.0000   0.0000   0.0000   0.1407
  -5.100  -0.3843   0.02137   0.01673  -0.0429  0.9889  0.0104  -3.8326   0.0000   0.0000   0.0000   0.1355
  -5.000  -0.3706   0.01988   0.01504  -0.0434  0.9881  0.0101  -3.8727   0.0000   0.0000   0.0000   0.1298
  -4.900  -0.3567   0.01858   0.01355  -0.0439  0.9873  0.0100  -3.8926   0.0000   0.0000   0.0000   0.1237
  -4.800  -0.3447   0.01763   0.01246  -0.0440  0.9858  0.0102  -3.8731   0.0000   0.0000   0.0000   0.1191
  -4.700  -0.3324   0.01695   0.01168  -0.0442  0.9842  0.0106  -3.8042   0.0000   0.0000   0.0000   0.1138
  -4.600  -0.3196   0.01630   0.01094  -0.0445  0.9827  0.0111  -3.7286   0.0000   0.0000   0.0000   0.1075
  -4.500  -0.3066   0.01559   0.01012  -0.0448  0.9813  0.0114  -3.6670   0.0000   0.0000   0.0000   0.1006
  -4.400  -0.2936   0.01480   0.00922  -0.0451  0.9801  0.0115  -3.6238   0.0000   0.0000   0.0000   0.0932
  -4.300  -0.2806   0.01405   0.00837  -0.0454  0.9790  0.0116  -3.5788   0.0000   0.0000   0.0000   0.0851
  -4.200  -0.2675   0.01337   0.00760  -0.0457  0.9780  0.0118  -3.5236   0.0000   0.0000   0.0000   0.0760
  -4.100  -0.2540   0.01275   0.00690  -0.0460  0.9770  0.0120  -3.4587   0.0000   0.0000   0.0000   0.0655
  -4.000  -0.2402   0.01220   0.00627  -0.0465  0.9761  0.0124  -3.3844   0.0000   0.0000   0.0000   0.0531
  -3.900  -0.2259   0.01172   0.00572  -0.0471  0.9752  0.0129  -3.2990   0.0000   0.0000   0.0000   0.0383
  -3.800  -0.2112   0.01133   0.00526  -0.0477  0.9744  0.0137  -3.1966   0.0000   0.0000   0.0000   0.0205
  -3.700  -0.1960   0.01106   0.00495  -0.0485  0.9736  0.0145  -3.0646   0.0000   0.0000   0.0000  -0.0012
  -3.600  -0.1811   0.01066   0.00449  -0.0493  0.9729  0.0162  -2.9538   0.0000   0.0000   0.0000  -0.0260
  -3.400  -0.1563   0.00959   0.00338  -0.0497  0.9697  0.0447  -2.8698   0.0000   0.0000   0.0000  -0.0718
  -3.300  -0.1462   0.00920   0.00320  -0.0496  0.9671  0.0878  -2.7676   0.0000   0.0000   0.0000  -0.0932
  -3.200  -0.1351   0.00886   0.00309  -0.0498  0.9648  0.1359  -2.6373   0.0000   0.0000   0.0000  -0.1229
  -3.100  -0.1229   0.00863   0.00299  -0.0501  0.9627  0.1720  -2.4979   0.0000   0.0000   0.0000  -0.1623
  -3.000  -0.1103   0.00842   0.00289  -0.0506  0.9607  0.2038  -2.3548   0.0000   0.0000   0.0000  -0.2130
  -2.900  -0.0972   0.00824   0.00280  -0.0510  0.9588  0.2335  -2.2093   0.0000   0.0000   0.0000  -0.2798
  -2.800  -0.0840   0.00808   0.00272  -0.0515  0.9570  0.2621  -2.0643   0.0000   0.0000   0.0000  -0.3683
  -2.700  -0.0712   0.00788   0.00264  -0.0519  0.9551  0.2987  -1.9235   0.0000   0.0000   0.0000  -0.4854
  -2.600  -0.0585   0.00770   0.00258  -0.0523  0.9533  0.3339  -1.7860   0.0000   0.0000   0.0000  -0.6498
  -2.500  -0.0463   0.00751   0.00252  -0.0526  0.9515  0.3783  -1.6531   0.0000   0.0000   0.0000  -0.8939
  -2.400  -0.0369   0.00731   0.00248  -0.0523  0.9486  0.4264  -1.5388   0.0000   0.0000   0.0000  -1.1773
  -2.300  -0.0285   0.00710   0.00241  -0.0517  0.9452  0.4778  -1.4365   0.0000   0.0000   0.0000  -1.5788
  -2.200  -0.0192   0.00691   0.00239  -0.0513  0.9419  0.5270  -1.3264   0.0000   0.0000   0.0000  -2.4351
  -2.100  -0.0093   0.00675   0.00236  -0.0510  0.9390  0.5673  -1.2149   0.0000   0.0000   0.0000  -5.2589
  -2.000   0.0008   0.00662   0.00232  -0.0507  0.9362  0.5992  -1.1045   0.0000   0.0000   0.0000  61.5961
  -1.900   0.0114   0.00652   0.00228  -0.0505  0.9335  0.6278  -0.9944   0.0000   0.0000   0.0000   4.6982
  -1.800   0.0212   0.00638   0.00225  -0.0501  0.9307  0.6642  -0.8904   0.0000   0.0000   0.0000   2.6199
  -1.700   0.0311   0.00625   0.00223  -0.0496  0.9280  0.6987  -0.7883   0.0000   0.0000   0.0000   1.8512
  -1.600   0.0415   0.00617   0.00222  -0.0493  0.9251  0.7294  -0.6869   0.0000   0.0000   0.0000   1.4432
  -1.500   0.0501   0.00607   0.00221  -0.0486  0.9220  0.7583  -0.5958   0.0000   0.0000   0.0000   1.2233
  -1.400   0.0590   0.00598   0.00219  -0.0479  0.9186  0.7832  -0.5432   0.0000   0.0000   0.0000   1.0652
  -1.300   0.0681   0.00591   0.00218  -0.0473  0.9153  0.8111  -0.4953   0.0000   0.0000   0.0000   0.9470
  -1.200   0.0771   0.00582   0.00217  -0.0466  0.9119  0.8374  -0.4655   0.0000   0.0000   0.0000   0.8559
  -1.100   0.0867   0.00576   0.00214  -0.0460  0.9085  0.8605  -0.4353   0.0000   0.0000   0.0000   0.7821
  -1.000   0.0966   0.00571   0.00212  -0.0455  0.9052  0.8821  -0.4049   0.0000   0.0000   0.0000   0.7217
  -0.900   0.1075   0.00566   0.00208  -0.0452  0.9019  0.8997  -0.3735   0.0000   0.0000   0.0000   0.6708
  -0.800   0.1195   0.00563   0.00205  -0.0451  0.8984  0.9195  -0.3408   0.0000   0.0000   0.0000   0.6275
  -0.700   0.1344   0.00561   0.00202  -0.0456  0.8949  0.9363  -0.3482   0.0000   0.0000   0.0000   0.5895
  -0.600   0.1486   0.00558   0.00199  -0.0461  0.8916  0.9513  -0.3596   0.0000   0.0000   0.0000   0.5603
  -0.500   0.1659   0.00555   0.00195  -0.0473  0.8885  0.9608  -0.3726   0.0000   0.0000   0.0000   0.5352
  -0.400   0.1807   0.00554   0.00191  -0.0480  0.8848  0.9698  -0.3844   0.0000   0.0000   0.0000   0.5156
  -0.300   0.1980   0.00551   0.00187  -0.0493  0.8814  0.9773  -0.3991   0.0000   0.0000   0.0000   0.4986
  -0.200   0.2148   0.00549   0.00183  -0.0504  0.8778  0.9848  -0.4139   0.0000   0.0000   0.0000   0.4843
  -0.100   0.2318   0.00547   0.00178  -0.0516  0.8737  0.9905  -0.4288   0.0000   0.0000   0.0000   0.4721
   0.000   0.2487   0.00544   0.00172  -0.0528  0.8692  0.9960  -0.4438   0.0000   0.0000   0.0000   0.4616
   0.100   0.2643   0.00543   0.00167  -0.0537  0.8645  1.0000  -0.4581   0.0000   0.0000   0.0000   0.4524
   0.200   0.2738   0.00544   0.00164  -0.0533  0.8591  1.0000  -0.4695   0.0000   0.0000   0.0000   0.4438
   0.300   0.2834   0.00543   0.00163  -0.0529  0.8549  1.0000  -0.4820   0.0000   0.0000   0.0000   0.4360
   0.400   0.2930   0.00543   0.00162  -0.0526  0.8498  1.0000  -0.4945   0.0000   0.0000   0.0000   0.4287
   0.500   0.3026   0.00543   0.00160  -0.0523  0.8439  1.0000  -0.5071   0.0000   0.0000   0.0000   0.4218
   0.600   0.3122   0.00543   0.00157  -0.0519  0.8375  1.0000  -0.5197   0.0000   0.0000   0.0000   0.4151
   0.700   0.3217   0.00543   0.00154  -0.0514  0.8307  1.0000  -0.5324   0.0000   0.0000   0.0000   0.4088
   0.800   0.3313   0.00545   0.00150  -0.0510  0.8238  1.0000  -0.5456   0.0000   0.0000   0.0000   0.4028
   0.900   0.3412   0.00546   0.00150  -0.0507  0.8179  1.0000  -0.5610   0.0000   0.0000   0.0000   0.3974
   1.000   0.3512   0.00546   0.00150  -0.0504  0.8119  1.0000  -0.5765   0.0000   0.0000   0.0000   0.3924
   1.100   0.3612   0.00547   0.00150  -0.0501  0.8050  1.0000  -0.5921   0.0000   0.0000   0.0000   0.3875
   1.200   0.3710   0.00549   0.00148  -0.0498  0.7971  1.0000  -0.6076   0.0000   0.0000   0.0000   0.3829
   1.300   0.3807   0.00551   0.00146  -0.0494  0.7884  1.0000  -0.6232   0.0000   0.0000   0.0000   0.3783
   1.400   0.3904   0.00555   0.00144  -0.0490  0.7792  1.0000  -0.6388   0.0000   0.0000   0.0000   0.3740
   1.500   0.4005   0.00556   0.00145  -0.0487  0.7712  1.0000  -0.6547   0.0000   0.0000   0.0000   0.3702
   1.600   0.4105   0.00558   0.00146  -0.0484  0.7611  1.0000  -0.6729   0.0000   0.0000   0.0000   0.3664
   1.700   0.4204   0.00562   0.00145  -0.0481  0.7505  1.0000  -0.6921   0.0000   0.0000   0.0000   0.3628
   1.800   0.4300   0.00567   0.00144  -0.0477  0.7396  1.0000  -0.7113   0.0000   0.0000   0.0000   0.3592
   1.900   0.4401   0.00571   0.00146  -0.0474  0.7299  1.0000  -0.7309   0.0000   0.0000   0.0000   0.3560
   2.000   0.4502   0.00574   0.00147  -0.0471  0.7177  1.0000  -0.7507   0.0000   0.0000   0.0000   0.3530
   2.100   0.4598   0.00581   0.00147  -0.0468  0.7029  1.0000  -0.7702   0.0000   0.0000   0.0000   0.3499
   2.200   0.4693   0.00589   0.00148  -0.0463  0.6881  1.0000  -0.7936   0.0000   0.0000   0.0000   0.3469
   2.300   0.4795   0.00594   0.00151  -0.0461  0.6761  1.0000  -0.8184   0.0000   0.0000   0.0000   0.3442
   2.400   0.4895   0.00600   0.00153  -0.0458  0.6625  1.0000  -0.8432   0.0000   0.0000   0.0000   0.3416
   2.500   0.4990   0.00610   0.00156  -0.0455  0.6480  1.0000  -0.8678   0.0000   0.0000   0.0000   0.3390
   2.600   0.5090   0.00618   0.00159  -0.0452  0.6355  1.0000  -0.8930   0.0000   0.0000   0.0000   0.3367
   2.700   0.5191   0.00625   0.00163  -0.0450  0.6213  1.0000  -0.9185   0.0000   0.0000   0.0000   0.3344
   2.800   0.5286   0.00636   0.00166  -0.0446  0.6038  1.0000  -0.9434   0.0000   0.0000   0.0000   0.3321
   2.900   0.5383   0.00647   0.00170  -0.0443  0.5876  1.0000  -0.9686   0.0000   0.0000   0.0000   0.3300
   3.000   0.5484   0.00655   0.00175  -0.0441  0.5730  1.0000  -1.0004   0.0000   0.0000   0.0000   0.3280
   3.100   0.5581   0.00667   0.00180  -0.0438  0.5568  1.0000  -1.0334   0.0000   0.0000   0.0000   0.3260
   3.200   0.5677   0.00679   0.00186  -0.0435  0.5411  1.0000  -1.0665   0.0000   0.0000   0.0000   0.3240
   3.300   0.5780   0.00686   0.00193  -0.0433  0.5293  1.0000  -1.1053   0.0000   0.0000   0.0000   0.3223
   3.400   0.5878   0.00698   0.00199  -0.0430  0.5119  1.0000  -1.1519   0.0000   0.0000   0.0000   0.3206
   3.500   0.5970   0.00715   0.00206  -0.0427  0.4909  1.0000  -1.1977   0.0000   0.0000   0.0000   0.3188
   3.600   0.6072   0.00724   0.00212  -0.0425  0.4759  1.0000  -1.2462   0.0000   0.0000   0.0000   0.3172
   3.700   0.6168   0.00739   0.00219  -0.0422  0.4569  1.0000  -1.2938   0.0000   0.0000   0.0000   0.3156
   3.800   0.6264   0.00754   0.00227  -0.0420  0.4393  1.0000  -1.3418   0.0000   0.0000   0.0000   0.3140
   3.900   0.6366   0.00763   0.00234  -0.0418  0.4264  1.0000  -1.3919   0.0000   0.0000   0.0000   0.3126
   4.000   0.6463   0.00779   0.00242  -0.0415  0.4080  1.0000  -1.4411   0.0000   0.0000   0.0000   0.3112
   4.100   0.6558   0.00795   0.00252  -0.0413  0.3885  1.0000  -1.5090   0.0000   0.0000   0.0000   0.3098
   4.200   0.6658   0.00808   0.00260  -0.0411  0.3719  1.0000  -1.5845   0.0000   0.0000   0.0000   0.3085
   4.300   0.6750   0.00829   0.00269  -0.0408  0.3505  1.0000  -1.6584   0.0000   0.0000   0.0000   0.3071
   4.400   0.6851   0.00841   0.00279  -0.0406  0.3356  1.0000  -1.7434   0.0000   0.0000   0.0000   0.3059
   4.500   0.6950   0.00856   0.00293  -0.0404  0.3210  1.0000  -1.8663   0.0000   0.0000   0.0000   0.3047
   4.600   0.7044   0.00875   0.00304  -0.0402  0.3029  1.0000  -1.9955   0.0000   0.0000   0.0000   0.3035
   4.700   0.7146   0.00888   0.00315  -0.0400  0.2903  1.0000  -2.1325   0.0000   0.0000   0.0000   0.3024
   4.800   0.7243   0.00904   0.00326  -0.0398  0.2749  1.0000  -2.2705   0.0000   0.0000   0.0000   0.3013
   4.900   0.7335   0.00929   0.00338  -0.0396  0.2520  1.0000  -2.4068   0.0000   0.0000   0.0000   0.3001
   5.000   0.7432   0.00945   0.00350  -0.0394  0.2353  1.0000  -2.5506   0.0000   0.0000   0.0000   0.2991
   5.100   0.7522   0.00973   0.00363  -0.0391  0.2103  1.0000  -2.6905   0.0000   0.0000   0.0000   0.2980
   5.200   0.7619   0.00991   0.00376  -0.0389  0.1954  1.0000  -2.8396   0.0000   0.0000   0.0000   0.2970
   5.300   0.7710   0.01017   0.00390  -0.0387  0.1755  1.0000  -2.9854   0.0000   0.0000   0.0000   0.2960
   5.400   0.7810   0.01032   0.00403  -0.0385  0.1646  1.0000  -3.1409   0.0000   0.0000   0.0000   0.2951
   5.500   0.7906   0.01052   0.00418  -0.0383  0.1520  1.0000  -3.2954   0.0000   0.0000   0.0000   0.2942
   5.600   0.8000   0.01076   0.00434  -0.0381  0.1364  1.0000  -3.4497   0.0000   0.0000   0.0000   0.2932
   5.700   0.8100   0.01090   0.00448  -0.0379  0.1281  1.0000  -3.6122   0.0000   0.0000   0.0000   0.2923
   5.800   0.8194   0.01114   0.00464  -0.0377  0.1158  1.0000  -3.7714   0.0000   0.0000   0.0000   0.2914
   5.900   0.8289   0.01136   0.00482  -0.0375  0.1033  1.0000  -3.9329   0.0000   0.0000   0.0000   0.2906
   6.000   0.8386   0.01154   0.00498  -0.0373  0.0943  1.0000  -4.0988   0.0000   0.0000   0.0000   0.2897
   6.100   0.8476   0.01184   0.00518  -0.0371  0.0806  1.0000  -4.2590   0.0000   0.0000   0.0000   0.2888
   6.200   0.8573   0.01204   0.00538  -0.0368  0.0715  1.0000  -4.4257   0.0000   0.0000   0.0000   0.2880
   6.300   0.8660   0.01239   0.00561  -0.0365  0.0576  1.0000  -4.5821   0.0000   0.0000   0.0000   0.2871
   6.400   0.8752   0.01267   0.00588  -0.0362  0.0474  1.0000  -4.7392   0.0000   0.0000   0.0000   0.2862
   6.500   0.8826   0.01329   0.00641  -0.0356  0.0334  1.0000  -4.8444   0.0000   0.0000   0.0000   0.2850
   6.600   0.8921   0.01351   0.00667  -0.0353  0.0299  1.0000  -4.9975   0.0000   0.0000   0.0000   0.2842
   6.700   0.9009   0.01387   0.00700  -0.0350  0.0255  1.0000  -5.1394   0.0000   0.0000   0.0000   0.2833
   6.800   0.9079   0.01454   0.00772  -0.0342  0.0204  1.0000  -5.2247   0.0000   0.0000   0.0000   0.2821
   6.900   0.9151   0.01515   0.00843  -0.0336  0.0186  1.0000  -5.3254   0.0000   0.0000   0.0000   0.2810
   7.000   0.9254   0.01522   0.00851  -0.0335  0.0181  1.0000  -5.5128   0.0000   0.0000   0.0000   0.2804
   7.100   0.9351   0.01541   0.00874  -0.0332  0.0173  1.0000  -5.6740   0.0000   0.0000   0.0000   0.2797
   7.200   0.9446   0.01564   0.00900  -0.0330  0.0161  1.0000  -5.8237   0.0000   0.0000   0.0000   0.2789
   7.300   0.9539   0.01587   0.00925  -0.0327  0.0143  1.0000  -5.9791   0.0000   0.0000   0.0000   0.2782
   7.400   0.9633   0.01609   0.00946  -0.0325  0.0122  1.0000  -6.1695   0.0000   0.0000   0.0000   0.2776
   7.500   0.9695   0.01686   0.01027  -0.0317  0.0098  1.0000  -6.2439   0.0000   0.0000   0.0000   0.2764
   7.600   0.9693   0.01886   0.01253  -0.0298  0.0083  1.0000  -6.0972   0.0000   0.0000   0.0000   0.2744
   7.700   0.9757   0.01973   0.01348  -0.0291  0.0079  1.0000  -6.1763   0.0000   0.0000   0.0000   0.2733
   7.800   0.9850   0.01999   0.01378  -0.0288  0.0077  1.0000  -6.3501   0.0000   0.0000   0.0000   0.2726
   7.900   0.9935   0.02040   0.01425  -0.0284  0.0075  1.0000  -6.5019   0.0000   0.0000   0.0000   0.2719
   8.000   1.0016   0.02094   0.01485  -0.0279  0.0073  1.0000  -6.6329   0.0000   0.0000   0.0000   0.2710
   8.100   1.0091   0.02159   0.01559  -0.0273  0.0071  1.0000  -6.7463   0.0000   0.0000   0.0000   0.2701
   8.200   1.0164   0.02235   0.01643  -0.0267  0.0069  1.0000  -6.8455   0.0000   0.0000   0.0000   0.2692
   8.300   1.0233   0.02319   0.01738  -0.0261  0.0067  1.0000  -6.9333   0.0000   0.0000   0.0000   0.2683
   8.400   1.0299   0.02412   0.01842  -0.0254  0.0066  1.0000  -7.0111   0.0000   0.0000   0.0000   0.2674
   8.500   1.0362   0.02512   0.01954  -0.0247  0.0065  1.0000  -7.0798   0.0000   0.0000   0.0000   0.2665
   8.600   1.0421   0.02620   0.02075  -0.0239  0.0064  1.0000  -7.1398   0.0000   0.0000   0.0000   0.2655
   8.700   1.0476   0.02738   0.02223  -0.0231  0.0063  1.0000  -7.1869   0.0000   0.0000   0.0000   0.2645
   8.800   1.0525   0.02860   0.02359  -0.0223  0.0063  1.0000  -7.2288   0.0000   0.0000   0.0000   0.2636
   8.900   1.0569   0.02987   0.02501  -0.0215  0.0063  1.0000  -7.2630   0.0000   0.0000   0.0000   0.2626
   9.000   1.0606   0.03120   0.02648  -0.0206  0.0062  1.0000  -7.2904   0.0000   0.0000   0.0000   0.2616
   9.100   1.0640   0.03251   0.02793  -0.0197  0.0062  1.0000  -7.3204   0.0000   0.0000   0.0000   0.2606
   9.200   1.0669   0.03379   0.02935  -0.0188  0.0061  1.0000  -7.3539   0.0000   0.0000   0.0000   0.2596
   9.300   1.0695   0.03505   0.03074  -0.0180  0.0061  1.0000  -7.3901   0.0000   0.0000   0.0000   0.2587
   9.400   1.0716   0.03628   0.03210  -0.0171  0.0060  1.0000  -7.4282   0.0000   0.0000   0.0000   0.2577
   9.500   1.0732   0.03750   0.03344  -0.0162  0.0059  1.0000  -7.4669   0.0000   0.0000   0.0000   0.2567
   9.600   1.0743   0.03871   0.03477  -0.0152  0.0058  1.0000  -7.5041   0.0000   0.0000   0.0000   0.2558
   9.700   1.0748   0.03992   0.03610  -0.0143  0.0057  1.0000  -7.5380   0.0000   0.0000   0.0000   0.2548
   9.800   1.0745   0.04115   0.03744  -0.0133  0.0056  1.0000  -7.5661   0.0000   0.0000   0.0000   0.2538
   9.900   1.0733   0.04239   0.03878  -0.0123  0.0055  1.0000  -7.5866   0.0000   0.0000   0.0000   0.2528
  10.000   1.0711   0.04363   0.04013  -0.0113  0.0055  1.0000  -7.5977   0.0000   0.0000   0.0000   0.2517
  10.100   1.0671   0.04480   0.04140  -0.0100  0.0054  1.0000  -7.5975   0.0000   0.0000   0.0000   0.2504
  10.200   1.0622   0.04598   0.04267  -0.0086  0.0054  1.0000  -7.5894   0.0000   0.0000   0.0000   0.2491
  10.300   1.0566   0.04722   0.04398  -0.0075  0.0054  1.0000  -7.5747   0.0000   0.0000   0.0000   0.2479
  10.400   1.0505   0.04852   0.04537  -0.0065  0.0054  1.0000  -7.5542   0.0000   0.0000   0.0000   0.2469
  10.500   1.0441   0.04991   0.04684  -0.0057  0.0054  1.0000  -7.5287   0.0000   0.0000   0.0000   0.2461
  10.600   1.0372   0.05138   0.04839  -0.0051  0.0054  1.0000  -7.4985   0.0000   0.0000   0.0000   0.2455
  10.700   1.0301   0.05295   0.05004  -0.0048  0.0054  1.0000  -7.4641   0.0000   0.0000   0.0000   0.2451
  10.800   1.0229   0.05465   0.05182  -0.0048  0.0054  1.0000  -7.4255   0.0000   0.0000   0.0000   0.2450
  10.900   1.0154   0.05649   0.05373  -0.0051  0.0054  1.0000  -7.3825   0.0000   0.0000   0.0000   0.2451
  11.000   1.0078   0.05847   0.05579  -0.0057  0.0054  1.0000  -7.3349   0.0000   0.0000   0.0000   0.2456
  11.100   0.9998   0.06058   0.05796  -0.0065  0.0054  1.0000  -7.2823   0.0000   0.0000   0.0000   0.2464
  11.200   0.9918   0.06289   0.06034  -0.0077  0.0055  1.0000  -7.2233   0.0000   0.0000   0.0000   0.2475
  11.300   0.9836   0.06545   0.06297  -0.0093  0.0055  1.0000  -7.1558   0.0000   0.0000   0.0000   0.2490
  11.400   0.9752   0.06831   0.06589  -0.0113  0.0056  1.0000  -7.0771   0.0000   0.0000   0.0000   0.2510
  11.500   0.9665   0.07150   0.06915  -0.0137  0.0056  1.0000  -6.9839   0.0000   0.0000   0.0000   0.2535
  11.600   0.9574   0.07510   0.07280  -0.0165  0.0057  1.0000  -6.8713   0.0000   0.0000   0.0000   0.2564
  11.700   0.9477   0.07917   0.07694  -0.0198  0.0059  1.0000  -6.7330   0.0000   0.0000   0.0000   0.2599
  11.800   0.9371   0.08386   0.08168  -0.0234  0.0061  1.0000  -6.5600   0.0000   0.0000   0.0000   0.2640
  11.900   0.9255   0.08922   0.08709  -0.0275  0.0063  1.0000  -6.3446   0.0000   0.0000   0.0000   0.2687
  12.000   0.9134   0.09501   0.09292  -0.0314  0.0065  1.0000  -6.0956   0.0000   0.0000   0.0000   0.2734
  12.100   0.9015   0.10076   0.09869  -0.0349  0.0067  1.0000  -5.8344   0.0000   0.0000   0.0000   0.2778
  12.200   0.8912   0.10599   0.10379  -0.0378  0.0068  1.0000  -5.5930   0.0000   0.0000   0.0000   0.2815
  12.300   0.8821   0.11088   0.10868  -0.0402  0.0070  1.0000  -5.3628   0.0000   0.0000   0.0000   0.2847
  12.400   0.8741   0.11543   0.11322  -0.0422  0.0070  1.0000  -5.1446   0.0000   0.0000   0.0000   0.2876
  12.500   0.8673   0.11953   0.11731  -0.0441  0.0071  1.0000  -4.9555   0.0000   0.0000   0.0000   0.2901
  12.600   0.8614   0.12333   0.12111  -0.0459  0.0072  1.0000  -4.7877   0.0000   0.0000   0.0000   0.2925
  12.700   0.8562   0.12694   0.12470  -0.0476  0.0073  1.0000  -4.6333   0.0000   0.0000   0.0000   0.2948
  12.800   0.8516   0.13039   0.12814  -0.0492  0.0074  1.0000  -4.4876   0.0000   0.0000   0.0000   0.2970
  12.900   0.8473   0.13375   0.13149  -0.0507  0.0074  1.0000  -4.3469   0.0000   0.0000   0.0000   0.2991
  13.000   0.8432   0.13705   0.13478  -0.0523  0.0075  1.0000  -4.2059   0.0000   0.0000   0.0000   0.3012
  13.100   0.8388   0.14046   0.13817  -0.0538  0.0077  1.0000  -4.0485   0.0000   0.0000   0.0000   0.3033
  13.700   0.8342   0.15937   0.15706  -0.0611  0.0126  1.0000  -3.1113   0.0000   0.0000   0.0000   0.3124
  13.800   0.8329   0.16235   0.16003  -0.0624  0.0136  1.0000  -2.9847   0.0000   0.0000   0.0000   0.3140
  13.900   0.8327   0.16479   0.16246  -0.0634  0.0143  1.0000  -2.9132   0.0000   0.0000   0.0000   0.3152
  14.000   0.8330   0.16702   0.16469  -0.0644  0.0148  1.0000  -2.8627   0.0000   0.0000   0.0000   0.3163
  14.100   0.8336   0.16913   0.16680  -0.0653  0.0150  1.0000  -2.8241   0.0000   0.0000   0.0000   0.3173
  14.200   0.8345   0.17117   0.16883  -0.0663  0.0149  1.0000  -2.7916   0.0000   0.0000   0.0000   0.3183
  14.300   0.8356   0.17309   0.17075  -0.0673  0.0146  1.0000  -2.7638   0.0000   0.0000   0.0000   0.3193
  14.400   0.8368   0.17489   0.17254  -0.0683  0.0143  1.0000  -2.7408   0.0000   0.0000   0.0000   0.3202
  14.500   0.8382   0.17659   0.17424  -0.0692  0.0139  1.0000  -2.7236   0.0000   0.0000   0.0000   0.3211
  14.600   0.8398   0.17822   0.17587  -0.0701  0.0134  1.0000  -2.7134   0.0000   0.0000   0.0000   0.3220
  14.700   0.8415   0.17978   0.17743  -0.0710  0.0129  1.0000  -2.7120   0.0000   0.0000   0.0000   0.3227
  14.800   0.8434   0.18125   0.17890  -0.0718  0.0124  1.0000  -2.7225   0.0000   0.0000   0.0000   0.3234
  14.900   0.8456   0.18256   0.18021  -0.0726  0.0118  1.0000  -2.7512   0.0000   0.0000   0.0000   0.3239
  15.000   0.8484   0.18355   0.18121  -0.0731  0.0111  1.0000  -2.8167   0.0000   0.0000   0.0000   0.3242
  15.100   0.8560   0.18122   0.17889  -0.0722  0.0094  1.0000  -3.2590   0.0000   0.0000   0.0000   0.3219
  15.200   0.8573   0.18254   0.18022  -0.0729  0.0090  1.0000  -3.2978   0.0000   0.0000   0.0000   0.3225
  15.300   0.8583   0.18439   0.18206  -0.0738  0.0089  1.0000  -3.2762   0.0000   0.0000   0.0000   0.3233
  15.400   0.8594   0.18634   0.18402  -0.0747  0.0088  1.0000  -3.2424   0.0000   0.0000   0.0000   0.3242
  15.500   0.8609   0.18830   0.18597  -0.0756  0.0088  1.0000  -3.2073   0.0000   0.0000   0.0000   0.3249
  15.600   0.8625   0.19025   0.18791  -0.0765  0.0088  1.0000  -3.1732   0.0000   0.0000   0.0000   0.3257
  15.700   0.8640   0.19221   0.18988  -0.0774  0.0088  1.0000  -3.1397   0.0000   0.0000   0.0000   0.3265
  15.800   0.8656   0.19420   0.19186  -0.0783  0.0088  1.0000  -3.1065   0.0000   0.0000   0.0000   0.3272
  15.900   0.8670   0.19621   0.19387  -0.0791  0.0087  1.0000  -3.0726   0.0000   0.0000   0.0000   0.3280
  16.000   0.8684   0.19826   0.19592  -0.0800  0.0087  1.0000  -3.0368   0.0000   0.0000   0.0000   0.3288
  16.100   0.8697   0.20038   0.19804  -0.0809  0.0086  1.0000  -2.9972   0.0000   0.0000   0.0000   0.3295
  16.200   0.8708   0.20260   0.20025  -0.0818  0.0085  1.0000  -2.9515   0.0000   0.0000   0.0000   0.3304
  16.300   0.8717   0.20495   0.20260  -0.0827  0.0085  1.0000  -2.8957   0.0000   0.0000   0.0000   0.3313
  16.400   0.8722   0.20753   0.20518  -0.0837  0.0084  1.0000  -2.8225   0.0000   0.0000   0.0000   0.3322
  16.500   0.8718   0.21063   0.20826  -0.0848  0.0082  1.0000  -2.7107   0.0000   0.0000   0.0000   0.3335
  16.600   0.8695   0.21500   0.21260  -0.0862  0.0080  1.0000  -2.5015   0.0000   0.0000   0.0000   0.3353
  16.700   0.8716   0.21701   0.21460  -0.0870  0.0080  1.0000  -2.4794   0.0000   0.0000   0.0000   0.3359
  16.800   0.8737   0.21902   0.21661  -0.0878  0.0080  1.0000  -2.4578   0.0000   0.0000   0.0000   0.3365
  16.900   0.8758   0.22103   0.21863  -0.0886  0.0080  1.0000  -2.4368   0.0000   0.0000   0.0000   0.3371
  17.000   0.8779   0.22305   0.22065  -0.0894  0.0080  1.0000  -2.4163   0.0000   0.0000   0.0000   0.3377
  17.100   0.8800   0.22508   0.22267  -0.0902  0.0080  1.0000  -2.3964   0.0000   0.0000   0.0000   0.3382
  17.200   0.8821   0.22711   0.22470  -0.0911  0.0080  1.0000  -2.3770   0.0000   0.0000   0.0000   0.3388
  17.300   0.8842   0.22916   0.22686  -0.0919  0.0080  1.0000  -2.3576   0.0000   0.0000   0.0000   0.3393
  17.400   0.8864   0.23120   0.22889  -0.0927  0.0080  1.0000  -2.3393   0.0000   0.0000   0.0000   0.3399
  17.500   0.8885   0.23324   0.23094  -0.0935  0.0080  1.0000  -2.3216   0.0000   0.0000   0.0000   0.3404
  17.600   0.8906   0.23529   0.23299  -0.0942  0.0080  1.0000  -2.3043   0.0000   0.0000   0.0000   0.3409
  17.700   0.8927   0.23734   0.23504  -0.0950  0.0080  1.0000  -2.2874   0.0000   0.0000   0.0000   0.3414
  17.800   0.8949   0.23940   0.23710  -0.0958  0.0080  1.0000  -2.2710   0.0000   0.0000   0.0000   0.3419
  17.900   0.8970   0.24146   0.23916  -0.0966  0.0080  1.0000  -2.2549   0.0000   0.0000   0.0000   0.3425
  18.000   0.8991   0.24352   0.24123  -0.0974  0.0080  1.0000  -2.2392   0.0000   0.0000   0.0000   0.3430
  18.100   0.9012   0.24559   0.24330  -0.0982  0.0080  1.0000  -2.2239   0.0000   0.0000   0.0000   0.3435
  18.200   0.9033   0.24767   0.24538  -0.0990  0.0080  1.0000  -2.2089   0.0000   0.0000   0.0000   0.3440
  18.300   0.9053   0.24975   0.24746  -0.0998  0.0080  1.0000  -2.1943   0.0000   0.0000   0.0000   0.3445
  18.400   0.9074   0.25184   0.24955  -0.1006  0.0080  1.0000  -2.1800   0.0000   0.0000   0.0000   0.3449
  18.500   0.9095   0.25393   0.25164  -0.1013  0.0080  1.0000  -2.1660   0.0000   0.0000   0.0000   0.3454
  18.600   0.9115   0.25603   0.25374  -0.1021  0.0080  1.0000  -2.1524   0.0000   0.0000   0.0000   0.3459
  18.700   0.9135   0.25813   0.25584  -0.1029  0.0080  1.0000  -2.1390   0.0000   0.0000   0.0000   0.3464
  18.800   0.9155   0.26024   0.25795  -0.1037  0.0080  1.0000  -2.1258   0.0000   0.0000   0.0000   0.3469
  18.900   0.9175   0.26235   0.26007  -0.1044  0.0080  1.0000  -2.1130   0.0000   0.0000   0.0000   0.3473
  19.000   0.9195   0.26447   0.26219  -0.1052  0.0080  1.0000  -2.1004   0.0000   0.0000   0.0000   0.3478
  19.100   0.9214   0.26659   0.26431  -0.1060  0.0080  1.0000  -2.0879   0.0000   0.0000   0.0000   0.3482
  19.200   0.9234   0.26872   0.26644  -0.1067  0.0080  1.0000  -2.0756   0.0000   0.0000   0.0000   0.3487
  19.300   0.9253   0.27085   0.26857  -0.1075  0.0080  1.0000  -2.0635   0.0000   0.0000   0.0000   0.3492
  19.400   0.9271   0.27299   0.27071  -0.1083  0.0079  1.0000  -2.0516   0.0000   0.0000   0.0000   0.3496
  19.500   0.9290   0.27513   0.27285  -0.1090  0.0079  1.0000  -2.0399   0.0000   0.0000   0.0000   0.3501
  19.600   0.9308   0.27728   0.27500  -0.1098  0.0079  1.0000  -2.0284   0.0000   0.0000   0.0000   0.3505
  19.700   0.9326   0.27943   0.27716  -0.1105  0.0079  1.0000  -2.0171   0.0000   0.0000   0.0000   0.3510
  19.800   0.9344   0.28158   0.27931  -0.1113  0.0079  1.0000  -2.0059   0.0000   0.0000   0.0000   0.3514
  19.900   0.9361   0.28374   0.28147  -0.1120  0.0079  1.0000  -1.9949   0.0000   0.0000   0.0000   0.3519
  20.000   0.9378   0.28590   0.28364  -0.1128  0.0079  1.0000  -1.9840   0.0000   0.0000   0.0000   0.3523
  20.100   0.9395   0.28807   0.28581  -0.1135  0.0079  1.0000  -1.9732   0.0000   0.0000   0.0000   0.3527
  20.200   0.9411   0.29024   0.28798  -0.1142  0.0079  1.0000  -1.9626   0.0000   0.0000   0.0000   0.3532
  20.300   0.9427   0.29241   0.29016  -0.1150  0.0079  1.0000  -1.9521   0.0000   0.0000   0.0000   0.3536
  20.400   0.9442   0.29459   0.29234  -0.1157  0.0079  1.0000  -1.9416   0.0000   0.0000   0.0000   0.3541
  20.500   0.9457   0.29677   0.29452  -0.1164  0.0079  1.0000  -1.9313   0.0000   0.0000   0.0000   0.3545
  20.600   0.9471   0.29895   0.29670  -0.1171  0.0079  1.0000  -1.9208   0.0000   0.0000   0.0000   0.3549
  20.700   0.9485   0.30113   0.29888  -0.1179  0.0079  1.0000  -1.9104   0.0000   0.0000   0.0000   0.3554
  20.800   0.9499   0.30331   0.30107  -0.1186  0.0079  1.0000  -1.9000   0.0000   0.0000   0.0000   0.3558
  20.900   0.9511   0.30549   0.30325  -0.1193  0.0079  1.0000  -1.8897   0.0000   0.0000   0.0000   0.3562
  21.000   0.9524   0.30767   0.30543  -0.1200  0.0079  1.0000  -1.8794   0.0000   0.0000   0.0000   0.3567
  21.100   0.9535   0.30985   0.30762  -0.1207  0.0079  1.0000  -1.8692   0.0000   0.0000   0.0000   0.3571
  21.200   0.9546   0.31203   0.30980  -0.1214  0.0079  1.0000  -1.8589   0.0000   0.0000   0.0000   0.3576
  21.300   0.9556   0.31420   0.31198  -0.1220  0.0079  1.0000  -1.8487   0.0000   0.0000   0.0000   0.3580
  21.400   0.9565   0.31637   0.31415  -0.1227  0.0079  1.0000  -1.8384   0.0000   0.0000   0.0000   0.3584
  21.500   0.9574   0.31854   0.31632  -0.1234  0.0078  1.0000  -1.8280   0.0000   0.0000   0.0000   0.3589
  21.600   0.9581   0.32069   0.31849  -0.1240  0.0078  1.0000  -1.8176   0.0000   0.0000   0.0000   0.3593
  21.700   0.9587   0.32284   0.32064  -0.1246  0.0078  1.0000  -1.8071   0.0000   0.0000   0.0000   0.3598
  21.800   0.9592   0.32498   0.32278  -0.1253  0.0078  1.0000  -1.7964   0.0000   0.0000   0.0000   0.3602
  21.900   0.9596   0.32710   0.32491  -0.1259  0.0078  1.0000  -1.7856   0.0000   0.0000   0.0000   0.3607
  22.000   0.9598   0.32921   0.32702  -0.1265  0.0078  1.0000  -1.7746   0.0000   0.0000   0.0000   0.3611
  22.100   0.9599   0.33129   0.32911  -0.1271  0.0078  1.0000  -1.7633   0.0000   0.0000   0.0000   0.3616
  22.200   0.9597   0.33335   0.33118  -0.1276  0.0078  1.0000  -1.7513   0.0000   0.0000   0.0000   0.3620
  22.300   0.9593   0.33537   0.33320  -0.1281  0.0078  1.0000  -1.7388   0.0000   0.0000   0.0000   0.3625
  22.400   0.9586   0.33734   0.33518  -0.1286  0.0078  1.0000  -1.7258   0.0000   0.0000   0.0000   0.3630
  22.500   0.9576   0.33925   0.33710  -0.1291  0.0078  1.0000  -1.7120   0.0000   0.0000   0.0000   0.3635
  22.600   0.9560   0.34108   0.33894  -0.1295  0.0078  1.0000  -1.6971   0.0000   0.0000   0.0000   0.3640
  22.700   0.9538   0.34277   0.34064  -0.1298  0.0077  1.0000  -1.6808   0.0000   0.0000   0.0000   0.3646
  22.800   0.9505   0.34425   0.34214  -0.1300  0.0077  1.0000  -1.6619   0.0000   0.0000   0.0000   0.3652
  22.900   0.8709   0.32564   0.32368  -0.1215  0.0078  1.0000  -1.4558   0.0000   0.0000   0.0000   0.3691
  23.000   0.8665   0.32547   0.32352  -0.1215  0.0078  1.0000  -1.4353   0.0000   0.0000   0.0000   0.3697
  23.100   0.8628   0.32543   0.32349  -0.1215  0.0078  1.0000  -1.4164   0.0000   0.0000   0.0000   0.3703
  23.200   0.8596   0.32548   0.32355  -0.1216  0.0077  1.0000  -1.3988   0.0000   0.0000   0.0000   0.3709
  23.300   0.8567   0.32559   0.32367  -0.1218  0.0077  1.0000  -1.3822   0.0000   0.0000   0.0000   0.3714
  23.400   0.8541   0.32575   0.32385  -0.1219  0.0077  1.0000  -1.3664   0.0000   0.0000   0.0000   0.3720
  23.500   0.8517   0.32595   0.32406  -0.1221  0.0077  1.0000  -1.3514   0.0000   0.0000   0.0000   0.3725
  23.600   0.8495   0.32618   0.32430  -0.1224  0.0077  1.0000  -1.3370   0.0000   0.0000   0.0000   0.3731
  23.700   0.8475   0.32645   0.32458  -0.1226  0.0077  1.0000  -1.3296   0.0000   0.0000   0.0000   0.3736
  23.800   0.8457   0.32674   0.32488  -0.1228  0.0077  1.0000  -1.3242   0.0000   0.0000   0.0000   0.3741
  23.900   0.8440   0.32706   0.32521  -0.1231  0.0077  1.0000  -1.3190   0.0000   0.0000   0.0000   0.3746
  24.000   0.8424   0.32740   0.32556  -0.1234  0.0077  1.0000  -1.3131   0.0000   0.0000   0.0000   0.3751
  24.100   0.8409   0.32777   0.32593  -0.1237  0.0076  1.0000  -1.3076   0.0000   0.0000   0.0000   0.3756
  24.200   0.8396   0.32815   0.32632  -0.1240  0.0076  1.0000  -1.3023   0.0000   0.0000   0.0000   0.3761
  24.300   0.8383   0.32854   0.32672  -0.1243  0.0076  1.0000  -1.2972   0.0000   0.0000   0.0000   0.3766
  24.400   0.8372   0.32896   0.32715  -0.1247  0.0076  1.0000  -1.2922   0.0000   0.0000   0.0000   0.3771
  24.500   0.8361   0.32939   0.32758  -0.1250  0.0076  1.0000  -1.2875   0.0000   0.0000   0.0000   0.3776
  24.600   0.8351   0.32983   0.32803  -0.1254  0.0075  1.0000  -1.2828   0.0000   0.0000   0.0000   0.3781
  24.700   0.8342   0.33029   0.32850  -0.1257  0.0075  1.0000  -1.2783   0.0000   0.0000   0.0000   0.3785
  24.800   0.8334   0.33076   0.32897  -0.1261  0.0075  1.0000  -1.2738   0.0000   0.0000   0.0000   0.3790
  24.900   0.8326   0.33124   0.32946  -0.1265  0.0075  1.0000  -1.2694   0.0000   0.0000   0.0000   0.3795
  25.000   0.8319   0.33174   0.32997  -0.1269  0.0074  1.0000  -1.2651   0.0000   0.0000   0.0000   0.3799
  25.100   0.8313   0.33225   0.33049  -0.1272  0.0074  1.0000  -1.2607   0.0000   0.0000   0.0000   0.3804
  25.200   0.8308   0.33277   0.33102  -0.1276  0.0074  1.0000  -1.2563   0.0000   0.0000   0.0000   0.3808
  25.300   0.8303   0.33331   0.33156  -0.1280  0.0073  1.0000  -1.2518   0.0000   0.0000   0.0000   0.3812
  25.400   0.8298   0.33384   0.33214  -0.1284  0.0073  1.0000  -1.2460   0.0000   0.0000   0.0000   0.3817
  25.500   0.8294   0.33440   0.33270  -0.1288  0.0072  1.0000  -1.2413   0.0000   0.0000   0.0000   0.3821
  25.600   0.8291   0.33498   0.33329  -0.1292  0.0072  1.0000  -1.2364   0.0000   0.0000   0.0000   0.3825
  25.700   0.8289   0.33556   0.33388  -0.1297  0.0071  1.0000  -1.2313   0.0000   0.0000   0.0000   0.3829
  25.800   0.8287   0.33616   0.33448  -0.1301  0.0070  1.0000  -1.2260   0.0000   0.0000   0.0000   0.3833
  25.900   0.8285   0.33676   0.33509  -0.1305  0.0069  1.0000  -1.2206   0.0000   0.0000   0.0000   0.3837
  26.000   0.8283   0.33737   0.33570  -0.1309  0.0068  1.0000  -1.2149   0.0000   0.0000   0.0000   0.3841
  26.100   0.8281   0.33797   0.33632  -0.1313  0.0067  1.0000  -1.2092   0.0000   0.0000   0.0000   0.3844
  26.200   0.8279   0.33858   0.33693  -0.1317  0.0066  1.0000  -1.2034   0.0000   0.0000   0.0000   0.3848
  26.300   0.8277   0.33917   0.33753  -0.1321  0.0065  1.0000  -1.1976   0.0000   0.0000   0.0000   0.3852
  26.400   0.8274   0.33977   0.33813  -0.1325  0.0064  1.0000  -1.1919   0.0000   0.0000   0.0000   0.3855
  26.500   0.8272   0.34036   0.33873  -0.1328  0.0063  1.0000  -1.1863   0.0000   0.0000   0.0000   0.3859
  26.600   0.8269   0.34094   0.33932  -0.1332  0.0062  1.0000  -1.1806   0.0000   0.0000   0.0000   0.3863
  26.700   0.8266   0.34153   0.33991  -0.1336  0.0061  1.0000  -1.1750   0.0000   0.0000   0.0000   0.3866
  26.800   0.8263   0.34211   0.34050  -0.1340  0.0060  1.0000  -1.1694   0.0000   0.0000   0.0000   0.3870
  26.900   0.8260   0.34269   0.34109  -0.1344  0.0059  1.0000  -1.1639   0.0000   0.0000   0.0000   0.3873
  27.000   0.8257   0.34328   0.34168  -0.1347  0.0058  1.0000  -1.1582   0.0000   0.0000   0.0000   0.3877
  27.100   0.8254   0.34386   0.34226  -0.1351  0.0057  1.0000  -1.1526   0.0000   0.0000   0.0000   0.3880
  27.200   0.8252   0.34444   0.34285  -0.1355  0.0056  1.0000  -1.1469   0.0000   0.0000   0.0000   0.3884
  27.300   0.8249   0.34502   0.34344  -0.1359  0.0055  1.0000  -1.1413   0.0000   0.0000   0.0000   0.3887
  27.400   0.8246   0.34561   0.34403  -0.1363  0.0054  1.0000  -1.1357   0.0000   0.0000   0.0000   0.3891
  27.500   0.8244   0.34619   0.34462  -0.1367  0.0053  1.0000  -1.1303   0.0000   0.0000   0.0000   0.3894
  27.600   0.8242   0.34678   0.34522  -0.1371  0.0052  1.0000  -1.1250   0.0000   0.0000   0.0000   0.3898
  27.700   0.8239   0.34736   0.34581  -0.1374  0.0051  1.0000  -1.1198   0.0000   0.0000   0.0000   0.3901
  27.800   0.8237   0.34795   0.34640  -0.1378  0.0050  1.0000  -1.1147   0.0000   0.0000   0.0000   0.3905
  27.900   0.8235   0.34853   0.34699  -0.1382  0.0049  1.0000  -1.1097   0.0000   0.0000   0.0000   0.3908
  28.000   0.8233   0.34912   0.34758  -0.1386  0.0047  1.0000  -1.1047   0.0000   0.0000   0.0000   0.3911
  28.100   0.8231   0.34971   0.34818  -0.1390  0.0046  1.0000  -1.0997   0.0000   0.0000   0.0000   0.3915
  28.200   0.8228   0.35030   0.34877  -0.1394  0.0046  1.0000  -1.0946   0.0000   0.0000   0.0000   0.3918
  28.300   0.8226   0.35089   0.34937  -0.1398  0.0045  1.0000  -1.0893   0.0000   0.0000   0.0000   0.3922
  28.400   0.8224   0.35148   0.34996  -0.1402  0.0044  1.0000  -1.0838   0.0000   0.0000   0.0000   0.3925
  28.500   0.8223   0.35207   0.35056  -0.1406  0.0043  1.0000  -1.0784   0.0000   0.0000   0.0000   0.3928
  28.600   0.8221   0.35266   0.35116  -0.1410  0.0043  1.0000  -1.0730   0.0000   0.0000   0.0000   0.3932
  28.700   0.8219   0.35326   0.35176  -0.1414  0.0042  1.0000  -1.0677   0.0000   0.0000   0.0000   0.3935
  28.800   0.8217   0.35385   0.35236  -0.1418  0.0041  1.0000  -1.0624   0.0000   0.0000   0.0000   0.3938
  28.900   0.8216   0.35445   0.35297  -0.1422  0.0041  1.0000  -1.0573   0.0000   0.0000   0.0000   0.3941
  29.000   0.8214   0.35505   0.35357  -0.1426  0.0040  1.0000  -1.0522   0.0000   0.0000   0.0000   0.3945
  29.100   0.8212   0.35564   0.35417  -0.1430  0.0039  1.0000  -1.0472   0.0000   0.0000   0.0000   0.3948
  29.200   0.8211   0.35624   0.35477  -0.1434  0.0039  1.0000  -1.0423   0.0000   0.0000   0.0000   0.3951
  29.300   0.8209   0.35684   0.35538  -0.1438  0.0038  1.0000  -1.0375   0.0000   0.0000   0.0000   0.3954
  29.400   0.8208   0.35744   0.35598  -0.1442  0.0038  1.0000  -1.0329   0.0000   0.0000   0.0000   0.3958
  29.500   0.8206   0.35803   0.35658  -0.1446  0.0037  1.0000  -1.0283   0.0000   0.0000   0.0000   0.3961
  29.600   0.8205   0.35863   0.35719  -0.1451  0.0037  1.0000  -1.0239   0.0000   0.0000   0.0000   0.3964
  29.700   0.8203   0.35923   0.35779  -0.1455  0.0036  1.0000  -1.0195   0.0000   0.0000   0.0000   0.3967
  29.800   0.8202   0.35982   0.35839  -0.1459  0.0036  1.0000  -1.0153   0.0000   0.0000   0.0000   0.3970
  29.900   0.8201   0.36042   0.35900  -0.1463  0.0035  1.0000  -1.0112   0.0000   0.0000   0.0000   0.3973
  30.000   0.8199   0.36102   0.35960  -0.1467  0.0035  1.0000  -1.0073   0.0000   0.0000   0.0000   0.3977


