xflr5 v6.61

 Calculated polar for: MH 30

 1 1 Reynolds number fixed          Mach number fixed         

 xtrf =   1.000 (top)        1.000 (bottom)
 Mach =   0.000     Re =     0.500 e 6     Ncrit =   9.000

  alpha     CL        CD       CDp       Cm    Top Xtr Bot Xtr   Cpmin    Chinge    XCp    
 ------- -------- --------- --------- -------- ------- ------- -------- --------- ---------
 -10.000  -0.4889   0.11254   0.11028  -0.0061  1.0000  0.0148  -1.9184   0.0000   0.0000   0.0000   0.2329
  -9.900  -0.4873   0.11099   0.10873  -0.0068  1.0000  0.0148  -1.9319   0.0000   0.0000   0.0000   0.2315
  -9.800  -0.4857   0.10944   0.10718  -0.0074  1.0000  0.0148  -1.9457   0.0000   0.0000   0.0000   0.2301
  -9.700  -0.4842   0.10788   0.10564  -0.0081  1.0000  0.0148  -1.9600   0.0000   0.0000   0.0000   0.2287
  -9.600  -0.4827   0.10634   0.10410  -0.0088  1.0000  0.0148  -1.9747   0.0000   0.0000   0.0000   0.2273
  -9.500  -0.4814   0.10479   0.10256  -0.0095  1.0000  0.0148  -1.9899   0.0000   0.0000   0.0000   0.2259
  -9.400  -0.4800   0.10324   0.10102  -0.0102  1.0000  0.0148  -2.0054   0.0000   0.0000   0.0000   0.2244
  -9.300  -0.4787   0.10167   0.09945  -0.0109  1.0000  0.0148  -2.0215   0.0000   0.0000   0.0000   0.2229
  -9.200  -0.4773   0.10008   0.09787  -0.0116  1.0000  0.0149  -2.0379   0.0000   0.0000   0.0000   0.2213
  -9.100  -0.4759   0.09849   0.09628  -0.0124  1.0000  0.0149  -2.0549   0.0000   0.0000   0.0000   0.2197
  -9.000  -0.4746   0.09689   0.09469  -0.0132  1.0000  0.0149  -2.0725   0.0000   0.0000   0.0000   0.2181
  -8.900  -0.4734   0.09527   0.09300  -0.0139  1.0000  0.0149  -2.0907   0.0000   0.0000   0.0000   0.2164
  -8.800  -0.4723   0.09367   0.09141  -0.0147  1.0000  0.0149  -2.1095   0.0000   0.0000   0.0000   0.2147
  -8.700  -0.4713   0.09206   0.08981  -0.0156  1.0000  0.0149  -2.1290   0.0000   0.0000   0.0000   0.2130
  -8.600  -0.4704   0.09045   0.08820  -0.0164  1.0000  0.0149  -2.1491   0.0000   0.0000   0.0000   0.2113
  -8.500  -0.4696   0.08883   0.08660  -0.0172  1.0000  0.0149  -2.1700   0.0000   0.0000   0.0000   0.2095
  -8.400  -0.4688   0.08719   0.08497  -0.0181  1.0000  0.0149  -2.1917   0.0000   0.0000   0.0000   0.2076
  -8.300  -0.4681   0.08553   0.08332  -0.0190  1.0000  0.0149  -2.2142   0.0000   0.0000   0.0000   0.2056
  -8.200  -0.4675   0.08386   0.08166  -0.0200  1.0000  0.0149  -2.2377   0.0000   0.0000   0.0000   0.2035
  -8.100  -0.4671   0.08218   0.08000  -0.0210  1.0000  0.0149  -2.2622   0.0000   0.0000   0.0000   0.2014
  -8.000  -0.4669   0.08049   0.07832  -0.0221  1.0000  0.0149  -2.2879   0.0000   0.0000   0.0000   0.1992
  -7.900  -0.4669   0.07878   0.07661  -0.0232  1.0000  0.0149  -2.3150   0.0000   0.0000   0.0000   0.1969
  -7.800  -0.4673   0.07705   0.07490  -0.0244  1.0000  0.0149  -2.3438   0.0000   0.0000   0.0000   0.1944
  -7.700  -0.4682   0.07529   0.07316  -0.0258  1.0000  0.0149  -2.3748   0.0000   0.0000   0.0000   0.1917
  -7.600  -0.4691   0.07343   0.07131  -0.0275  1.0000  0.0149  -2.4093   0.0000   0.0000   0.0000   0.1881
  -7.500  -0.4682   0.07118   0.06907  -0.0301  1.0000  0.0149  -2.4501   0.0000   0.0000   0.0000   0.1825
  -7.400  -0.4665   0.06881   0.06669  -0.0327  1.0000  0.0149  -2.4942   0.0000   0.0000   0.0000   0.1769
  -7.300  -0.4646   0.06647   0.06433  -0.0348  1.0000  0.0149  -2.5388   0.0000   0.0000   0.0000   0.1721
  -7.200  -0.4627   0.06421   0.06205  -0.0365  1.0000  0.0149  -2.5826   0.0000   0.0000   0.0000   0.1681
  -7.100  -0.4610   0.06205   0.05986  -0.0379  1.0000  0.0149  -2.6247   0.0000   0.0000   0.0000   0.1648
  -7.000  -0.4595   0.06000   0.05778  -0.0390  1.0000  0.0149  -2.6645   0.0000   0.0000   0.0000   0.1622
  -6.900  -0.4582   0.05807   0.05581  -0.0398  1.0000  0.0149  -2.7014   0.0000   0.0000   0.0000   0.1603
  -6.800  -0.4574   0.05627   0.05397  -0.0402  1.0000  0.0149  -2.7351   0.0000   0.0000   0.0000   0.1592
  -6.700  -0.4570   0.05461   0.05227  -0.0403  1.0000  0.0149  -2.7656   0.0000   0.0000   0.0000   0.1589
  -6.600  -0.4571   0.05307   0.05068  -0.0401  1.0000  0.0149  -2.7934   0.0000   0.0000   0.0000   0.1594
  -6.500  -0.4578   0.05166   0.04923  -0.0396  1.0000  0.0149  -2.8183   0.0000   0.0000   0.0000   0.1606
  -6.400  -0.4591   0.05037   0.04790  -0.0389  1.0000  0.0149  -2.8407   0.0000   0.0000   0.0000   0.1626
  -6.300  -0.4605   0.04914   0.04662  -0.0379  1.0000  0.0149  -2.8615   0.0000   0.0000   0.0000   0.1650
  -6.200  -0.4619   0.04794   0.04537  -0.0369  1.0000  0.0149  -2.8810   0.0000   0.0000   0.0000   0.1674
  -6.100  -0.4629   0.04673   0.04411  -0.0359  1.0000  0.0149  -2.8991   0.0000   0.0000   0.0000   0.1697
  -6.000  -0.4634   0.04551   0.04283  -0.0350  1.0000  0.0149  -2.9163   0.0000   0.0000   0.0000   0.1719
  -5.900  -0.4531   0.04322   0.04042  -0.0366  0.9988  0.0149  -2.9393   0.0000   0.0000   0.0000   0.1665
  -5.800  -0.4420   0.04094   0.03802  -0.0383  0.9974  0.0149  -2.9609   0.0000   0.0000   0.0000   0.1607
  -5.700  -0.4312   0.03874   0.03568  -0.0397  0.9961  0.0149  -2.9818   0.0000   0.0000   0.0000   0.1552
  -5.600  -0.4293   0.03173   0.02835  -0.0422  0.9934  0.0134  -3.3298   0.0000   0.0000   0.0000   0.1490
  -5.500  -0.4199   0.02813   0.02445  -0.0434  0.9915  0.0120  -3.5069   0.0000   0.0000   0.0000   0.1438
  -5.400  -0.4081   0.02560   0.02166  -0.0442  0.9901  0.0111  -3.6229   0.0000   0.0000   0.0000   0.1388
  -5.300  -0.3954   0.02338   0.01919  -0.0448  0.9890  0.0103  -3.7301   0.0000   0.0000   0.0000   0.1336
  -5.200  -0.3822   0.02142   0.01699  -0.0454  0.9880  0.0098  -3.8252   0.0000   0.0000   0.0000   0.1281
  -5.100  -0.3685   0.01973   0.01507  -0.0459  0.9873  0.0094  -3.8981   0.0000   0.0000   0.0000   0.1222
  -5.000  -0.3572   0.01842   0.01357  -0.0459  0.9855  0.0092  -3.9418   0.0000   0.0000   0.0000   0.1184
  -4.900  -0.3454   0.01727   0.01226  -0.0460  0.9838  0.0091  -3.9633   0.0000   0.0000   0.0000   0.1138
  -4.800  -0.3329   0.01626   0.01110  -0.0461  0.9824  0.0091  -3.9623   0.0000   0.0000   0.0000   0.1082
  -4.700  -0.3199   0.01551   0.01025  -0.0464  0.9810  0.0094  -3.9058   0.0000   0.0000   0.0000   0.1016
  -4.600  -0.3065   0.01498   0.00964  -0.0469  0.9798  0.0099  -3.8064   0.0000   0.0000   0.0000   0.0938
  -4.500  -0.2931   0.01441   0.00900  -0.0473  0.9788  0.0104  -3.7159   0.0000   0.0000   0.0000   0.0853
  -4.400  -0.2798   0.01376   0.00826  -0.0477  0.9778  0.0107  -3.6491   0.0000   0.0000   0.0000   0.0764
  -4.300  -0.2665   0.01306   0.00747  -0.0480  0.9770  0.0108  -3.5972   0.0000   0.0000   0.0000   0.0666
  -4.200  -0.2529   0.01242   0.00674  -0.0484  0.9761  0.0110  -3.5358   0.0000   0.0000   0.0000   0.0553
  -4.100  -0.2390   0.01185   0.00609  -0.0489  0.9753  0.0113  -3.4645   0.0000   0.0000   0.0000   0.0420
  -4.000  -0.2247   0.01134   0.00550  -0.0494  0.9745  0.0117  -3.3844   0.0000   0.0000   0.0000   0.0265
  -3.900  -0.2104   0.01090   0.00499  -0.0500  0.9737  0.0124  -3.2958   0.0000   0.0000   0.0000   0.0086
  -3.800  -0.1958   0.01054   0.00457  -0.0507  0.9728  0.0133  -3.1926   0.0000   0.0000   0.0000  -0.0123
  -3.700  -0.1812   0.01032   0.00430  -0.0513  0.9719  0.0144  -3.0577   0.0000   0.0000   0.0000  -0.0372
  -3.600  -0.1701   0.01029   0.00428  -0.0513  0.9697  0.0150  -2.8996   0.0000   0.0000   0.0000  -0.0555
  -3.500  -0.1608   0.00954   0.00343  -0.0507  0.9667  0.0256  -2.9279   0.0000   0.0000   0.0000  -0.0695
  -3.400  -0.1496   0.00915   0.00310  -0.0507  0.9644  0.0480  -2.8490   0.0000   0.0000   0.0000  -0.0931
  -3.300  -0.1381   0.00879   0.00294  -0.0510  0.9622  0.0893  -2.7270   0.0000   0.0000   0.0000  -0.1233
  -3.200  -0.1262   0.00847   0.00283  -0.0513  0.9602  0.1351  -2.5900   0.0000   0.0000   0.0000  -0.1606
  -3.100  -0.1139   0.00824   0.00273  -0.0516  0.9582  0.1700  -2.4486   0.0000   0.0000   0.0000  -0.2078
  -3.000  -0.1015   0.00805   0.00264  -0.0520  0.9562  0.1990  -2.3061   0.0000   0.0000   0.0000  -0.2669
  -2.900  -0.0890   0.00791   0.00255  -0.0522  0.9543  0.2240  -2.1640   0.0000   0.0000   0.0000  -0.3420
  -2.800  -0.0769   0.00773   0.00248  -0.0525  0.9523  0.2548  -2.0254   0.0000   0.0000   0.0000  -0.4384
  -2.700  -0.0654   0.00758   0.00242  -0.0526  0.9502  0.2849  -1.8923   0.0000   0.0000   0.0000  -0.5616
  -2.600  -0.0563   0.00746   0.00236  -0.0522  0.9470  0.3088  -1.7751   0.0000   0.0000   0.0000  -0.6847
  -2.500  -0.0468   0.00729   0.00232  -0.0519  0.9438  0.3437  -1.6583   0.0000   0.0000   0.0000  -0.8651
  -2.400  -0.0371   0.00711   0.00226  -0.0516  0.9406  0.3843  -1.5419   0.0000   0.0000   0.0000  -1.1512
  -2.300  -0.0274   0.00690   0.00219  -0.0513  0.9375  0.4348  -1.4324   0.0000   0.0000   0.0000  -1.6361
  -2.200  -0.0178   0.00668   0.00215  -0.0510  0.9347  0.4880  -1.3203   0.0000   0.0000   0.0000  -2.6343
  -2.100  -0.0081   0.00651   0.00211  -0.0507  0.9321  0.5333  -1.2096   0.0000   0.0000   0.0000  -6.0823
  -2.000   0.0022   0.00638   0.00208  -0.0504  0.9295  0.5678  -1.0985   0.0000   0.0000   0.0000  23.3809
  -1.900   0.0123   0.00626   0.00205  -0.0501  0.9267  0.5986  -0.9905   0.0000   0.0000   0.0000   4.3321
  -1.800   0.0225   0.00618   0.00203  -0.0498  0.9237  0.6265  -0.8851   0.0000   0.0000   0.0000   2.4759
  -1.700   0.0312   0.00605   0.00201  -0.0492  0.9206  0.6619  -0.7890   0.0000   0.0000   0.0000   1.8347
  -1.600   0.0402   0.00592   0.00199  -0.0487  0.9172  0.6941  -0.6939   0.0000   0.0000   0.0000   1.4663
  -1.500   0.0497   0.00584   0.00197  -0.0482  0.9138  0.7236  -0.5988   0.0000   0.0000   0.0000   1.2237
  -1.400   0.0587   0.00573   0.00196  -0.0476  0.9105  0.7519  -0.5441   0.0000   0.0000   0.0000   1.0626
  -1.300   0.0683   0.00565   0.00193  -0.0471  0.9073  0.7769  -0.4947   0.0000   0.0000   0.0000   0.9412
  -1.200   0.0774   0.00556   0.00192  -0.0464  0.9040  0.8059  -0.4649   0.0000   0.0000   0.0000   0.8511
  -1.100   0.0867   0.00548   0.00189  -0.0458  0.9007  0.8311  -0.4350   0.0000   0.0000   0.0000   0.7789
  -1.000   0.0964   0.00544   0.00186  -0.0452  0.8970  0.8544  -0.4050   0.0000   0.0000   0.0000   0.7199
  -0.900   0.1063   0.00539   0.00186  -0.0447  0.8932  0.8744  -0.3750   0.0000   0.0000   0.0000   0.6712
  -0.700   0.1274   0.00530   0.00182  -0.0440  0.8858  0.9133  -0.3446   0.0000   0.0000   0.0000   0.5958
  -0.600   0.1405   0.00526   0.00180  -0.0442  0.8820  0.9315  -0.3554   0.0000   0.0000   0.0000   0.5650
  -0.500   0.1549   0.00524   0.00177  -0.0448  0.8782  0.9474  -0.3670   0.0000   0.0000   0.0000   0.5390
  -0.400   0.1711   0.00522   0.00173  -0.0457  0.8747  0.9576  -0.3795   0.0000   0.0000   0.0000   0.5171
  -0.300   0.1866   0.00520   0.00169  -0.0466  0.8711  0.9665  -0.3926   0.0000   0.0000   0.0000   0.4993
  -0.200   0.2023   0.00519   0.00164  -0.0475  0.8672  0.9746  -0.4067   0.0000   0.0000   0.0000   0.4841
  -0.100   0.2194   0.00518   0.00160  -0.0486  0.8629  0.9818  -0.4217   0.0000   0.0000   0.0000   0.4711
   0.000   0.2353   0.00519   0.00157  -0.0496  0.8584  0.9882  -0.4361   0.0000   0.0000   0.0000   0.4601
   0.100   0.2527   0.00516   0.00154  -0.0509  0.8547  0.9934  -0.4513   0.0000   0.0000   0.0000   0.4509
   0.200   0.2699   0.00515   0.00152  -0.0522  0.8506  0.9986  -0.4670   0.0000   0.0000   0.0000   0.4429
   0.300   0.2820   0.00514   0.00149  -0.0525  0.8455  1.0000  -0.4812   0.0000   0.0000   0.0000   0.4352
   0.400   0.2915   0.00514   0.00147  -0.0521  0.8395  1.0000  -0.4938   0.0000   0.0000   0.0000   0.4278
   0.500   0.3011   0.00514   0.00144  -0.0517  0.8331  1.0000  -0.5063   0.0000   0.0000   0.0000   0.4207
   0.600   0.3106   0.00516   0.00140  -0.0512  0.8263  1.0000  -0.5189   0.0000   0.0000   0.0000   0.4140
   0.700   0.3204   0.00517   0.00138  -0.0509  0.8198  1.0000  -0.5317   0.0000   0.0000   0.0000   0.4078
   0.800   0.3304   0.00517   0.00138  -0.0506  0.8142  1.0000  -0.5452   0.0000   0.0000   0.0000   0.4022
   0.900   0.3404   0.00518   0.00138  -0.0504  0.8077  1.0000  -0.5606   0.0000   0.0000   0.0000   0.3968
   1.000   0.3503   0.00519   0.00137  -0.0501  0.8006  1.0000  -0.5761   0.0000   0.0000   0.0000   0.3917
   1.100   0.3601   0.00521   0.00135  -0.0497  0.7926  1.0000  -0.5916   0.0000   0.0000   0.0000   0.3868
   1.200   0.3698   0.00525   0.00133  -0.0493  0.7836  1.0000  -0.6070   0.0000   0.0000   0.0000   0.3820
   1.300   0.3798   0.00527   0.00133  -0.0490  0.7757  1.0000  -0.6227   0.0000   0.0000   0.0000   0.3777
   1.400   0.3898   0.00528   0.00133  -0.0488  0.7667  1.0000  -0.6386   0.0000   0.0000   0.0000   0.3736
   1.500   0.3997   0.00531   0.00132  -0.0484  0.7560  1.0000  -0.6544   0.0000   0.0000   0.0000   0.3697
   1.600   0.4095   0.00536   0.00132  -0.0481  0.7451  1.0000  -0.6723   0.0000   0.0000   0.0000   0.3658
   1.700   0.4192   0.00541   0.00132  -0.0477  0.7347  1.0000  -0.6914   0.0000   0.0000   0.0000   0.3622
   1.800   0.4295   0.00544   0.00133  -0.0475  0.7252  1.0000  -0.7111   0.0000   0.0000   0.0000   0.3589
   1.900   0.4394   0.00548   0.00134  -0.0472  0.7121  1.0000  -0.7306   0.0000   0.0000   0.0000   0.3557
   2.000   0.4488   0.00556   0.00134  -0.0468  0.6967  1.0000  -0.7498   0.0000   0.0000   0.0000   0.3524
   2.100   0.4587   0.00563   0.00135  -0.0465  0.6837  1.0000  -0.7695   0.0000   0.0000   0.0000   0.3495
   2.200   0.4688   0.00568   0.00137  -0.0462  0.6703  1.0000  -0.7934   0.0000   0.0000   0.0000   0.3467
   2.300   0.4786   0.00576   0.00140  -0.0459  0.6561  1.0000  -0.8177   0.0000   0.0000   0.0000   0.3439
   2.400   0.4881   0.00586   0.00143  -0.0455  0.6415  1.0000  -0.8420   0.0000   0.0000   0.0000   0.3413
   2.500   0.4984   0.00591   0.00146  -0.0453  0.6309  1.0000  -0.8675   0.0000   0.0000   0.0000   0.3389
   2.600   0.5084   0.00599   0.00149  -0.0451  0.6161  1.0000  -0.8927   0.0000   0.0000   0.0000   0.3365
   2.700   0.5177   0.00612   0.00153  -0.0447  0.5980  1.0000  -0.9172   0.0000   0.0000   0.0000   0.3341
   2.800   0.5278   0.00620   0.00157  -0.0445  0.5839  1.0000  -0.9428   0.0000   0.0000   0.0000   0.3320
   2.900   0.5378   0.00629   0.00161  -0.0442  0.5683  1.0000  -0.9685   0.0000   0.0000   0.0000   0.3299
   3.000   0.5473   0.00642   0.00166  -0.0439  0.5515  1.0000  -0.9994   0.0000   0.0000   0.0000   0.3278
   3.100   0.5573   0.00651   0.00171  -0.0437  0.5383  1.0000  -1.0328   0.0000   0.0000   0.0000   0.3259
   3.200   0.5676   0.00658   0.00176  -0.0435  0.5260  1.0000  -1.0671   0.0000   0.0000   0.0000   0.3241
   3.300   0.5774   0.00671   0.00184  -0.0432  0.5086  1.0000  -1.1045   0.0000   0.0000   0.0000   0.3223
   3.400   0.5868   0.00685   0.00190  -0.0429  0.4892  1.0000  -1.1503   0.0000   0.0000   0.0000   0.3205
   3.500   0.5970   0.00695   0.00196  -0.0427  0.4736  1.0000  -1.1982   0.0000   0.0000   0.0000   0.3189
   3.600   0.6065   0.00711   0.00203  -0.0424  0.4539  1.0000  -1.2451   0.0000   0.0000   0.0000   0.3172
   3.700   0.6163   0.00723   0.00210  -0.0422  0.4376  1.0000  -1.2932   0.0000   0.0000   0.0000   0.3156
   3.800   0.6265   0.00733   0.00217  -0.0421  0.4246  1.0000  -1.3428   0.0000   0.0000   0.0000   0.3142
   3.900   0.6362   0.00748   0.00224  -0.0418  0.4063  1.0000  -1.3915   0.0000   0.0000   0.0000   0.3127
   4.000   0.6459   0.00764   0.00233  -0.0416  0.3877  1.0000  -1.4408   0.0000   0.0000   0.0000   0.3113
   4.100   0.6559   0.00776   0.00241  -0.0414  0.3711  1.0000  -1.5118   0.0000   0.0000   0.0000   0.3099
   4.200   0.6652   0.00796   0.00250  -0.0411  0.3495  1.0000  -1.5850   0.0000   0.0000   0.0000   0.3086
   4.300   0.6753   0.00808   0.00259  -0.0409  0.3354  1.0000  -1.6620   0.0000   0.0000   0.0000   0.3073
   4.400   0.6853   0.00822   0.00268  -0.0408  0.3211  1.0000  -1.7493   0.0000   0.0000   0.0000   0.3061
   4.500   0.6948   0.00841   0.00283  -0.0405  0.3033  1.0000  -1.8699   0.0000   0.0000   0.0000   0.3049
   4.600   0.7050   0.00852   0.00293  -0.0404  0.2908  1.0000  -2.0039   0.0000   0.0000   0.0000   0.3037
   4.700   0.7148   0.00868   0.00303  -0.0402  0.2757  1.0000  -2.1397   0.0000   0.0000   0.0000   0.3026
   4.800   0.7240   0.00892   0.00315  -0.0399  0.2526  1.0000  -2.2740   0.0000   0.0000   0.0000   0.3014
   4.900   0.7339   0.00907   0.00326  -0.0398  0.2371  1.0000  -2.4162   0.0000   0.0000   0.0000   0.3004
   5.000   0.7428   0.00935   0.00339  -0.0395  0.2115  1.0000  -2.5542   0.0000   0.0000   0.0000   0.2993
   5.100   0.7527   0.00952   0.00351  -0.0393  0.1967  1.0000  -2.7015   0.0000   0.0000   0.0000   0.2983
   5.200   0.7619   0.00977   0.00364  -0.0391  0.1777  1.0000  -2.8464   0.0000   0.0000   0.0000   0.2972
   5.300   0.7719   0.00991   0.00376  -0.0389  0.1665  1.0000  -2.9999   0.0000   0.0000   0.0000   0.2963
   5.400   0.7817   0.01009   0.00390  -0.0388  0.1549  1.0000  -3.1540   0.0000   0.0000   0.0000   0.2953
   5.500   0.7911   0.01032   0.00404  -0.0385  0.1395  1.0000  -3.3070   0.0000   0.0000   0.0000   0.2944
   5.600   0.8012   0.01046   0.00417  -0.0384  0.1308  1.0000  -3.4683   0.0000   0.0000   0.0000   0.2935
   5.700   0.8108   0.01066   0.00433  -0.0382  0.1197  1.0000  -3.6281   0.0000   0.0000   0.0000   0.2926
   5.800   0.8201   0.01091   0.00450  -0.0379  0.1053  1.0000  -3.7867   0.0000   0.0000   0.0000   0.2917
   5.900   0.8301   0.01106   0.00464  -0.0378  0.0982  1.0000  -3.9541   0.0000   0.0000   0.0000   0.2908
   6.000   0.8394   0.01131   0.00482  -0.0376  0.0869  1.0000  -4.1171   0.0000   0.0000   0.0000   0.2900
   6.100   0.8489   0.01153   0.00501  -0.0373  0.0754  1.0000  -4.2819   0.0000   0.0000   0.0000   0.2891
   6.200   0.8584   0.01176   0.00519  -0.0371  0.0661  1.0000  -4.4484   0.0000   0.0000   0.0000   0.2883
   6.300   0.8673   0.01208   0.00544  -0.0368  0.0525  1.0000  -4.6064   0.0000   0.0000   0.0000   0.2874
   6.400   0.8762   0.01241   0.00568  -0.0365  0.0426  1.0000  -4.7629   0.0000   0.0000   0.0000   0.2865
   6.500   0.8847   0.01283   0.00608  -0.0360  0.0321  1.0000  -4.8918   0.0000   0.0000   0.0000   0.2855
   6.600   0.8938   0.01314   0.00639  -0.0357  0.0271  1.0000  -5.0388   0.0000   0.0000   0.0000   0.2846
   6.700   0.9009   0.01381   0.00708  -0.0350  0.0203  1.0000  -5.1205   0.0000   0.0000   0.0000   0.2833
   6.800   0.9091   0.01425   0.00760  -0.0345  0.0186  1.0000  -5.2482   0.0000   0.0000   0.0000   0.2823
   6.900   0.9194   0.01434   0.00770  -0.0344  0.0180  1.0000  -5.4374   0.0000   0.0000   0.0000   0.2817
   7.000   0.9291   0.01453   0.00792  -0.0342  0.0173  1.0000  -5.6044   0.0000   0.0000   0.0000   0.2810
   7.100   0.9387   0.01473   0.00815  -0.0339  0.0162  1.0000  -5.7668   0.0000   0.0000   0.0000   0.2803
   7.200   0.9482   0.01493   0.00837  -0.0337  0.0146  1.0000  -5.9285   0.0000   0.0000   0.0000   0.2796
   7.300   0.9577   0.01513   0.00856  -0.0335  0.0126  1.0000  -6.1221   0.0000   0.0000   0.0000   0.2789
   7.400   0.9641   0.01589   0.00936  -0.0327  0.0096  1.0000  -6.1948   0.0000   0.0000   0.0000   0.2777
   7.500   0.9643   0.01776   0.01149  -0.0309  0.0080  1.0000  -6.0611   0.0000   0.0000   0.0000   0.2757
   7.600   0.9742   0.01787   0.01162  -0.0307  0.0078  1.0000  -6.2631   0.0000   0.0000   0.0000   0.2751
   7.700   0.9835   0.01812   0.01190  -0.0304  0.0075  1.0000  -6.4425   0.0000   0.0000   0.0000   0.2744
   7.800   0.9921   0.01851   0.01234  -0.0300  0.0072  1.0000  -6.5962   0.0000   0.0000   0.0000   0.2736
   7.900   1.0000   0.01903   0.01292  -0.0295  0.0069  1.0000  -6.7266   0.0000   0.0000   0.0000   0.2727
   8.000   1.0075   0.01964   0.01361  -0.0289  0.0067  1.0000  -6.8395   0.0000   0.0000   0.0000   0.2718
   8.100   1.0147   0.02034   0.01440  -0.0282  0.0064  1.0000  -6.9401   0.0000   0.0000   0.0000   0.2709
   8.200   1.0216   0.02112   0.01527  -0.0276  0.0062  1.0000  -7.0316   0.0000   0.0000   0.0000   0.2699
   8.300   1.0284   0.02196   0.01622  -0.0269  0.0061  1.0000  -7.1151   0.0000   0.0000   0.0000   0.2690
   8.400   1.0350   0.02288   0.01724  -0.0262  0.0059  1.0000  -7.1912   0.0000   0.0000   0.0000   0.2680
   8.500   1.0413   0.02386   0.01834  -0.0254  0.0059  1.0000  -7.2599   0.0000   0.0000   0.0000   0.2670
   8.600   1.0472   0.02494   0.01970  -0.0246  0.0058  1.0000  -7.3169   0.0000   0.0000   0.0000   0.2661
   8.700   1.0528   0.02607   0.02097  -0.0239  0.0057  1.0000  -7.3675   0.0000   0.0000   0.0000   0.2651
   8.800   1.0582   0.02721   0.02224  -0.0231  0.0057  1.0000  -7.4200   0.0000   0.0000   0.0000   0.2641
   8.900   1.0633   0.02831   0.02347  -0.0223  0.0056  1.0000  -7.4804   0.0000   0.0000   0.0000   0.2632
   9.000   1.0683   0.02938   0.02466  -0.0216  0.0055  1.0000  -7.5487   0.0000   0.0000   0.0000   0.2623
   9.100   1.0730   0.03041   0.02581  -0.0208  0.0053  1.0000  -7.6243   0.0000   0.0000   0.0000   0.2614
   9.200   1.0776   0.03140   0.02691  -0.0201  0.0052  1.0000  -7.7061   0.0000   0.0000   0.0000   0.2605
   9.300   1.0818   0.03238   0.02799  -0.0193  0.0051  1.0000  -7.7912   0.0000   0.0000   0.0000   0.2597
   9.400   1.0857   0.03335   0.02907  -0.0186  0.0049  1.0000  -7.8755   0.0000   0.0000   0.0000   0.2588
   9.500   1.0890   0.03436   0.03019  -0.0178  0.0048  1.0000  -7.9532   0.0000   0.0000   0.0000   0.2579
   9.600   1.0915   0.03544   0.03138  -0.0169  0.0047  1.0000  -8.0165   0.0000   0.0000   0.0000   0.2570
   9.700   1.0929   0.03665   0.03270  -0.0160  0.0046  1.0000  -8.0556   0.0000   0.0000   0.0000   0.2560
   9.800   1.0928   0.03802   0.03421  -0.0150  0.0046  1.0000  -8.0608   0.0000   0.0000   0.0000   0.2550
   9.900   1.0913   0.03950   0.03581  -0.0139  0.0046  1.0000  -8.0441   0.0000   0.0000   0.0000   0.2539
  10.000   1.0888   0.04098   0.03742  -0.0127  0.0046  1.0000  -8.0206   0.0000   0.0000   0.0000   0.2528
  10.100   1.0853   0.04243   0.03900  -0.0115  0.0046  1.0000  -7.9918   0.0000   0.0000   0.0000   0.2516
  10.200   1.0801   0.04375   0.04042  -0.0100  0.0046  1.0000  -7.9606   0.0000   0.0000   0.0000   0.2502
  10.300   1.0742   0.04505   0.04181  -0.0086  0.0046  1.0000  -7.9273   0.0000   0.0000   0.0000   0.2488
  10.400   1.0677   0.04638   0.04323  -0.0073  0.0046  1.0000  -7.8918   0.0000   0.0000   0.0000   0.2476
  10.500   1.0609   0.04776   0.04470  -0.0063  0.0046  1.0000  -7.8544   0.0000   0.0000   0.0000   0.2465
  10.600   1.0539   0.04922   0.04626  -0.0055  0.0047  1.0000  -7.8147   0.0000   0.0000   0.0000   0.2457
  10.700   1.0466   0.05075   0.04786  -0.0049  0.0047  1.0000  -7.7737   0.0000   0.0000   0.0000   0.2451
  10.800   1.0392   0.05238   0.04957  -0.0046  0.0047  1.0000  -7.7306   0.0000   0.0000   0.0000   0.2447
  10.900   1.0316   0.05413   0.05140  -0.0046  0.0047  1.0000  -7.6851   0.0000   0.0000   0.0000   0.2446
  11.000   1.0240   0.05601   0.05336  -0.0049  0.0047  1.0000  -7.6375   0.0000   0.0000   0.0000   0.2448
  11.100   1.0163   0.05801   0.05543  -0.0055  0.0047  1.0000  -7.5880   0.0000   0.0000   0.0000   0.2453
  11.200   1.0084   0.06012   0.05760  -0.0064  0.0048  1.0000  -7.5365   0.0000   0.0000   0.0000   0.2460
  11.300   1.0006   0.06241   0.05997  -0.0076  0.0048  1.0000  -7.4815   0.0000   0.0000   0.0000   0.2471
  11.400   0.9929   0.06492   0.06254  -0.0091  0.0048  1.0000  -7.4222   0.0000   0.0000   0.0000   0.2486
  11.500   0.9852   0.06766   0.06534  -0.0111  0.0048  1.0000  -7.3578   0.0000   0.0000   0.0000   0.2505
  11.600   0.9775   0.07064   0.06838  -0.0133  0.0048  1.0000  -7.2873   0.0000   0.0000   0.0000   0.2527
  11.700   0.9699   0.07388   0.07168  -0.0158  0.0049  1.0000  -7.2089   0.0000   0.0000   0.0000   0.2553
  11.800   0.9623   0.07740   0.07525  -0.0186  0.0049  1.0000  -7.1205   0.0000   0.0000   0.0000   0.2582
  11.900   0.9546   0.08122   0.07913  -0.0216  0.0049  1.0000  -7.0191   0.0000   0.0000   0.0000   0.2614
  12.000   0.9467   0.08537   0.08332  -0.0248  0.0050  1.0000  -6.9007   0.0000   0.0000   0.0000   0.2649
  12.100   0.9378   0.09003   0.08802  -0.0282  0.0050  1.0000  -6.7451   0.0000   0.0000   0.0000   0.2688
  12.200   0.9254   0.09599   0.09403  -0.0322  0.0052  1.0000  -6.4739   0.0000   0.0000   0.0000   0.2735
  12.300   0.9077   0.10351   0.10157  -0.0365  0.0056  1.0000  -6.0376   0.0000   0.0000   0.0000   0.2791
  12.400   0.8914   0.11063   0.10856  -0.0400  0.0061  1.0000  -5.5999   0.0000   0.0000   0.0000   0.2839
  12.500   0.8802   0.11612   0.11403  -0.0424  0.0063  1.0000  -5.2843   0.0000   0.0000   0.0000   0.2873
  12.600   0.8726   0.12045   0.11835  -0.0444  0.0065  1.0000  -5.0691   0.0000   0.0000   0.0000   0.2901
  12.700   0.8665   0.12431   0.12221  -0.0463  0.0066  1.0000  -4.8928   0.0000   0.0000   0.0000   0.2925
  12.800   0.8614   0.12790   0.12578  -0.0480  0.0067  1.0000  -4.7384   0.0000   0.0000   0.0000   0.2948
  12.900   0.8571   0.13129   0.12916  -0.0496  0.0067  1.0000  -4.5989   0.0000   0.0000   0.0000   0.2969
  13.000   0.8533   0.13452   0.13238  -0.0511  0.0068  1.0000  -4.4703   0.0000   0.0000   0.0000   0.2989
  13.100   0.8501   0.13762   0.13548  -0.0525  0.0069  1.0000  -4.3503   0.0000   0.0000   0.0000   0.3009
  13.200   0.8473   0.14062   0.13846  -0.0539  0.0070  1.0000  -4.2374   0.0000   0.0000   0.0000   0.3027
  13.300   0.8448   0.14353   0.14137  -0.0553  0.0070  1.0000  -4.1303   0.0000   0.0000   0.0000   0.3044
  13.400   0.8427   0.14636   0.14419  -0.0566  0.0071  1.0000  -4.0279   0.0000   0.0000   0.0000   0.3061
  13.500   0.8408   0.14913   0.14695  -0.0579  0.0072  1.0000  -3.9295   0.0000   0.0000   0.0000   0.3077
  13.600   0.8392   0.15185   0.14966  -0.0591  0.0073  1.0000  -3.8339   0.0000   0.0000   0.0000   0.3093
  13.700   0.8378   0.15453   0.15234  -0.0603  0.0073  1.0000  -3.7396   0.0000   0.0000   0.0000   0.3108
  13.800   0.8364   0.15720   0.15500  -0.0615  0.0074  1.0000  -3.6436   0.0000   0.0000   0.0000   0.3123
  13.900   0.8346   0.16001   0.15780  -0.0628  0.0076  1.0000  -3.5289   0.0000   0.0000   0.0000   0.3139
  14.800   0.8359   0.18002   0.17777  -0.0714  0.0080  1.0000  -2.9369   0.0000   0.0000   0.0000   0.3234
  14.900   0.8375   0.18190   0.17964  -0.0723  0.0080  1.0000  -2.9066   0.0000   0.0000   0.0000   0.3243
  15.000   0.8391   0.18379   0.18153  -0.0732  0.0080  1.0000  -2.8760   0.0000   0.0000   0.0000   0.3251
  15.100   0.8407   0.18570   0.18344  -0.0741  0.0080  1.0000  -2.8448   0.0000   0.0000   0.0000   0.3258
  15.200   0.8424   0.18764   0.18538  -0.0749  0.0080  1.0000  -2.8128   0.0000   0.0000   0.0000   0.3266
  15.300   0.8441   0.18958   0.18732  -0.0758  0.0080  1.0000  -2.7814   0.0000   0.0000   0.0000   0.3273
  15.400   0.8458   0.19153   0.18926  -0.0766  0.0080  1.0000  -2.7509   0.0000   0.0000   0.0000   0.3281
  15.500   0.8476   0.19348   0.19121  -0.0775  0.0080  1.0000  -2.7212   0.0000   0.0000   0.0000   0.3288
  15.600   0.8494   0.19544   0.19317  -0.0783  0.0080  1.0000  -2.6922   0.0000   0.0000   0.0000   0.3295
  15.700   0.8513   0.19740   0.19513  -0.0791  0.0080  1.0000  -2.6640   0.0000   0.0000   0.0000   0.3301
  15.800   0.8532   0.19936   0.19709  -0.0800  0.0080  1.0000  -2.6364   0.0000   0.0000   0.0000   0.3308
  15.900   0.8552   0.20133   0.19906  -0.0808  0.0080  1.0000  -2.6097   0.0000   0.0000   0.0000   0.3315
  16.000   0.8571   0.20330   0.20103  -0.0816  0.0080  1.0000  -2.5836   0.0000   0.0000   0.0000   0.3321
  16.100   0.8591   0.20528   0.20300  -0.0825  0.0080  1.0000  -2.5584   0.0000   0.0000   0.0000   0.3328
  16.200   0.8611   0.20726   0.20498  -0.0833  0.0080  1.0000  -2.5338   0.0000   0.0000   0.0000   0.3334
  16.300   0.8632   0.20924   0.20696  -0.0841  0.0080  1.0000  -2.5098   0.0000   0.0000   0.0000   0.3340
  16.400   0.8652   0.21123   0.20895  -0.0849  0.0080  1.0000  -2.4865   0.0000   0.0000   0.0000   0.3346
  16.500   0.8673   0.21322   0.21094  -0.0858  0.0080  1.0000  -2.4638   0.0000   0.0000   0.0000   0.3352
  16.600   0.8694   0.21521   0.21293  -0.0866  0.0080  1.0000  -2.4418   0.0000   0.0000   0.0000   0.3358
  16.700   0.8715   0.21721   0.21493  -0.0874  0.0080  1.0000  -2.4204   0.0000   0.0000   0.0000   0.3364
  16.800   0.8736   0.21921   0.21693  -0.0882  0.0080  1.0000  -2.3996   0.0000   0.0000   0.0000   0.3370
  16.900   0.8757   0.22122   0.21894  -0.0890  0.0080  1.0000  -2.3795   0.0000   0.0000   0.0000   0.3376
  17.000   0.8778   0.22323   0.22095  -0.0898  0.0080  1.0000  -2.3599   0.0000   0.0000   0.0000   0.3381
  17.100   0.8800   0.22525   0.22297  -0.0906  0.0080  1.0000  -2.3409   0.0000   0.0000   0.0000   0.3387
  17.200   0.8821   0.22727   0.22499  -0.0914  0.0080  1.0000  -2.3225   0.0000   0.0000   0.0000   0.3392
  17.300   0.8842   0.22930   0.22701  -0.0923  0.0080  1.0000  -2.3045   0.0000   0.0000   0.0000   0.3398
  17.400   0.8864   0.23134   0.22916  -0.0930  0.0080  1.0000  -2.2867   0.0000   0.0000   0.0000   0.3403
  17.500   0.8885   0.23338   0.23119  -0.0938  0.0080  1.0000  -2.2698   0.0000   0.0000   0.0000   0.3408
  17.600   0.8907   0.23542   0.23323  -0.0946  0.0080  1.0000  -2.2533   0.0000   0.0000   0.0000   0.3414
  17.700   0.8928   0.23746   0.23528  -0.0954  0.0080  1.0000  -2.2373   0.0000   0.0000   0.0000   0.3419
  17.800   0.8949   0.23951   0.23732  -0.0962  0.0080  1.0000  -2.2217   0.0000   0.0000   0.0000   0.3424
  17.900   0.8971   0.24156   0.23938  -0.0970  0.0080  1.0000  -2.2065   0.0000   0.0000   0.0000   0.3429
  18.000   0.8992   0.24362   0.24144  -0.0978  0.0080  1.0000  -2.1917   0.0000   0.0000   0.0000   0.3434
  18.100   0.9013   0.24568   0.24350  -0.0986  0.0080  1.0000  -2.1772   0.0000   0.0000   0.0000   0.3439
  18.200   0.9034   0.24775   0.24557  -0.0994  0.0079  1.0000  -2.1631   0.0000   0.0000   0.0000   0.3444
  18.300   0.9055   0.24983   0.24765  -0.1002  0.0079  1.0000  -2.1493   0.0000   0.0000   0.0000   0.3449
  18.400   0.9076   0.25191   0.24973  -0.1010  0.0079  1.0000  -2.1358   0.0000   0.0000   0.0000   0.3454
  18.500   0.9097   0.25399   0.25181  -0.1017  0.0079  1.0000  -2.1226   0.0000   0.0000   0.0000   0.3459
  18.600   0.9117   0.25608   0.25390  -0.1025  0.0079  1.0000  -2.1097   0.0000   0.0000   0.0000   0.3464
  18.700   0.9137   0.25817   0.25600  -0.1033  0.0079  1.0000  -2.0970   0.0000   0.0000   0.0000   0.3468
  18.800   0.9158   0.26027   0.25810  -0.1041  0.0079  1.0000  -2.0845   0.0000   0.0000   0.0000   0.3473
  18.900   0.9178   0.26237   0.26020  -0.1049  0.0079  1.0000  -2.0723   0.0000   0.0000   0.0000   0.3478
  19.000   0.9198   0.26448   0.26231  -0.1056  0.0079  1.0000  -2.0604   0.0000   0.0000   0.0000   0.3482
  19.100   0.9217   0.26659   0.26443  -0.1064  0.0079  1.0000  -2.0486   0.0000   0.0000   0.0000   0.3487
  19.200   0.9237   0.26871   0.26655  -0.1072  0.0079  1.0000  -2.0371   0.0000   0.0000   0.0000   0.3492
  19.300   0.9256   0.27084   0.26867  -0.1079  0.0079  1.0000  -2.0258   0.0000   0.0000   0.0000   0.3496
  19.400   0.9275   0.27296   0.27080  -0.1087  0.0079  1.0000  -2.0147   0.0000   0.0000   0.0000   0.3501
  19.500   0.9294   0.27509   0.27293  -0.1095  0.0079  1.0000  -2.0038   0.0000   0.0000   0.0000   0.3505
  19.600   0.9312   0.27723   0.27507  -0.1102  0.0079  1.0000  -1.9930   0.0000   0.0000   0.0000   0.3510
  19.700   0.9330   0.27937   0.27721  -0.1110  0.0079  1.0000  -1.9825   0.0000   0.0000   0.0000   0.3514
  19.800   0.9348   0.28152   0.27936  -0.1117  0.0079  1.0000  -1.9721   0.0000   0.0000   0.0000   0.3519
  19.900   0.9366   0.28366   0.28151  -0.1125  0.0079  1.0000  -1.9618   0.0000   0.0000   0.0000   0.3523
  20.000   0.9383   0.28582   0.28367  -0.1132  0.0079  1.0000  -1.9516   0.0000   0.0000   0.0000   0.3528
  20.100   0.9400   0.28797   0.28582  -0.1140  0.0079  1.0000  -1.9414   0.0000   0.0000   0.0000   0.3532
  20.200   0.9417   0.29012   0.28798  -0.1147  0.0079  1.0000  -1.9314   0.0000   0.0000   0.0000   0.3537
  20.300   0.9433   0.29228   0.29014  -0.1155  0.0079  1.0000  -1.9215   0.0000   0.0000   0.0000   0.3541
  20.400   0.9448   0.29444   0.29230  -0.1162  0.0078  1.0000  -1.9116   0.0000   0.0000   0.0000   0.3545
  20.500   0.9464   0.29661   0.29447  -0.1170  0.0078  1.0000  -1.9019   0.0000   0.0000   0.0000   0.3550
  20.600   0.9478   0.29877   0.29664  -0.1177  0.0078  1.0000  -1.8923   0.0000   0.0000   0.0000   0.3554
  20.700   0.9493   0.30094   0.29881  -0.1184  0.0078  1.0000  -1.8828   0.0000   0.0000   0.0000   0.3559
  20.800   0.9507   0.30310   0.30097  -0.1191  0.0078  1.0000  -1.8733   0.0000   0.0000   0.0000   0.3563
  20.900   0.9520   0.30527   0.30314  -0.1198  0.0078  1.0000  -1.8639   0.0000   0.0000   0.0000   0.3567
  21.000   0.9533   0.30743   0.30531  -0.1206  0.0078  1.0000  -1.8546   0.0000   0.0000   0.0000   0.3572
  21.100   0.9545   0.30959   0.30748  -0.1213  0.0078  1.0000  -1.8454   0.0000   0.0000   0.0000   0.3576
  21.200   0.9556   0.31175   0.30964  -0.1220  0.0078  1.0000  -1.8361   0.0000   0.0000   0.0000   0.3580
  21.300   0.9567   0.31391   0.31180  -0.1226  0.0078  1.0000  -1.8269   0.0000   0.0000   0.0000   0.3585
  21.400   0.9577   0.31606   0.31396  -0.1233  0.0078  1.0000  -1.8175   0.0000   0.0000   0.0000   0.3589
  21.500   0.9586   0.31820   0.31610  -0.1240  0.0077  1.0000  -1.8078   0.0000   0.0000   0.0000   0.3594
  21.600   0.9594   0.32034   0.31825  -0.1247  0.0077  1.0000  -1.7981   0.0000   0.0000   0.0000   0.3598
  21.700   0.9601   0.32247   0.32038  -0.1253  0.0077  1.0000  -1.7884   0.0000   0.0000   0.0000   0.3603
  21.800   0.9608   0.32458   0.32250  -0.1260  0.0077  1.0000  -1.7785   0.0000   0.0000   0.0000   0.3607
  21.900   0.9613   0.32668   0.32460  -0.1266  0.0077  1.0000  -1.7686   0.0000   0.0000   0.0000   0.3612
  22.000   0.9616   0.32876   0.32669  -0.1272  0.0077  1.0000  -1.7586   0.0000   0.0000   0.0000   0.3616
  22.100   0.9618   0.33082   0.32876  -0.1279  0.0077  1.0000  -1.7484   0.0000   0.0000   0.0000   0.3621
  22.200   0.9619   0.33286   0.33080  -0.1284  0.0076  1.0000  -1.7379   0.0000   0.0000   0.0000   0.3626
  22.300   0.9617   0.33486   0.33280  -0.1290  0.0076  1.0000  -1.7272   0.0000   0.0000   0.0000   0.3630
  22.400   0.9613   0.33682   0.33477  -0.1295  0.0076  1.0000  -1.7158   0.0000   0.0000   0.0000   0.3635
  22.500   0.9606   0.33873   0.33669  -0.1301  0.0076  1.0000  -1.7022   0.0000   0.0000   0.0000   0.3641
  22.600   0.9595   0.34058   0.33855  -0.1306  0.0075  1.0000  -1.6878   0.0000   0.0000   0.0000   0.3646
  22.700   0.9579   0.34233   0.34031  -0.1310  0.0075  1.0000  -1.6722   0.0000   0.0000   0.0000   0.3652
  22.800   0.9556   0.34394   0.34193  -0.1313  0.0075  1.0000  -1.6550   0.0000   0.0000   0.0000   0.3658
  22.900   0.9515   0.34523   0.34324  -0.1315  0.0074  1.0000  -1.6336   0.0000   0.0000   0.0000   0.3664
  23.000   0.8700   0.32587   0.32402  -0.1226  0.0076  1.0000  -1.4245   0.0000   0.0000   0.0000   0.3704
  23.100   0.8663   0.32582   0.32399  -0.1227  0.0075  1.0000  -1.4051   0.0000   0.0000   0.0000   0.3710
  23.200   0.8631   0.32588   0.32405  -0.1228  0.0075  1.0000  -1.3870   0.0000   0.0000   0.0000   0.3716
  23.300   0.8603   0.32601   0.32420  -0.1230  0.0075  1.0000  -1.3700   0.0000   0.0000   0.0000   0.3722
  23.400   0.8578   0.32620   0.32440  -0.1232  0.0075  1.0000  -1.3539   0.0000   0.0000   0.0000   0.3728
  23.500   0.8556   0.32643   0.32464  -0.1235  0.0074  1.0000  -1.3385   0.0000   0.0000   0.0000   0.3734
  23.600   0.8537   0.32671   0.32492  -0.1237  0.0074  1.0000  -1.3306   0.0000   0.0000   0.0000   0.3739
  23.700   0.8519   0.32703   0.32525  -0.1240  0.0073  1.0000  -1.3243   0.0000   0.0000   0.0000   0.3745
  23.800   0.8504   0.32739   0.32562  -0.1243  0.0073  1.0000  -1.3182   0.0000   0.0000   0.0000   0.3750
  23.900   0.8490   0.32778   0.32602  -0.1246  0.0072  1.0000  -1.3123   0.0000   0.0000   0.0000   0.3755
  24.000   0.8478   0.32820   0.32645  -0.1250  0.0071  1.0000  -1.3064   0.0000   0.0000   0.0000   0.3760
  24.100   0.8467   0.32865   0.32690  -0.1253  0.0070  1.0000  -1.3005   0.0000   0.0000   0.0000   0.3764
  24.200   0.8457   0.32911   0.32737  -0.1257  0.0069  1.0000  -1.2946   0.0000   0.0000   0.0000   0.3769
  24.300   0.8448   0.32959   0.32786  -0.1260  0.0068  1.0000  -1.2888   0.0000   0.0000   0.0000   0.3774
  24.400   0.8439   0.33007   0.32835  -0.1263  0.0067  1.0000  -1.2830   0.0000   0.0000   0.0000   0.3778
  24.500   0.8429   0.33056   0.32884  -0.1266  0.0066  1.0000  -1.2773   0.0000   0.0000   0.0000   0.3782
  24.600   0.8420   0.33104   0.32934  -0.1270  0.0065  1.0000  -1.2720   0.0000   0.0000   0.0000   0.3787
  24.700   0.8411   0.33153   0.32983  -0.1273  0.0064  1.0000  -1.2668   0.0000   0.0000   0.0000   0.3791
  24.800   0.8402   0.33202   0.33032  -0.1276  0.0063  1.0000  -1.2620   0.0000   0.0000   0.0000   0.3795
  24.900   0.8394   0.33251   0.33082  -0.1279  0.0062  1.0000  -1.2574   0.0000   0.0000   0.0000   0.3799
  25.000   0.8385   0.33300   0.33132  -0.1283  0.0061  1.0000  -1.2530   0.0000   0.0000   0.0000   0.3804
  25.100   0.8377   0.33349   0.33182  -0.1286  0.0060  1.0000  -1.2489   0.0000   0.0000   0.0000   0.3808
  25.200   0.8369   0.33398   0.33232  -0.1289  0.0059  1.0000  -1.2449   0.0000   0.0000   0.0000   0.3812
  25.300   0.8362   0.33448   0.33283  -0.1292  0.0058  1.0000  -1.2410   0.0000   0.0000   0.0000   0.3816
  25.400   0.8354   0.33498   0.33337  -0.1296  0.0058  1.0000  -1.2358   0.0000   0.0000   0.0000   0.3820
  25.500   0.8347   0.33549   0.33388  -0.1299  0.0057  1.0000  -1.2321   0.0000   0.0000   0.0000   0.3824
  25.600   0.8340   0.33600   0.33440  -0.1303  0.0056  1.0000  -1.2284   0.0000   0.0000   0.0000   0.3828
  25.700   0.8334   0.33651   0.33492  -0.1306  0.0055  1.0000  -1.2249   0.0000   0.0000   0.0000   0.3832
  25.800   0.8328   0.33703   0.33545  -0.1310  0.0055  1.0000  -1.2214   0.0000   0.0000   0.0000   0.3836
  25.900   0.8322   0.33756   0.33598  -0.1313  0.0054  1.0000  -1.2179   0.0000   0.0000   0.0000   0.3839
  26.000   0.8316   0.33808   0.33651  -0.1317  0.0053  1.0000  -1.2145   0.0000   0.0000   0.0000   0.3843
  26.100   0.8311   0.33861   0.33704  -0.1320  0.0052  1.0000  -1.2110   0.0000   0.0000   0.0000   0.3847
  26.200   0.8306   0.33915   0.33759  -0.1324  0.0052  1.0000  -1.2075   0.0000   0.0000   0.0000   0.3851
  26.300   0.8301   0.33968   0.33813  -0.1327  0.0051  1.0000  -1.2039   0.0000   0.0000   0.0000   0.3855
  26.400   0.8296   0.34022   0.33868  -0.1331  0.0050  1.0000  -1.2003   0.0000   0.0000   0.0000   0.3858
  26.500   0.8292   0.34077   0.33923  -0.1335  0.0049  1.0000  -1.1966   0.0000   0.0000   0.0000   0.3862
  26.600   0.8288   0.34131   0.33978  -0.1338  0.0049  1.0000  -1.1928   0.0000   0.0000   0.0000   0.3866
  26.700   0.8283   0.34186   0.34033  -0.1342  0.0048  1.0000  -1.1889   0.0000   0.0000   0.0000   0.3869
  26.800   0.8280   0.34242   0.34089  -0.1346  0.0047  1.0000  -1.1849   0.0000   0.0000   0.0000   0.3873
  26.900   0.8276   0.34297   0.34145  -0.1349  0.0046  1.0000  -1.1809   0.0000   0.0000   0.0000   0.3877
  27.000   0.8272   0.34353   0.34202  -0.1353  0.0046  1.0000  -1.1770   0.0000   0.0000   0.0000   0.3880
  27.100   0.8269   0.34409   0.34258  -0.1357  0.0045  1.0000  -1.1733   0.0000   0.0000   0.0000   0.3884
  27.200   0.8266   0.34465   0.34315  -0.1361  0.0044  1.0000  -1.1697   0.0000   0.0000   0.0000   0.3887
  27.300   0.8262   0.34521   0.34372  -0.1364  0.0043  1.0000  -1.1662   0.0000   0.0000   0.0000   0.3891
  27.400   0.8260   0.34577   0.34429  -0.1368  0.0042  1.0000  -1.1630   0.0000   0.0000   0.0000   0.3894
  27.500   0.8257   0.34634   0.34486  -0.1372  0.0041  1.0000  -1.1599   0.0000   0.0000   0.0000   0.3898
  27.600   0.8254   0.34690   0.34543  -0.1376  0.0041  1.0000  -1.1570   0.0000   0.0000   0.0000   0.3901
  27.700   0.8251   0.34747   0.34600  -0.1380  0.0040  1.0000  -1.1541   0.0000   0.0000   0.0000   0.3905
  27.800   0.8249   0.34803   0.34657  -0.1384  0.0039  1.0000  -1.1511   0.0000   0.0000   0.0000   0.3908
  27.900   0.8246   0.34860   0.34714  -0.1388  0.0038  1.0000  -1.1479   0.0000   0.0000   0.0000   0.3912
  28.000   0.8244   0.34917   0.34772  -0.1392  0.0038  1.0000  -1.1443   0.0000   0.0000   0.0000   0.3915
  28.100   0.8242   0.34975   0.34830  -0.1396  0.0037  1.0000  -1.1404   0.0000   0.0000   0.0000   0.3918
  28.200   0.8240   0.35032   0.34888  -0.1400  0.0036  1.0000  -1.1365   0.0000   0.0000   0.0000   0.3922
  28.300   0.8237   0.35090   0.34946  -0.1404  0.0036  1.0000  -1.1326   0.0000   0.0000   0.0000   0.3925
  28.400   0.8235   0.35148   0.35005  -0.1408  0.0035  1.0000  -1.1289   0.0000   0.0000   0.0000   0.3928
  28.500   0.8233   0.35205   0.35063  -0.1411  0.0035  1.0000  -1.1252   0.0000   0.0000   0.0000   0.3932
  28.600   0.8231   0.35263   0.35121  -0.1415  0.0034  1.0000  -1.1217   0.0000   0.0000   0.0000   0.3935
  28.700   0.8230   0.35321   0.35180  -0.1419  0.0034  1.0000  -1.1182   0.0000   0.0000   0.0000   0.3938
  28.800   0.8228   0.35379   0.35238  -0.1424  0.0033  1.0000  -1.1149   0.0000   0.0000   0.0000   0.3941
  28.900   0.8226   0.35437   0.35297  -0.1428  0.0033  1.0000  -1.1117   0.0000   0.0000   0.0000   0.3945
  29.000   0.8224   0.35495   0.35355  -0.1432  0.0033  1.0000  -1.1087   0.0000   0.0000   0.0000   0.3948
  29.100   0.8223   0.35553   0.35414  -0.1436  0.0032  1.0000  -1.1058   0.0000   0.0000   0.0000   0.3951
  29.200   0.8221   0.35611   0.35472  -0.1440  0.0032  1.0000  -1.1030   0.0000   0.0000   0.0000   0.3954
  29.300   0.8219   0.35668   0.35531  -0.1444  0.0031  1.0000  -1.1004   0.0000   0.0000   0.0000   0.3958
  29.400   0.8218   0.35726   0.35589  -0.1448  0.0031  1.0000  -1.0980   0.0000   0.0000   0.0000   0.3961
  29.500   0.8216   0.35784   0.35647  -0.1452  0.0031  1.0000  -1.0958   0.0000   0.0000   0.0000   0.3964
  29.600   0.8214   0.35841   0.35705  -0.1456  0.0030  1.0000  -1.0937   0.0000   0.0000   0.0000   0.3967
  29.700   0.8213   0.35899   0.35763  -0.1460  0.0030  1.0000  -1.0918   0.0000   0.0000   0.0000   0.3970
  29.800   0.8211   0.35956   0.35821  -0.1464  0.0029  1.0000  -1.0900   0.0000   0.0000   0.0000   0.3973
  29.900   0.8210   0.36013   0.35879  -0.1468  0.0029  1.0000  -1.0884   0.0000   0.0000   0.0000   0.3976
  30.000   0.8208   0.36071   0.35937  -0.1472  0.0029  1.0000  -1.0870   0.0000   0.0000   0.0000   0.3980


