xflr5 v6.61

 Calculated polar for: MH 30

 1 1 Reynolds number fixed          Mach number fixed         

 xtrf =   1.000 (top)        1.000 (bottom)
 Mach =   0.000     Re =     0.400 e 6     Ncrit =   9.000

  alpha     CL        CD       CDp       Cm    Top Xtr Bot Xtr   Cpmin    Chinge    XCp    
 ------- -------- --------- --------- -------- ------- ------- -------- --------- ---------
 -10.000  -0.4898   0.11283   0.11030  -0.0067  1.0000  0.0149  -1.9922   0.0000   0.0000   0.0000   0.2315
  -9.900  -0.4882   0.11125   0.10873  -0.0074  1.0000  0.0149  -2.0072   0.0000   0.0000   0.0000   0.2301
  -9.800  -0.4866   0.10967   0.10716  -0.0081  1.0000  0.0149  -2.0226   0.0000   0.0000   0.0000   0.2287
  -9.700  -0.4852   0.10810   0.10559  -0.0088  1.0000  0.0150  -2.0384   0.0000   0.0000   0.0000   0.2273
  -9.600  -0.4837   0.10652   0.10403  -0.0095  1.0000  0.0150  -2.0546   0.0000   0.0000   0.0000   0.2259
  -9.500  -0.4824   0.10495   0.10246  -0.0102  1.0000  0.0150  -2.0713   0.0000   0.0000   0.0000   0.2244
  -9.400  -0.4811   0.10337   0.10089  -0.0109  1.0000  0.0150  -2.0885   0.0000   0.0000   0.0000   0.2230
  -9.300  -0.4797   0.10177   0.09930  -0.0116  1.0000  0.0150  -2.1061   0.0000   0.0000   0.0000   0.2214
  -9.200  -0.4783   0.10016   0.09769  -0.0124  1.0000  0.0150  -2.1242   0.0000   0.0000   0.0000   0.2198
  -9.100  -0.4770   0.09854   0.09608  -0.0132  1.0000  0.0150  -2.1428   0.0000   0.0000   0.0000   0.2182
  -9.000  -0.4758   0.09691   0.09446  -0.0139  1.0000  0.0150  -2.1621   0.0000   0.0000   0.0000   0.2165
  -8.900  -0.4746   0.09528   0.09285  -0.0147  1.0000  0.0150  -2.1819   0.0000   0.0000   0.0000   0.2148
  -8.800  -0.4735   0.09365   0.09122  -0.0156  1.0000  0.0150  -2.2024   0.0000   0.0000   0.0000   0.2131
  -8.700  -0.4725   0.09202   0.08960  -0.0164  1.0000  0.0150  -2.2236   0.0000   0.0000   0.0000   0.2113
  -8.600  -0.4717   0.09037   0.08786  -0.0172  1.0000  0.0150  -2.2458   0.0000   0.0000   0.0000   0.2095
  -8.500  -0.4709   0.08871   0.08622  -0.0181  1.0000  0.0150  -2.2685   0.0000   0.0000   0.0000   0.2077
  -8.400  -0.4701   0.08704   0.08456  -0.0190  1.0000  0.0150  -2.2922   0.0000   0.0000   0.0000   0.2057
  -8.300  -0.4694   0.08535   0.08288  -0.0200  1.0000  0.0150  -2.3169   0.0000   0.0000   0.0000   0.2036
  -8.200  -0.4689   0.08365   0.08119  -0.0210  1.0000  0.0150  -2.3426   0.0000   0.0000   0.0000   0.2015
  -8.100  -0.4686   0.08193   0.07949  -0.0221  1.0000  0.0150  -2.3695   0.0000   0.0000   0.0000   0.1993
  -8.000  -0.4684   0.08019   0.07776  -0.0232  1.0000  0.0150  -2.3978   0.0000   0.0000   0.0000   0.1969
  -7.900  -0.4685   0.07843   0.07601  -0.0244  1.0000  0.0150  -2.4278   0.0000   0.0000   0.0000   0.1944
  -7.800  -0.4689   0.07664   0.07424  -0.0258  1.0000  0.0150  -2.4600   0.0000   0.0000   0.0000   0.1916
  -7.700  -0.4698   0.07479   0.07241  -0.0274  1.0000  0.0150  -2.4952   0.0000   0.0000   0.0000   0.1884
  -7.600  -0.4699   0.07269   0.07032  -0.0297  1.0000  0.0150  -2.5360   0.0000   0.0000   0.0000   0.1836
  -7.500  -0.4683   0.07028   0.06790  -0.0324  1.0000  0.0150  -2.5830   0.0000   0.0000   0.0000   0.1777
  -7.400  -0.4666   0.06791   0.06551  -0.0346  1.0000  0.0150  -2.6307   0.0000   0.0000   0.0000   0.1728
  -7.300  -0.4649   0.06564   0.06321  -0.0363  1.0000  0.0150  -2.6772   0.0000   0.0000   0.0000   0.1688
  -7.200  -0.4634   0.06348   0.06103  -0.0377  1.0000  0.0150  -2.7213   0.0000   0.0000   0.0000   0.1656
  -7.100  -0.4621   0.06144   0.05895  -0.0388  1.0000  0.0150  -2.7625   0.0000   0.0000   0.0000   0.1629
  -7.000  -0.4609   0.05951   0.05698  -0.0397  1.0000  0.0150  -2.8004   0.0000   0.0000   0.0000   0.1609
  -6.900  -0.4598   0.05768   0.05511  -0.0403  1.0000  0.0150  -2.8352   0.0000   0.0000   0.0000   0.1594
  -6.800  -0.4590   0.05595   0.05333  -0.0406  1.0000  0.0150  -2.8669   0.0000   0.0000   0.0000   0.1586
  -6.700  -0.4586   0.05433   0.05167  -0.0407  1.0000  0.0150  -2.8956   0.0000   0.0000   0.0000   0.1584
  -6.600  -0.4583   0.05280   0.05010  -0.0405  1.0000  0.0150  -2.9218   0.0000   0.0000   0.0000   0.1587
  -6.500  -0.4584   0.05136   0.04860  -0.0401  1.0000  0.0150  -2.9457   0.0000   0.0000   0.0000   0.1597
  -6.400  -0.4588   0.05001   0.04720  -0.0395  1.0000  0.0150  -2.9673   0.0000   0.0000   0.0000   0.1611
  -6.300  -0.4594   0.04872   0.04585  -0.0387  1.0000  0.0150  -2.9874   0.0000   0.0000   0.0000   0.1630
  -6.200  -0.4600   0.04745   0.04454  -0.0378  1.0000  0.0150  -3.0062   0.0000   0.0000   0.0000   0.1650
  -6.100  -0.4603   0.04620   0.04322  -0.0369  1.0000  0.0150  -3.0241   0.0000   0.0000   0.0000   0.1670
  -6.000  -0.4602   0.04494   0.04190  -0.0361  1.0000  0.0150  -3.0411   0.0000   0.0000   0.0000   0.1690
  -5.900  -0.4598   0.04366   0.04056  -0.0352  1.0000  0.0150  -3.0573   0.0000   0.0000   0.0000   0.1708
  -5.800  -0.4589   0.04236   0.03919  -0.0344  1.0000  0.0150  -3.0730   0.0000   0.0000   0.0000   0.1725
  -5.500  -0.4505   0.03174   0.02805  -0.0362  0.9975  0.0132  -3.5039   0.0000   0.0000   0.0000   0.1670
  -5.400  -0.4393   0.02908   0.02513  -0.0372  0.9962  0.0125  -3.6012   0.0000   0.0000   0.0000   0.1625
  -5.300  -0.4277   0.02689   0.02272  -0.0380  0.9947  0.0121  -3.6744   0.0000   0.0000   0.0000   0.1584
  -5.200  -0.4155   0.02496   0.02056  -0.0386  0.9933  0.0117  -3.7352   0.0000   0.0000   0.0000   0.1543
  -5.100  -0.4028   0.02323   0.01862  -0.0391  0.9919  0.0114  -3.7841   0.0000   0.0000   0.0000   0.1499
  -5.000  -0.3896   0.02168   0.01687  -0.0397  0.9907  0.0112  -3.8185   0.0000   0.0000   0.0000   0.1452
  -4.900  -0.3760   0.02040   0.01540  -0.0402  0.9896  0.0112  -3.8222   0.0000   0.0000   0.0000   0.1400
  -4.800  -0.3620   0.01948   0.01433  -0.0408  0.9887  0.0116  -3.7740   0.0000   0.0000   0.0000   0.1342
  -4.700  -0.3477   0.01866   0.01339  -0.0415  0.9879  0.0121  -3.7110   0.0000   0.0000   0.0000   0.1277
  -4.600  -0.3332   0.01780   0.01239  -0.0421  0.9872  0.0124  -3.6574   0.0000   0.0000   0.0000   0.1206
  -4.500  -0.3215   0.01693   0.01140  -0.0421  0.9855  0.0125  -3.6255   0.0000   0.0000   0.0000   0.1159
  -4.400  -0.3093   0.01605   0.01040  -0.0423  0.9840  0.0125  -3.5949   0.0000   0.0000   0.0000   0.1103
  -4.300  -0.2967   0.01525   0.00948  -0.0424  0.9825  0.0125  -3.5536   0.0000   0.0000   0.0000   0.1039
  -4.200  -0.2840   0.01453   0.00866  -0.0426  0.9812  0.0127  -3.5030   0.0000   0.0000   0.0000   0.0968
  -4.100  -0.2712   0.01388   0.00792  -0.0429  0.9800  0.0129  -3.4431   0.0000   0.0000   0.0000   0.0888
  -4.000  -0.2580   0.01330   0.00726  -0.0432  0.9789  0.0132  -3.3732   0.0000   0.0000   0.0000   0.0794
  -3.900  -0.2443   0.01279   0.00668  -0.0436  0.9777  0.0136  -3.2909   0.0000   0.0000   0.0000   0.0683
  -3.800  -0.2302   0.01238   0.00621  -0.0442  0.9767  0.0141  -3.1913   0.0000   0.0000   0.0000   0.0549
  -3.700  -0.2155   0.01209   0.00588  -0.0449  0.9756  0.0147  -3.0665   0.0000   0.0000   0.0000   0.0384
  -3.600  -0.2013   0.01144   0.00513  -0.0455  0.9746  0.0162  -3.0018   0.0000   0.0000   0.0000   0.0208
  -3.500  -0.1869   0.01073   0.00436  -0.0461  0.9737  0.0228  -2.9663   0.0000   0.0000   0.0000  -0.0000
  -3.400  -0.1714   0.01045   0.00403  -0.0469  0.9729  0.0293  -2.8572   0.0000   0.0000   0.0000  -0.0274
  -3.300  -0.1570   0.00976   0.00353  -0.0477  0.9722  0.0762  -2.8175   0.0000   0.0000   0.0000  -0.0575
  -3.200  -0.1451   0.00933   0.00340  -0.0482  0.9706  0.1356  -2.6889   0.0000   0.0000   0.0000  -0.0859
  -3.100  -0.1350   0.00910   0.00331  -0.0481  0.9680  0.1718  -2.5640   0.0000   0.0000   0.0000  -0.1100
  -3.000  -0.1230   0.00889   0.00321  -0.0483  0.9658  0.2051  -2.4257   0.0000   0.0000   0.0000  -0.1472
  -2.900  -0.1103   0.00869   0.00312  -0.0488  0.9637  0.2373  -2.2827   0.0000   0.0000   0.0000  -0.1967
  -2.800  -0.0970   0.00853   0.00303  -0.0493  0.9617  0.2690  -2.1373   0.0000   0.0000   0.0000  -0.2626
  -2.700  -0.0838   0.00833   0.00295  -0.0498  0.9598  0.3055  -1.9934   0.0000   0.0000   0.0000  -0.3498
  -2.600  -0.0705   0.00811   0.00288  -0.0503  0.9580  0.3486  -1.8515   0.0000   0.0000   0.0000  -0.4700
  -2.500  -0.0573   0.00787   0.00282  -0.0509  0.9562  0.4012  -1.7124   0.0000   0.0000   0.0000  -0.6444
  -2.400  -0.0445   0.00762   0.00277  -0.0513  0.9545  0.4603  -1.5783   0.0000   0.0000   0.0000  -0.9106
  -2.200  -0.0198   0.00720   0.00267  -0.0518  0.9509  0.5683  -1.3270   0.0000   0.0000   0.0000  -2.3874
  -2.100  -0.0118   0.00706   0.00265  -0.0511  0.9475  0.6015  -1.2261   0.0000   0.0000   0.0000  -4.0898
  -2.000  -0.0024   0.00696   0.00261  -0.0506  0.9442  0.6296  -1.1196   0.0000   0.0000   0.0000  -20.7016
  -1.900   0.0072   0.00683   0.00260  -0.0502  0.9411  0.6656  -1.0141   0.0000   0.0000   0.0000   7.2781
  -1.800   0.0170   0.00669   0.00258  -0.0497  0.9382  0.7015  -0.9096   0.0000   0.0000   0.0000   3.1843
  -1.700   0.0274   0.00658   0.00255  -0.0494  0.9353  0.7342  -0.8051   0.0000   0.0000   0.0000   2.0616
  -1.600   0.0378   0.00647   0.00252  -0.0490  0.9325  0.7653  -0.7029   0.0000   0.0000   0.0000   1.5521
  -1.500   0.0481   0.00637   0.00250  -0.0486  0.9298  0.7924  -0.6040   0.0000   0.0000   0.0000   1.2644
  -1.400   0.0586   0.00630   0.00247  -0.0482  0.9272  0.8194  -0.5437   0.0000   0.0000   0.0000   1.0750
  -1.300   0.0689   0.00624   0.00248  -0.0477  0.9245  0.8472  -0.4942   0.0000   0.0000   0.0000   0.9442
  -1.200   0.0780   0.00618   0.00247  -0.0470  0.9215  0.8702  -0.4645   0.0000   0.0000   0.0000   0.8545
  -1.100   0.0877   0.00614   0.00244  -0.0465  0.9182  0.8915  -0.4341   0.0000   0.0000   0.0000   0.7813
  -1.000   0.0999   0.00610   0.00242  -0.0465  0.9153  0.9098  -0.4004   0.0000   0.0000   0.0000   0.7160
  -0.900   0.1131   0.00607   0.00239  -0.0467  0.9121  0.9281  -0.3658   0.0000   0.0000   0.0000   0.6633
  -0.800   0.1293   0.00603   0.00234  -0.0475  0.9093  0.9446  -0.3412   0.0000   0.0000   0.0000   0.6179
  -0.700   0.1458   0.00599   0.00228  -0.0485  0.9061  0.9565  -0.3539   0.0000   0.0000   0.0000   0.5826
  -0.600   0.1622   0.00595   0.00222  -0.0494  0.9028  0.9658  -0.3665   0.0000   0.0000   0.0000   0.5547
  -0.500   0.1776   0.00593   0.00216  -0.0502  0.8994  0.9737  -0.3787   0.0000   0.0000   0.0000   0.5323
  -0.400   0.1956   0.00590   0.00210  -0.0515  0.8962  0.9807  -0.3927   0.0000   0.0000   0.0000   0.5130
  -0.300   0.2122   0.00589   0.00206  -0.0526  0.8930  0.9879  -0.4073   0.0000   0.0000   0.0000   0.4974
  -0.200   0.2304   0.00585   0.00201  -0.0541  0.8901  0.9937  -0.4229   0.0000   0.0000   0.0000   0.4843
  -0.100   0.2483   0.00582   0.00196  -0.0556  0.8866  0.9995  -0.4384   0.0000   0.0000   0.0000   0.4732
   0.000   0.2580   0.00581   0.00193  -0.0552  0.8813  1.0000  -0.4490   0.0000   0.0000   0.0000   0.4634
   0.100   0.2669   0.00580   0.00189  -0.0547  0.8756  1.0000  -0.4592   0.0000   0.0000   0.0000   0.4542
   0.200   0.2760   0.00578   0.00185  -0.0542  0.8701  1.0000  -0.4706   0.0000   0.0000   0.0000   0.4455
   0.300   0.2853   0.00578   0.00180  -0.0537  0.8648  1.0000  -0.4830   0.0000   0.0000   0.0000   0.4373
   0.400   0.2949   0.00579   0.00178  -0.0533  0.8595  1.0000  -0.4955   0.0000   0.0000   0.0000   0.4297
   0.500   0.3045   0.00579   0.00177  -0.0529  0.8551  1.0000  -0.5081   0.0000   0.0000   0.0000   0.4229
   0.600   0.3141   0.00578   0.00176  -0.0526  0.8495  1.0000  -0.5206   0.0000   0.0000   0.0000   0.4164
   0.700   0.3236   0.00578   0.00174  -0.0522  0.8432  1.0000  -0.5332   0.0000   0.0000   0.0000   0.4101
   0.800   0.3331   0.00578   0.00171  -0.0517  0.8364  1.0000  -0.5465   0.0000   0.0000   0.0000   0.4042
   0.900   0.3426   0.00578   0.00168  -0.0513  0.8295  1.0000  -0.5617   0.0000   0.0000   0.0000   0.3985
   1.000   0.3523   0.00580   0.00165  -0.0508  0.8226  1.0000  -0.5770   0.0000   0.0000   0.0000   0.3931
   1.100   0.3622   0.00581   0.00166  -0.0505  0.8170  1.0000  -0.5925   0.0000   0.0000   0.0000   0.3883
   1.200   0.3722   0.00582   0.00166  -0.0503  0.8106  1.0000  -0.6081   0.0000   0.0000   0.0000   0.3837
   1.300   0.3820   0.00582   0.00165  -0.0499  0.8029  1.0000  -0.6238   0.0000   0.0000   0.0000   0.3793
   1.400   0.3918   0.00584   0.00163  -0.0495  0.7944  1.0000  -0.6394   0.0000   0.0000   0.0000   0.3750
   1.500   0.4015   0.00586   0.00161  -0.0491  0.7852  1.0000  -0.6551   0.0000   0.0000   0.0000   0.3708
   1.600   0.4113   0.00589   0.00161  -0.0488  0.7767  1.0000  -0.6732   0.0000   0.0000   0.0000   0.3670
   1.700   0.4214   0.00591   0.00162  -0.0485  0.7677  1.0000  -0.6926   0.0000   0.0000   0.0000   0.3634
   1.800   0.4313   0.00593   0.00162  -0.0482  0.7574  1.0000  -0.7120   0.0000   0.0000   0.0000   0.3600
   1.900   0.4411   0.00597   0.00161  -0.0478  0.7467  1.0000  -0.7315   0.0000   0.0000   0.0000   0.3566
   2.000   0.4508   0.00603   0.00160  -0.0474  0.7354  1.0000  -0.7509   0.0000   0.0000   0.0000   0.3533
   2.100   0.4610   0.00606   0.00163  -0.0471  0.7249  1.0000  -0.7709   0.0000   0.0000   0.0000   0.3504
   2.200   0.4709   0.00611   0.00163  -0.0468  0.7110  1.0000  -0.7948   0.0000   0.0000   0.0000   0.3475
   2.300   0.4803   0.00619   0.00164  -0.0464  0.6958  1.0000  -0.8189   0.0000   0.0000   0.0000   0.3446
   2.400   0.4903   0.00625   0.00167  -0.0461  0.6833  1.0000  -0.8437   0.0000   0.0000   0.0000   0.3419
   2.500   0.5004   0.00630   0.00170  -0.0458  0.6705  1.0000  -0.8689   0.0000   0.0000   0.0000   0.3395
   2.600   0.5102   0.00638   0.00172  -0.0455  0.6565  1.0000  -0.8939   0.0000   0.0000   0.0000   0.3370
   2.700   0.5196   0.00649   0.00175  -0.0451  0.6412  1.0000  -0.9186   0.0000   0.0000   0.0000   0.3346
   2.800   0.5299   0.00655   0.00179  -0.0449  0.6284  1.0000  -0.9444   0.0000   0.0000   0.0000   0.3324
   2.900   0.5396   0.00665   0.00182  -0.0445  0.6116  1.0000  -0.9697   0.0000   0.0000   0.0000   0.3302
   3.000   0.5488   0.00679   0.00186  -0.0441  0.5927  1.0000  -1.0001   0.0000   0.0000   0.0000   0.3280
   3.100   0.5590   0.00686   0.00192  -0.0439  0.5795  1.0000  -1.0340   0.0000   0.0000   0.0000   0.3261
   3.200   0.5689   0.00696   0.00197  -0.0436  0.5638  1.0000  -1.0676   0.0000   0.0000   0.0000   0.3242
   3.300   0.5783   0.00710   0.00204  -0.0433  0.5474  1.0000  -1.1051   0.0000   0.0000   0.0000   0.3223
   3.400   0.5884   0.00719   0.00211  -0.0431  0.5341  1.0000  -1.1523   0.0000   0.0000   0.0000   0.3206
   3.500   0.5983   0.00730   0.00217  -0.0428  0.5174  1.0000  -1.1998   0.0000   0.0000   0.0000   0.3189
   3.600   0.6075   0.00747   0.00224  -0.0425  0.4965  1.0000  -1.2459   0.0000   0.0000   0.0000   0.3171
   3.700   0.6175   0.00757   0.00231  -0.0423  0.4804  1.0000  -1.2944   0.0000   0.0000   0.0000   0.3156
   3.800   0.6272   0.00771   0.00238  -0.0420  0.4619  1.0000  -1.3428   0.0000   0.0000   0.0000   0.3140
   3.900   0.6365   0.00789   0.00246  -0.0417  0.4426  1.0000  -1.3907   0.0000   0.0000   0.0000   0.3125
   4.000   0.6467   0.00798   0.00255  -0.0415  0.4298  1.0000  -1.4413   0.0000   0.0000   0.0000   0.3111
   4.100   0.6564   0.00813   0.00263  -0.0413  0.4118  1.0000  -1.5080   0.0000   0.0000   0.0000   0.3097
   4.200   0.6656   0.00833   0.00273  -0.0409  0.3905  1.0000  -1.5807   0.0000   0.0000   0.0000   0.3083
   4.300   0.6756   0.00845   0.00282  -0.0408  0.3746  1.0000  -1.6573   0.0000   0.0000   0.0000   0.3070
   4.400   0.6849   0.00865   0.00291  -0.0405  0.3537  1.0000  -1.7368   0.0000   0.0000   0.0000   0.3057
   4.500   0.6947   0.00880   0.00307  -0.0403  0.3371  1.0000  -1.8585   0.0000   0.0000   0.0000   0.3045
   4.600   0.7046   0.00894   0.00318  -0.0401  0.3223  1.0000  -1.9904   0.0000   0.0000   0.0000   0.3033
   4.700   0.7140   0.00915   0.00329  -0.0398  0.3043  1.0000  -2.1221   0.0000   0.0000   0.0000   0.3021
   4.800   0.7240   0.00929   0.00340  -0.0396  0.2907  1.0000  -2.2608   0.0000   0.0000   0.0000   0.3010
   4.900   0.7337   0.00945   0.00352  -0.0394  0.2752  1.0000  -2.4010   0.0000   0.0000   0.0000   0.2999
   5.000   0.7427   0.00971   0.00365  -0.0392  0.2522  1.0000  -2.5384   0.0000   0.0000   0.0000   0.2988
   5.100   0.7524   0.00988   0.00378  -0.0390  0.2354  1.0000  -2.6842   0.0000   0.0000   0.0000   0.2978
   5.200   0.7612   0.01018   0.00392  -0.0387  0.2107  1.0000  -2.8251   0.0000   0.0000   0.0000   0.2967
   5.300   0.7710   0.01034   0.00405  -0.0385  0.1959  1.0000  -2.9763   0.0000   0.0000   0.0000   0.2958
   5.400   0.7800   0.01063   0.00421  -0.0382  0.1755  1.0000  -3.1227   0.0000   0.0000   0.0000   0.2948
   5.500   0.7898   0.01079   0.00435  -0.0381  0.1633  1.0000  -3.2790   0.0000   0.0000   0.0000   0.2939
   5.600   0.7993   0.01101   0.00450  -0.0378  0.1498  1.0000  -3.4340   0.0000   0.0000   0.0000   0.2929
   5.700   0.8087   0.01124   0.00468  -0.0376  0.1354  1.0000  -3.5899   0.0000   0.0000   0.0000   0.2920
   5.800   0.8185   0.01141   0.00483  -0.0374  0.1258  1.0000  -3.7522   0.0000   0.0000   0.0000   0.2911
   5.900   0.8277   0.01168   0.00501  -0.0372  0.1122  1.0000  -3.9105   0.0000   0.0000   0.0000   0.2902
   6.000   0.8373   0.01188   0.00520  -0.0370  0.1012  1.0000  -4.0737   0.0000   0.0000   0.0000   0.2894
   6.100   0.8466   0.01212   0.00538  -0.0368  0.0901  1.0000  -4.2367   0.0000   0.0000   0.0000   0.2885
   6.200   0.8557   0.01242   0.00561  -0.0365  0.0760  1.0000  -4.3956   0.0000   0.0000   0.0000   0.2877
   6.300   0.8649   0.01269   0.00583  -0.0362  0.0657  1.0000  -4.5575   0.0000   0.0000   0.0000   0.2868
   6.400   0.8735   0.01307   0.00614  -0.0358  0.0514  1.0000  -4.7039   0.0000   0.0000   0.0000   0.2859
   6.500   0.8815   0.01354   0.00650  -0.0354  0.0399  1.0000  -4.8378   0.0000   0.0000   0.0000   0.2849
   6.600   0.8896   0.01405   0.00706  -0.0348  0.0323  1.0000  -4.9414   0.0000   0.0000   0.0000   0.2837
   6.700   0.8988   0.01435   0.00740  -0.0344  0.0287  1.0000  -5.0807   0.0000   0.0000   0.0000   0.2829
   6.800   0.9076   0.01467   0.00771  -0.0341  0.0253  1.0000  -5.2293   0.0000   0.0000   0.0000   0.2820
   6.900   0.9151   0.01524   0.00830  -0.0335  0.0214  1.0000  -5.3353   0.0000   0.0000   0.0000   0.2810
   7.000   0.9196   0.01631   0.00953  -0.0324  0.0188  1.0000  -5.3649   0.0000   0.0000   0.0000   0.2795
   7.100   0.9302   0.01633   0.00955  -0.0323  0.0183  1.0000  -5.5536   0.0000   0.0000   0.0000   0.2789
   7.200   0.9400   0.01651   0.00977  -0.0321  0.0175  1.0000  -5.7095   0.0000   0.0000   0.0000   0.2782
   7.300   0.9492   0.01678   0.01008  -0.0318  0.0162  1.0000  -5.8385   0.0000   0.0000   0.0000   0.2774
   7.400   0.9582   0.01708   0.01041  -0.0315  0.0143  1.0000  -5.9828   0.0000   0.0000   0.0000   0.2766
   7.500   0.9674   0.01732   0.01064  -0.0313  0.0124  1.0000  -6.1627   0.0000   0.0000   0.0000   0.2760
   7.600   0.9752   0.01780   0.01112  -0.0308  0.0106  1.0000  -6.3040   0.0000   0.0000   0.0000   0.2752
   7.700   0.9792   0.01901   0.01245  -0.0296  0.0092  1.0000  -6.2988   0.0000   0.0000   0.0000   0.2737
   7.800   0.9811   0.02083   0.01448  -0.0281  0.0084  1.0000  -6.2173   0.0000   0.0000   0.0000   0.2721
   7.900   0.9839   0.02287   0.01671  -0.0268  0.0080  1.0000  -6.1440   0.0000   0.0000   0.0000   0.2706
   8.000   0.9928   0.02320   0.01709  -0.0265  0.0079  1.0000  -6.3051   0.0000   0.0000   0.0000   0.2699
   8.100   1.0011   0.02369   0.01766  -0.0261  0.0077  1.0000  -6.4443   0.0000   0.0000   0.0000   0.2691
   8.200   1.0088   0.02433   0.01838  -0.0256  0.0076  1.0000  -6.5647   0.0000   0.0000   0.0000   0.2683
   8.300   1.0161   0.02509   0.01924  -0.0250  0.0074  1.0000  -6.6684   0.0000   0.0000   0.0000   0.2675
   8.400   1.0229   0.02597   0.02023  -0.0244  0.0073  1.0000  -6.7577   0.0000   0.0000   0.0000   0.2666
   8.500   1.0293   0.02695   0.02132  -0.0237  0.0072  1.0000  -6.8343   0.0000   0.0000   0.0000   0.2657
   8.600   1.0351   0.02801   0.02251  -0.0230  0.0071  1.0000  -6.8995   0.0000   0.0000   0.0000   0.2648
   8.700   1.0404   0.02915   0.02378  -0.0222  0.0071  1.0000  -6.9546   0.0000   0.0000   0.0000   0.2639
   8.800   1.0450   0.03039   0.02534  -0.0214  0.0070  1.0000  -6.9967   0.0000   0.0000   0.0000   0.2629
   8.900   1.0490   0.03168   0.02677  -0.0206  0.0070  1.0000  -7.0320   0.0000   0.0000   0.0000   0.2619
   9.000   1.0523   0.03301   0.02826  -0.0197  0.0069  1.0000  -7.0591   0.0000   0.0000   0.0000   0.2609
   9.100   1.0549   0.03441   0.02980  -0.0188  0.0069  1.0000  -7.0779   0.0000   0.0000   0.0000   0.2599
   9.200   1.0566   0.03584   0.03139  -0.0178  0.0069  1.0000  -7.0887   0.0000   0.0000   0.0000   0.2589
   9.300   1.0576   0.03731   0.03301  -0.0168  0.0069  1.0000  -7.0920   0.0000   0.0000   0.0000   0.2579
   9.400   1.0576   0.03882   0.03466  -0.0158  0.0069  1.0000  -7.0884   0.0000   0.0000   0.0000   0.2568
   9.500   1.0570   0.04030   0.03628  -0.0148  0.0069  1.0000  -7.0834   0.0000   0.0000   0.0000   0.2557
   9.600   1.0557   0.04176   0.03787  -0.0138  0.0069  1.0000  -7.0788   0.0000   0.0000   0.0000   0.2547
   9.700   1.0537   0.04319   0.03942  -0.0127  0.0069  1.0000  -7.0735   0.0000   0.0000   0.0000   0.2536
   9.800   1.0511   0.04458   0.04093  -0.0117  0.0069  1.0000  -7.0670   0.0000   0.0000   0.0000   0.2526
   9.900   1.0471   0.04587   0.04232  -0.0104  0.0069  1.0000  -7.0576   0.0000   0.0000   0.0000   0.2513
  10.000   1.0420   0.04709   0.04364  -0.0091  0.0069  1.0000  -7.0450   0.0000   0.0000   0.0000   0.2500
  10.100   1.0364   0.04833   0.04497  -0.0079  0.0068  1.0000  -7.0294   0.0000   0.0000   0.0000   0.2488
  10.200   1.0303   0.04962   0.04634  -0.0069  0.0068  1.0000  -7.0104   0.0000   0.0000   0.0000   0.2478
  10.300   1.0239   0.05099   0.04779  -0.0061  0.0068  1.0000  -6.9878   0.0000   0.0000   0.0000   0.2469
  10.400   1.0172   0.05244   0.04932  -0.0056  0.0068  1.0000  -6.9612   0.0000   0.0000   0.0000   0.2463
  10.500   1.0101   0.05399   0.05094  -0.0053  0.0068  1.0000  -6.9302   0.0000   0.0000   0.0000   0.2459
  10.600   1.0029   0.05566   0.05269  -0.0052  0.0069  1.0000  -6.8945   0.0000   0.0000   0.0000   0.2458
  10.700   0.9954   0.05749   0.05459  -0.0055  0.0069  1.0000  -6.8534   0.0000   0.0000   0.0000   0.2460
  10.800   0.9877   0.05947   0.05664  -0.0061  0.0069  1.0000  -6.8067   0.0000   0.0000   0.0000   0.2465
  10.900   0.9796   0.06158   0.05882  -0.0069  0.0069  1.0000  -6.7538   0.0000   0.0000   0.0000   0.2472
  11.000   0.9714   0.06390   0.06121  -0.0082  0.0070  1.0000  -6.6941   0.0000   0.0000   0.0000   0.2484
  11.100   0.9630   0.06647   0.06384  -0.0098  0.0070  1.0000  -6.6265   0.0000   0.0000   0.0000   0.2500
  11.200   0.9546   0.06932   0.06676  -0.0118  0.0071  1.0000  -6.5501   0.0000   0.0000   0.0000   0.2521
  11.300   0.9461   0.07246   0.06996  -0.0142  0.0071  1.0000  -6.4644   0.0000   0.0000   0.0000   0.2546
  11.400   0.9377   0.07590   0.07345  -0.0169  0.0072  1.0000  -6.3687   0.0000   0.0000   0.0000   0.2575
  11.500   0.9294   0.07963   0.07724  -0.0199  0.0072  1.0000  -6.2627   0.0000   0.0000   0.0000   0.2608
  11.600   0.9212   0.08363   0.08129  -0.0230  0.0073  1.0000  -6.1468   0.0000   0.0000   0.0000   0.2643
  11.700   0.9133   0.08785   0.08555  -0.0263  0.0073  1.0000  -6.0219   0.0000   0.0000   0.0000   0.2680
  11.800   0.9054   0.09232   0.09005  -0.0295  0.0074  1.0000  -5.8817   0.0000   0.0000   0.0000   0.2718
  11.900   0.8973   0.09694   0.09455  -0.0325  0.0074  1.0000  -5.7219   0.0000   0.0000   0.0000   0.2755
  12.000   0.8882   0.10181   0.09944  -0.0355  0.0075  1.0000  -5.5263   0.0000   0.0000   0.0000   0.2792
  12.100   0.8783   0.10686   0.10450  -0.0382  0.0076  1.0000  -5.2981   0.0000   0.0000   0.0000   0.2828
  12.200   0.8675   0.11208   0.10972  -0.0408  0.0077  1.0000  -5.0305   0.0000   0.0000   0.0000   0.2864
  12.300   0.8558   0.11662   0.11426  -0.0427  0.0081  1.0000  -4.7466   0.0000   0.0000   0.0000   0.2893
  12.400   0.8550   0.11910   0.11675  -0.0439  0.0082  1.0000  -4.7126   0.0000   0.0000   0.0000   0.2907
  12.500   0.8545   0.12152   0.11917  -0.0450  0.0082  1.0000  -4.6799   0.0000   0.0000   0.0000   0.2919
  12.600   0.8542   0.12388   0.12153  -0.0461  0.0083  1.0000  -4.6488   0.0000   0.0000   0.0000   0.2931
  12.700   0.8541   0.12618   0.12382  -0.0471  0.0084  1.0000  -4.6192   0.0000   0.0000   0.0000   0.2942
  12.800   0.8541   0.12843   0.12608  -0.0480  0.0084  1.0000  -4.5906   0.0000   0.0000   0.0000   0.2953
  12.900   0.8543   0.13066   0.12830  -0.0490  0.0085  1.0000  -4.5619   0.0000   0.0000   0.0000   0.2964
  13.000   0.8546   0.13288   0.13052  -0.0500  0.0086  1.0000  -4.5311   0.0000   0.0000   0.0000   0.2974
  13.100   0.8549   0.13514   0.13278  -0.0509  0.0087  1.0000  -4.4941   0.0000   0.0000   0.0000   0.2984
  13.200   0.8551   0.13752   0.13516  -0.0519  0.0089  1.0000  -4.4406   0.0000   0.0000   0.0000   0.2995
  13.300   0.8543   0.14060   0.13823  -0.0532  0.0093  1.0000  -4.3094   0.0000   0.0000   0.0000   0.3010
  13.500   0.8330   0.15525   0.15281  -0.0590  0.0134  1.0000  -3.1755   0.0000   0.0000   0.0000   0.3102
  13.600   0.8317   0.15799   0.15554  -0.0602  0.0144  1.0000  -3.0761   0.0000   0.0000   0.0000   0.3116
  13.700   0.8308   0.16046   0.15800  -0.0611  0.0156  1.0000  -3.0037   0.0000   0.0000   0.0000   0.3128
  14.200   0.8242   0.17340   0.17092  -0.0655  0.0186  1.0000  -2.6915   0.0000   0.0000   0.0000   0.3183
  14.300   0.8257   0.17524   0.17276  -0.0664  0.0186  1.0000  -2.6686   0.0000   0.0000   0.0000   0.3192
  14.400   0.8272   0.17705   0.17456  -0.0673  0.0185  1.0000  -2.6464   0.0000   0.0000   0.0000   0.3200
  14.500   0.8288   0.17884   0.17635  -0.0682  0.0185  1.0000  -2.6249   0.0000   0.0000   0.0000   0.3208
  14.600   0.8305   0.18063   0.17813  -0.0691  0.0185  1.0000  -2.6040   0.0000   0.0000   0.0000   0.3216
  14.700   0.8323   0.18241   0.17991  -0.0699  0.0185  1.0000  -2.5838   0.0000   0.0000   0.0000   0.3224
  14.800   0.8342   0.18418   0.18168  -0.0708  0.0185  1.0000  -2.5644   0.0000   0.0000   0.0000   0.3232
  14.900   0.8361   0.18594   0.18344  -0.0717  0.0184  1.0000  -2.5461   0.0000   0.0000   0.0000   0.3239
  15.000   0.8381   0.18768   0.18517  -0.0726  0.0184  1.0000  -2.5291   0.0000   0.0000   0.0000   0.3247
  15.100   0.8403   0.18936   0.18685  -0.0735  0.0183  1.0000  -2.5144   0.0000   0.0000   0.0000   0.3254
  15.200   0.8429   0.19090   0.18839  -0.0744  0.0181  1.0000  -2.5049   0.0000   0.0000   0.0000   0.3261
  15.300   0.8485   0.19143   0.18892  -0.0758  0.0166  1.0000  -2.5159   0.0000   0.0000   0.0000   0.3271
  15.400   0.8506   0.19319   0.19068  -0.0770  0.0157  1.0000  -2.4846   0.0000   0.0000   0.0000   0.3283
  15.500   0.8527   0.19497   0.19246  -0.0780  0.0149  1.0000  -2.4653   0.0000   0.0000   0.0000   0.3291
  15.600   0.8547   0.19671   0.19420  -0.0790  0.0142  1.0000  -2.4545   0.0000   0.0000   0.0000   0.3299
  15.700   0.8568   0.19841   0.19590  -0.0798  0.0135  1.0000  -2.4509   0.0000   0.0000   0.0000   0.3306
  15.800   0.8590   0.20006   0.19755  -0.0807  0.0129  1.0000  -2.4535   0.0000   0.0000   0.0000   0.3312
  15.900   0.8612   0.20167   0.19915  -0.0815  0.0123  1.0000  -2.4619   0.0000   0.0000   0.0000   0.3318
  16.000   0.8635   0.20324   0.20072  -0.0822  0.0119  1.0000  -2.4750   0.0000   0.0000   0.0000   0.3323
  16.100   0.8658   0.20479   0.20228  -0.0830  0.0114  1.0000  -2.4907   0.0000   0.0000   0.0000   0.3328
  16.200   0.8681   0.20636   0.20384  -0.0837  0.0111  1.0000  -2.5059   0.0000   0.0000   0.0000   0.3332
  16.300   0.8704   0.20797   0.20545  -0.0844  0.0108  1.0000  -2.5162   0.0000   0.0000   0.0000   0.3337
  16.400   0.8727   0.20964   0.20712  -0.0852  0.0106  1.0000  -2.5215   0.0000   0.0000   0.0000   0.3342
  16.500   0.8749   0.21130   0.20878  -0.0859  0.0105  1.0000  -2.5285   0.0000   0.0000   0.0000   0.3346
  16.600   0.8772   0.21295   0.21044  -0.0866  0.0103  1.0000  -2.5374   0.0000   0.0000   0.0000   0.3350
  16.700   0.8795   0.21460   0.21208  -0.0873  0.0101  1.0000  -2.5485   0.0000   0.0000   0.0000   0.3354
  16.800   0.8819   0.21623   0.21372  -0.0880  0.0100  1.0000  -2.5619   0.0000   0.0000   0.0000   0.3358
  16.900   0.8843   0.21786   0.21535  -0.0887  0.0098  1.0000  -2.5775   0.0000   0.0000   0.0000   0.3361
  17.000   0.8868   0.21947   0.21708  -0.0893  0.0096  1.0000  -2.5986   0.0000   0.0000   0.0000   0.3364
  17.100   0.8893   0.22109   0.21870  -0.0899  0.0095  1.0000  -2.6195   0.0000   0.0000   0.0000   0.3367
  17.200   0.8918   0.22271   0.22032  -0.0905  0.0094  1.0000  -2.6432   0.0000   0.0000   0.0000   0.3369
  17.300   0.8943   0.22435   0.22197  -0.0910  0.0092  1.0000  -2.6660   0.0000   0.0000   0.0000   0.3371
  17.400   0.8965   0.22611   0.22374  -0.0917  0.0091  1.0000  -2.6795   0.0000   0.0000   0.0000   0.3374
  17.500   0.8984   0.22800   0.22563  -0.0924  0.0090  1.0000  -2.6812   0.0000   0.0000   0.0000   0.3379
  17.600   0.9002   0.22997   0.22760  -0.0931  0.0089  1.0000  -2.6786   0.0000   0.0000   0.0000   0.3383
  17.700   0.9019   0.23206   0.22968  -0.0939  0.0087  1.0000  -2.6687   0.0000   0.0000   0.0000   0.3388
  17.800   0.9032   0.23435   0.23197  -0.0947  0.0086  1.0000  -2.6456   0.0000   0.0000   0.0000   0.3394
  17.900   0.9039   0.23703   0.23465  -0.0955  0.0085  1.0000  -2.5957   0.0000   0.0000   0.0000   0.3402
  18.000   0.9017   0.24158   0.23919  -0.0966  0.0082  1.0000  -2.4195   0.0000   0.0000   0.0000   0.3417


