xflr5 v6.61

 Calculated polar for: MH 30

 1 1 Reynolds number fixed          Mach number fixed         

 xtrf =   1.000 (top)        1.000 (bottom)
 Mach =   0.000     Re =     0.688 e 6     Ncrit =   9.000

  alpha     CL        CD       CDp       Cm    Top Xtr Bot Xtr   Cpmin    Chinge    XCp    
 ------- -------- --------- --------- -------- ------- ------- -------- --------- ---------
 -10.000  -0.5016   0.10936   0.10743  -0.0049  1.0000  0.0108  -1.9711   0.0000   0.0000   0.0000   0.2357
  -9.900  -0.5003   0.10783   0.10591  -0.0056  1.0000  0.0109  -1.9840   0.0000   0.0000   0.0000   0.2343
  -9.800  -0.4989   0.10630   0.10439  -0.0063  1.0000  0.0111  -1.9975   0.0000   0.0000   0.0000   0.2329
  -9.700  -0.4977   0.10478   0.10287  -0.0070  1.0000  0.0113  -2.0118   0.0000   0.0000   0.0000   0.2315
  -9.600  -0.4965   0.10327   0.10137  -0.0077  1.0000  0.0115  -2.0269   0.0000   0.0000   0.0000   0.2300
  -9.500  -0.4954   0.10176   0.09986  -0.0085  1.0000  0.0117  -2.0427   0.0000   0.0000   0.0000   0.2286
  -9.400  -0.4941   0.10023   0.09834  -0.0092  1.0000  0.0120  -2.0592   0.0000   0.0000   0.0000   0.2270
  -9.300  -0.4928   0.09869   0.09680  -0.0100  1.0000  0.0122  -2.0762   0.0000   0.0000   0.0000   0.2254
  -9.200  -0.4913   0.09714   0.09527  -0.0108  1.0000  0.0124  -2.0934   0.0000   0.0000   0.0000   0.2237
  -9.100  -0.4897   0.09562   0.09375  -0.0117  1.0000  0.0127  -2.1106   0.0000   0.0000   0.0000   0.2220
  -9.000  -0.4878   0.09414   0.09228  -0.0125  1.0000  0.0130  -2.1249   0.0000   0.0000   0.0000   0.2203
  -8.900  -0.4855   0.09274   0.09088  -0.0134  1.0000  0.0134  -2.1359   0.0000   0.0000   0.0000   0.2184
  -8.800  -0.4811   0.09171   0.08986  -0.0141  1.0000  0.0139  -2.1197   0.0000   0.0000   0.0000   0.2168
  -8.700  -0.4772   0.09064   0.08872  -0.0148  1.0000  0.0142  -2.1054   0.0000   0.0000   0.0000   0.2151
  -8.600  -0.4751   0.08930   0.08739  -0.0155  1.0000  0.0143  -2.1087   0.0000   0.0000   0.0000   0.2134
  -8.500  -0.4735   0.08788   0.08597  -0.0163  1.0000  0.0144  -2.1179   0.0000   0.0000   0.0000   0.2116
  -8.400  -0.4722   0.08639   0.08449  -0.0172  1.0000  0.0145  -2.1304   0.0000   0.0000   0.0000   0.2098
  -8.300  -0.4710   0.08486   0.08297  -0.0181  1.0000  0.0145  -2.1453   0.0000   0.0000   0.0000   0.2079
  -8.200  -0.4701   0.08330   0.08142  -0.0190  1.0000  0.0145  -2.1622   0.0000   0.0000   0.0000   0.2060
  -8.100  -0.4695   0.08172   0.07985  -0.0199  1.0000  0.0146  -2.1809   0.0000   0.0000   0.0000   0.2040
  -8.000  -0.4691   0.08012   0.07827  -0.0209  1.0000  0.0146  -2.2013   0.0000   0.0000   0.0000   0.2019
  -7.900  -0.4689   0.07849   0.07665  -0.0220  1.0000  0.0146  -2.2234   0.0000   0.0000   0.0000   0.1997
  -7.800  -0.4692   0.07685   0.07502  -0.0231  1.0000  0.0146  -2.2474   0.0000   0.0000   0.0000   0.1975
  -7.700  -0.4700   0.07519   0.07337  -0.0243  1.0000  0.0146  -2.2737   0.0000   0.0000   0.0000   0.1951
  -7.600  -0.4713   0.07348   0.07168  -0.0257  1.0000  0.0146  -2.3032   0.0000   0.0000   0.0000   0.1924
  -7.500  -0.4713   0.07147   0.06967  -0.0279  1.0000  0.0146  -2.3373   0.0000   0.0000   0.0000   0.1877
  -7.400  -0.4698   0.06919   0.06739  -0.0306  1.0000  0.0147  -2.3755   0.0000   0.0000   0.0000   0.1819
  -7.300  -0.4678   0.06687   0.06507  -0.0330  1.0000  0.0147  -2.4152   0.0000   0.0000   0.0000   0.1766
  -7.200  -0.4657   0.06459   0.06277  -0.0350  1.0000  0.0147  -2.4549   0.0000   0.0000   0.0000   0.1719
  -7.100  -0.4636   0.06237   0.06053  -0.0367  1.0000  0.0147  -2.4939   0.0000   0.0000   0.0000   0.1679
  -7.000  -0.4617   0.06025   0.05838  -0.0381  1.0000  0.0147  -2.5313   0.0000   0.0000   0.0000   0.1647
  -6.900  -0.4600   0.05825   0.05635  -0.0391  1.0000  0.0147  -2.5666   0.0000   0.0000   0.0000   0.1623
  -6.800  -0.4589   0.05641   0.05447  -0.0396  1.0000  0.0147  -2.5993   0.0000   0.0000   0.0000   0.1609
  -6.700  -0.4585   0.05474   0.05277  -0.0397  1.0000  0.0147  -2.6291   0.0000   0.0000   0.0000   0.1606
  -6.600  -0.4593   0.05326   0.05126  -0.0394  1.0000  0.0147  -2.6557   0.0000   0.0000   0.0000   0.1615
  -6.500  -0.4612   0.05199   0.04996  -0.0386  1.0000  0.0148  -2.6794   0.0000   0.0000   0.0000   0.1637
  -6.400  -0.4640   0.05085   0.04879  -0.0375  1.0000  0.0148  -2.7006   0.0000   0.0000   0.0000   0.1666
  -6.300  -0.4609   0.04912   0.04699  -0.0378  0.9995  0.0148  -2.7248   0.0000   0.0000   0.0000   0.1654
  -6.200  -0.4503   0.04666   0.04443  -0.0400  0.9981  0.0148  -2.7513   0.0000   0.0000   0.0000   0.1586
  -6.100  -0.4393   0.04428   0.04195  -0.0420  0.9967  0.0148  -2.7745   0.0000   0.0000   0.0000   0.1518
  -5.400  -0.3723   0.02237   0.01857  -0.0516  0.9848  0.0099  -3.5732   0.0000   0.0000   0.0000   0.1081
  -5.300  -0.3624   0.01830   0.01399  -0.0511  0.9824  0.0076  -4.0703   0.0000   0.0000   0.0000   0.1055
  -5.200  -0.3506   0.01599   0.01137  -0.0510  0.9809  0.0067  -4.3359   0.0000   0.0000   0.0000   0.1012
  -5.100  -0.3379   0.01480   0.01000  -0.0512  0.9797  0.0065  -4.3903   0.0000   0.0000   0.0000   0.0951
  -5.000  -0.3251   0.01393   0.00900  -0.0514  0.9785  0.0065  -4.3797   0.0000   0.0000   0.0000   0.0884
  -4.900  -0.3123   0.01319   0.00817  -0.0517  0.9773  0.0065  -4.3407   0.0000   0.0000   0.0000   0.0810
  -4.800  -0.2996   0.01256   0.00744  -0.0520  0.9762  0.0066  -4.2830   0.0000   0.0000   0.0000   0.0730
  -4.700  -0.2869   0.01199   0.00680  -0.0522  0.9752  0.0068  -4.2104   0.0000   0.0000   0.0000   0.0643
  -4.600  -0.2742   0.01149   0.00624  -0.0525  0.9741  0.0069  -4.1233   0.0000   0.0000   0.0000   0.0548
  -4.500  -0.2611   0.01117   0.00588  -0.0529  0.9730  0.0074  -3.9833   0.0000   0.0000   0.0000   0.0437
  -4.400  -0.2478   0.01090   0.00559  -0.0534  0.9719  0.0080  -3.8296   0.0000   0.0000   0.0000   0.0309
  -4.300  -0.2378   0.01063   0.00527  -0.0531  0.9694  0.0084  -3.7154   0.0000   0.0000   0.0000   0.0230
  -4.200  -0.2277   0.01029   0.00488  -0.0528  0.9667  0.0087  -3.6241   0.0000   0.0000   0.0000   0.0145
  -4.100  -0.2171   0.00993   0.00445  -0.0526  0.9640  0.0090  -3.5435   0.0000   0.0000   0.0000   0.0041
  -4.000  -0.2061   0.00960   0.00406  -0.0524  0.9615  0.0094  -3.4574   0.0000   0.0000   0.0000  -0.0080
  -3.900  -0.1950   0.00932   0.00372  -0.0522  0.9592  0.0100  -3.3679   0.0000   0.0000   0.0000  -0.0217
  -3.800  -0.1839   0.00907   0.00340  -0.0521  0.9569  0.0110  -3.2774   0.0000   0.0000   0.0000  -0.0372
  -3.700  -0.1725   0.00886   0.00313  -0.0520  0.9548  0.0127  -3.1764   0.0000   0.0000   0.0000  -0.0556
  -3.600  -0.1609   0.00875   0.00300  -0.0520  0.9527  0.0144  -3.0344   0.0000   0.0000   0.0000  -0.0775
  -3.500  -0.1501   0.00845   0.00267  -0.0518  0.9502  0.0234  -2.9513   0.0000   0.0000   0.0000  -0.0994
  -3.400  -0.1410   0.00818   0.00250  -0.0514  0.9474  0.0430  -2.8323   0.0000   0.0000   0.0000  -0.1188
  -3.300  -0.1315   0.00796   0.00238  -0.0511  0.9443  0.0653  -2.7038   0.0000   0.0000   0.0000  -0.1427
  -3.200  -0.1220   0.00774   0.00228  -0.0508  0.9412  0.0921  -2.5783   0.0000   0.0000   0.0000  -0.1710
  -3.100  -0.1125   0.00750   0.00219  -0.0505  0.9381  0.1273  -2.4517   0.0000   0.0000   0.0000  -0.2040
  -3.000  -0.1026   0.00732   0.00211  -0.0503  0.9352  0.1563  -2.3234   0.0000   0.0000   0.0000  -0.2447
  -2.900  -0.0924   0.00720   0.00203  -0.0501  0.9323  0.1752  -2.1933   0.0000   0.0000   0.0000  -0.2966
  -2.800  -0.0823   0.00705   0.00197  -0.0499  0.9295  0.2011  -2.0653   0.0000   0.0000   0.0000  -0.3611
  -2.700  -0.0718   0.00696   0.00191  -0.0497  0.9266  0.2186  -1.9363   0.0000   0.0000   0.0000  -0.4479
  -2.600  -0.0615   0.00682   0.00186  -0.0496  0.9239  0.2469  -1.8112   0.0000   0.0000   0.0000  -0.5617
  -2.500  -0.0512   0.00672   0.00181  -0.0494  0.9217  0.2667  -1.6877   0.0000   0.0000   0.0000  -0.7218
  -2.400  -0.0412   0.00657   0.00176  -0.0492  0.9191  0.2961  -1.5688   0.0000   0.0000   0.0000  -0.9527
  -2.300  -0.0309   0.00647   0.00167  -0.0490  0.9162  0.3188  -1.4554   0.0000   0.0000   0.0000  -1.3444
  -2.200  -0.0210   0.00632   0.00163  -0.0488  0.9130  0.3510  -1.3410   0.0000   0.0000   0.0000  -2.0811
  -2.100  -0.0114   0.00613   0.00158  -0.0485  0.9097  0.3954  -1.2303   0.0000   0.0000   0.0000  -4.0168
  -2.000  -0.0019   0.00594   0.00154  -0.0482  0.9063  0.4428  -1.1221   0.0000   0.0000   0.0000  -25.9104
  -1.900   0.0078   0.00578   0.00151  -0.0479  0.9031  0.4865  -1.0155   0.0000   0.0000   0.0000   6.3815
  -1.800   0.0178   0.00566   0.00148  -0.0476  0.9000  0.5230  -0.9100   0.0000   0.0000   0.0000   2.9311
  -1.700   0.0278   0.00554   0.00145  -0.0473  0.8968  0.5575  -0.8072   0.0000   0.0000   0.0000   1.9600
  -1.600   0.0382   0.00547   0.00143  -0.0471  0.8935  0.5816  -0.7048   0.0000   0.0000   0.0000   1.4874
  -1.500   0.0482   0.00535   0.00141  -0.0468  0.8911  0.6141  -0.6073   0.0000   0.0000   0.0000   1.2258
  -1.400   0.0579   0.00522   0.00140  -0.0465  0.8881  0.6469  -0.5468   0.0000   0.0000   0.0000   1.0552
  -1.200   0.0774   0.00502   0.00136  -0.0457  0.8803  0.7064  -0.4641   0.0000   0.0000   0.0000   0.8422
  -1.100   0.0874   0.00495   0.00132  -0.0454  0.8758  0.7299  -0.4335   0.0000   0.0000   0.0000   0.7703
  -1.000   0.0968   0.00485   0.00130  -0.0449  0.8714  0.7600  -0.4040   0.0000   0.0000   0.0000   0.7142
  -0.900   0.1063   0.00478   0.00129  -0.0443  0.8671  0.7864  -0.3746   0.0000   0.0000   0.0000   0.6678
  -0.800   0.1160   0.00473   0.00127  -0.0439  0.8624  0.8111  -0.3452   0.0000   0.0000   0.0000   0.6286
  -0.700   0.1259   0.00468   0.00127  -0.0435  0.8585  0.8316  -0.3440   0.0000   0.0000   0.0000   0.5956
  -0.600   0.1360   0.00463   0.00127  -0.0432  0.8559  0.8504  -0.3532   0.0000   0.0000   0.0000   0.5672
  -0.500   0.1459   0.00457   0.00127  -0.0427  0.8525  0.8702  -0.3624   0.0000   0.0000   0.0000   0.5427
  -0.400   0.1560   0.00453   0.00126  -0.0423  0.8483  0.8917  -0.3716   0.0000   0.0000   0.0000   0.5212
  -0.300   0.1665   0.00448   0.00125  -0.0420  0.8435  0.9129  -0.3812   0.0000   0.0000   0.0000   0.5019
  -0.200   0.1784   0.00446   0.00123  -0.0420  0.8384  0.9301  -0.3929   0.0000   0.0000   0.0000   0.4849
  -0.100   0.1917   0.00445   0.00121  -0.0423  0.8331  0.9446  -0.4056   0.0000   0.0000   0.0000   0.4702
   0.000   0.2057   0.00446   0.00119  -0.0428  0.8280  0.9547  -0.4188   0.0000   0.0000   0.0000   0.4576
   0.100   0.2217   0.00447   0.00117  -0.0438  0.8227  0.9647  -0.4331   0.0000   0.0000   0.0000   0.4469
   0.200   0.2374   0.00447   0.00116  -0.0448  0.8188  0.9739  -0.4473   0.0000   0.0000   0.0000   0.4377
   0.300   0.2544   0.00446   0.00114  -0.0460  0.8141  0.9809  -0.4630   0.0000   0.0000   0.0000   0.4300
   0.400   0.2693   0.00446   0.00113  -0.0468  0.8078  0.9872  -0.4791   0.0000   0.0000   0.0000   0.4228
   0.500   0.2859   0.00446   0.00110  -0.0479  0.8003  0.9915  -0.4965   0.0000   0.0000   0.0000   0.4167
   0.600   0.3018   0.00448   0.00108  -0.0489  0.7928  0.9961  -0.5134   0.0000   0.0000   0.0000   0.4112
   0.700   0.3178   0.00450   0.00106  -0.0500  0.7852  1.0000  -0.5305   0.0000   0.0000   0.0000   0.4063
   0.800   0.3278   0.00453   0.00105  -0.0497  0.7779  1.0000  -0.5438   0.0000   0.0000   0.0000   0.4006
   0.900   0.3380   0.00454   0.00105  -0.0495  0.7711  1.0000  -0.5594   0.0000   0.0000   0.0000   0.3953
   1.000   0.3480   0.00456   0.00104  -0.0492  0.7614  1.0000  -0.5749   0.0000   0.0000   0.0000   0.3903
   1.100   0.3577   0.00460   0.00102  -0.0489  0.7497  1.0000  -0.5903   0.0000   0.0000   0.0000   0.3854
   1.200   0.3671   0.00466   0.00101  -0.0485  0.7369  1.0000  -0.6056   0.0000   0.0000   0.0000   0.3807
   1.300   0.3774   0.00468   0.00102  -0.0483  0.7291  1.0000  -0.6215   0.0000   0.0000   0.0000   0.3765
   1.400   0.3876   0.00471   0.00102  -0.0481  0.7195  1.0000  -0.6374   0.0000   0.0000   0.0000   0.3725
   1.500   0.3974   0.00476   0.00102  -0.0477  0.7068  1.0000  -0.6532   0.0000   0.0000   0.0000   0.3686
   1.600   0.4068   0.00485   0.00103  -0.0473  0.6909  1.0000  -0.6705   0.0000   0.0000   0.0000   0.3648
   1.700   0.4170   0.00489   0.00104  -0.0471  0.6799  1.0000  -0.6900   0.0000   0.0000   0.0000   0.3614
   1.800   0.4269   0.00495   0.00105  -0.0468  0.6650  1.0000  -0.7093   0.0000   0.0000   0.0000   0.3580
   1.900   0.4363   0.00506   0.00106  -0.0464  0.6480  1.0000  -0.7283   0.0000   0.0000   0.0000   0.3547
   2.000   0.4463   0.00511   0.00109  -0.0462  0.6366  1.0000  -0.7480   0.0000   0.0000   0.0000   0.3518
   2.100   0.4566   0.00516   0.00111  -0.0460  0.6260  1.0000  -0.7680   0.0000   0.0000   0.0000   0.3489
   2.200   0.4665   0.00524   0.00114  -0.0458  0.6129  1.0000  -0.7916   0.0000   0.0000   0.0000   0.3462
   2.300   0.4760   0.00536   0.00118  -0.0454  0.5958  1.0000  -0.8155   0.0000   0.0000   0.0000   0.3434
   2.400   0.4862   0.00541   0.00121  -0.0452  0.5842  1.0000  -0.8406   0.0000   0.0000   0.0000   0.3410
   2.500   0.4962   0.00550   0.00124  -0.0450  0.5693  1.0000  -0.8657   0.0000   0.0000   0.0000   0.3386
   2.600   0.5057   0.00563   0.00128  -0.0447  0.5506  1.0000  -0.8902   0.0000   0.0000   0.0000   0.3362
   2.700   0.5158   0.00571   0.00132  -0.0445  0.5372  1.0000  -0.9157   0.0000   0.0000   0.0000   0.3340
   2.800   0.5262   0.00577   0.00135  -0.0443  0.5263  1.0000  -0.9416   0.0000   0.0000   0.0000   0.3319
   2.900   0.5362   0.00586   0.00140  -0.0441  0.5122  1.0000  -0.9673   0.0000   0.0000   0.0000   0.3299
   3.000   0.5458   0.00600   0.00145  -0.0438  0.4941  1.0000  -0.9985   0.0000   0.0000   0.0000   0.3278
   3.100   0.5561   0.00607   0.00149  -0.0436  0.4822  1.0000  -1.0325   0.0000   0.0000   0.0000   0.3260
   3.200   0.5660   0.00618   0.00155  -0.0434  0.4649  1.0000  -1.0661   0.0000   0.0000   0.0000   0.3242
   3.300   0.5755   0.00635   0.00162  -0.0431  0.4419  1.0000  -1.1016   0.0000   0.0000   0.0000   0.3223
   3.400   0.5858   0.00643   0.00168  -0.0430  0.4306  1.0000  -1.1494   0.0000   0.0000   0.0000   0.3207
   3.500   0.5959   0.00653   0.00173  -0.0428  0.4165  1.0000  -1.1971   0.0000   0.0000   0.0000   0.3191
   3.600   0.6056   0.00669   0.00181  -0.0426  0.3970  1.0000  -1.2442   0.0000   0.0000   0.0000   0.3175
   3.700   0.6158   0.00679   0.00187  -0.0424  0.3837  1.0000  -1.2933   0.0000   0.0000   0.0000   0.3160
   3.800   0.6257   0.00692   0.00194  -0.0422  0.3663  1.0000  -1.3422   0.0000   0.0000   0.0000   0.3145
   3.900   0.6353   0.00711   0.00202  -0.0420  0.3434  1.0000  -1.3904   0.0000   0.0000   0.0000   0.3130
   4.000   0.6456   0.00719   0.00209  -0.0418  0.3326  1.0000  -1.4428   0.0000   0.0000   0.0000   0.3117
   4.100   0.6556   0.00732   0.00216  -0.0417  0.3185  1.0000  -1.5177   0.0000   0.0000   0.0000   0.3104
   4.200   0.6654   0.00749   0.00225  -0.0415  0.3004  1.0000  -1.5924   0.0000   0.0000   0.0000   0.3091
   4.300   0.6757   0.00759   0.00233  -0.0413  0.2904  1.0000  -1.6706   0.0000   0.0000   0.0000   0.3078
   4.400   0.6857   0.00773   0.00241  -0.0412  0.2756  1.0000  -1.7630   0.0000   0.0000   0.0000   0.3066
   4.500   0.6951   0.00794   0.00256  -0.0409  0.2523  1.0000  -1.8834   0.0000   0.0000   0.0000   0.3054
   4.600   0.7052   0.00808   0.00264  -0.0408  0.2387  1.0000  -2.0181   0.0000   0.0000   0.0000   0.3043
   4.700   0.7144   0.00832   0.00276  -0.0405  0.2155  1.0000  -2.1507   0.0000   0.0000   0.0000   0.3031
   4.800   0.7244   0.00847   0.00285  -0.0404  0.2007  1.0000  -2.2914   0.0000   0.0000   0.0000   0.3020
   4.900   0.7339   0.00868   0.00296  -0.0402  0.1832  1.0000  -2.4315   0.0000   0.0000   0.0000   0.3009
   5.000   0.7439   0.00883   0.00307  -0.0400  0.1699  1.0000  -2.5780   0.0000   0.0000   0.0000   0.2999
   5.100   0.7541   0.00896   0.00318  -0.0399  0.1610  1.0000  -2.7283   0.0000   0.0000   0.0000   0.2989
   5.200   0.7637   0.00915   0.00329  -0.0397  0.1481  1.0000  -2.8778   0.0000   0.0000   0.0000   0.2979
   5.300   0.7737   0.00931   0.00341  -0.0395  0.1353  1.0000  -3.0317   0.0000   0.0000   0.0000   0.2969
   5.400   0.7838   0.00944   0.00353  -0.0394  0.1276  1.0000  -3.1901   0.0000   0.0000   0.0000   0.2960
   5.500   0.7934   0.00965   0.00366  -0.0392  0.1163  1.0000  -3.3468   0.0000   0.0000   0.0000   0.2951
   5.600   0.8033   0.00982   0.00379  -0.0390  0.1041  1.0000  -3.5075   0.0000   0.0000   0.0000   0.2941
   5.700   0.8134   0.00996   0.00392  -0.0389  0.0975  1.0000  -3.6731   0.0000   0.0000   0.0000   0.2933
   5.800   0.8229   0.01018   0.00407  -0.0386  0.0872  1.0000  -3.8359   0.0000   0.0000   0.0000   0.2924
   5.900   0.8327   0.01036   0.00421  -0.0385  0.0762  1.0000  -4.0025   0.0000   0.0000   0.0000   0.2915
   6.000   0.8426   0.01053   0.00436  -0.0383  0.0696  1.0000  -4.1730   0.0000   0.0000   0.0000   0.2907
   6.100   0.8518   0.01080   0.00454  -0.0380  0.0587  1.0000  -4.3380   0.0000   0.0000   0.0000   0.2898
   6.200   0.8616   0.01098   0.00471  -0.0379  0.0503  1.0000  -4.5091   0.0000   0.0000   0.0000   0.2890
   6.300   0.8705   0.01130   0.00493  -0.0376  0.0394  1.0000  -4.6711   0.0000   0.0000   0.0000   0.2881
   6.400   0.8799   0.01155   0.00517  -0.0373  0.0307  1.0000  -4.8326   0.0000   0.0000   0.0000   0.2872
   6.500   0.8872   0.01222   0.00580  -0.0366  0.0187  1.0000  -4.9162   0.0000   0.0000   0.0000   0.2859
   6.600   0.8976   0.01227   0.00585  -0.0365  0.0181  1.0000  -5.1152   0.0000   0.0000   0.0000   0.2853
   6.700   0.9077   0.01240   0.00600  -0.0364  0.0172  1.0000  -5.2987   0.0000   0.0000   0.0000   0.2846
   6.800   0.9175   0.01258   0.00620  -0.0362  0.0161  1.0000  -5.4751   0.0000   0.0000   0.0000   0.2838
   6.900   0.9273   0.01276   0.00639  -0.0360  0.0148  1.0000  -5.6543   0.0000   0.0000   0.0000   0.2831
   7.000   0.9369   0.01296   0.00659  -0.0358  0.0134  1.0000  -5.8324   0.0000   0.0000   0.0000   0.2824
   7.100   0.9461   0.01323   0.00686  -0.0355  0.0115  1.0000  -6.0030   0.0000   0.0000   0.0000   0.2816
   7.200   0.9503   0.01440   0.00826  -0.0342  0.0080  1.0000  -5.9777   0.0000   0.0000   0.0000   0.2800
   7.300   0.9612   0.01438   0.00822  -0.0342  0.0078  1.0000  -6.2225   0.0000   0.0000   0.0000   0.2795
   7.400   0.9716   0.01444   0.00826  -0.0341  0.0075  1.0000  -6.4540   0.0000   0.0000   0.0000   0.2789
   7.500   0.9814   0.01461   0.00846  -0.0339  0.0069  1.0000  -6.6538   0.0000   0.0000   0.0000   0.2782
   7.600   0.9903   0.01493   0.00882  -0.0336  0.0062  1.0000  -6.8146   0.0000   0.0000   0.0000   0.2774
   7.700   0.9987   0.01534   0.00929  -0.0331  0.0057  1.0000  -6.9522   0.0000   0.0000   0.0000   0.2766
   7.800   1.0068   0.01580   0.00982  -0.0325  0.0053  1.0000  -7.0814   0.0000   0.0000   0.0000   0.2757
   7.900   1.0146   0.01630   0.01038  -0.0320  0.0050  1.0000  -7.2079   0.0000   0.0000   0.0000   0.2747
   8.000   1.0223   0.01683   0.01099  -0.0314  0.0047  1.0000  -7.3315   0.0000   0.0000   0.0000   0.2738
   8.100   1.0297   0.01740   0.01164  -0.0308  0.0046  1.0000  -7.4516   0.0000   0.0000   0.0000   0.2729
   8.200   1.0371   0.01798   0.01229  -0.0302  0.0044  1.0000  -7.5765   0.0000   0.0000   0.0000   0.2720
   8.300   1.0446   0.01852   0.01291  -0.0296  0.0043  1.0000  -7.7153   0.0000   0.0000   0.0000   0.2711
   8.400   1.0523   0.01903   0.01361  -0.0291  0.0041  1.0000  -7.8699   0.0000   0.0000   0.0000   0.2703
   8.500   1.0603   0.01948   0.01411  -0.0286  0.0039  1.0000  -8.0420   0.0000   0.0000   0.0000   0.2695
   8.600   1.0683   0.01989   0.01457  -0.0282  0.0037  1.0000  -8.2279   0.0000   0.0000   0.0000   0.2688
   8.700   1.0764   0.02030   0.01502  -0.0278  0.0036  1.0000  -8.4202   0.0000   0.0000   0.0000   0.2682
   8.800   1.0841   0.02074   0.01551  -0.0274  0.0034  1.0000  -8.6078   0.0000   0.0000   0.0000   0.2675
   8.900   1.0914   0.02127   0.01610  -0.0269  0.0033  1.0000  -8.7778   0.0000   0.0000   0.0000   0.2667
   9.000   1.0980   0.02193   0.01683  -0.0263  0.0032  1.0000  -8.9186   0.0000   0.0000   0.0000   0.2659
   9.100   1.1040   0.02269   0.01769  -0.0256  0.0031  1.0000  -9.0343   0.0000   0.0000   0.0000   0.2650
   9.200   1.1098   0.02350   0.01860  -0.0249  0.0031  1.0000  -9.1430   0.0000   0.0000   0.0000   0.2641
   9.300   1.1151   0.02436   0.01956  -0.0241  0.0030  1.0000  -9.2443   0.0000   0.0000   0.0000   0.2633
   9.400   1.1202   0.02527   0.02057  -0.0234  0.0030  1.0000  -9.3373   0.0000   0.0000   0.0000   0.2624
   9.500   1.1247   0.02622   0.02163  -0.0226  0.0029  1.0000  -9.4212   0.0000   0.0000   0.0000   0.2615
   9.600   1.1287   0.02723   0.02274  -0.0217  0.0029  1.0000  -9.4955   0.0000   0.0000   0.0000   0.2605
   9.700   1.1322   0.02828   0.02391  -0.0209  0.0028  1.0000  -9.5596   0.0000   0.0000   0.0000   0.2596
   9.800   1.1351   0.02938   0.02513  -0.0199  0.0028  1.0000  -9.6134   0.0000   0.0000   0.0000   0.2586
   9.900   1.1372   0.03052   0.02640  -0.0190  0.0028  1.0000  -9.6568   0.0000   0.0000   0.0000   0.2576
  10.000   1.1387   0.03171   0.02770  -0.0180  0.0027  1.0000  -9.6903   0.0000   0.0000   0.0000   0.2566
  10.100   1.1394   0.03292   0.02904  -0.0169  0.0027  1.0000  -9.7146   0.0000   0.0000   0.0000   0.2556
  10.200   1.1393   0.03415   0.03039  -0.0158  0.0027  1.0000  -9.7309   0.0000   0.0000   0.0000   0.2545
  10.300   1.1383   0.03539   0.03175  -0.0147  0.0027  1.0000  -9.7403   0.0000   0.0000   0.0000   0.2534
  10.400   1.1364   0.03662   0.03308  -0.0134  0.0027  1.0000  -9.7436   0.0000   0.0000   0.0000   0.2522
  10.500   1.1330   0.03774   0.03430  -0.0119  0.0027  1.0000  -9.7413   0.0000   0.0000   0.0000   0.2509
  10.600   1.1287   0.03884   0.03550  -0.0105  0.0027  1.0000  -9.7353   0.0000   0.0000   0.0000   0.2495
  10.700   1.1240   0.03997   0.03672  -0.0091  0.0027  1.0000  -9.7263   0.0000   0.0000   0.0000   0.2482
  10.800   1.1189   0.04114   0.03798  -0.0078  0.0027  1.0000  -9.7146   0.0000   0.0000   0.0000   0.2470
  10.900   1.1135   0.04237   0.03929  -0.0068  0.0027  1.0000  -9.7002   0.0000   0.0000   0.0000   0.2459
  11.000   1.1080   0.04368   0.04068  -0.0059  0.0027  1.0000  -9.6832   0.0000   0.0000   0.0000   0.2451
  11.100   1.1021   0.04503   0.04212  -0.0053  0.0027  1.0000  -9.6634   0.0000   0.0000   0.0000   0.2444
  11.200   1.0960   0.04648   0.04364  -0.0048  0.0027  1.0000  -9.6407   0.0000   0.0000   0.0000   0.2438
  11.300   1.0899   0.04804   0.04527  -0.0045  0.0027  1.0000  -9.6149   0.0000   0.0000   0.0000   0.2435
  11.400   1.0835   0.04970   0.04702  -0.0046  0.0027  1.0000  -9.5857   0.0000   0.0000   0.0000   0.2434
  11.500   1.0771   0.05149   0.04888  -0.0048  0.0027  1.0000  -9.5532   0.0000   0.0000   0.0000   0.2435
  11.600   1.0704   0.05338   0.05084  -0.0053  0.0027  1.0000  -9.5169   0.0000   0.0000   0.0000   0.2438
  11.700   1.0635   0.05539   0.05292  -0.0061  0.0027  1.0000  -9.4769   0.0000   0.0000   0.0000   0.2444
  11.800   1.0567   0.05757   0.05517  -0.0071  0.0027  1.0000  -9.4325   0.0000   0.0000   0.0000   0.2452
  11.900   1.0499   0.05994   0.05761  -0.0084  0.0027  1.0000  -9.3830   0.0000   0.0000   0.0000   0.2464
  12.000   1.0430   0.06252   0.06026  -0.0101  0.0028  1.0000  -9.3277   0.0000   0.0000   0.0000   0.2479
  12.100   1.0361   0.06530   0.06311  -0.0120  0.0028  1.0000  -9.2659   0.0000   0.0000   0.0000   0.2496
  12.200   1.0292   0.06828   0.06615  -0.0141  0.0028  1.0000  -9.1968   0.0000   0.0000   0.0000   0.2516
  12.300   1.0223   0.07148   0.06941  -0.0164  0.0028  1.0000  -9.1191   0.0000   0.0000   0.0000   0.2539
  12.400   1.0152   0.07493   0.07292  -0.0190  0.0028  1.0000  -9.0303   0.0000   0.0000   0.0000   0.2564
  12.500   1.0079   0.07863   0.07668  -0.0218  0.0028  1.0000  -8.9283   0.0000   0.0000   0.0000   0.2592
  12.600   1.0003   0.08257   0.08067  -0.0247  0.0029  1.0000  -8.8096   0.0000   0.0000   0.0000   0.2621
  12.700   0.9922   0.08678   0.08494  -0.0276  0.0029  1.0000  -8.6685   0.0000   0.0000   0.0000   0.2652
  12.800   0.9832   0.09135   0.08956  -0.0306  0.0029  1.0000  -8.4947   0.0000   0.0000   0.0000   0.2685
  12.900   0.9726   0.09631   0.09457  -0.0337  0.0030  1.0000  -8.2719   0.0000   0.0000   0.0000   0.2720
  13.000   0.9587   0.10230   0.10061  -0.0371  0.0031  1.0000  -7.9427   0.0000   0.0000   0.0000   0.2761
  13.100   0.9335   0.11182   0.11019  -0.0419  0.0033  1.0000  -7.2387   0.0000   0.0000   0.0000   0.2826
  13.200   0.8927   0.12645   0.12480  -0.0480  0.0038  1.0000  -5.8603   0.0000   0.0000   0.0000   0.2920
  13.300   0.8798   0.13264   0.13096  -0.0507  0.0040  1.0000  -5.3915   0.0000   0.0000   0.0000   0.2960
  13.400   0.8717   0.13742   0.13562  -0.0528  0.0041  1.0000  -5.0741   0.0000   0.0000   0.0000   0.2991
  13.500   0.8659   0.14151   0.13969  -0.0547  0.0042  1.0000  -4.8289   0.0000   0.0000   0.0000   0.3017
  13.600   0.8615   0.14518   0.14336  -0.0564  0.0043  1.0000  -4.6257   0.0000   0.0000   0.0000   0.3039
  13.700   0.8581   0.14857   0.14674  -0.0579  0.0044  1.0000  -4.4501   0.0000   0.0000   0.0000   0.3060
  13.800   0.8555   0.15175   0.14991  -0.0593  0.0045  1.0000  -4.2945   0.0000   0.0000   0.0000   0.3078
  13.900   0.8534   0.15477   0.15291  -0.0607  0.0046  1.0000  -4.1543   0.0000   0.0000   0.0000   0.3096
  14.000   0.8519   0.15765   0.15579  -0.0620  0.0047  1.0000  -4.0263   0.0000   0.0000   0.0000   0.3112
  14.100   0.8507   0.16042   0.15855  -0.0633  0.0047  1.0000  -3.9082   0.0000   0.0000   0.0000   0.3127
  14.200   0.8499   0.16309   0.16121  -0.0645  0.0048  1.0000  -3.7982   0.0000   0.0000   0.0000   0.3142
  14.300   0.8494   0.16568   0.16380  -0.0656  0.0049  1.0000  -3.6951   0.0000   0.0000   0.0000   0.3155
  14.400   0.8491   0.16819   0.16631  -0.0668  0.0050  1.0000  -3.5980   0.0000   0.0000   0.0000   0.3168
  14.500   0.8491   0.17062   0.16873  -0.0679  0.0052  1.0000  -3.5062   0.0000   0.0000   0.0000   0.3181
  14.600   0.8492   0.17288   0.17098  -0.0689  0.0053  1.0000  -3.4195   0.0000   0.0000   0.0000   0.3192
  14.700   0.8496   0.17500   0.17310  -0.0700  0.0054  1.0000  -3.3373   0.0000   0.0000   0.0000   0.3204
  14.800   0.8501   0.17707   0.17517  -0.0710  0.0056  1.0000  -3.2587   0.0000   0.0000   0.0000   0.3215
  14.900   0.8506   0.17913   0.17723  -0.0720  0.0058  1.0000  -3.1833   0.0000   0.0000   0.0000   0.3225
  15.000   0.8513   0.18120   0.17929  -0.0730  0.0060  1.0000  -3.1104   0.0000   0.0000   0.0000   0.3235
  15.100   0.8519   0.18329   0.18138  -0.0740  0.0062  1.0000  -3.0385   0.0000   0.0000   0.0000   0.3246
  15.200   0.8522   0.18545   0.18354  -0.0750  0.0065  1.0000  -2.9618   0.0000   0.0000   0.0000   0.3256
  15.300   0.8441   0.19025   0.18832  -0.0766  0.0079  1.0000  -2.6168   0.0000   0.0000   0.0000   0.3284
  15.400   0.8457   0.19224   0.19030  -0.0774  0.0079  1.0000  -2.5807   0.0000   0.0000   0.0000   0.3291
  15.500   0.8474   0.19421   0.19227  -0.0783  0.0079  1.0000  -2.5485   0.0000   0.0000   0.0000   0.3298
  15.600   0.8492   0.19616   0.19422  -0.0791  0.0079  1.0000  -2.5186   0.0000   0.0000   0.0000   0.3305
  15.700   0.8511   0.19812   0.19617  -0.0800  0.0079  1.0000  -2.4907   0.0000   0.0000   0.0000   0.3312
  15.800   0.8530   0.20007   0.19812  -0.0808  0.0079  1.0000  -2.4642   0.0000   0.0000   0.0000   0.3319
  15.900   0.8550   0.20202   0.20007  -0.0817  0.0079  1.0000  -2.4390   0.0000   0.0000   0.0000   0.3325
  16.000   0.8570   0.20397   0.20202  -0.0825  0.0079  1.0000  -2.4149   0.0000   0.0000   0.0000   0.3332
  16.100   0.8590   0.20592   0.20398  -0.0833  0.0079  1.0000  -2.3919   0.0000   0.0000   0.0000   0.3338
  16.200   0.8611   0.20788   0.20593  -0.0842  0.0079  1.0000  -2.3698   0.0000   0.0000   0.0000   0.3345
  16.300   0.8631   0.20984   0.20789  -0.0850  0.0079  1.0000  -2.3486   0.0000   0.0000   0.0000   0.3351
  16.400   0.8652   0.21180   0.20985  -0.0858  0.0079  1.0000  -2.3282   0.0000   0.0000   0.0000   0.3357
  16.500   0.8674   0.21376   0.21181  -0.0866  0.0079  1.0000  -2.3086   0.0000   0.0000   0.0000   0.3363
  16.600   0.8695   0.21573   0.21378  -0.0875  0.0079  1.0000  -2.2896   0.0000   0.0000   0.0000   0.3369
  16.700   0.8716   0.21770   0.21575  -0.0883  0.0079  1.0000  -2.2713   0.0000   0.0000   0.0000   0.3375
  16.800   0.8738   0.21967   0.21772  -0.0891  0.0079  1.0000  -2.2536   0.0000   0.0000   0.0000   0.3380
  16.900   0.8760   0.22165   0.21970  -0.0899  0.0079  1.0000  -2.2366   0.0000   0.0000   0.0000   0.3386
  17.000   0.8781   0.22363   0.22168  -0.0907  0.0079  1.0000  -2.2201   0.0000   0.0000   0.0000   0.3392
  17.100   0.8803   0.22562   0.22367  -0.0916  0.0079  1.0000  -2.2042   0.0000   0.0000   0.0000   0.3397
  17.200   0.8825   0.22761   0.22565  -0.0924  0.0079  1.0000  -2.1888   0.0000   0.0000   0.0000   0.3403
  17.300   0.8847   0.22960   0.22764  -0.0932  0.0079  1.0000  -2.1740   0.0000   0.0000   0.0000   0.3408
  17.400   0.8869   0.23159   0.22964  -0.0940  0.0079  1.0000  -2.1596   0.0000   0.0000   0.0000   0.3414
  17.500   0.8891   0.23360   0.23173  -0.0948  0.0078  1.0000  -2.1456   0.0000   0.0000   0.0000   0.3419
  17.600   0.8913   0.23560   0.23373  -0.0956  0.0078  1.0000  -2.1322   0.0000   0.0000   0.0000   0.3424
  17.700   0.8935   0.23760   0.23574  -0.0964  0.0078  1.0000  -2.1192   0.0000   0.0000   0.0000   0.3429
  17.800   0.8957   0.23961   0.23774  -0.0972  0.0078  1.0000  -2.1068   0.0000   0.0000   0.0000   0.3435
  17.900   0.8979   0.24162   0.23975  -0.0980  0.0078  1.0000  -2.0948   0.0000   0.0000   0.0000   0.3440
  18.000   0.9001   0.24363   0.24177  -0.0988  0.0078  1.0000  -2.0832   0.0000   0.0000   0.0000   0.3445
  18.100   0.9023   0.24564   0.24378  -0.0996  0.0078  1.0000  -2.0721   0.0000   0.0000   0.0000   0.3450
  18.200   0.9045   0.24766   0.24580  -0.1004  0.0078  1.0000  -2.0614   0.0000   0.0000   0.0000   0.3455
  18.300   0.9067   0.24968   0.24781  -0.1012  0.0078  1.0000  -2.0512   0.0000   0.0000   0.0000   0.3460
  18.400   0.9089   0.25169   0.24983  -0.1020  0.0078  1.0000  -2.0415   0.0000   0.0000   0.0000   0.3464
  18.500   0.9111   0.25371   0.25185  -0.1028  0.0077  1.0000  -2.0320   0.0000   0.0000   0.0000   0.3469
  18.600   0.9133   0.25572   0.25386  -0.1036  0.0077  1.0000  -2.0230   0.0000   0.0000   0.0000   0.3474
  18.700   0.9154   0.25773   0.25588  -0.1045  0.0077  1.0000  -2.0146   0.0000   0.0000   0.0000   0.3479
  18.800   0.9176   0.25974   0.25789  -0.1053  0.0077  1.0000  -2.0067   0.0000   0.0000   0.0000   0.3484
  18.900   0.9198   0.26174   0.25989  -0.1061  0.0077  1.0000  -1.9995   0.0000   0.0000   0.0000   0.3488
  19.000   0.9220   0.26373   0.26188  -0.1069  0.0076  1.0000  -1.9932   0.0000   0.0000   0.0000   0.3493
  19.100   0.9242   0.26571   0.26386  -0.1077  0.0076  1.0000  -1.9878   0.0000   0.0000   0.0000   0.3497
  19.200   0.9264   0.26766   0.26582  -0.1085  0.0076  1.0000  -1.9830   0.0000   0.0000   0.0000   0.3502
  19.300   0.9287   0.26960   0.26775  -0.1093  0.0075  1.0000  -1.9789   0.0000   0.0000   0.0000   0.3507
  19.400   0.9311   0.27149   0.26965  -0.1101  0.0074  1.0000  -1.9763   0.0000   0.0000   0.0000   0.3511
  19.500   0.9334   0.27337   0.27153  -0.1109  0.0073  1.0000  -1.9715   0.0000   0.0000   0.0000   0.3516
  19.600   0.9359   0.27526   0.27342  -0.1118  0.0071  1.0000  -1.9640   0.0000   0.0000   0.0000   0.3521
  19.700   0.9384   0.27719   0.27535  -0.1127  0.0069  1.0000  -1.9546   0.0000   0.0000   0.0000   0.3526
  19.800   0.9408   0.27918   0.27734  -0.1136  0.0067  1.0000  -1.9431   0.0000   0.0000   0.0000   0.3530
  19.900   0.9431   0.28125   0.27941  -0.1144  0.0065  1.0000  -1.9307   0.0000   0.0000   0.0000   0.3535
  20.000   0.9453   0.28336   0.28152  -0.1152  0.0063  1.0000  -1.9189   0.0000   0.0000   0.0000   0.3539
  20.100   0.9473   0.28549   0.28366  -0.1159  0.0061  1.0000  -1.9080   0.0000   0.0000   0.0000   0.3543
  20.200   0.9493   0.28764   0.28581  -0.1167  0.0059  1.0000  -1.8982   0.0000   0.0000   0.0000   0.3548
  20.300   0.9511   0.28980   0.28797  -0.1175  0.0058  1.0000  -1.8893   0.0000   0.0000   0.0000   0.3552
  20.400   0.9529   0.29196   0.29013  -0.1182  0.0056  1.0000  -1.8812   0.0000   0.0000   0.0000   0.3556
  20.500   0.9546   0.29412   0.29230  -0.1190  0.0055  1.0000  -1.8737   0.0000   0.0000   0.0000   0.3561
  20.600   0.9562   0.29629   0.29447  -0.1197  0.0054  1.0000  -1.8668   0.0000   0.0000   0.0000   0.3565
  20.700   0.9578   0.29846   0.29665  -0.1205  0.0052  1.0000  -1.8603   0.0000   0.0000   0.0000   0.3569
  20.800   0.9594   0.30064   0.29882  -0.1212  0.0051  1.0000  -1.8542   0.0000   0.0000   0.0000   0.3573
  20.900   0.9609   0.30282   0.30100  -0.1219  0.0050  1.0000  -1.8484   0.0000   0.0000   0.0000   0.3578
  21.000   0.9623   0.30500   0.30319  -0.1226  0.0049  1.0000  -1.8428   0.0000   0.0000   0.0000   0.3582
  21.100   0.9637   0.30718   0.30537  -0.1234  0.0048  1.0000  -1.8375   0.0000   0.0000   0.0000   0.3586
  21.200   0.9650   0.30936   0.30756  -0.1241  0.0047  1.0000  -1.8323   0.0000   0.0000   0.0000   0.3590
  21.300   0.9662   0.31154   0.30974  -0.1248  0.0046  1.0000  -1.8273   0.0000   0.0000   0.0000   0.3594
  21.400   0.9674   0.31373   0.31193  -0.1255  0.0045  1.0000  -1.8224   0.0000   0.0000   0.0000   0.3599
  21.500   0.9685   0.31591   0.31412  -0.1262  0.0045  1.0000  -1.8175   0.0000   0.0000   0.0000   0.3603
  21.600   0.9695   0.31809   0.31630  -0.1269  0.0044  1.0000  -1.8128   0.0000   0.0000   0.0000   0.3607
  21.700   0.9704   0.32027   0.31848  -0.1275  0.0043  1.0000  -1.8080   0.0000   0.0000   0.0000   0.3611
  21.800   0.9712   0.32244   0.32066  -0.1282  0.0042  1.0000  -1.8032   0.0000   0.0000   0.0000   0.3615
  21.900   0.9720   0.32461   0.32284  -0.1288  0.0042  1.0000  -1.7984   0.0000   0.0000   0.0000   0.3620
  22.000   0.9726   0.32677   0.32500  -0.1295  0.0041  1.0000  -1.7934   0.0000   0.0000   0.0000   0.3624
  22.100   0.9731   0.32892   0.32716  -0.1301  0.0040  1.0000  -1.7883   0.0000   0.0000   0.0000   0.3628
  22.200   0.9734   0.33106   0.32930  -0.1307  0.0040  1.0000  -1.7831   0.0000   0.0000   0.0000   0.3633
  22.300   0.9736   0.33319   0.33143  -0.1313  0.0039  1.0000  -1.7775   0.0000   0.0000   0.0000   0.3637
  22.400   0.9736   0.33529   0.33354  -0.1319  0.0039  1.0000  -1.7717   0.0000   0.0000   0.0000   0.3642
  22.500   0.9734   0.33737   0.33563  -0.1325  0.0038  1.0000  -1.7654   0.0000   0.0000   0.0000   0.3646
  22.600   0.9730   0.33942   0.33768  -0.1330  0.0038  1.0000  -1.7585   0.0000   0.0000   0.0000   0.3651
  22.700   0.9722   0.34141   0.33969  -0.1335  0.0037  1.0000  -1.7508   0.0000   0.0000   0.0000   0.3656
  22.800   0.9710   0.34335   0.34163  -0.1339  0.0037  1.0000  -1.7422   0.0000   0.0000   0.0000   0.3661
  22.900   0.9693   0.34520   0.34348  -0.1343  0.0036  1.0000  -1.7321   0.0000   0.0000   0.0000   0.3666
  23.000   0.9668   0.34691   0.34520  -0.1346  0.0036  1.0000  -1.7198   0.0000   0.0000   0.0000   0.3672
  23.100   0.9629   0.34835   0.34666  -0.1348  0.0036  1.0000  -1.7033   0.0000   0.0000   0.0000   0.3678
  23.200   0.8786   0.32829   0.32673  -0.1260  0.0038  1.0000  -1.4484   0.0000   0.0000   0.0000   0.3725
  23.300   0.8748   0.32824   0.32669  -0.1260  0.0037  1.0000  -1.4327   0.0000   0.0000   0.0000   0.3731
  23.400   0.8714   0.32828   0.32674  -0.1261  0.0037  1.0000  -1.4191   0.0000   0.0000   0.0000   0.3737
  23.500   0.8685   0.32838   0.32686  -0.1262  0.0037  1.0000  -1.4141   0.0000   0.0000   0.0000   0.3742
  23.600   0.8657   0.32852   0.32701  -0.1264  0.0036  1.0000  -1.4098   0.0000   0.0000   0.0000   0.3748
  23.700   0.8633   0.32871   0.32720  -0.1265  0.0036  1.0000  -1.4064   0.0000   0.0000   0.0000   0.3753
  23.800   0.8610   0.32893   0.32743  -0.1267  0.0035  1.0000  -1.4035   0.0000   0.0000   0.0000   0.3758
  23.900   0.8589   0.32918   0.32769  -0.1269  0.0035  1.0000  -1.4013   0.0000   0.0000   0.0000   0.3763
  24.000   0.8570   0.32946   0.32798  -0.1272  0.0035  1.0000  -1.3995   0.0000   0.0000   0.0000   0.3768
  24.100   0.8552   0.32976   0.32829  -0.1274  0.0034  1.0000  -1.3981   0.0000   0.0000   0.0000   0.3773
  24.200   0.8535   0.33009   0.32862  -0.1277  0.0034  1.0000  -1.3971   0.0000   0.0000   0.0000   0.3777
  24.300   0.8520   0.33042   0.32896  -0.1279  0.0034  1.0000  -1.3965   0.0000   0.0000   0.0000   0.3782
  24.400   0.8505   0.33078   0.32933  -0.1282  0.0033  1.0000  -1.3962   0.0000   0.0000   0.0000   0.3786
  24.500   0.8492   0.33115   0.32970  -0.1285  0.0033  1.0000  -1.3961   0.0000   0.0000   0.0000   0.3791
  24.600   0.8479   0.33153   0.33009  -0.1287  0.0033  1.0000  -1.3964   0.0000   0.0000   0.0000   0.3795
  24.700   0.8467   0.33193   0.33049  -0.1290  0.0032  1.0000  -1.3968   0.0000   0.0000   0.0000   0.3800
  24.800   0.8455   0.33233   0.33090  -0.1293  0.0032  1.0000  -1.3976   0.0000   0.0000   0.0000   0.3804
  24.900   0.8445   0.33274   0.33132  -0.1296  0.0032  1.0000  -1.3985   0.0000   0.0000   0.0000   0.3808
  25.000   0.8434   0.33316   0.33175  -0.1299  0.0031  1.0000  -1.3996   0.0000   0.0000   0.0000   0.3812
  25.100   0.8425   0.33359   0.33219  -0.1303  0.0031  1.0000  -1.4009   0.0000   0.0000   0.0000   0.3816
  25.200   0.8415   0.33405   0.33268  -0.1306  0.0031  1.0000  -1.3985   0.0000   0.0000   0.0000   0.3821
  25.300   0.8407   0.33449   0.33313  -0.1309  0.0031  1.0000  -1.3998   0.0000   0.0000   0.0000   0.3825
  25.400   0.8398   0.33494   0.33358  -0.1312  0.0030  1.0000  -1.4014   0.0000   0.0000   0.0000   0.3829
  25.500   0.8391   0.33539   0.33404  -0.1315  0.0030  1.0000  -1.4033   0.0000   0.0000   0.0000   0.3833
  25.600   0.8383   0.33585   0.33451  -0.1319  0.0030  1.0000  -1.4054   0.0000   0.0000   0.0000   0.3836
  25.700   0.8376   0.33632   0.33498  -0.1322  0.0029  1.0000  -1.4076   0.0000   0.0000   0.0000   0.3840
  25.800   0.8369   0.33678   0.33545  -0.1326  0.0029  1.0000  -1.4101   0.0000   0.0000   0.0000   0.3844
  25.900   0.8363   0.33725   0.33593  -0.1329  0.0029  1.0000  -1.4127   0.0000   0.0000   0.0000   0.3848
  26.000   0.8357   0.33773   0.33641  -0.1332  0.0029  1.0000  -1.4154   0.0000   0.0000   0.0000   0.3852
  26.100   0.8351   0.33820   0.33689  -0.1336  0.0028  1.0000  -1.4183   0.0000   0.0000   0.0000   0.3855
  26.200   0.8345   0.33868   0.33737  -0.1339  0.0028  1.0000  -1.4214   0.0000   0.0000   0.0000   0.3859
  26.300   0.8340   0.33916   0.33786  -0.1343  0.0028  1.0000  -1.4247   0.0000   0.0000   0.0000   0.3863
  26.400   0.8335   0.33965   0.33835  -0.1346  0.0027  1.0000  -1.4281   0.0000   0.0000   0.0000   0.3866
  26.500   0.8330   0.34013   0.33883  -0.1350  0.0027  1.0000  -1.4320   0.0000   0.0000   0.0000   0.3870
  26.600   0.8325   0.34060   0.33931  -0.1354  0.0027  1.0000  -1.4369   0.0000   0.0000   0.0000   0.3873
  26.700   0.8321   0.34107   0.33979  -0.1357  0.0027  1.0000  -1.4428   0.0000   0.0000   0.0000   0.3877
  26.800   0.8316   0.34154   0.34026  -0.1361  0.0026  1.0000  -1.4497   0.0000   0.0000   0.0000   0.3880
  26.900   0.8312   0.34199   0.34072  -0.1364  0.0026  1.0000  -1.4576   0.0000   0.0000   0.0000   0.3883
  27.000   0.8308   0.34245   0.34118  -0.1368  0.0026  1.0000  -1.4664   0.0000   0.0000   0.0000   0.3886
  27.100   0.8303   0.34289   0.34163  -0.1371  0.0025  1.0000  -1.4761   0.0000   0.0000   0.0000   0.3890
  27.200   0.8299   0.34332   0.34207  -0.1375  0.0025  1.0000  -1.4866   0.0000   0.0000   0.0000   0.3893
  27.300   0.8295   0.34375   0.34250  -0.1378  0.0025  1.0000  -1.4977   0.0000   0.0000   0.0000   0.3896
  27.400   0.8291   0.34417   0.34293  -0.1381  0.0024  1.0000  -1.5091   0.0000   0.0000   0.0000   0.3899
  27.500   0.8287   0.34459   0.34336  -0.1384  0.0024  1.0000  -1.5205   0.0000   0.0000   0.0000   0.3901
  27.600   0.8282   0.34501   0.34378  -0.1388  0.0024  1.0000  -1.5312   0.0000   0.0000   0.0000   0.3904
  27.700   0.8277   0.34543   0.34420  -0.1390  0.0023  1.0000  -1.5404   0.0000   0.0000   0.0000   0.3907
  27.800   0.8272   0.34586   0.34464  -0.1393  0.0023  1.0000  -1.5469   0.0000   0.0000   0.0000   0.3909
  27.900   0.8266   0.34636   0.34515  -0.1396  0.0023  1.0000  -1.5430   0.0000   0.0000   0.0000   0.3912
  28.000   0.8258   0.34690   0.34569  -0.1399  0.0022  1.0000  -1.5310   0.0000   0.0000   0.0000   0.3916
  28.100   0.8246   0.34749   0.34629  -0.1401  0.0022  1.0000  -1.5013   0.0000   0.0000   0.0000   0.3919


