xflr5 v6.61

 Calculated polar for: MH 50

 1 1 Reynolds number fixed          Mach number fixed         

 xtrf =   1.000 (top)        1.000 (bottom)
 Mach =   0.000     Re =     0.563 e 6     Ncrit =   9.000

  alpha     CL        CD       CDp       Cm    Top Xtr Bot Xtr   Cpmin    Chinge    XCp    
 ------- -------- --------- --------- -------- ------- ------- -------- --------- ---------
  -9.000  -0.8333   0.04245   0.03944  -0.0176  1.0000  0.0146  -5.7650   0.0000   0.0000   0.0000   0.2225
  -8.900  -0.8313   0.04088   0.03780  -0.0174  1.0000  0.0145  -5.7335   0.0000   0.0000   0.0000   0.2227
  -8.800  -0.8295   0.03919   0.03601  -0.0172  1.0000  0.0143  -5.7190   0.0000   0.0000   0.0000   0.2229
  -8.700  -0.8283   0.03719   0.03386  -0.0169  1.0000  0.0141  -5.7361   0.0000   0.0000   0.0000   0.2233
  -8.600  -0.8284   0.03468   0.03114  -0.0165  1.0000  0.0139  -5.8060   0.0000   0.0000   0.0000   0.2239
  -8.500  -0.8295   0.03160   0.02773  -0.0157  1.0000  0.0135  -5.9402   0.0000   0.0000   0.0000   0.2248
  -8.400  -0.8288   0.02878   0.02458  -0.0149  1.0000  0.0133  -6.0550   0.0000   0.0000   0.0000   0.2258
  -8.300  -0.8245   0.02692   0.02246  -0.0143  1.0000  0.0133  -6.0907   0.0000   0.0000   0.0000   0.2265
  -8.200  -0.8176   0.02581   0.02120  -0.0139  1.0000  0.0134  -6.0536   0.0000   0.0000   0.0000   0.2269
  -8.100  -0.8102   0.02485   0.02009  -0.0136  1.0000  0.0137  -6.0030   0.0000   0.0000   0.0000   0.2272
  -8.000  -0.8025   0.02389   0.01896  -0.0132  1.0000  0.0139  -5.9572   0.0000   0.0000   0.0000   0.2276
  -7.900  -0.7947   0.02294   0.01784  -0.0128  1.0000  0.0141  -5.9135   0.0000   0.0000   0.0000   0.2280
  -7.800  -0.7864   0.02205   0.01679  -0.0125  1.0000  0.0143  -5.8656   0.0000   0.0000   0.0000   0.2283
  -7.700  -0.7778   0.02124   0.01583  -0.0121  1.0000  0.0145  -5.8100   0.0000   0.0000   0.0000   0.2287
  -7.600  -0.7689   0.02053   0.01497  -0.0118  1.0000  0.0146  -5.7444   0.0000   0.0000   0.0000   0.2290
  -7.500  -0.7596   0.01995   0.01427  -0.0115  1.0000  0.0147  -5.6663   0.0000   0.0000   0.0000   0.2292
  -7.400  -0.7500   0.01951   0.01370  -0.0113  1.0000  0.0149  -5.5768   0.0000   0.0000   0.0000   0.2294
  -7.300  -0.7420   0.01834   0.01246  -0.0110  1.0000  0.0151  -5.5214   0.0000   0.0000   0.0000   0.2298
  -7.200  -0.7329   0.01769   0.01179  -0.0108  1.0000  0.0153  -5.4220   0.0000   0.0000   0.0000   0.2299
  -7.100  -0.7234   0.01725   0.01132  -0.0106  1.0000  0.0155  -5.3093   0.0000   0.0000   0.0000   0.2301
  -7.000  -0.7138   0.01687   0.01092  -0.0104  1.0000  0.0158  -5.1953   0.0000   0.0000   0.0000   0.2302
  -6.900  -0.7040   0.01651   0.01053  -0.0103  1.0000  0.0160  -5.0841   0.0000   0.0000   0.0000   0.2303
  -6.800  -0.6943   0.01616   0.01014  -0.0101  1.0000  0.0163  -4.9748   0.0000   0.0000   0.0000   0.2304
  -6.700  -0.6847   0.01580   0.00975  -0.0098  1.0000  0.0166  -4.8691   0.0000   0.0000   0.0000   0.2306
  -6.600  -0.6750   0.01548   0.00939  -0.0096  1.0000  0.0170  -4.7631   0.0000   0.0000   0.0000   0.2308
  -6.500  -0.6653   0.01521   0.00906  -0.0094  1.0000  0.0174  -4.6568   0.0000   0.0000   0.0000   0.2311
  -6.400  -0.6555   0.01501   0.00880  -0.0091  1.0000  0.0178  -4.5494   0.0000   0.0000   0.0000   0.2313
  -6.300  -0.6471   0.01453   0.00828  -0.0087  1.0000  0.0181  -4.4601   0.0000   0.0000   0.0000   0.2319
  -6.200  -0.6392   0.01411   0.00787  -0.0082  1.0000  0.0185  -4.3609   0.0000   0.0000   0.0000   0.2325
  -6.100  -0.6311   0.01385   0.00761  -0.0077  1.0000  0.0189  -4.2569   0.0000   0.0000   0.0000   0.2332
  -6.000  -0.6233   0.01361   0.00736  -0.0072  1.0000  0.0193  -4.1694   0.0000   0.0000   0.0000   0.2341
  -5.900  -0.6156   0.01338   0.00711  -0.0065  1.0000  0.0197  -4.0869   0.0000   0.0000   0.0000   0.2350
  -5.800  -0.6080   0.01315   0.00687  -0.0059  1.0000  0.0201  -4.0065   0.0000   0.0000   0.0000   0.2360
  -5.700  -0.6004   0.01294   0.00662  -0.0052  1.0000  0.0205  -3.9271   0.0000   0.0000   0.0000   0.2370
  -5.600  -0.5926   0.01275   0.00640  -0.0046  1.0000  0.0209  -3.8471   0.0000   0.0000   0.0000   0.2380
  -5.500  -0.5850   0.01252   0.00614  -0.0040  1.0000  0.0213  -3.7697   0.0000   0.0000   0.0000   0.2391
  -5.400  -0.5780   0.01216   0.00578  -0.0033  1.0000  0.0219  -3.6941   0.0000   0.0000   0.0000   0.2403
  -5.300  -0.5701   0.01196   0.00559  -0.0028  1.0000  0.0225  -3.6057   0.0000   0.0000   0.0000   0.2412
  -5.200  -0.5619   0.01180   0.00543  -0.0023  1.0000  0.0232  -3.5159   0.0000   0.0000   0.0000   0.2421
  -5.100  -0.5490   0.01164   0.00523  -0.0027  0.9992  0.0242  -3.4082   0.0000   0.0000   0.0000   0.2412
  -5.000  -0.5356   0.01138   0.00496  -0.0033  0.9983  0.0252  -3.3042   0.0000   0.0000   0.0000   0.2401
  -4.900  -0.5224   0.01113   0.00472  -0.0038  0.9974  0.0263  -3.1947   0.0000   0.0000   0.0000   0.2389
  -4.800  -0.5088   0.01095   0.00453  -0.0044  0.9964  0.0275  -3.0868   0.0000   0.0000   0.0000   0.2377
  -4.700  -0.4952   0.01076   0.00432  -0.0050  0.9956  0.0289  -2.9827   0.0000   0.0000   0.0000   0.2363
  -4.600  -0.4819   0.01052   0.00409  -0.0055  0.9945  0.0305  -2.8772   0.0000   0.0000   0.0000   0.2349
  -4.500  -0.4680   0.01038   0.00393  -0.0062  0.9937  0.0326  -2.7702   0.0000   0.0000   0.0000   0.2333
  -4.400  -0.4547   0.01016   0.00373  -0.0067  0.9926  0.0352  -2.6756   0.0000   0.0000   0.0000   0.2318
  -4.300  -0.4410   0.00997   0.00355  -0.0073  0.9917  0.0386  -2.5843   0.0000   0.0000   0.0000   0.2299
  -4.200  -0.4272   0.00978   0.00339  -0.0080  0.9908  0.0433  -2.4933   0.0000   0.0000   0.0000   0.2280
  -4.100  -0.4137   0.00957   0.00322  -0.0085  0.9897  0.0505  -2.4035   0.0000   0.0000   0.0000   0.2260
  -4.000  -0.3998   0.00935   0.00306  -0.0092  0.9889  0.0623  -2.3119   0.0000   0.0000   0.0000   0.2236
  -3.900  -0.3862   0.00913   0.00293  -0.0099  0.9879  0.0790  -2.2196   0.0000   0.0000   0.0000   0.2212
  -3.800  -0.3726   0.00893   0.00281  -0.0105  0.9868  0.0973  -2.1263   0.0000   0.0000   0.0000   0.2185
  -3.700  -0.3585   0.00874   0.00271  -0.0113  0.9860  0.1164  -2.0316   0.0000   0.0000   0.0000   0.2154
  -3.600  -0.3451   0.00856   0.00262  -0.0119  0.9847  0.1357  -1.9399   0.0000   0.0000   0.0000   0.2124
  -3.500  -0.3317   0.00839   0.00253  -0.0125  0.9834  0.1574  -1.8494   0.0000   0.0000   0.0000   0.2093
  -3.400  -0.3181   0.00820   0.00244  -0.0131  0.9823  0.1819  -1.7599   0.0000   0.0000   0.0000   0.2056
  -3.300  -0.3055   0.00802   0.00236  -0.0136  0.9805  0.2079  -1.6830   0.0000   0.0000   0.0000   0.2026
  -3.200  -0.2924   0.00783   0.00229  -0.0141  0.9791  0.2373  -1.6053   0.0000   0.0000   0.0000   0.1988
  -3.100  -0.2801   0.00764   0.00222  -0.0144  0.9772  0.2680  -1.5309   0.0000   0.0000   0.0000   0.1954
  -3.000  -0.2678   0.00746   0.00216  -0.0148  0.9754  0.3006  -1.4574   0.0000   0.0000   0.0000   0.1918
  -2.900  -0.2560   0.00727   0.00210  -0.0150  0.9735  0.3345  -1.3862   0.0000   0.0000   0.0000   0.1883
  -2.800  -0.2446   0.00710   0.00205  -0.0152  0.9713  0.3690  -1.3172   0.0000   0.0000   0.0000   0.1850
  -2.700  -0.2335   0.00692   0.00201  -0.0152  0.9691  0.4043  -1.2498   0.0000   0.0000   0.0000   0.1817
  -2.500  -0.2126   0.00659   0.00193  -0.0150  0.9642  0.4765  -1.1270   0.0000   0.0000   0.0000   0.1764
  -2.400  -0.2028   0.00643   0.00190  -0.0148  0.9616  0.5127  -1.0718   0.0000   0.0000   0.0000   0.1743
  -2.300  -0.1932   0.00628   0.00188  -0.0144  0.9589  0.5479  -1.0181   0.0000   0.0000   0.0000   0.1725
  -2.200  -0.1838   0.00613   0.00185  -0.0140  0.9562  0.5816  -0.9654   0.0000   0.0000   0.0000   0.1710
  -2.100  -0.1747   0.00600   0.00183  -0.0135  0.9534  0.6137  -0.9138   0.0000   0.0000   0.0000   0.1697
  -2.000  -0.1656   0.00588   0.00182  -0.0130  0.9507  0.6447  -0.8631   0.0000   0.0000   0.0000   0.1686
  -1.900  -0.1567   0.00576   0.00180  -0.0124  0.9479  0.6744  -0.8156   0.0000   0.0000   0.0000   0.1677
  -1.800  -0.1478   0.00565   0.00179  -0.0118  0.9451  0.7036  -0.7712   0.0000   0.0000   0.0000   0.1670
  -1.700  -0.1390   0.00554   0.00178  -0.0112  0.9424  0.7317  -0.7275   0.0000   0.0000   0.0000   0.1665
  -1.600  -0.1301   0.00544   0.00178  -0.0106  0.9394  0.7591  -0.6843   0.0000   0.0000   0.0000   0.1661
  -1.500  -0.1214   0.00535   0.00179  -0.0098  0.9369  0.7853  -0.6427   0.0000   0.0000   0.0000   0.1663
  -1.400  -0.1127   0.00529   0.00181  -0.0091  0.9337  0.8106  -0.6044   0.0000   0.0000   0.0000   0.1664
  -1.300  -0.1040   0.00525   0.00184  -0.0083  0.9312  0.8335  -0.5668   0.0000   0.0000   0.0000   0.1675
  -1.200  -0.0951   0.00523   0.00187  -0.0076  0.9279  0.8536  -0.5311   0.0000   0.0000   0.0000   0.1674
  -1.100  -0.0861   0.00524   0.00190  -0.0068  0.9251  0.8699  -0.4979   0.0000   0.0000   0.0000   0.1678
  -1.000  -0.0770   0.00525   0.00193  -0.0062  0.9218  0.8832  -0.4684   0.0000   0.0000   0.0000   0.1669
  -0.900  -0.0680   0.00526   0.00194  -0.0055  0.9186  0.8944  -0.4446   0.0000   0.0000   0.0000   0.1666
  -0.800  -0.0589   0.00527   0.00195  -0.0048  0.9153  0.9041  -0.4230   0.0000   0.0000   0.0000   0.1653
  -0.700  -0.0499   0.00529   0.00196  -0.0041  0.9118  0.9124  -0.4031   0.0000   0.0000   0.0000   0.1643
  -0.600  -0.0409   0.00530   0.00197  -0.0034  0.9083  0.9199  -0.3842   0.0000   0.0000   0.0000   0.1630
  -0.500  -0.0319   0.00532   0.00198  -0.0027  0.9046  0.9268  -0.3661   0.0000   0.0000   0.0000   0.1613
  -0.400  -0.0229   0.00533   0.00199  -0.0020  0.9010  0.9331  -0.3488   0.0000   0.0000   0.0000   0.1588
  -0.300  -0.0139   0.00534   0.00199  -0.0013  0.8969  0.9391  -0.3322   0.0000   0.0000   0.0000   0.1508
  -0.200  -0.0048   0.00535   0.00199  -0.0006  0.8932  0.9446  -0.3159   0.0000   0.0000   0.0000   0.1099
  -0.100   0.0045   0.00536   0.00199  -0.0000  0.8890  0.9499  -0.3092   0.0000   0.0000   0.0000   0.2553
   0.000   0.0144   0.00536   0.00198   0.0005  0.8851  0.9545  -0.3223   0.0000   0.0000   0.0000   0.2147
   0.100   0.0249   0.00536   0.00197   0.0009  0.8807  0.9588  -0.3360   0.0000   0.0000   0.0000   0.2143
   0.200   0.0359   0.00537   0.00196   0.0011  0.8766  0.9628  -0.3501   0.0000   0.0000   0.0000   0.2178
   0.300   0.0474   0.00536   0.00195   0.0012  0.8721  0.9667  -0.3652   0.0000   0.0000   0.0000   0.2229
   0.400   0.0594   0.00536   0.00194   0.0012  0.8676  0.9704  -0.3808   0.0000   0.0000   0.0000   0.2282
   0.500   0.0730   0.00536   0.00192   0.0008  0.8629  0.9732  -0.3977   0.0000   0.0000   0.0000   0.2369
   0.600   0.0870   0.00536   0.00191   0.0003  0.8578  0.9758  -0.4156   0.0000   0.0000   0.0000   0.2443
   0.700   0.1007   0.00536   0.00189  -0.0001  0.8529  0.9786  -0.4334   0.0000   0.0000   0.0000   0.2489
   0.800   0.1165   0.00535   0.00188  -0.0010  0.8467  0.9804  -0.4533   0.0000   0.0000   0.0000   0.2567
   0.900   0.1317   0.00534   0.00186  -0.0018  0.8404  0.9825  -0.4732   0.0000   0.0000   0.0000   0.2616
   1.000   0.1476   0.00534   0.00184  -0.0027  0.8336  0.9841  -0.4940   0.0000   0.0000   0.0000   0.2666
   1.100   0.1628   0.00533   0.00182  -0.0035  0.8256  0.9860  -0.5150   0.0000   0.0000   0.0000   0.2697
   1.200   0.1782   0.00532   0.00180  -0.0044  0.8162  0.9879  -0.5365   0.0000   0.0000   0.0000   0.2726
   1.300   0.1937   0.00532   0.00177  -0.0052  0.8049  0.9896  -0.5587   0.0000   0.0000   0.0000   0.2750
   1.400   0.2087   0.00532   0.00174  -0.0060  0.7910  0.9915  -0.5811   0.0000   0.0000   0.0000   0.2767
   1.500   0.2237   0.00533   0.00170  -0.0067  0.7739  0.9932  -0.6043   0.0000   0.0000   0.0000   0.2781
   1.600   0.2386   0.00536   0.00166  -0.0075  0.7524  0.9948  -0.6280   0.0000   0.0000   0.0000   0.2794
   1.700   0.2533   0.00543   0.00162  -0.0082  0.7273  0.9964  -0.6527   0.0000   0.0000   0.0000   0.2803
   1.800   0.2681   0.00552   0.00161  -0.0090  0.7010  0.9979  -0.6783   0.0000   0.0000   0.0000   0.2814
   1.900   0.2831   0.00562   0.00160  -0.0098  0.6738  0.9993  -0.7052   0.0000   0.0000   0.0000   0.2825
   2.000   0.2961   0.00573   0.00160  -0.0102  0.6481  1.0000  -0.7316   0.0000   0.0000   0.0000   0.2824
   2.100   0.3067   0.00583   0.00161  -0.0102  0.6237  1.0000  -0.7589   0.0000   0.0000   0.0000   0.2809
   2.200   0.3173   0.00594   0.00163  -0.0101  0.5993  1.0000  -0.8067   0.0000   0.0000   0.0000   0.2796
   2.400   0.3385   0.00617   0.00167  -0.0100  0.5504  1.0000  -0.9103   0.0000   0.0000   0.0000   0.2772
   2.500   0.3491   0.00629   0.00171  -0.0100  0.5260  1.0000  -0.9674   0.0000   0.0000   0.0000   0.2761
   2.600   0.3596   0.00641   0.00174  -0.0099  0.5017  1.0000  -1.0251   0.0000   0.0000   0.0000   0.2751
   2.700   0.3699   0.00653   0.00177  -0.0098  0.4774  1.0000  -1.0832   0.0000   0.0000   0.0000   0.2741
   2.800   0.3803   0.00666   0.00181  -0.0097  0.4533  1.0000  -1.1420   0.0000   0.0000   0.0000   0.2731
   2.900   0.3905   0.00679   0.00185  -0.0097  0.4292  1.0000  -1.2055   0.0000   0.0000   0.0000   0.2721
   3.000   0.4007   0.00693   0.00190  -0.0096  0.4053  1.0000  -1.2726   0.0000   0.0000   0.0000   0.2712
   3.100   0.4109   0.00707   0.00195  -0.0095  0.3813  1.0000  -1.3403   0.0000   0.0000   0.0000   0.2703
   3.200   0.4210   0.00721   0.00200  -0.0093  0.3572  1.0000  -1.4088   0.0000   0.0000   0.0000   0.2694
   3.300   0.4310   0.00737   0.00206  -0.0092  0.3323  1.0000  -1.4779   0.0000   0.0000   0.0000   0.2686
   3.400   0.4408   0.00754   0.00212  -0.0091  0.3065  1.0000  -1.5475   0.0000   0.0000   0.0000   0.2677
   3.600   0.4605   0.00787   0.00225  -0.0088  0.2592  1.0000  -1.6887   0.0000   0.0000   0.0000   0.2661
   3.800   0.4800   0.00816   0.00239  -0.0084  0.2231  1.0000  -1.8332   0.0000   0.0000   0.0000   0.2645
   3.900   0.4897   0.00830   0.00247  -0.0082  0.2084  1.0000  -1.9115   0.0000   0.0000   0.0000   0.2637
   4.000   0.4995   0.00842   0.00255  -0.0080  0.1951  1.0000  -1.9945   0.0000   0.0000   0.0000   0.2629
   4.100   0.5091   0.00855   0.00262  -0.0078  0.1831  1.0000  -2.0783   0.0000   0.0000   0.0000   0.2621
   4.200   0.5188   0.00867   0.00270  -0.0076  0.1721  1.0000  -2.1629   0.0000   0.0000   0.0000   0.2613
   4.300   0.5284   0.00879   0.00278  -0.0074  0.1615  1.0000  -2.2486   0.0000   0.0000   0.0000   0.2605
   4.400   0.5381   0.00891   0.00287  -0.0071  0.1515  1.0000  -2.3350   0.0000   0.0000   0.0000   0.2597
   4.500   0.5476   0.00903   0.00295  -0.0069  0.1416  1.0000  -2.4220   0.0000   0.0000   0.0000   0.2590
   4.600   0.5571   0.00916   0.00304  -0.0066  0.1317  1.0000  -2.5096   0.0000   0.0000   0.0000   0.2582
   4.700   0.5666   0.00929   0.00313  -0.0063  0.1218  1.0000  -2.5978   0.0000   0.0000   0.0000   0.2575
   4.800   0.5760   0.00941   0.00323  -0.0061  0.1115  1.0000  -2.6864   0.0000   0.0000   0.0000   0.2567
   4.900   0.5853   0.00957   0.00333  -0.0058  0.1002  1.0000  -2.7746   0.0000   0.0000   0.0000   0.2560
   5.000   0.5945   0.00974   0.00345  -0.0055  0.0863  1.0000  -2.8620   0.0000   0.0000   0.0000   0.2553
   5.100   0.6033   0.00998   0.00359  -0.0051  0.0685  1.0000  -2.9468   0.0000   0.0000   0.0000   0.2545
   5.200   0.6118   0.01028   0.00378  -0.0047  0.0497  1.0000  -3.0267   0.0000   0.0000   0.0000   0.2537
   5.300   0.6203   0.01058   0.00400  -0.0043  0.0387  1.0000  -3.1043   0.0000   0.0000   0.0000   0.2528
   5.400   0.6291   0.01084   0.00422  -0.0039  0.0331  1.0000  -3.1820   0.0000   0.0000   0.0000   0.2520
   5.500   0.6380   0.01106   0.00443  -0.0035  0.0298  1.0000  -3.2613   0.0000   0.0000   0.0000   0.2512
   5.600   0.6471   0.01125   0.00464  -0.0031  0.0275  1.0000  -3.3443   0.0000   0.0000   0.0000   0.2504
   5.700   0.6558   0.01152   0.00489  -0.0027  0.0257  1.0000  -3.4367   0.0000   0.0000   0.0000   0.2497
   5.800   0.6651   0.01169   0.00508  -0.0023  0.0244  1.0000  -3.5313   0.0000   0.0000   0.0000   0.2490
   5.900   0.6742   0.01188   0.00528  -0.0020  0.0232  1.0000  -3.6300   0.0000   0.0000   0.0000   0.2483
   6.000   0.6827   0.01220   0.00559  -0.0016  0.0221  1.0000  -3.7226   0.0000   0.0000   0.0000   0.2476
   6.100   0.6922   0.01235   0.00577  -0.0012  0.0212  1.0000  -3.8226   0.0000   0.0000   0.0000   0.2470
   6.200   0.7016   0.01253   0.00597  -0.0009  0.0202  1.0000  -3.9252   0.0000   0.0000   0.0000   0.2465
   6.300   0.7108   0.01276   0.00620  -0.0006  0.0195  1.0000  -4.0292   0.0000   0.0000   0.0000   0.2459
   6.400   0.7190   0.01318   0.00661  -0.0002  0.0188  1.0000  -4.1180   0.0000   0.0000   0.0000   0.2453
   6.500   0.7286   0.01337   0.00684   0.0001  0.0184  1.0000  -4.2178   0.0000   0.0000   0.0000   0.2448
   6.600   0.7381   0.01360   0.00710   0.0004  0.0179  1.0000  -4.3165   0.0000   0.0000   0.0000   0.2443
   6.700   0.7475   0.01385   0.00737   0.0006  0.0174  1.0000  -4.4165   0.0000   0.0000   0.0000   0.2439
   6.800   0.7568   0.01411   0.00765   0.0009  0.0170  1.0000  -4.5187   0.0000   0.0000   0.0000   0.2434
   6.900   0.7661   0.01439   0.00794   0.0012  0.0166  1.0000  -4.6227   0.0000   0.0000   0.0000   0.2430
   7.000   0.7751   0.01473   0.00828   0.0015  0.0162  1.0000  -4.7241   0.0000   0.0000   0.0000   0.2426
   7.100   0.7831   0.01528   0.00883   0.0019  0.0159  1.0000  -4.8082   0.0000   0.0000   0.0000   0.2420
   7.200   0.7921   0.01566   0.00924   0.0022  0.0156  1.0000  -4.8976   0.0000   0.0000   0.0000   0.2415
   7.300   0.8017   0.01594   0.00957   0.0024  0.0154  1.0000  -4.9945   0.0000   0.0000   0.0000   0.2411
   7.400   0.8112   0.01624   0.00992   0.0027  0.0151  1.0000  -5.0918   0.0000   0.0000   0.0000   0.2408
   7.500   0.8207   0.01655   0.01026   0.0029  0.0147  1.0000  -5.1921   0.0000   0.0000   0.0000   0.2404
   7.600   0.8301   0.01685   0.01060   0.0031  0.0144  1.0000  -5.2976   0.0000   0.0000   0.0000   0.2401
   7.700   0.8395   0.01714   0.01092   0.0033  0.0140  1.0000  -5.4076   0.0000   0.0000   0.0000   0.2398
   7.800   0.8489   0.01746   0.01125   0.0035  0.0137  1.0000  -5.5212   0.0000   0.0000   0.0000   0.2395
   7.900   0.8579   0.01784   0.01163   0.0038  0.0135  1.0000  -5.6319   0.0000   0.0000   0.0000   0.2392
   8.000   0.8664   0.01837   0.01217   0.0041  0.0133  1.0000  -5.7289   0.0000   0.0000   0.0000   0.2388
   8.100   0.8742   0.01918   0.01301   0.0044  0.0131  1.0000  -5.8117   0.0000   0.0000   0.0000   0.2383
   8.200   0.8827   0.01981   0.01370   0.0048  0.0129  1.0000  -5.9087   0.0000   0.0000   0.0000   0.2379
   8.300   0.8920   0.02020   0.01418   0.0050  0.0128  1.0000  -6.0199   0.0000   0.0000   0.0000   0.2375
   8.400   0.9010   0.02067   0.01473   0.0053  0.0127  1.0000  -6.1261   0.0000   0.0000   0.0000   0.2372
   8.500   0.9098   0.02120   0.01534   0.0056  0.0125  1.0000  -6.2275   0.0000   0.0000   0.0000   0.2368
   8.600   0.9184   0.02178   0.01602   0.0059  0.0124  1.0000  -6.3247   0.0000   0.0000   0.0000   0.2364
   8.700   0.9268   0.02242   0.01675   0.0063  0.0123  1.0000  -6.4175   0.0000   0.0000   0.0000   0.2360
   8.800   0.9350   0.02310   0.01754   0.0066  0.0122  1.0000  -6.5056   0.0000   0.0000   0.0000   0.2356
   8.900   0.9429   0.02385   0.01839   0.0070  0.0121  1.0000  -6.5884   0.0000   0.0000   0.0000   0.2351
   9.000   0.9505   0.02465   0.01932   0.0074  0.0120  1.0000  -6.6652   0.0000   0.0000   0.0000   0.2347
   9.100   0.9577   0.02553   0.02032   0.0078  0.0119  1.0000  -6.7343   0.0000   0.0000   0.0000   0.2342
   9.200   0.9644   0.02650   0.02143   0.0083  0.0118  1.0000  -6.7933   0.0000   0.0000   0.0000   0.2337
   9.300   0.9705   0.02759   0.02266   0.0087  0.0118  1.0000  -6.8390   0.0000   0.0000   0.0000   0.2332
   9.400   0.9758   0.02883   0.02407   0.0093  0.0118  1.0000  -6.8673   0.0000   0.0000   0.0000   0.2326
   9.500   0.9802   0.03022   0.02564   0.0099  0.0118  1.0000  -6.8794   0.0000   0.0000   0.0000   0.2319
   9.600   0.9838   0.03166   0.02726   0.0105  0.0118  1.0000  -6.8864   0.0000   0.0000   0.0000   0.2313
   9.700   0.9867   0.03316   0.02894   0.0111  0.0118  1.0000  -6.8872   0.0000   0.0000   0.0000   0.2306
   9.800   0.9887   0.03473   0.03069   0.0117  0.0118  1.0000  -6.8803   0.0000   0.0000   0.0000   0.2299
   9.900   0.9895   0.03640   0.03254   0.0124  0.0118  1.0000  -6.8629   0.0000   0.0000   0.0000   0.2292
  10.000   0.9892   0.03818   0.03450   0.0130  0.0119  1.0000  -6.8321   0.0000   0.0000   0.0000   0.2285
  10.100   0.9873   0.04008   0.03659   0.0136  0.0119  1.0000  -6.7871   0.0000   0.0000   0.0000   0.2277
  10.200   0.9836   0.04212   0.03880   0.0143  0.0120  1.0000  -6.7253   0.0000   0.0000   0.0000   0.2270
  10.300   0.9791   0.04414   0.04097   0.0148  0.0121  1.0000  -6.6662   0.0000   0.0000   0.0000   0.2263
  10.400   0.9744   0.04600   0.04296   0.0153  0.0123  1.0000  -6.6221   0.0000   0.0000   0.0000   0.2256
  10.500   0.9692   0.04764   0.04470   0.0158  0.0124  1.0000  -6.5923   0.0000   0.0000   0.0000   0.2249
  10.600   0.9634   0.04913   0.04627   0.0163  0.0124  1.0000  -6.5695   0.0000   0.0000   0.0000   0.2241
  10.700   0.9573   0.05064   0.04784   0.0166  0.0125  1.0000  -6.5491   0.0000   0.0000   0.0000   0.2236
  10.800   0.9512   0.05221   0.04947   0.0166  0.0126  1.0000  -6.5295   0.0000   0.0000   0.0000   0.2234
  10.900   0.9451   0.05387   0.05119   0.0162  0.0126  1.0000  -6.5095   0.0000   0.0000   0.0000   0.2235
  11.000   0.9385   0.05571   0.05309   0.0156  0.0126  1.0000  -6.4821   0.0000   0.0000   0.0000   0.2240
  11.100   0.9319   0.05772   0.05516   0.0145  0.0127  1.0000  -6.4522   0.0000   0.0000   0.0000   0.2248
  11.200   0.9255   0.05992   0.05741   0.0130  0.0127  1.0000  -6.4194   0.0000   0.0000   0.0000   0.2262
  11.300   0.9194   0.06231   0.05985   0.0112  0.0128  1.0000  -6.3850   0.0000   0.0000   0.0000   0.2279
  14.000   0.7626   0.16608   0.16391  -0.0473  0.0162  1.0000  -2.4873   0.0000   0.0000   0.0000   0.3018
  14.100   0.7654   0.16719   0.16503  -0.0476  0.0161  1.0000  -2.5297   0.0000   0.0000   0.0000   0.3018
  14.200   0.7683   0.16823   0.16607  -0.0479  0.0160  1.0000  -2.5796   0.0000   0.0000   0.0000   0.3018
  14.300   0.7711   0.16921   0.16705  -0.0480  0.0159  1.0000  -2.6369   0.0000   0.0000   0.0000   0.3016
  14.400   0.7738   0.17013   0.16798  -0.0481  0.0159  1.0000  -2.7114   0.0000   0.0000   0.0000   0.3012
  14.500   0.7751   0.17174   0.16959  -0.0484  0.0158  1.0000  -2.7352   0.0000   0.0000   0.0000   0.3014
  14.600   0.7747   0.17471   0.17255  -0.0500  0.0157  1.0000  -2.6266   0.0000   0.0000   0.0000   0.3035
  14.700   0.7712   0.17927   0.17709  -0.0530  0.0155  1.0000  -2.3603   0.0000   0.0000   0.0000   0.3080
  14.800   0.7706   0.18235   0.18016  -0.0549  0.0150  1.0000  -2.2251   0.0000   0.0000   0.0000   0.3105
  14.900   0.7723   0.18422   0.18202  -0.0558  0.0147  1.0000  -2.2052   0.0000   0.0000   0.0000   0.3114
  15.000   0.7742   0.18594   0.18374  -0.0566  0.0144  1.0000  -2.1979   0.0000   0.0000   0.0000   0.3122
  15.100   0.7763   0.18757   0.18538  -0.0574  0.0142  1.0000  -2.1974   0.0000   0.0000   0.0000   0.3128
  15.200   0.7785   0.18915   0.18696  -0.0581  0.0140  1.0000  -2.2020   0.0000   0.0000   0.0000   0.3135
  15.300   0.7809   0.19067   0.18848  -0.0588  0.0139  1.0000  -2.2116   0.0000   0.0000   0.0000   0.3140
  15.400   0.7833   0.19214   0.18995  -0.0595  0.0137  1.0000  -2.2260   0.0000   0.0000   0.0000   0.3146
  15.500   0.7859   0.19355   0.19136  -0.0602  0.0136  1.0000  -2.2455   0.0000   0.0000   0.0000   0.3150
  15.600   0.7886   0.19490   0.19271  -0.0608  0.0135  1.0000  -2.2707   0.0000   0.0000   0.0000   0.3154
  15.700   0.7914   0.19618   0.19400  -0.0613  0.0134  1.0000  -2.3024   0.0000   0.0000   0.0000   0.3157
  15.800   0.7943   0.19740   0.19521  -0.0618  0.0133  1.0000  -2.3421   0.0000   0.0000   0.0000   0.3159
  15.900   0.7975   0.19855   0.19637  -0.0622  0.0132  1.0000  -2.3923   0.0000   0.0000   0.0000   0.3158
  16.000   0.8010   0.19958   0.19740  -0.0623  0.0131  1.0000  -2.4579   0.0000   0.0000   0.0000   0.3155
  16.100   0.8046   0.20059   0.19842  -0.0624  0.0131  1.0000  -2.5314   0.0000   0.0000   0.0000   0.3151
  16.200   0.8076   0.20178   0.19960  -0.0623  0.0130  1.0000  -2.6100   0.0000   0.0000   0.0000   0.3145
  16.300   0.8092   0.20395   0.20177  -0.0635  0.0130  1.0000  -2.5514   0.0000   0.0000   0.0000   0.3158
  16.400   0.8107   0.20614   0.20396  -0.0648  0.0129  1.0000  -2.4824   0.0000   0.0000   0.0000   0.3172
  16.500   0.8117   0.20857   0.20638  -0.0665  0.0129  1.0000  -2.3831   0.0000   0.0000   0.0000   0.3192
  16.600   0.8122   0.21152   0.20932  -0.0687  0.0127  1.0000  -2.2235   0.0000   0.0000   0.0000   0.3219
  16.700   0.8143   0.21388   0.21168  -0.0702  0.0124  1.0000  -2.1321   0.0000   0.0000   0.0000   0.3234
  16.800   0.8169   0.21567   0.21347  -0.0711  0.0121  1.0000  -2.1110   0.0000   0.0000   0.0000   0.3242
  16.900   0.8197   0.21728   0.21508  -0.0719  0.0119  1.0000  -2.1039   0.0000   0.0000   0.0000   0.3248
  17.000   0.8225   0.21884   0.21664  -0.0728  0.0117  1.0000  -2.1042   0.0000   0.0000   0.0000   0.3254
  17.100   0.8254   0.22032   0.21812  -0.0735  0.0114  1.0000  -2.1103   0.0000   0.0000   0.0000   0.3259
  17.200   0.8284   0.22175   0.21955  -0.0743  0.0113  1.0000  -2.1247   0.0000   0.0000   0.0000   0.3264
  17.300   0.8314   0.22313   0.22093  -0.0751  0.0111  1.0000  -2.1444   0.0000   0.0000   0.0000   0.3268
  17.400   0.8344   0.22446   0.22227  -0.0758  0.0110  1.0000  -2.1685   0.0000   0.0000   0.0000   0.3272
  17.500   0.8374   0.22576   0.22356  -0.0765  0.0109  1.0000  -2.1961   0.0000   0.0000   0.0000   0.3276
  17.600   0.8404   0.22702   0.22482  -0.0771  0.0108  1.0000  -2.2263   0.0000   0.0000   0.0000   0.3279
  17.700   0.8435   0.22826   0.22607  -0.0777  0.0107  1.0000  -2.2622   0.0000   0.0000   0.0000   0.3281
  17.800   0.8467   0.22942   0.22724  -0.0783  0.0106  1.0000  -2.3062   0.0000   0.0000   0.0000   0.3282
  17.900   0.8499   0.23053   0.22835  -0.0787  0.0106  1.0000  -2.3614   0.0000   0.0000   0.0000   0.3282
  18.000   0.8535   0.23159   0.22941  -0.0788  0.0105  1.0000  -2.4347   0.0000   0.0000   0.0000   0.3278
  18.100   0.8573   0.23276   0.23059  -0.0786  0.0104  1.0000  -2.5302   0.0000   0.0000   0.0000   0.3269
  18.200   0.8597   0.23465   0.23247  -0.0797  0.0104  1.0000  -2.4871   0.0000   0.0000   0.0000   0.3278
  18.300   0.8618   0.23663   0.23445  -0.0812  0.0104  1.0000  -2.4153   0.0000   0.0000   0.0000   0.3292
  18.400   0.8636   0.23883   0.23664  -0.0829  0.0104  1.0000  -2.3092   0.0000   0.0000   0.0000   0.3310
  18.500   0.8659   0.24135   0.23915  -0.0848  0.0102  1.0000  -2.1655   0.0000   0.0000   0.0000   0.3329
  18.600   0.8691   0.24347   0.24128  -0.0861  0.0099  1.0000  -2.0826   0.0000   0.0000   0.0000   0.3340
  18.700   0.8722   0.24514   0.24294  -0.0871  0.0097  1.0000  -2.0606   0.0000   0.0000   0.0000   0.3346
  18.800   0.8753   0.24670   0.24450  -0.0879  0.0095  1.0000  -2.0506   0.0000   0.0000   0.0000   0.3351
  18.900   0.8784   0.24824   0.24604  -0.0888  0.0093  1.0000  -2.0456   0.0000   0.0000   0.0000   0.3356
  19.000   0.8816   0.24972   0.24753  -0.0897  0.0092  1.0000  -2.0441   0.0000   0.0000   0.0000   0.3361
  19.100   0.8847   0.25118   0.24899  -0.0905  0.0090  1.0000  -2.0454   0.0000   0.0000   0.0000   0.3366
  19.200   0.8879   0.25261   0.25042  -0.0914  0.0089  1.0000  -2.0494   0.0000   0.0000   0.0000   0.3370
  19.300   0.8910   0.25401   0.25182  -0.0922  0.0088  1.0000  -2.0561   0.0000   0.0000   0.0000   0.3374
  19.400   0.8942   0.25538   0.25320  -0.0930  0.0087  1.0000  -2.0657   0.0000   0.0000   0.0000   0.3379
  19.500   0.8974   0.25673   0.25454  -0.0939  0.0086  1.0000  -2.0783   0.0000   0.0000   0.0000   0.3382
  19.600   0.9005   0.25804   0.25585  -0.0947  0.0085  1.0000  -2.0944   0.0000   0.0000   0.0000   0.3386
  19.700   0.9037   0.25937   0.25719  -0.0954  0.0085  1.0000  -2.1142   0.0000   0.0000   0.0000   0.3389
  19.800   0.9068   0.26063   0.25845  -0.0962  0.0084  1.0000  -2.1384   0.0000   0.0000   0.0000   0.3392
  19.900   0.9100   0.26186   0.25968  -0.0969  0.0083  1.0000  -2.1678   0.0000   0.0000   0.0000   0.3395
  20.000   0.9131   0.26306   0.26089  -0.0976  0.0083  1.0000  -2.2039   0.0000   0.0000   0.0000   0.3397
  20.100   0.9163   0.26424   0.26207  -0.0981  0.0082  1.0000  -2.2487   0.0000   0.0000   0.0000   0.3397
  20.200   0.9196   0.26543   0.26326  -0.0985  0.0082  1.0000  -2.3065   0.0000   0.0000   0.0000   0.3395
  20.300   0.9232   0.26677   0.26461  -0.0984  0.0082  1.0000  -2.3902   0.0000   0.0000   0.0000   0.3388
  20.400   0.9260   0.26849   0.26632  -0.0996  0.0081  1.0000  -2.3489   0.0000   0.0000   0.0000   0.3396
  20.500   0.9288   0.27022   0.26805  -0.1009  0.0081  1.0000  -2.2914   0.0000   0.0000   0.0000   0.3406
  20.600   0.9317   0.27194   0.26977  -0.1022  0.0081  1.0000  -2.2338   0.0000   0.0000   0.0000   0.3415
  20.700   0.9348   0.27369   0.27152  -0.1035  0.0081  1.0000  -2.1739   0.0000   0.0000   0.0000   0.3425
  20.800   0.9380   0.27550   0.27333  -0.1049  0.0081  1.0000  -2.1080   0.0000   0.0000   0.0000   0.3434
  20.900   0.9414   0.27741   0.27523  -0.1062  0.0080  1.0000  -2.0338   0.0000   0.0000   0.0000   0.3443
  21.000   0.9451   0.27927   0.27710  -0.1074  0.0079  1.0000  -1.9769   0.0000   0.0000   0.0000   0.3451
  21.100   0.9486   0.28089   0.27872  -0.1084  0.0077  1.0000  -1.9618   0.0000   0.0000   0.0000   0.3456
  21.200   0.9519   0.28242   0.28025  -0.1094  0.0075  1.0000  -1.9609   0.0000   0.0000   0.0000   0.3461
  21.300   0.9552   0.28390   0.28173  -0.1103  0.0074  1.0000  -1.9653   0.0000   0.0000   0.0000   0.3465
  21.400   0.9585   0.28537   0.28320  -0.1112  0.0073  1.0000  -1.9719   0.0000   0.0000   0.0000   0.3469
  21.500   0.9618   0.28680   0.28464  -0.1121  0.0072  1.0000  -1.9799   0.0000   0.0000   0.0000   0.3473
  21.600   0.9651   0.28822   0.28606  -0.1131  0.0071  1.0000  -1.9890   0.0000   0.0000   0.0000   0.3477
  21.700   0.9683   0.28963   0.28746  -0.1140  0.0070  1.0000  -1.9992   0.0000   0.0000   0.0000   0.3481
  21.800   0.9716   0.29102   0.28885  -0.1149  0.0069  1.0000  -2.0105   0.0000   0.0000   0.0000   0.3485
  21.900   0.9749   0.29239   0.29023  -0.1158  0.0068  1.0000  -2.0228   0.0000   0.0000   0.0000   0.3488
  22.000   0.9781   0.29375   0.29159  -0.1167  0.0067  1.0000  -2.0362   0.0000   0.0000   0.0000   0.3492
  22.100   0.9813   0.29511   0.29295  -0.1177  0.0067  1.0000  -2.0510   0.0000   0.0000   0.0000   0.3496
  22.200   0.9846   0.29642   0.29427  -0.1186  0.0066  1.0000  -2.0671   0.0000   0.0000   0.0000   0.3499
  22.300   0.9878   0.29772   0.29556  -0.1195  0.0065  1.0000  -2.0850   0.0000   0.0000   0.0000   0.3503
  22.400   0.9909   0.29898   0.29683  -0.1204  0.0065  1.0000  -2.1047   0.0000   0.0000   0.0000   0.3506
  22.500   0.9941   0.30022   0.29807  -0.1213  0.0064  1.0000  -2.1267   0.0000   0.0000   0.0000   0.3509
  22.600   0.9972   0.30152   0.29938  -0.1222  0.0064  1.0000  -2.1515   0.0000   0.0000   0.0000   0.3512
  22.700   1.0003   0.30272   0.30058  -0.1230  0.0063  1.0000  -2.1809   0.0000   0.0000   0.0000   0.3515
  22.800   1.0033   0.30394   0.30180  -0.1238  0.0063  1.0000  -2.2156   0.0000   0.0000   0.0000   0.3517
  22.900   1.0063   0.30510   0.30296  -0.1246  0.0062  1.0000  -2.2571   0.0000   0.0000   0.0000   0.3519
  23.000   1.0092   0.30626   0.30413  -0.1252  0.0062  1.0000  -2.3071   0.0000   0.0000   0.0000   0.3519
  23.100   1.0121   0.30753   0.30540  -0.1256  0.0062  1.0000  -2.3701   0.0000   0.0000   0.0000   0.3518
  26.600   1.1246   0.35541   0.35334  -0.1621  0.0043  1.0000  -1.9712   0.0000   0.0000   0.0000   0.3649
  26.700   1.1280   0.35665   0.35458  -0.1631  0.0042  1.0000  -1.9489   0.0000   0.0000   0.0000   0.3653
  26.800   1.1313   0.35798   0.35590  -0.1642  0.0042  1.0000  -1.9380   0.0000   0.0000   0.0000   0.3656
  26.900   1.1346   0.35916   0.35710  -0.1653  0.0041  1.0000  -1.9352   0.0000   0.0000   0.0000   0.3659
  27.000   1.1378   0.36036   0.35829  -0.1663  0.0041  1.0000  -1.9351   0.0000   0.0000   0.0000   0.3662
  27.100   1.1410   0.36155   0.35949  -0.1673  0.0040  1.0000  -1.9371   0.0000   0.0000   0.0000   0.3664
  27.200   1.1441   0.36273   0.36067  -0.1684  0.0040  1.0000  -1.9408   0.0000   0.0000   0.0000   0.3667
  27.300   1.1472   0.36389   0.36183  -0.1694  0.0039  1.0000  -1.9455   0.0000   0.0000   0.0000   0.3670
  27.400   1.1503   0.36503   0.36298  -0.1705  0.0038  1.0000  -1.9509   0.0000   0.0000   0.0000   0.3673
  27.500   1.1533   0.36616   0.36411  -0.1715  0.0038  1.0000  -1.9570   0.0000   0.0000   0.0000   0.3676
  27.600   1.1563   0.36729   0.36524  -0.1726  0.0037  1.0000  -1.9635   0.0000   0.0000   0.0000   0.3679
  27.700   1.1593   0.36840   0.36636  -0.1736  0.0037  1.0000  -1.9704   0.0000   0.0000   0.0000   0.3682
  27.800   1.1623   0.36951   0.36747  -0.1747  0.0036  1.0000  -1.9776   0.0000   0.0000   0.0000   0.3684
  27.900   1.1653   0.37062   0.36858  -0.1757  0.0036  1.0000  -1.9851   0.0000   0.0000   0.0000   0.3687
  28.000   1.1682   0.37172   0.36968  -0.1768  0.0036  1.0000  -1.9929   0.0000   0.0000   0.0000   0.3690
  28.100   1.1712   0.37281   0.37077  -0.1779  0.0035  1.0000  -2.0009   0.0000   0.0000   0.0000   0.3693
  28.200   1.1741   0.37390   0.37187  -0.1789  0.0035  1.0000  -2.0091   0.0000   0.0000   0.0000   0.3695
  28.300   1.1770   0.37498   0.37295  -0.1800  0.0034  1.0000  -2.0176   0.0000   0.0000   0.0000   0.3698
  28.400   1.1799   0.37606   0.37403  -0.1810  0.0034  1.0000  -2.0263   0.0000   0.0000   0.0000   0.3701
  28.500   1.1827   0.37713   0.37511  -0.1821  0.0034  1.0000  -2.0353   0.0000   0.0000   0.0000   0.3704
  28.600   1.1856   0.37820   0.37618  -0.1831  0.0033  1.0000  -2.0446   0.0000   0.0000   0.0000   0.3706
  28.700   1.1884   0.37926   0.37724  -0.1842  0.0033  1.0000  -2.0542   0.0000   0.0000   0.0000   0.3709
  28.800   1.1912   0.38031   0.37830  -0.1853  0.0033  1.0000  -2.0641   0.0000   0.0000   0.0000   0.3712
  28.900   1.1940   0.38136   0.37935  -0.1863  0.0032  1.0000  -2.0745   0.0000   0.0000   0.0000   0.3714
  29.000   1.1967   0.38237   0.38037  -0.1874  0.0032  1.0000  -2.0856   0.0000   0.0000   0.0000   0.3717
  29.100   1.1995   0.38339   0.38139  -0.1885  0.0032  1.0000  -2.0978   0.0000   0.0000   0.0000   0.3720
  29.200   1.2022   0.38439   0.38239  -0.1895  0.0031  1.0000  -2.1111   0.0000   0.0000   0.0000   0.3722
  29.300   1.2048   0.38537   0.38338  -0.1906  0.0031  1.0000  -2.1258   0.0000   0.0000   0.0000   0.3725
  29.400   1.2074   0.38635   0.38436  -0.1917  0.0031  1.0000  -2.1421   0.0000   0.0000   0.0000   0.3727
  29.500   1.2100   0.38732   0.38534  -0.1927  0.0031  1.0000  -2.1601   0.0000   0.0000   0.0000   0.3730
  29.600   1.2125   0.38826   0.38628  -0.1938  0.0030  1.0000  -2.1801   0.0000   0.0000   0.0000   0.3732
  29.700   1.2150   0.38919   0.38721  -0.1948  0.0030  1.0000  -2.2025   0.0000   0.0000   0.0000   0.3735
  29.800   1.2173   0.39010   0.38812  -0.1959  0.0030  1.0000  -2.2275   0.0000   0.0000   0.0000   0.3737
  29.900   1.2196   0.39100   0.38903  -0.1969  0.0030  1.0000  -2.2556   0.0000   0.0000   0.0000   0.3739
  30.000   1.2218   0.39192   0.38996  -0.1978  0.0029  1.0000  -2.2873   0.0000   0.0000   0.0000   0.3741


