xflr5 v6.61

 Calculated polar for: MH 50

 1 1 Reynolds number fixed          Mach number fixed         

 xtrf =   1.000 (top)        1.000 (bottom)
 Mach =   0.000     Re =     1.000 e 6     Ncrit =   9.000

  alpha     CL        CD       CDp       Cm    Top Xtr Bot Xtr   Cpmin    Chinge    XCp    
 ------- -------- --------- --------- -------- ------- ------- -------- --------- ---------
 -10.000  -0.9960   0.02635   0.02266  -0.0137  1.0000  0.0078  -9.4430   0.0000   0.0000   0.0000   0.2280
  -9.900  -0.9888   0.02573   0.02198  -0.0135  1.0000  0.0079  -9.3035   0.0000   0.0000   0.0000   0.2282
  -9.800  -0.9813   0.02515   0.02133  -0.0132  1.0000  0.0079  -9.1615   0.0000   0.0000   0.0000   0.2285
  -9.700  -0.9735   0.02458   0.02069  -0.0130  1.0000  0.0080  -9.0196   0.0000   0.0000   0.0000   0.2287
  -9.600  -0.9657   0.02401   0.02005  -0.0128  1.0000  0.0081  -8.8796   0.0000   0.0000   0.0000   0.2290
  -9.500  -0.9578   0.02343   0.01940  -0.0126  1.0000  0.0082  -8.7420   0.0000   0.0000   0.0000   0.2292
  -9.400  -0.9497   0.02286   0.01875  -0.0123  1.0000  0.0083  -8.6049   0.0000   0.0000   0.0000   0.2294
  -9.300  -0.9414   0.02232   0.01814  -0.0121  1.0000  0.0083  -8.4665   0.0000   0.0000   0.0000   0.2297
  -9.200  -0.9331   0.02175   0.01750  -0.0119  1.0000  0.0084  -8.3314   0.0000   0.0000   0.0000   0.2299
  -9.100  -0.9247   0.02119   0.01686  -0.0116  1.0000  0.0085  -8.1985   0.0000   0.0000   0.0000   0.2301
  -9.000  -0.9161   0.02063   0.01622  -0.0114  1.0000  0.0087  -8.0677   0.0000   0.0000   0.0000   0.2304
  -8.900  -0.9075   0.02008   0.01559  -0.0112  1.0000  0.0088  -7.9565   0.0000   0.0000   0.0000   0.2306
  -8.800  -0.8987   0.01955   0.01498  -0.0110  1.0000  0.0089  -7.8448   0.0000   0.0000   0.0000   0.2308
  -8.700  -0.8897   0.01904   0.01440  -0.0107  1.0000  0.0090  -7.7317   0.0000   0.0000   0.0000   0.2310
  -8.600  -0.8805   0.01857   0.01386  -0.0105  1.0000  0.0091  -7.6160   0.0000   0.0000   0.0000   0.2312
  -8.500  -0.8712   0.01814   0.01335  -0.0104  1.0000  0.0093  -7.4969   0.0000   0.0000   0.0000   0.2314
  -8.400  -0.8616   0.01776   0.01291  -0.0102  1.0000  0.0094  -7.3732   0.0000   0.0000   0.0000   0.2316
  -8.300  -0.8518   0.01744   0.01252  -0.0101  1.0000  0.0095  -7.2442   0.0000   0.0000   0.0000   0.2317
  -8.200  -0.8417   0.01718   0.01220  -0.0099  1.0000  0.0095  -7.1089   0.0000   0.0000   0.0000   0.2318
  -8.100  -0.8336   0.01637   0.01131  -0.0096  1.0000  0.0097  -7.0266   0.0000   0.0000   0.0000   0.2322
  -8.000  -0.8252   0.01571   0.01060  -0.0094  1.0000  0.0100  -6.9198   0.0000   0.0000   0.0000   0.2324
  -7.900  -0.8155   0.01539   0.01027  -0.0093  1.0000  0.0102  -6.7774   0.0000   0.0000   0.0000   0.2325
  -7.800  -0.8054   0.01516   0.01002  -0.0092  1.0000  0.0103  -6.6290   0.0000   0.0000   0.0000   0.2326
  -7.700  -0.7951   0.01494   0.00979  -0.0091  1.0000  0.0105  -6.4828   0.0000   0.0000   0.0000   0.2326
  -7.600  -0.7849   0.01471   0.00953  -0.0091  1.0000  0.0107  -6.3417   0.0000   0.0000   0.0000   0.2326
  -7.500  -0.7748   0.01446   0.00925  -0.0090  1.0000  0.0109  -6.2068   0.0000   0.0000   0.0000   0.2327
  -7.400  -0.7647   0.01419   0.00895  -0.0089  1.0000  0.0111  -6.0769   0.0000   0.0000   0.0000   0.2328
  -7.300  -0.7546   0.01392   0.00865  -0.0088  1.0000  0.0113  -5.9485   0.0000   0.0000   0.0000   0.2328
  -7.200  -0.7445   0.01366   0.00836  -0.0087  1.0000  0.0115  -5.8213   0.0000   0.0000   0.0000   0.2329
  -7.100  -0.7344   0.01342   0.00808  -0.0085  1.0000  0.0116  -5.6949   0.0000   0.0000   0.0000   0.2330
  -7.000  -0.7244   0.01320   0.00783  -0.0084  1.0000  0.0118  -5.5684   0.0000   0.0000   0.0000   0.2331
  -6.900  -0.7143   0.01301   0.00760  -0.0082  1.0000  0.0120  -5.4414   0.0000   0.0000   0.0000   0.2333
  -6.800  -0.7044   0.01286   0.00742  -0.0080  1.0000  0.0121  -5.3138   0.0000   0.0000   0.0000   0.2335
  -6.700  -0.6977   0.01227   0.00680  -0.0074  1.0000  0.0124  -5.2322   0.0000   0.0000   0.0000   0.2344
  -6.600  -0.6869   0.01197   0.00649  -0.0075  0.9988  0.0127  -5.1036   0.0000   0.0000   0.0000   0.2341
  -6.500  -0.6742   0.01175   0.00626  -0.0079  0.9974  0.0130  -4.9583   0.0000   0.0000   0.0000   0.2333
  -6.400  -0.6615   0.01157   0.00607  -0.0084  0.9961  0.0133  -4.8142   0.0000   0.0000   0.0000   0.2325
  -6.300  -0.6488   0.01138   0.00587  -0.0088  0.9947  0.0137  -4.6729   0.0000   0.0000   0.0000   0.2317
  -6.100  -0.6232   0.01107   0.00551  -0.0097  0.9921  0.0144  -4.4203   0.0000   0.0000   0.0000   0.2300
  -6.000  -0.6103   0.01095   0.00537  -0.0101  0.9909  0.0148  -4.2959   0.0000   0.0000   0.0000   0.2290
  -5.900  -0.5982   0.01062   0.00501  -0.0104  0.9894  0.0153  -4.1904   0.0000   0.0000   0.0000   0.2282
  -5.800  -0.5857   0.01039   0.00479  -0.0108  0.9881  0.0158  -4.0723   0.0000   0.0000   0.0000   0.2272
  -5.700  -0.5732   0.01024   0.00462  -0.0112  0.9865  0.0162  -3.9525   0.0000   0.0000   0.0000   0.2262
  -5.600  -0.5605   0.01009   0.00446  -0.0115  0.9850  0.0167  -3.8344   0.0000   0.0000   0.0000   0.2252
  -5.500  -0.5481   0.00995   0.00431  -0.0118  0.9831  0.0173  -3.7196   0.0000   0.0000   0.0000   0.2242
  -5.400  -0.5358   0.00984   0.00417  -0.0121  0.9812  0.0177  -3.6059   0.0000   0.0000   0.0000   0.2233
  -5.300  -0.5241   0.00962   0.00394  -0.0123  0.9790  0.0184  -3.5020   0.0000   0.0000   0.0000   0.2226
  -5.200  -0.5128   0.00946   0.00378  -0.0123  0.9764  0.0192  -3.3939   0.0000   0.0000   0.0000   0.2220
  -5.100  -0.5015   0.00935   0.00366  -0.0124  0.9742  0.0199  -3.2856   0.0000   0.0000   0.0000   0.2214
  -5.000  -0.4907   0.00927   0.00356  -0.0123  0.9714  0.0208  -3.1813   0.0000   0.0000   0.0000   0.2211
  -4.900  -0.4802   0.00914   0.00342  -0.0121  0.9690  0.0217  -3.0820   0.0000   0.0000   0.0000   0.2210
  -4.800  -0.4700   0.00901   0.00329  -0.0119  0.9665  0.0229  -2.9824   0.0000   0.0000   0.0000   0.2209
  -4.700  -0.4597   0.00892   0.00319  -0.0117  0.9642  0.0240  -2.8832   0.0000   0.0000   0.0000   0.2208
  -4.600  -0.4495   0.00881   0.00307  -0.0115  0.9618  0.0253  -2.7899   0.0000   0.0000   0.0000   0.2208
  -4.500  -0.4395   0.00869   0.00296  -0.0112  0.9595  0.0270  -2.7053   0.0000   0.0000   0.0000   0.2209
  -4.400  -0.4293   0.00861   0.00286  -0.0110  0.9571  0.0289  -2.6212   0.0000   0.0000   0.0000   0.2208
  -4.300  -0.4193   0.00849   0.00275  -0.0107  0.9551  0.0315  -2.5385   0.0000   0.0000   0.0000   0.2210
  -4.200  -0.4091   0.00837   0.00265  -0.0105  0.9527  0.0350  -2.4551   0.0000   0.0000   0.0000   0.2209
  -4.100  -0.3991   0.00826   0.00255  -0.0103  0.9505  0.0400  -2.3727   0.0000   0.0000   0.0000   0.2210
  -4.000  -0.3890   0.00814   0.00246  -0.0100  0.9484  0.0470  -2.2902   0.0000   0.0000   0.0000   0.2209
  -3.900  -0.3789   0.00801   0.00237  -0.0098  0.9461  0.0564  -2.2079   0.0000   0.0000   0.0000   0.2208
  -3.800  -0.3689   0.00788   0.00229  -0.0096  0.9442  0.0667  -2.1265   0.0000   0.0000   0.0000   0.2208
  -3.700  -0.3586   0.00777   0.00222  -0.0094  0.9421  0.0774  -2.0444   0.0000   0.0000   0.0000   0.2206
  -3.500  -0.3382   0.00755   0.00208  -0.0090  0.9381  0.1001  -1.8830   0.0000   0.0000   0.0000   0.2202
  -3.400  -0.3279   0.00743   0.00201  -0.0089  0.9360  0.1130  -1.8030   0.0000   0.0000   0.0000   0.2199
  -3.300  -0.3175   0.00732   0.00195  -0.0087  0.9338  0.1270  -1.7276   0.0000   0.0000   0.0000   0.2195
  -3.200  -0.3073   0.00721   0.00188  -0.0085  0.9319  0.1419  -1.6579   0.0000   0.0000   0.0000   0.2193
  -3.100  -0.2970   0.00709   0.00182  -0.0084  0.9299  0.1580  -1.5884   0.0000   0.0000   0.0000   0.2188
  -3.000  -0.2866   0.00697   0.00177  -0.0083  0.9277  0.1758  -1.5197   0.0000   0.0000   0.0000   0.2183
  -2.900  -0.2764   0.00684   0.00171  -0.0081  0.9256  0.1956  -1.4523   0.0000   0.0000   0.0000   0.2179
  -2.800  -0.2662   0.00671   0.00165  -0.0079  0.9237  0.2169  -1.3858   0.0000   0.0000   0.0000   0.2175
  -2.700  -0.2558   0.00657   0.00160  -0.0078  0.9214  0.2400  -1.3194   0.0000   0.0000   0.0000   0.2167
  -2.600  -0.2455   0.00644   0.00155  -0.0076  0.9193  0.2643  -1.2544   0.0000   0.0000   0.0000   0.2161
  -2.500  -0.2354   0.00631   0.00150  -0.0074  0.9174  0.2894  -1.1905   0.0000   0.0000   0.0000   0.2156
  -2.400  -0.2249   0.00617   0.00145  -0.0073  0.9151  0.3166  -1.1304   0.0000   0.0000   0.0000   0.2146
  -2.300  -0.2146   0.00603   0.00141  -0.0072  0.9128  0.3447  -1.0739   0.0000   0.0000   0.0000   0.2137
  -2.200  -0.2045   0.00589   0.00136  -0.0070  0.9108  0.3742  -1.0186   0.0000   0.0000   0.0000   0.2130
  -2.100  -0.1942   0.00575   0.00133  -0.0069  0.9087  0.4054  -0.9636   0.0000   0.0000   0.0000   0.2119
  -2.000  -0.1839   0.00560   0.00129  -0.0067  0.9062  0.4381  -0.9094   0.0000   0.0000   0.0000   0.2107
  -1.900  -0.1738   0.00546   0.00125  -0.0065  0.9040  0.4700  -0.8562   0.0000   0.0000   0.0000   0.2097
  -1.800  -0.1636   0.00533   0.00122  -0.0063  0.9018  0.5009  -0.8058   0.0000   0.0000   0.0000   0.2086
  -1.700  -0.1533   0.00520   0.00119  -0.0062  0.8991  0.5303  -0.7586   0.0000   0.0000   0.0000   0.2070
  -1.600  -0.1431   0.00508   0.00115  -0.0060  0.8966  0.5588  -0.7122   0.0000   0.0000   0.0000   0.2056
  -1.500  -0.1329   0.00497   0.00113  -0.0058  0.8942  0.5864  -0.6664   0.0000   0.0000   0.0000   0.2040
  -1.400  -0.1225   0.00485   0.00110  -0.0056  0.8912  0.6136  -0.6231   0.0000   0.0000   0.0000   0.2019
  -1.300  -0.1124   0.00474   0.00107  -0.0053  0.8884  0.6406  -0.5827   0.0000   0.0000   0.0000   0.2000
  -1.200  -0.1023   0.00463   0.00105  -0.0051  0.8857  0.6673  -0.5434   0.0000   0.0000   0.0000   0.1978
  -1.100  -0.0921   0.00453   0.00103  -0.0048  0.8824  0.6937  -0.5074   0.0000   0.0000   0.0000   0.1949
  -1.000  -0.0821   0.00442   0.00101  -0.0045  0.8794  0.7196  -0.4753   0.0000   0.0000   0.0000   0.1924
  -0.900  -0.0720   0.00432   0.00099  -0.0042  0.8760  0.7452  -0.4494   0.0000   0.0000   0.0000   0.1888
  -0.800  -0.0621   0.00423   0.00097  -0.0039  0.8725  0.7705  -0.4268   0.0000   0.0000   0.0000   0.1848
  -0.700  -0.0523   0.00414   0.00097  -0.0035  0.8692  0.7953  -0.4060   0.0000   0.0000   0.0000   0.1809
  -0.600  -0.0424   0.00405   0.00097  -0.0031  0.8652  0.8201  -0.3861   0.0000   0.0000   0.0000   0.1748
  -0.500  -0.0328   0.00400   0.00098  -0.0026  0.8618  0.8431  -0.3673   0.0000   0.0000   0.0000   0.1683
  -0.400  -0.0228   0.00396   0.00100  -0.0022  0.8575  0.8624  -0.3491   0.0000   0.0000   0.0000   0.1504
  -0.300  -0.0128   0.00395   0.00101  -0.0018  0.8536  0.8772  -0.3316   0.0000   0.0000   0.0000   0.1054
  -0.200  -0.0024   0.00394   0.00102  -0.0015  0.8491  0.8891  -0.3144   0.0000   0.0000   0.0000  -0.3731
  -0.100   0.0078   0.00395   0.00103  -0.0011  0.8447  0.8984  -0.3114   0.0000   0.0000   0.0000   0.3981
   0.000   0.0181   0.00395   0.00104  -0.0008  0.8396  0.9063  -0.3249   0.0000   0.0000   0.0000   0.2959
   0.100   0.0284   0.00396   0.00104  -0.0005  0.8347  0.9131  -0.3383   0.0000   0.0000   0.0000   0.2669
   0.200   0.0388   0.00396   0.00104  -0.0002  0.8286  0.9192  -0.3522   0.0000   0.0000   0.0000   0.2546
   0.300   0.0490   0.00397   0.00104   0.0001  0.8223  0.9248  -0.3664   0.0000   0.0000   0.0000   0.2468
   0.400   0.0591   0.00398   0.00105   0.0004  0.8152  0.9294  -0.3806   0.0000   0.0000   0.0000   0.2408
   0.500   0.0692   0.00399   0.00104   0.0008  0.8068  0.9338  -0.3949   0.0000   0.0000   0.0000   0.2367
   0.600   0.0792   0.00401   0.00104   0.0012  0.7970  0.9383  -0.4098   0.0000   0.0000   0.0000   0.2334
   0.700   0.0891   0.00404   0.00104   0.0016  0.7853  0.9422  -0.4246   0.0000   0.0000   0.0000   0.2302
   0.800   0.0988   0.00407   0.00103   0.0020  0.7709  0.9460  -0.4394   0.0000   0.0000   0.0000   0.2275
   0.900   0.1084   0.00412   0.00102   0.0025  0.7539  0.9499  -0.4547   0.0000   0.0000   0.0000   0.2249
   1.000   0.1178   0.00418   0.00102   0.0030  0.7350  0.9531  -0.4701   0.0000   0.0000   0.0000   0.2225
   1.100   0.1273   0.00425   0.00102   0.0035  0.7150  0.9565  -0.4856   0.0000   0.0000   0.0000   0.2206
   1.200   0.1368   0.00433   0.00103   0.0039  0.6952  0.9599  -0.5016   0.0000   0.0000   0.0000   0.2192
   1.300   0.1466   0.00441   0.00105   0.0043  0.6761  0.9627  -0.5182   0.0000   0.0000   0.0000   0.2184
   1.400   0.1563   0.00450   0.00106   0.0047  0.6569  0.9659  -0.5348   0.0000   0.0000   0.0000   0.2177
   1.500   0.1666   0.00458   0.00108   0.0049  0.6374  0.9685  -0.5526   0.0000   0.0000   0.0000   0.2181
   1.600   0.1770   0.00466   0.00109   0.0051  0.6184  0.9712  -0.5708   0.0000   0.0000   0.0000   0.2186
   1.800   0.1992   0.00483   0.00113   0.0052  0.5785  0.9759  -0.6098   0.0000   0.0000   0.0000   0.2213
   1.900   0.2103   0.00492   0.00115   0.0052  0.5590  0.9784  -0.6301   0.0000   0.0000   0.0000   0.2226
   2.000   0.2230   0.00502   0.00118   0.0049  0.5379  0.9800  -0.6528   0.0000   0.0000   0.0000   0.2255
   2.100   0.2349   0.00512   0.00121   0.0047  0.5173  0.9821  -0.6757   0.0000   0.0000   0.0000   0.2274
   2.200   0.2484   0.00522   0.00124   0.0042  0.4959  0.9833  -0.7012   0.0000   0.0000   0.0000   0.2306
   2.300   0.2615   0.00533   0.00127   0.0037  0.4747  0.9848  -0.7277   0.0000   0.0000   0.0000   0.2331
   2.400   0.2749   0.00544   0.00130   0.0032  0.4533  0.9860  -0.7620   0.0000   0.0000   0.0000   0.2358
   2.500   0.2889   0.00556   0.00134   0.0025  0.4312  0.9869  -0.8189   0.0000   0.0000   0.0000   0.2387
   2.600   0.3027   0.00567   0.00137   0.0019  0.4094  0.9880  -0.8778   0.0000   0.0000   0.0000   0.2412
   2.700   0.3169   0.00579   0.00142   0.0012  0.3874  0.9889  -0.9439   0.0000   0.0000   0.0000   0.2437
   2.800   0.3312   0.00592   0.00146   0.0004  0.3654  0.9896  -1.0116   0.0000   0.0000   0.0000   0.2462
   2.900   0.3451   0.00604   0.00150  -0.0003  0.3437  0.9905  -1.0794   0.0000   0.0000   0.0000   0.2482
   3.000   0.3589   0.00617   0.00155  -0.0010  0.3220  0.9914  -1.1483   0.0000   0.0000   0.0000   0.2499
   3.100   0.3730   0.00631   0.00160  -0.0017  0.2993  0.9921  -1.2272   0.0000   0.0000   0.0000   0.2518
   3.200   0.3868   0.00646   0.00165  -0.0024  0.2746  0.9930  -1.3060   0.0000   0.0000   0.0000   0.2533
   3.300   0.4005   0.00663   0.00171  -0.0031  0.2494  0.9938  -1.3861   0.0000   0.0000   0.0000   0.2548
   3.400   0.4145   0.00678   0.00177  -0.0038  0.2271  0.9945  -1.4682   0.0000   0.0000   0.0000   0.2562
   3.500   0.4281   0.00691   0.00183  -0.0044  0.2093  0.9955  -1.5507   0.0000   0.0000   0.0000   0.2574
   3.600   0.4422   0.00703   0.00189  -0.0052  0.1939  0.9961  -1.6361   0.0000   0.0000   0.0000   0.2587
   3.700   0.4561   0.00714   0.00194  -0.0059  0.1808  0.9968  -1.7218   0.0000   0.0000   0.0000   0.2598
   3.800   0.4701   0.00725   0.00200  -0.0065  0.1686  0.9975  -1.8093   0.0000   0.0000   0.0000   0.2608
   3.900   0.4840   0.00736   0.00206  -0.0072  0.1572  0.9982  -1.9050   0.0000   0.0000   0.0000   0.2618
   4.000   0.4979   0.00747   0.00213  -0.0079  0.1464  0.9988  -2.0056   0.0000   0.0000   0.0000   0.2627
   4.100   0.5119   0.00757   0.00219  -0.0086  0.1363  0.9995  -2.1078   0.0000   0.0000   0.0000   0.2635
   4.200   0.5251   0.00767   0.00225  -0.0091  0.1270  1.0000  -2.2087   0.0000   0.0000   0.0000   0.2641
   4.300   0.5350   0.00777   0.00232  -0.0089  0.1187  1.0000  -2.2966   0.0000   0.0000   0.0000   0.2633
   4.400   0.5448   0.00787   0.00239  -0.0087  0.1099  1.0000  -2.3851   0.0000   0.0000   0.0000   0.2625
   4.600   0.5642   0.00810   0.00254  -0.0083  0.0907  1.0000  -2.5638   0.0000   0.0000   0.0000   0.2611
   4.700   0.5737   0.00824   0.00263  -0.0080  0.0798  1.0000  -2.6535   0.0000   0.0000   0.0000   0.2603
   4.800   0.5831   0.00840   0.00273  -0.0078  0.0680  1.0000  -2.7431   0.0000   0.0000   0.0000   0.2596
   4.900   0.5924   0.00857   0.00284  -0.0075  0.0554  1.0000  -2.8321   0.0000   0.0000   0.0000   0.2588
   5.000   0.6015   0.00878   0.00297  -0.0072  0.0430  1.0000  -2.9200   0.0000   0.0000   0.0000   0.2580
   5.100   0.6105   0.00898   0.00312  -0.0068  0.0336  1.0000  -3.0071   0.0000   0.0000   0.0000   0.2572
   5.200   0.6196   0.00915   0.00326  -0.0065  0.0281  1.0000  -3.0940   0.0000   0.0000   0.0000   0.2564
   5.300   0.6288   0.00931   0.00341  -0.0061  0.0247  1.0000  -3.1810   0.0000   0.0000   0.0000   0.2556
   5.400   0.6378   0.00949   0.00356  -0.0057  0.0222  1.0000  -3.2679   0.0000   0.0000   0.0000   0.2548
   5.500   0.6471   0.00960   0.00369  -0.0054  0.0206  1.0000  -3.3577   0.0000   0.0000   0.0000   0.2540
   5.600   0.6561   0.00976   0.00384  -0.0050  0.0192  1.0000  -3.4568   0.0000   0.0000   0.0000   0.2533
   5.700   0.6653   0.00989   0.00398  -0.0046  0.0181  1.0000  -3.5594   0.0000   0.0000   0.0000   0.2525
   5.800   0.6745   0.01001   0.00411  -0.0043  0.0173  1.0000  -3.6648   0.0000   0.0000   0.0000   0.2518
   5.900   0.6835   0.01016   0.00426  -0.0039  0.0165  1.0000  -3.7701   0.0000   0.0000   0.0000   0.2511
   6.000   0.6922   0.01039   0.00449  -0.0034  0.0157  1.0000  -3.8684   0.0000   0.0000   0.0000   0.2503
   6.100   0.7015   0.01050   0.00463  -0.0031  0.0153  1.0000  -3.9756   0.0000   0.0000   0.0000   0.2496
   6.200   0.7107   0.01064   0.00478  -0.0027  0.0148  1.0000  -4.0831   0.0000   0.0000   0.0000   0.2490
   6.300   0.7199   0.01078   0.00493  -0.0023  0.0143  1.0000  -4.1923   0.0000   0.0000   0.0000   0.2483
   6.400   0.7290   0.01093   0.00509  -0.0020  0.0138  1.0000  -4.3030   0.0000   0.0000   0.0000   0.2477
   6.500   0.7379   0.01114   0.00531  -0.0016  0.0134  1.0000  -4.4105   0.0000   0.0000   0.0000   0.2471
   6.600   0.7463   0.01147   0.00566  -0.0012  0.0130  1.0000  -4.5047   0.0000   0.0000   0.0000   0.2463
   6.700   0.7559   0.01161   0.00582  -0.0009  0.0127  1.0000  -4.6180   0.0000   0.0000   0.0000   0.2459
   6.800   0.7656   0.01177   0.00600  -0.0006  0.0125  1.0000  -4.7314   0.0000   0.0000   0.0000   0.2454
   6.900   0.7753   0.01193   0.00619  -0.0004  0.0122  1.0000  -4.8468   0.0000   0.0000   0.0000   0.2450
   7.000   0.7851   0.01210   0.00637  -0.0002  0.0119  1.0000  -4.9652   0.0000   0.0000   0.0000   0.2446
   7.100   0.7949   0.01227   0.00655   0.0000  0.0115  1.0000  -5.0872   0.0000   0.0000   0.0000   0.2443
   7.200   0.8047   0.01244   0.00674   0.0002  0.0112  1.0000  -5.2119   0.0000   0.0000   0.0000   0.2440
   7.300   0.8144   0.01266   0.00696   0.0004  0.0110  1.0000  -5.3354   0.0000   0.0000   0.0000   0.2437
   7.400   0.8234   0.01301   0.00733   0.0007  0.0107  1.0000  -5.4444   0.0000   0.0000   0.0000   0.2432
   7.500   0.8319   0.01348   0.00784   0.0010  0.0104  1.0000  -5.5350   0.0000   0.0000   0.0000   0.2427
   7.600   0.8419   0.01366   0.00804   0.0012  0.0103  1.0000  -5.6566   0.0000   0.0000   0.0000   0.2425
   7.700   0.8518   0.01387   0.00828   0.0013  0.0101  1.0000  -5.7761   0.0000   0.0000   0.0000   0.2422
   7.800   0.8616   0.01410   0.00854   0.0015  0.0100  1.0000  -5.8943   0.0000   0.0000   0.0000   0.2419
   7.900   0.8713   0.01435   0.00882   0.0017  0.0098  1.0000  -6.0119   0.0000   0.0000   0.0000   0.2416
   8.000   0.8810   0.01461   0.00911   0.0019  0.0097  1.0000  -6.1300   0.0000   0.0000   0.0000   0.2413
   8.100   0.8906   0.01487   0.00941   0.0020  0.0095  1.0000  -6.2487   0.0000   0.0000   0.0000   0.2410
   8.200   0.9002   0.01515   0.00971   0.0022  0.0093  1.0000  -6.3685   0.0000   0.0000   0.0000   0.2407
   8.300   0.9097   0.01543   0.01002   0.0024  0.0092  1.0000  -6.5064   0.0000   0.0000   0.0000   0.2404
   8.400   0.9192   0.01571   0.01032   0.0026  0.0091  1.0000  -6.6479   0.0000   0.0000   0.0000   0.2402
   8.500   0.9287   0.01599   0.01064   0.0028  0.0089  1.0000  -6.7913   0.0000   0.0000   0.0000   0.2399
   8.600   0.9381   0.01629   0.01096   0.0029  0.0088  1.0000  -6.9358   0.0000   0.0000   0.0000   0.2396
   8.700   0.9474   0.01660   0.01129   0.0031  0.0087  1.0000  -7.0804   0.0000   0.0000   0.0000   0.2394
   8.800   0.9564   0.01696   0.01168   0.0033  0.0086  1.0000  -7.2225   0.0000   0.0000   0.0000   0.2391
   8.900   0.9651   0.01740   0.01215   0.0036  0.0085  1.0000  -7.3569   0.0000   0.0000   0.0000   0.2387
   9.000   0.9729   0.01802   0.01281   0.0039  0.0083  1.0000  -7.4733   0.0000   0.0000   0.0000   0.2383
   9.100   0.9790   0.01902   0.01389   0.0044  0.0082  1.0000  -7.5469   0.0000   0.0000   0.0000   0.2377
   9.200   0.9871   0.01961   0.01454   0.0047  0.0081  1.0000  -7.6602   0.0000   0.0000   0.0000   0.2373
   9.300   0.9963   0.01993   0.01492   0.0049  0.0081  1.0000  -7.8008   0.0000   0.0000   0.0000   0.2370
   9.400   1.0054   0.02028   0.01533   0.0051  0.0080  1.0000  -7.9388   0.0000   0.0000   0.0000   0.2368
   9.500   1.0143   0.02065   0.01576   0.0054  0.0079  1.0000  -8.0762   0.0000   0.0000   0.0000   0.2365
   9.600   1.0230   0.02104   0.01622   0.0056  0.0078  1.0000  -8.2121   0.0000   0.0000   0.0000   0.2362
   9.700   1.0316   0.02146   0.01670   0.0059  0.0077  1.0000  -8.3464   0.0000   0.0000   0.0000   0.2358
   9.800   1.0399   0.02190   0.01721   0.0061  0.0076  1.0000  -8.4798   0.0000   0.0000   0.0000   0.2355
   9.900   1.0481   0.02237   0.01774   0.0064  0.0075  1.0000  -8.6124   0.0000   0.0000   0.0000   0.2352
  10.000   1.0561   0.02286   0.01829   0.0066  0.0073  1.0000  -8.7440   0.0000   0.0000   0.0000   0.2349
  10.100   1.0638   0.02338   0.01888   0.0069  0.0072  1.0000  -8.8730   0.0000   0.0000   0.0000   0.2345
  10.200   1.0712   0.02395   0.01952   0.0073  0.0072  1.0000  -8.9961   0.0000   0.0000   0.0000   0.2341
  10.300   1.0784   0.02455   0.02018   0.0076  0.0071  1.0000  -9.1170   0.0000   0.0000   0.0000   0.2338
  10.400   1.0854   0.02515   0.02086   0.0079  0.0070  1.0000  -9.2380   0.0000   0.0000   0.0000   0.2334
  10.500   1.0922   0.02576   0.02154   0.0082  0.0069  1.0000  -9.3593   0.0000   0.0000   0.0000   0.2330
  10.600   1.0988   0.02638   0.02223   0.0086  0.0069  1.0000  -9.4812   0.0000   0.0000   0.0000   0.2326
  10.700   1.1050   0.02705   0.02297   0.0090  0.0068  1.0000  -9.5973   0.0000   0.0000   0.0000   0.2322
  10.800   1.1109   0.02772   0.02372   0.0093  0.0068  1.0000  -9.7122   0.0000   0.0000   0.0000   0.2318
  10.900   1.1165   0.02841   0.02448   0.0097  0.0067  1.0000  -9.8257   0.0000   0.0000   0.0000   0.2313
  11.000   1.1218   0.02912   0.02527   0.0101  0.0067  1.0000  -9.9373   0.0000   0.0000   0.0000   0.2309
  11.100   1.1267   0.02986   0.02607   0.0105  0.0066  1.0000  -10.0462   0.0000   0.0000   0.0000   0.2304
  11.200   1.1311   0.03062   0.02691   0.0110  0.0066  1.0000  -10.1514   0.0000   0.0000   0.0000   0.2300
  11.300   1.1351   0.03141   0.02777   0.0114  0.0065  1.0000  -10.2516   0.0000   0.0000   0.0000   0.2295
  11.400   1.1384   0.03225   0.02869   0.0119  0.0065  1.0000  -10.3448   0.0000   0.0000   0.0000   0.2290
  11.500   1.1410   0.03314   0.02966   0.0124  0.0065  1.0000  -10.4289   0.0000   0.0000   0.0000   0.2284
  11.600   1.1426   0.03409   0.03069   0.0129  0.0064  1.0000  -10.5019   0.0000   0.0000   0.0000   0.2278
  11.700   1.1432   0.03511   0.03180   0.0135  0.0064  1.0000  -10.5621   0.0000   0.0000   0.0000   0.2272
  11.800   1.1420   0.03615   0.03292   0.0143  0.0064  1.0000  -10.6037   0.0000   0.0000   0.0000   0.2264
  11.900   1.1392   0.03724   0.03408   0.0151  0.0064  1.0000  -10.6295   0.0000   0.0000   0.0000   0.2255
  12.000   1.1354   0.03840   0.03533   0.0158  0.0064  1.0000  -10.6431   0.0000   0.0000   0.0000   0.2247
  12.100   1.1309   0.03967   0.03668   0.0164  0.0064  1.0000  -10.6468   0.0000   0.0000   0.0000   0.2240
  12.200   1.1259   0.04105   0.03815   0.0167  0.0064  1.0000  -10.6421   0.0000   0.0000   0.0000   0.2235
  12.300   1.1204   0.04257   0.03974   0.0168  0.0063  1.0000  -10.6294   0.0000   0.0000   0.0000   0.2232
  12.400   1.1145   0.04424   0.04149   0.0166  0.0063  1.0000  -10.6088   0.0000   0.0000   0.0000   0.2231
  12.500   1.1083   0.04609   0.04343   0.0160  0.0063  1.0000  -10.5797   0.0000   0.0000   0.0000   0.2234
  12.600   1.1018   0.04816   0.04559   0.0150  0.0063  1.0000  -10.5407   0.0000   0.0000   0.0000   0.2240
  12.700   1.0949   0.05053   0.04803   0.0135  0.0064  1.0000  -10.4896   0.0000   0.0000   0.0000   0.2251
  12.800   1.0876   0.05326   0.05086   0.0114  0.0064  1.0000  -10.4217   0.0000   0.0000   0.0000   0.2268
  12.900   1.0794   0.05648   0.05417   0.0087  0.0064  1.0000  -10.3283   0.0000   0.0000   0.0000   0.2290
  13.000   1.0695   0.06049   0.05828   0.0052  0.0064  1.0000  -10.1864   0.0000   0.0000   0.0000   0.2321
  13.100   1.0523   0.06672   0.06466  -0.0003  0.0065  1.0000  -9.8773   0.0000   0.0000   0.0000   0.2370
  13.200   0.8280   0.12643   0.12488  -0.0348  0.0081  1.0000  -5.1283   0.0000   0.0000   0.0000   0.2809
  15.600   0.7932   0.19394   0.19229  -0.0619  0.0087  1.0000  -2.4191   0.0000   0.0000   0.0000   0.3162
  15.700   0.7957   0.19537   0.19373  -0.0626  0.0086  1.0000  -2.4392   0.0000   0.0000   0.0000   0.3167
  15.800   0.7983   0.19675   0.19510  -0.0632  0.0086  1.0000  -2.4652   0.0000   0.0000   0.0000   0.3172
  15.900   0.8010   0.19806   0.19642  -0.0639  0.0085  1.0000  -2.4972   0.0000   0.0000   0.0000   0.3176
  16.000   0.8038   0.19931   0.19767  -0.0645  0.0084  1.0000  -2.5358   0.0000   0.0000   0.0000   0.3179
  16.100   0.8068   0.20049   0.19885  -0.0650  0.0084  1.0000  -2.5820   0.0000   0.0000   0.0000   0.3182
  16.200   0.8098   0.20158   0.19995  -0.0655  0.0083  1.0000  -2.6372   0.0000   0.0000   0.0000   0.3183
  16.300   0.8129   0.20267   0.20103  -0.0660  0.0083  1.0000  -2.6957   0.0000   0.0000   0.0000   0.3184
  16.400   0.8156   0.20380   0.20217  -0.0664  0.0082  1.0000  -2.7539   0.0000   0.0000   0.0000   0.3185
  16.500   0.8165   0.20584   0.20420  -0.0671  0.0081  1.0000  -2.7304   0.0000   0.0000   0.0000   0.3192
  16.600   0.8188   0.20771   0.20607  -0.0681  0.0081  1.0000  -2.7010   0.0000   0.0000   0.0000   0.3200
  16.700   0.8211   0.20958   0.20795  -0.0690  0.0081  1.0000  -2.6728   0.0000   0.0000   0.0000   0.3208
  16.800   0.8234   0.21159   0.20995  -0.0700  0.0081  1.0000  -2.6284   0.0000   0.0000   0.0000   0.3217
  16.900   0.8256   0.21363   0.21199  -0.0711  0.0081  1.0000  -2.5784   0.0000   0.0000   0.0000   0.3227
  17.000   0.8277   0.21583   0.21419  -0.0723  0.0081  1.0000  -2.5057   0.0000   0.0000   0.0000   0.3239
  17.100   0.8291   0.21925   0.21760  -0.0743  0.0078  1.0000  -2.2970   0.0000   0.0000   0.0000   0.3262
  17.200   0.8319   0.22126   0.21961  -0.0753  0.0076  1.0000  -2.2449   0.0000   0.0000   0.0000   0.3271
  17.300   0.8347   0.22294   0.22130  -0.0761  0.0074  1.0000  -2.2342   0.0000   0.0000   0.0000   0.3277
  17.400   0.8375   0.22457   0.22292  -0.0770  0.0072  1.0000  -2.2313   0.0000   0.0000   0.0000   0.3283
  17.500   0.8404   0.22612   0.22448  -0.0778  0.0071  1.0000  -2.2328   0.0000   0.0000   0.0000   0.3288
  17.600   0.8433   0.22764   0.22599  -0.0786  0.0070  1.0000  -2.2376   0.0000   0.0000   0.0000   0.3293
  17.700   0.8462   0.22911   0.22746  -0.0794  0.0069  1.0000  -2.2457   0.0000   0.0000   0.0000   0.3299
  17.800   0.8492   0.23054   0.22889  -0.0802  0.0068  1.0000  -2.2569   0.0000   0.0000   0.0000   0.3303
  17.900   0.8521   0.23194   0.23029  -0.0810  0.0067  1.0000  -2.2714   0.0000   0.0000   0.0000   0.3308
  18.000   0.8551   0.23330   0.23166  -0.0818  0.0066  1.0000  -2.2894   0.0000   0.0000   0.0000   0.3312
  18.100   0.8581   0.23463   0.23299  -0.0826  0.0065  1.0000  -2.3108   0.0000   0.0000   0.0000   0.3317
  18.200   0.8612   0.23592   0.23428  -0.0834  0.0065  1.0000  -2.3362   0.0000   0.0000   0.0000   0.3321
  18.300   0.8642   0.23718   0.23554  -0.0841  0.0064  1.0000  -2.3656   0.0000   0.0000   0.0000   0.3324
  18.400   0.8673   0.23840   0.23676  -0.0848  0.0064  1.0000  -2.3993   0.0000   0.0000   0.0000   0.3327
  18.500   0.8704   0.23963   0.23800  -0.0855  0.0063  1.0000  -2.4378   0.0000   0.0000   0.0000   0.3330
  18.600   0.8735   0.24078   0.23915  -0.0862  0.0063  1.0000  -2.4820   0.0000   0.0000   0.0000   0.3332
  18.700   0.8766   0.24188   0.24025  -0.0867  0.0062  1.0000  -2.5337   0.0000   0.0000   0.0000   0.3334
  18.800   0.8798   0.24293   0.24130  -0.0872  0.0062  1.0000  -2.5970   0.0000   0.0000   0.0000   0.3333
  18.900   0.8821   0.24464   0.24301  -0.0877  0.0061  1.0000  -2.5975   0.0000   0.0000   0.0000   0.3335
  19.000   0.8850   0.24638   0.24475  -0.0887  0.0061  1.0000  -2.5659   0.0000   0.0000   0.0000   0.3342
  19.100   0.8878   0.24821   0.24658  -0.0897  0.0061  1.0000  -2.5199   0.0000   0.0000   0.0000   0.3349
  19.200   0.8907   0.25005   0.24842  -0.0908  0.0061  1.0000  -2.4716   0.0000   0.0000   0.0000   0.3357
  19.300   0.8935   0.25194   0.25031  -0.0920  0.0061  1.0000  -2.4108   0.0000   0.0000   0.0000   0.3366
  19.400   0.8964   0.25393   0.25229  -0.0932  0.0061  1.0000  -2.3411   0.0000   0.0000   0.0000   0.3375
  19.500   0.8994   0.25598   0.25434  -0.0944  0.0060  1.0000  -2.2652   0.0000   0.0000   0.0000   0.3385
  19.600   0.9027   0.25820   0.25656  -0.0957  0.0059  1.0000  -2.1638   0.0000   0.0000   0.0000   0.3394
  19.700   0.9062   0.26019   0.25855  -0.0968  0.0057  1.0000  -2.0915   0.0000   0.0000   0.0000   0.3401
  19.800   0.9095   0.26181   0.26017  -0.0977  0.0056  1.0000  -2.0699   0.0000   0.0000   0.0000   0.3406
  19.900   0.9127   0.26334   0.26170  -0.0986  0.0055  1.0000  -2.0599   0.0000   0.0000   0.0000   0.3411
  20.000   0.9159   0.26487   0.26323  -0.0995  0.0053  1.0000  -2.0549   0.0000   0.0000   0.0000   0.3415
  20.100   0.9191   0.26636   0.26472  -0.1004  0.0052  1.0000  -2.0527   0.0000   0.0000   0.0000   0.3420
  20.200   0.9223   0.26780   0.26616  -0.1013  0.0052  1.0000  -2.0521   0.0000   0.0000   0.0000   0.3424
  20.300   0.9255   0.26926   0.26763  -0.1021  0.0051  1.0000  -2.0529   0.0000   0.0000   0.0000   0.3428
  20.400   0.9288   0.27069   0.26906  -0.1030  0.0050  1.0000  -2.0553   0.0000   0.0000   0.0000   0.3433
  20.500   0.9320   0.27210   0.27047  -0.1039  0.0049  1.0000  -2.0594   0.0000   0.0000   0.0000   0.3437
  20.600   0.9352   0.27349   0.27186  -0.1048  0.0049  1.0000  -2.0651   0.0000   0.0000   0.0000   0.3441
  20.700   0.9384   0.27487   0.27323  -0.1057  0.0048  1.0000  -2.0727   0.0000   0.0000   0.0000   0.3445
  20.800   0.9416   0.27623   0.27460  -0.1066  0.0048  1.0000  -2.0821   0.0000   0.0000   0.0000   0.3449
  20.900   0.9448   0.27756   0.27594  -0.1075  0.0047  1.0000  -2.0934   0.0000   0.0000   0.0000   0.3452
  21.000   0.9480   0.27888   0.27726  -0.1083  0.0047  1.0000  -2.1167   0.0000   0.0000   0.0000   0.3456
  21.100   0.9512   0.28017   0.27855  -0.1092  0.0046  1.0000  -2.1421   0.0000   0.0000   0.0000   0.3460
  21.200   0.9544   0.28145   0.27983  -0.1101  0.0046  1.0000  -2.1695   0.0000   0.0000   0.0000   0.3463
  21.300   0.9575   0.28270   0.28108  -0.1110  0.0046  1.0000  -2.1991   0.0000   0.0000   0.0000   0.3467
  21.400   0.9607   0.28399   0.28237  -0.1118  0.0045  1.0000  -2.2311   0.0000   0.0000   0.0000   0.3470
  21.500   0.9638   0.28521   0.28359  -0.1126  0.0045  1.0000  -2.2658   0.0000   0.0000   0.0000   0.3473
  21.600   0.9669   0.28640   0.28479  -0.1134  0.0045  1.0000  -2.3038   0.0000   0.0000   0.0000   0.3475
  21.700   0.9699   0.28758   0.28597  -0.1142  0.0045  1.0000  -2.3459   0.0000   0.0000   0.0000   0.3478
  21.800   0.9729   0.28873   0.28712  -0.1149  0.0044  1.0000  -2.3942   0.0000   0.0000   0.0000   0.3479
  21.900   0.9758   0.28995   0.28834  -0.1154  0.0044  1.0000  -2.4562   0.0000   0.0000   0.0000   0.3478
  22.000   0.9788   0.29155   0.28995  -0.1161  0.0044  1.0000  -2.4633   0.0000   0.0000   0.0000   0.3481
  22.100   0.9820   0.29312   0.29152  -0.1172  0.0044  1.0000  -2.4493   0.0000   0.0000   0.0000   0.3486
  22.200   0.9851   0.29477   0.29316  -0.1183  0.0044  1.0000  -2.4273   0.0000   0.0000   0.0000   0.3492
  22.300   0.9883   0.29649   0.29488  -0.1195  0.0044  1.0000  -2.3968   0.0000   0.0000   0.0000   0.3499
  22.400   0.9916   0.29819   0.29658  -0.1207  0.0044  1.0000  -2.3626   0.0000   0.0000   0.0000   0.3505
  22.500   0.9950   0.29990   0.29829  -0.1219  0.0043  1.0000  -2.3268   0.0000   0.0000   0.0000   0.3512
  22.600   0.9984   0.30158   0.29998  -0.1230  0.0043  1.0000  -2.2944   0.0000   0.0000   0.0000   0.3518
  22.700   1.0019   0.30334   0.30173  -0.1241  0.0043  1.0000  -2.2600   0.0000   0.0000   0.0000   0.3523
  22.800   1.0056   0.30510   0.30349  -0.1252  0.0043  1.0000  -2.2154   0.0000   0.0000   0.0000   0.3529
  22.900   1.0094   0.30694   0.30533  -0.1263  0.0041  1.0000  -2.1651   0.0000   0.0000   0.0000   0.3533
  23.000   1.0129   0.30849   0.30688  -0.1273  0.0040  1.0000  -2.1433   0.0000   0.0000   0.0000   0.3537
  23.100   1.0162   0.30995   0.30834  -0.1282  0.0039  1.0000  -2.1373   0.0000   0.0000   0.0000   0.3541
  23.200   1.0195   0.31140   0.30979  -0.1292  0.0037  1.0000  -2.1366   0.0000   0.0000   0.0000   0.3544
  23.300   1.0227   0.31279   0.31119  -0.1301  0.0036  1.0000  -2.1388   0.0000   0.0000   0.0000   0.3548
  23.400   1.0260   0.31415   0.31255  -0.1311  0.0035  1.0000  -2.1433   0.0000   0.0000   0.0000   0.3551
  23.500   1.0292   0.31549   0.31389  -0.1321  0.0034  1.0000  -2.1500   0.0000   0.0000   0.0000   0.3555
  23.600   1.0323   0.31681   0.31521  -0.1330  0.0034  1.0000  -2.1591   0.0000   0.0000   0.0000   0.3558
  23.700   1.0355   0.31806   0.31646  -0.1340  0.0033  1.0000  -2.1709   0.0000   0.0000   0.0000   0.3561
  23.800   1.0387   0.31929   0.31769  -0.1349  0.0032  1.0000  -2.1854   0.0000   0.0000   0.0000   0.3564
  23.900   1.0418   0.32059   0.31900  -0.1359  0.0032  1.0000  -2.2028   0.0000   0.0000   0.0000   0.3568
  24.000   1.0448   0.32181   0.32021  -0.1368  0.0031  1.0000  -2.2233   0.0000   0.0000   0.0000   0.3571
  24.100   1.0479   0.32299   0.32140  -0.1378  0.0031  1.0000  -2.2468   0.0000   0.0000   0.0000   0.3574
  24.200   1.0509   0.32415   0.32256  -0.1387  0.0030  1.0000  -2.2734   0.0000   0.0000   0.0000   0.3577
  24.300   1.0538   0.32532   0.32373  -0.1396  0.0030  1.0000  -2.3032   0.0000   0.0000   0.0000   0.3580
  24.400   1.0567   0.32644   0.32485  -0.1406  0.0030  1.0000  -2.3363   0.0000   0.0000   0.0000   0.3582
  24.500   1.0596   0.32753   0.32595  -0.1414  0.0030  1.0000  -2.3733   0.0000   0.0000   0.0000   0.3585
  24.600   1.0623   0.32862   0.32704  -0.1423  0.0029  1.0000  -2.4153   0.0000   0.0000   0.0000   0.3587
  24.700   1.0648   0.32974   0.32817  -0.1429  0.0029  1.0000  -2.4673   0.0000   0.0000   0.0000   0.3587
  24.800   1.0678   0.33141   0.32983  -0.1439  0.0029  1.0000  -2.4300   0.0000   0.0000   0.0000   0.3590
  24.900   1.0712   0.33313   0.33155  -0.1451  0.0029  1.0000  -2.3611   0.0000   0.0000   0.0000   0.3596
  25.000   1.0745   0.33478   0.33320  -0.1462  0.0029  1.0000  -2.3027   0.0000   0.0000   0.0000   0.3601
  25.100   1.0779   0.33637   0.33479  -0.1474  0.0029  1.0000  -2.2524   0.0000   0.0000   0.0000   0.3605
  25.200   1.0813   0.33795   0.33637  -0.1485  0.0029  1.0000  -2.2076   0.0000   0.0000   0.0000   0.3610
  25.300   1.0846   0.33951   0.33794  -0.1496  0.0029  1.0000  -2.1667   0.0000   0.0000   0.0000   0.3614
  25.400   1.0880   0.34107   0.33949  -0.1507  0.0028  1.0000  -2.1285   0.0000   0.0000   0.0000   0.3618
  25.500   1.0914   0.34263   0.34106  -0.1517  0.0028  1.0000  -2.0923   0.0000   0.0000   0.0000   0.3621
  25.600   1.0949   0.34410   0.34253  -0.1528  0.0028  1.0000  -2.0579   0.0000   0.0000   0.0000   0.3625
  25.700   1.0983   0.34558   0.34401  -0.1539  0.0028  1.0000  -2.0252   0.0000   0.0000   0.0000   0.3628
  25.800   1.1018   0.34700   0.34543  -0.1549  0.0028  1.0000  -1.9957   0.0000   0.0000   0.0000   0.3631
  25.900   1.1052   0.34840   0.34683  -0.1559  0.0027  1.0000  -1.9715   0.0000   0.0000   0.0000   0.3635
  26.000   1.1085   0.34966   0.34810  -0.1569  0.0027  1.0000  -1.9544   0.0000   0.0000   0.0000   0.3638
  26.100   1.1118   0.35094   0.34938  -0.1580  0.0026  1.0000  -1.9430   0.0000   0.0000   0.0000   0.3640
  26.200   1.1150   0.35220   0.35063  -0.1590  0.0025  1.0000  -1.9355   0.0000   0.0000   0.0000   0.3643
  26.300   1.1182   0.35342   0.35186  -0.1600  0.0025  1.0000  -1.9305   0.0000   0.0000   0.0000   0.3646
  26.400   1.1213   0.35461   0.35305  -0.1611  0.0024  1.0000  -1.9271   0.0000   0.0000   0.0000   0.3649
  26.500   1.1245   0.35578   0.35423  -0.1621  0.0024  1.0000  -1.9327   0.0000   0.0000   0.0000   0.3652
  26.600   1.1276   0.35694   0.35538  -0.1631  0.0024  1.0000  -1.9408   0.0000   0.0000   0.0000   0.3655
  26.700   1.1307   0.35808   0.35652  -0.1642  0.0023  1.0000  -1.9496   0.0000   0.0000   0.0000   0.3658
  26.800   1.1338   0.35921   0.35765  -0.1652  0.0023  1.0000  -1.9587   0.0000   0.0000   0.0000   0.3661
  26.900   1.1369   0.36030   0.35875  -0.1662  0.0022  1.0000  -1.9683   0.0000   0.0000   0.0000   0.3664
  27.000   1.1400   0.36143   0.35989  -0.1673  0.0022  1.0000  -1.9783   0.0000   0.0000   0.0000   0.3667
  27.100   1.1431   0.36253   0.36099  -0.1683  0.0022  1.0000  -1.9887   0.0000   0.0000   0.0000   0.3670
  27.200   1.1461   0.36363   0.36208  -0.1694  0.0021  1.0000  -1.9994   0.0000   0.0000   0.0000   0.3673
  27.300   1.1491   0.36471   0.36317  -0.1704  0.0021  1.0000  -2.0104   0.0000   0.0000   0.0000   0.3676
  27.400   1.1521   0.36579   0.36425  -0.1715  0.0021  1.0000  -2.0219   0.0000   0.0000   0.0000   0.3678
  27.500   1.1551   0.36686   0.36532  -0.1725  0.0021  1.0000  -2.0337   0.0000   0.0000   0.0000   0.3681
  27.600   1.1581   0.36792   0.36639  -0.1736  0.0020  1.0000  -2.0459   0.0000   0.0000   0.0000   0.3684
  27.700   1.1611   0.36898   0.36745  -0.1746  0.0020  1.0000  -2.0585   0.0000   0.0000   0.0000   0.3687
  27.800   1.1640   0.37003   0.36850  -0.1757  0.0020  1.0000  -2.0716   0.0000   0.0000   0.0000   0.3690
  27.900   1.1669   0.37105   0.36953  -0.1767  0.0020  1.0000  -2.0853   0.0000   0.0000   0.0000   0.3692
  28.000   1.1698   0.37208   0.37055  -0.1778  0.0020  1.0000  -2.1000   0.0000   0.0000   0.0000   0.3695
  28.100   1.1727   0.37309   0.37157  -0.1789  0.0019  1.0000  -2.1159   0.0000   0.0000   0.0000   0.3698
  28.200   1.1755   0.37409   0.37257  -0.1799  0.0019  1.0000  -2.1331   0.0000   0.0000   0.0000   0.3701
  28.300   1.1783   0.37507   0.37355  -0.1810  0.0019  1.0000  -2.1515   0.0000   0.0000   0.0000   0.3703
  28.400   1.1811   0.37603   0.37452  -0.1820  0.0019  1.0000  -2.1714   0.0000   0.0000   0.0000   0.3706
  28.500   1.1838   0.37698   0.37547  -0.1831  0.0019  1.0000  -2.1927   0.0000   0.0000   0.0000   0.3709
  28.600   1.1865   0.37792   0.37641  -0.1841  0.0018  1.0000  -2.2155   0.0000   0.0000   0.0000   0.3711
  28.700   1.1891   0.37888   0.37737  -0.1852  0.0018  1.0000  -2.2399   0.0000   0.0000   0.0000   0.3714
  28.800   1.1917   0.37979   0.37829  -0.1862  0.0018  1.0000  -2.2660   0.0000   0.0000   0.0000   0.3717
  28.900   1.1943   0.38069   0.37919  -0.1873  0.0018  1.0000  -2.2939   0.0000   0.0000   0.0000   0.3719
  29.000   1.1967   0.38158   0.38008  -0.1883  0.0018  1.0000  -2.3238   0.0000   0.0000   0.0000   0.3722
  29.100   1.1991   0.38246   0.38096  -0.1893  0.0018  1.0000  -2.3562   0.0000   0.0000   0.0000   0.3724
  29.200   1.2014   0.38336   0.38187  -0.1902  0.0018  1.0000  -2.3919   0.0000   0.0000   0.0000   0.3726


