xflr5 v6.61

 Calculated polar for: MH 50

 1 1 Reynolds number fixed          Mach number fixed         

 xtrf =   1.000 (top)        1.000 (bottom)
 Mach =   0.000     Re =     0.688 e 6     Ncrit =   9.000

  alpha     CL        CD       CDp       Cm    Top Xtr Bot Xtr   Cpmin    Chinge    XCp    
 ------- -------- --------- --------- -------- ------- ------- -------- --------- ---------
  -9.800  -0.8431   0.05182   0.04964  -0.0168  1.0000  0.0120  -6.1628   0.0000   0.0000   0.0000   0.2229
  -9.700  -0.8465   0.05023   0.04800  -0.0170  1.0000  0.0119  -6.1604   0.0000   0.0000   0.0000   0.2229
  -9.600  -0.8501   0.04838   0.04608  -0.0172  1.0000  0.0118  -6.1763   0.0000   0.0000   0.0000   0.2228
  -9.500  -0.8536   0.04635   0.04396  -0.0173  1.0000  0.0117  -6.2078   0.0000   0.0000   0.0000   0.2228
  -9.400  -0.8572   0.04413   0.04162  -0.0173  1.0000  0.0116  -6.2568   0.0000   0.0000   0.0000   0.2229
  -9.300  -0.8609   0.04168   0.03901  -0.0172  1.0000  0.0115  -6.3281   0.0000   0.0000   0.0000   0.2232
  -9.200  -0.8649   0.03893   0.03606  -0.0170  1.0000  0.0114  -6.4291   0.0000   0.0000   0.0000   0.2236
  -9.100  -0.8690   0.03588   0.03277  -0.0165  1.0000  0.0112  -6.5625   0.0000   0.0000   0.0000   0.2243
  -9.000  -0.8720   0.03280   0.02939  -0.0158  1.0000  0.0111  -6.7035   0.0000   0.0000   0.0000   0.2251
  -8.900  -0.8723   0.03018   0.02648  -0.0151  1.0000  0.0110  -6.8003   0.0000   0.0000   0.0000   0.2259
  -8.800  -0.8697   0.02814   0.02419  -0.0145  1.0000  0.0111  -6.8382   0.0000   0.0000   0.0000   0.2266
  -8.700  -0.8653   0.02650   0.02233  -0.0140  1.0000  0.0111  -6.8337   0.0000   0.0000   0.0000   0.2272
  -8.600  -0.8595   0.02514   0.02078  -0.0135  1.0000  0.0112  -6.8009   0.0000   0.0000   0.0000   0.2277
  -8.500  -0.8529   0.02397   0.01943  -0.0131  1.0000  0.0113  -6.7719   0.0000   0.0000   0.0000   0.2282
  -8.400  -0.8456   0.02296   0.01825  -0.0127  1.0000  0.0114  -6.7302   0.0000   0.0000   0.0000   0.2286
  -8.300  -0.8377   0.02208   0.01723  -0.0123  1.0000  0.0116  -6.6737   0.0000   0.0000   0.0000   0.2289
  -8.200  -0.8291   0.02142   0.01643  -0.0120  1.0000  0.0118  -6.5975   0.0000   0.0000   0.0000   0.2292
  -8.100  -0.8198   0.02096   0.01584  -0.0118  1.0000  0.0120  -6.5030   0.0000   0.0000   0.0000   0.2294
  -8.000  -0.8105   0.02052   0.01526  -0.0116  1.0000  0.0121  -6.4062   0.0000   0.0000   0.0000   0.2297
  -7.900  -0.8036   0.01919   0.01384  -0.0112  1.0000  0.0124  -6.3582   0.0000   0.0000   0.0000   0.2301
  -7.800  -0.7945   0.01864   0.01325  -0.0110  1.0000  0.0126  -6.2415   0.0000   0.0000   0.0000   0.2302
  -7.700  -0.7850   0.01823   0.01282  -0.0109  1.0000  0.0127  -6.1169   0.0000   0.0000   0.0000   0.2303
  -7.600  -0.7754   0.01783   0.01238  -0.0107  1.0000  0.0129  -5.9973   0.0000   0.0000   0.0000   0.2304
  -7.500  -0.7657   0.01744   0.01194  -0.0106  1.0000  0.0131  -5.8814   0.0000   0.0000   0.0000   0.2305
  -7.400  -0.7560   0.01706   0.01152  -0.0104  1.0000  0.0133  -5.7658   0.0000   0.0000   0.0000   0.2306
  -7.300  -0.7463   0.01667   0.01109  -0.0103  1.0000  0.0135  -5.6533   0.0000   0.0000   0.0000   0.2307
  -7.200  -0.7365   0.01628   0.01066  -0.0101  1.0000  0.0137  -5.5434   0.0000   0.0000   0.0000   0.2309
  -7.100  -0.7267   0.01591   0.01023  -0.0099  1.0000  0.0140  -5.4351   0.0000   0.0000   0.0000   0.2310
  -7.000  -0.7169   0.01555   0.00982  -0.0097  1.0000  0.0142  -5.3273   0.0000   0.0000   0.0000   0.2312
  -6.900  -0.7071   0.01522   0.00944  -0.0095  1.0000  0.0144  -5.2187   0.0000   0.0000   0.0000   0.2313
  -6.800  -0.6971   0.01494   0.00911  -0.0093  1.0000  0.0147  -5.1077   0.0000   0.0000   0.0000   0.2315
  -6.700  -0.6871   0.01473   0.00884  -0.0092  1.0000  0.0148  -4.9929   0.0000   0.0000   0.0000   0.2317
  -6.600  -0.6792   0.01405   0.00814  -0.0087  1.0000  0.0152  -4.9108   0.0000   0.0000   0.0000   0.2322
  -6.500  -0.6705   0.01369   0.00778  -0.0084  1.0000  0.0155  -4.8007   0.0000   0.0000   0.0000   0.2326
  -6.400  -0.6616   0.01347   0.00756  -0.0081  1.0000  0.0158  -4.6828   0.0000   0.0000   0.0000   0.2330
  -6.300  -0.6532   0.01328   0.00736  -0.0076  1.0000  0.0162  -4.5685   0.0000   0.0000   0.0000   0.2336
  -6.200  -0.6452   0.01310   0.00716  -0.0071  1.0000  0.0166  -4.4611   0.0000   0.0000   0.0000   0.2344
  -6.100  -0.6375   0.01292   0.00696  -0.0065  1.0000  0.0170  -4.3597   0.0000   0.0000   0.0000   0.2353
  -6.000  -0.6300   0.01274   0.00675  -0.0058  1.0000  0.0173  -4.2741   0.0000   0.0000   0.0000   0.2363
  -5.900  -0.6223   0.01257   0.00655  -0.0052  1.0000  0.0177  -4.1895   0.0000   0.0000   0.0000   0.2373
  -5.800  -0.6145   0.01243   0.00637  -0.0045  1.0000  0.0179  -4.1036   0.0000   0.0000   0.0000   0.2383
  -5.700  -0.6027   0.01191   0.00585  -0.0049  0.9990  0.0185  -4.0102   0.0000   0.0000   0.0000   0.2376
  -5.600  -0.5898   0.01167   0.00560  -0.0054  0.9981  0.0190  -3.8953   0.0000   0.0000   0.0000   0.2367
  -5.500  -0.5767   0.01147   0.00540  -0.0059  0.9972  0.0196  -3.7802   0.0000   0.0000   0.0000   0.2356
  -5.400  -0.5634   0.01127   0.00518  -0.0064  0.9962  0.0203  -3.6680   0.0000   0.0000   0.0000   0.2346
  -5.300  -0.5499   0.01110   0.00498  -0.0070  0.9953  0.0209  -3.5563   0.0000   0.0000   0.0000   0.2333
  -5.200  -0.5369   0.01082   0.00469  -0.0075  0.9943  0.0218  -3.4501   0.0000   0.0000   0.0000   0.2321
  -5.100  -0.5233   0.01062   0.00450  -0.0081  0.9935  0.0228  -3.3329   0.0000   0.0000   0.0000   0.2306
  -5.000  -0.5098   0.01047   0.00434  -0.0087  0.9924  0.0239  -3.2193   0.0000   0.0000   0.0000   0.2292
  -4.900  -0.4960   0.01032   0.00417  -0.0093  0.9916  0.0249  -3.1087   0.0000   0.0000   0.0000   0.2276
  -4.800  -0.4827   0.01007   0.00393  -0.0098  0.9906  0.0263  -3.0012   0.0000   0.0000   0.0000   0.2259
  -4.700  -0.4692   0.00992   0.00376  -0.0104  0.9896  0.0278  -2.8917   0.0000   0.0000   0.0000   0.2242
  -4.600  -0.4556   0.00973   0.00357  -0.0109  0.9887  0.0295  -2.7859   0.0000   0.0000   0.0000   0.2224
  -4.500  -0.4425   0.00958   0.00342  -0.0114  0.9874  0.0318  -2.6900   0.0000   0.0000   0.0000   0.2206
  -4.400  -0.4293   0.00940   0.00326  -0.0119  0.9863  0.0347  -2.5976   0.0000   0.0000   0.0000   0.2187
  -4.300  -0.4161   0.00924   0.00312  -0.0124  0.9851  0.0387  -2.5058   0.0000   0.0000   0.0000   0.2167
  -4.200  -0.4033   0.00907   0.00298  -0.0128  0.9835  0.0445  -2.4161   0.0000   0.0000   0.0000   0.2148
  -4.100  -0.3902   0.00888   0.00284  -0.0133  0.9823  0.0535  -2.3257   0.0000   0.0000   0.0000   0.2126
  -4.000  -0.3781   0.00870   0.00272  -0.0136  0.9804  0.0660  -2.2378   0.0000   0.0000   0.0000   0.2107
  -3.900  -0.3655   0.00853   0.00261  -0.0139  0.9789  0.0808  -2.1478   0.0000   0.0000   0.0000   0.2085
  -3.800  -0.3537   0.00837   0.00252  -0.0142  0.9769  0.0958  -2.0608   0.0000   0.0000   0.0000   0.2067
  -3.700  -0.3418   0.00822   0.00244  -0.0144  0.9751  0.1115  -1.9738   0.0000   0.0000   0.0000   0.2046
  -3.600  -0.3305   0.00808   0.00237  -0.0145  0.9728  0.1275  -1.8901   0.0000   0.0000   0.0000   0.2030
  -3.500  -0.3193   0.00794   0.00229  -0.0145  0.9708  0.1447  -1.8074   0.0000   0.0000   0.0000   0.2013
  -3.400  -0.3086   0.00780   0.00223  -0.0145  0.9684  0.1634  -1.7316   0.0000   0.0000   0.0000   0.1999
  -3.300  -0.2981   0.00766   0.00216  -0.0144  0.9661  0.1842  -1.6611   0.0000   0.0000   0.0000   0.1986
  -3.200  -0.2880   0.00752   0.00210  -0.0142  0.9636  0.2063  -1.5929   0.0000   0.0000   0.0000   0.1976
  -3.100  -0.2780   0.00738   0.00205  -0.0140  0.9613  0.2306  -1.5256   0.0000   0.0000   0.0000   0.1966
  -3.000  -0.2682   0.00723   0.00200  -0.0138  0.9587  0.2563  -1.4598   0.0000   0.0000   0.0000   0.1957
  -2.900  -0.2585   0.00709   0.00195  -0.0135  0.9563  0.2830  -1.3951   0.0000   0.0000   0.0000   0.1949
  -2.800  -0.2489   0.00694   0.00190  -0.0132  0.9538  0.3114  -1.3313   0.0000   0.0000   0.0000   0.1941
  -2.700  -0.2395   0.00679   0.00186  -0.0128  0.9512  0.3410  -1.2686   0.0000   0.0000   0.0000   0.1934
  -2.600  -0.2300   0.00665   0.00182  -0.0125  0.9488  0.3712  -1.2067   0.0000   0.0000   0.0000   0.1928
  -2.500  -0.2206   0.00650   0.00177  -0.0122  0.9461  0.4030  -1.1481   0.0000   0.0000   0.0000   0.1919
  -2.400  -0.2113   0.00635   0.00174  -0.0118  0.9439  0.4357  -1.0943   0.0000   0.0000   0.0000   0.1915
  -2.300  -0.2019   0.00619   0.00170  -0.0114  0.9410  0.4696  -1.0405   0.0000   0.0000   0.0000   0.1905
  -2.200  -0.1926   0.00605   0.00167  -0.0110  0.9386  0.5036  -0.9878   0.0000   0.0000   0.0000   0.1899
  -2.100  -0.1832   0.00590   0.00164  -0.0107  0.9361  0.5370  -0.9355   0.0000   0.0000   0.0000   0.1891
  -2.000  -0.1739   0.00576   0.00161  -0.0103  0.9334  0.5689  -0.8838   0.0000   0.0000   0.0000   0.1882
  -1.900  -0.1646   0.00564   0.00159  -0.0098  0.9312  0.5996  -0.8330   0.0000   0.0000   0.0000   0.1877
  -1.800  -0.1551   0.00551   0.00156  -0.0094  0.9283  0.6294  -0.7872   0.0000   0.0000   0.0000   0.1864
  -1.700  -0.1457   0.00540   0.00154  -0.0090  0.9257  0.6586  -0.7422   0.0000   0.0000   0.0000   0.1857
  -1.600  -0.1364   0.00528   0.00152  -0.0085  0.9232  0.6870  -0.6979   0.0000   0.0000   0.0000   0.1849
  -1.500  -0.1270   0.00517   0.00150  -0.0081  0.9203  0.7150  -0.6539   0.0000   0.0000   0.0000   0.1839
  -1.400  -0.1179   0.00506   0.00149  -0.0075  0.9178  0.7421  -0.6144   0.0000   0.0000   0.0000   0.1838
  -1.300  -0.1085   0.00496   0.00148  -0.0070  0.9148  0.7688  -0.5755   0.0000   0.0000   0.0000   0.1829
  -1.200  -0.0994   0.00487   0.00148  -0.0064  0.9119  0.7945  -0.5387   0.0000   0.0000   0.0000   0.1830
  -1.100  -0.0903   0.00480   0.00149  -0.0058  0.9092  0.8194  -0.5044   0.0000   0.0000   0.0000   0.1836
  -1.000  -0.0810   0.00475   0.00152  -0.0051  0.9058  0.8418  -0.4738   0.0000   0.0000   0.0000   0.1839
  -0.900  -0.0718   0.00474   0.00153  -0.0045  0.9030  0.8607  -0.4490   0.0000   0.0000   0.0000   0.1849
  -0.800  -0.0622   0.00473   0.00155  -0.0040  0.8994  0.8758  -0.4267   0.0000   0.0000   0.0000   0.1837
  -0.700  -0.0527   0.00473   0.00156  -0.0034  0.8961  0.8883  -0.4060   0.0000   0.0000   0.0000   0.1825
  -0.600  -0.0431   0.00474   0.00157  -0.0029  0.8926  0.8983  -0.3864   0.0000   0.0000   0.0000   0.1802
  -0.500  -0.0335   0.00474   0.00158  -0.0024  0.8889  0.9070  -0.3677   0.0000   0.0000   0.0000   0.1767
  -0.400  -0.0239   0.00475   0.00159  -0.0018  0.8853  0.9147  -0.3498   0.0000   0.0000   0.0000   0.1705
  -0.300  -0.0143   0.00476   0.00159  -0.0013  0.8812  0.9216  -0.3327   0.0000   0.0000   0.0000   0.1544
  -0.200  -0.0048   0.00477   0.00159  -0.0008  0.8776  0.9277  -0.3161   0.0000   0.0000   0.0000   0.0855
  -0.100   0.0048   0.00478   0.00160  -0.0002  0.8731  0.9335  -0.3094   0.0000   0.0000   0.0000   0.3027
   0.000   0.0142   0.00479   0.00159   0.0003  0.8693  0.9388  -0.3222   0.0000   0.0000   0.0000   0.2265
   0.100   0.0238   0.00479   0.00159   0.0008  0.8646  0.9440  -0.3352   0.0000   0.0000   0.0000   0.2132
   0.200   0.0334   0.00480   0.00159   0.0014  0.8606  0.9484  -0.3484   0.0000   0.0000   0.0000   0.2074
   0.300   0.0434   0.00480   0.00159   0.0018  0.8556  0.9527  -0.3623   0.0000   0.0000   0.0000   0.2064
   0.400   0.0533   0.00480   0.00159   0.0023  0.8509  0.9569  -0.3764   0.0000   0.0000   0.0000   0.2058
   0.500   0.0634   0.00480   0.00158   0.0026  0.8456  0.9610  -0.3906   0.0000   0.0000   0.0000   0.2063
   0.600   0.0743   0.00480   0.00157   0.0029  0.8400  0.9646  -0.4060   0.0000   0.0000   0.0000   0.2092
   0.700   0.0857   0.00481   0.00156   0.0030  0.8343  0.9678  -0.4221   0.0000   0.0000   0.0000   0.2132
   0.800   0.0974   0.00481   0.00155   0.0030  0.8273  0.9710  -0.4384   0.0000   0.0000   0.0000   0.2172
   0.900   0.1097   0.00481   0.00154   0.0029  0.8197  0.9739  -0.4557   0.0000   0.0000   0.0000   0.2217
   1.000   0.1230   0.00482   0.00153   0.0025  0.8110  0.9761  -0.4743   0.0000   0.0000   0.0000   0.2274
   1.100   0.1359   0.00482   0.00151   0.0023  0.8007  0.9787  -0.4925   0.0000   0.0000   0.0000   0.2313
   1.200   0.1503   0.00484   0.00149   0.0017  0.7881  0.9803  -0.5130   0.0000   0.0000   0.0000   0.2368
   1.300   0.1639   0.00487   0.00147   0.0012  0.7726  0.9824  -0.5329   0.0000   0.0000   0.0000   0.2404
   1.400   0.1790   0.00491   0.00145   0.0005  0.7531  0.9837  -0.5548   0.0000   0.0000   0.0000   0.2453
   1.500   0.1929   0.00498   0.00143  -0.0001  0.7311  0.9855  -0.5762   0.0000   0.0000   0.0000   0.2483
   1.600   0.2081   0.00507   0.00142  -0.0009  0.7068  0.9865  -0.5994   0.0000   0.0000   0.0000   0.2522
   1.700   0.2223   0.00517   0.00143  -0.0016  0.6828  0.9881  -0.6224   0.0000   0.0000   0.0000   0.2549
   1.800   0.2371   0.00528   0.00144  -0.0024  0.6586  0.9893  -0.6468   0.0000   0.0000   0.0000   0.2577
   2.000   0.2662   0.00550   0.00147  -0.0039  0.6097  0.9919  -0.6982   0.0000   0.0000   0.0000   0.2624
   2.100   0.2807   0.00561   0.00149  -0.0047  0.5846  0.9933  -0.7260   0.0000   0.0000   0.0000   0.2644
   2.200   0.2955   0.00572   0.00152  -0.0055  0.5592  0.9944  -0.7591   0.0000   0.0000   0.0000   0.2664
   2.300   0.3100   0.00584   0.00154  -0.0063  0.5336  0.9956  -0.8163   0.0000   0.0000   0.0000   0.2681
   2.400   0.3248   0.00596   0.00157  -0.0072  0.5077  0.9966  -0.8762   0.0000   0.0000   0.0000   0.2697
   2.500   0.3395   0.00609   0.00160  -0.0080  0.4818  0.9977  -0.9435   0.0000   0.0000   0.0000   0.2713
   2.600   0.3542   0.00622   0.00163  -0.0089  0.4558  0.9987  -1.0121   0.0000   0.0000   0.0000   0.2727
   2.700   0.3689   0.00635   0.00167  -0.0098  0.4299  0.9997  -1.0820   0.0000   0.0000   0.0000   0.2740
   2.800   0.3806   0.00648   0.00170  -0.0100  0.4061  1.0000  -1.1447   0.0000   0.0000   0.0000   0.2738
   2.900   0.3910   0.00660   0.00174  -0.0100  0.3835  1.0000  -1.2099   0.0000   0.0000   0.0000   0.2729
   3.000   0.4013   0.00673   0.00178  -0.0099  0.3609  1.0000  -1.2775   0.0000   0.0000   0.0000   0.2720
   3.100   0.4116   0.00686   0.00183  -0.0098  0.3381  1.0000  -1.3458   0.0000   0.0000   0.0000   0.2712
   3.300   0.4319   0.00716   0.00194  -0.0096  0.2894  1.0000  -1.4843   0.0000   0.0000   0.0000   0.2695
   3.400   0.4419   0.00732   0.00200  -0.0095  0.2656  1.0000  -1.5546   0.0000   0.0000   0.0000   0.2687
   3.500   0.4519   0.00747   0.00206  -0.0094  0.2448  1.0000  -1.6256   0.0000   0.0000   0.0000   0.2679
   3.600   0.4618   0.00760   0.00212  -0.0093  0.2273  1.0000  -1.6974   0.0000   0.0000   0.0000   0.2671
   3.700   0.4718   0.00773   0.00218  -0.0091  0.2118  1.0000  -1.7700   0.0000   0.0000   0.0000   0.2663
   3.800   0.4817   0.00785   0.00225  -0.0089  0.1984  1.0000  -1.8434   0.0000   0.0000   0.0000   0.2654
   3.900   0.4915   0.00796   0.00231  -0.0088  0.1862  1.0000  -1.9251   0.0000   0.0000   0.0000   0.2646
   4.000   0.5014   0.00807   0.00239  -0.0086  0.1749  1.0000  -2.0090   0.0000   0.0000   0.0000   0.2638
   4.100   0.5112   0.00819   0.00246  -0.0084  0.1644  1.0000  -2.0936   0.0000   0.0000   0.0000   0.2631
   4.200   0.5209   0.00830   0.00253  -0.0081  0.1547  1.0000  -2.1792   0.0000   0.0000   0.0000   0.2623
   4.300   0.5306   0.00841   0.00260  -0.0079  0.1451  1.0000  -2.2656   0.0000   0.0000   0.0000   0.2615
   4.400   0.5403   0.00852   0.00268  -0.0077  0.1357  1.0000  -2.3528   0.0000   0.0000   0.0000   0.2607
   4.500   0.5499   0.00863   0.00276  -0.0074  0.1265  1.0000  -2.4407   0.0000   0.0000   0.0000   0.2600
   4.600   0.5595   0.00875   0.00284  -0.0072  0.1173  1.0000  -2.5292   0.0000   0.0000   0.0000   0.2592
   4.800   0.5784   0.00901   0.00302  -0.0066  0.0969  1.0000  -2.7069   0.0000   0.0000   0.0000   0.2577
   4.900   0.5877   0.00917   0.00312  -0.0064  0.0843  1.0000  -2.7955   0.0000   0.0000   0.0000   0.2570
   5.000   0.5967   0.00937   0.00325  -0.0060  0.0690  1.0000  -2.8825   0.0000   0.0000   0.0000   0.2562
   5.100   0.6054   0.00963   0.00340  -0.0057  0.0520  1.0000  -2.9669   0.0000   0.0000   0.0000   0.2554
   5.200   0.6141   0.00989   0.00359  -0.0053  0.0392  1.0000  -3.0488   0.0000   0.0000   0.0000   0.2546
   5.300   0.6229   0.01012   0.00378  -0.0049  0.0325  1.0000  -3.1297   0.0000   0.0000   0.0000   0.2537
   5.400   0.6319   0.01033   0.00397  -0.0045  0.0286  1.0000  -3.2109   0.0000   0.0000   0.0000   0.2529
   5.500   0.6408   0.01053   0.00415  -0.0041  0.0260  1.0000  -3.2935   0.0000   0.0000   0.0000   0.2521
   5.600   0.6500   0.01070   0.00434  -0.0037  0.0242  1.0000  -3.3821   0.0000   0.0000   0.0000   0.2514
   5.700   0.6590   0.01088   0.00452  -0.0033  0.0227  1.0000  -3.4810   0.0000   0.0000   0.0000   0.2506
   5.800   0.6680   0.01108   0.00473  -0.0030  0.0215  1.0000  -3.5773   0.0000   0.0000   0.0000   0.2499
   5.900   0.6772   0.01123   0.00489  -0.0026  0.0204  1.0000  -3.6793   0.0000   0.0000   0.0000   0.2492
   6.000   0.6863   0.01142   0.00508  -0.0022  0.0195  1.0000  -3.7829   0.0000   0.0000   0.0000   0.2486
   6.100   0.6949   0.01168   0.00535  -0.0018  0.0186  1.0000  -3.8785   0.0000   0.0000   0.0000   0.2478
   6.200   0.7043   0.01184   0.00554  -0.0015  0.0180  1.0000  -3.9806   0.0000   0.0000   0.0000   0.2472
   6.300   0.7136   0.01202   0.00574  -0.0012  0.0174  1.0000  -4.0837   0.0000   0.0000   0.0000   0.2467
   6.400   0.7230   0.01222   0.00594  -0.0009  0.0168  1.0000  -4.1895   0.0000   0.0000   0.0000   0.2461
   6.500   0.7322   0.01245   0.00618  -0.0005  0.0164  1.0000  -4.2953   0.0000   0.0000   0.0000   0.2456
   6.600   0.7405   0.01286   0.00660  -0.0001  0.0158  1.0000  -4.3862   0.0000   0.0000   0.0000   0.2450
   6.700   0.7500   0.01308   0.00684   0.0001  0.0155  1.0000  -4.4889   0.0000   0.0000   0.0000   0.2445
   6.800   0.7596   0.01329   0.00709   0.0004  0.0152  1.0000  -4.5930   0.0000   0.0000   0.0000   0.2441
   6.900   0.7691   0.01352   0.00735   0.0006  0.0149  1.0000  -4.6969   0.0000   0.0000   0.0000   0.2437
   7.000   0.7786   0.01377   0.00762   0.0009  0.0145  1.0000  -4.8017   0.0000   0.0000   0.0000   0.2433
   7.100   0.7881   0.01402   0.00789   0.0011  0.0142  1.0000  -4.9094   0.0000   0.0000   0.0000   0.2429
   7.200   0.7977   0.01427   0.00815   0.0014  0.0139  1.0000  -5.0215   0.0000   0.0000   0.0000   0.2425
   7.300   0.8070   0.01455   0.00843   0.0016  0.0135  1.0000  -5.1354   0.0000   0.0000   0.0000   0.2422
   7.400   0.8156   0.01498   0.00888   0.0019  0.0132  1.0000  -5.2371   0.0000   0.0000   0.0000   0.2418
   7.500   0.8239   0.01550   0.00942   0.0022  0.0129  1.0000  -5.3239   0.0000   0.0000   0.0000   0.2413
   7.600   0.8339   0.01569   0.00966   0.0024  0.0127  1.0000  -5.4365   0.0000   0.0000   0.0000   0.2410
   7.700   0.8436   0.01596   0.00997   0.0026  0.0124  1.0000  -5.5436   0.0000   0.0000   0.0000   0.2407
   7.800   0.8529   0.01628   0.01033   0.0029  0.0122  1.0000  -5.6459   0.0000   0.0000   0.0000   0.2403
   7.900   0.8622   0.01662   0.01071   0.0031  0.0120  1.0000  -5.7482   0.0000   0.0000   0.0000   0.2400
   8.000   0.8715   0.01697   0.01110   0.0033  0.0118  1.0000  -5.8517   0.0000   0.0000   0.0000   0.2396
   8.100   0.8807   0.01733   0.01149   0.0036  0.0116  1.0000  -5.9630   0.0000   0.0000   0.0000   0.2393
   8.200   0.8899   0.01769   0.01189   0.0038  0.0115  1.0000  -6.0883   0.0000   0.0000   0.0000   0.2390
   8.300   0.8991   0.01806   0.01229   0.0040  0.0113  1.0000  -6.2154   0.0000   0.0000   0.0000   0.2387
   8.400   0.9082   0.01844   0.01270   0.0042  0.0111  1.0000  -6.3441   0.0000   0.0000   0.0000   0.2384
   8.500   0.9171   0.01884   0.01313   0.0045  0.0110  1.0000  -6.4733   0.0000   0.0000   0.0000   0.2380
   8.600   0.9259   0.01930   0.01362   0.0047  0.0109  1.0000  -6.6001   0.0000   0.0000   0.0000   0.2377
   8.700   0.9342   0.01987   0.01421   0.0050  0.0107  1.0000  -6.7186   0.0000   0.0000   0.0000   0.2374
   8.800   0.9418   0.02065   0.01504   0.0053  0.0106  1.0000  -6.8180   0.0000   0.0000   0.0000   0.2369
   8.900   0.9484   0.02182   0.01629   0.0058  0.0105  1.0000  -6.8812   0.0000   0.0000   0.0000   0.2364
   9.000   0.9566   0.02241   0.01698   0.0061  0.0104  1.0000  -6.9836   0.0000   0.0000   0.0000   0.2360
   9.100   0.9652   0.02290   0.01756   0.0064  0.0103  1.0000  -7.0934   0.0000   0.0000   0.0000   0.2357
   9.200   0.9733   0.02348   0.01824   0.0067  0.0102  1.0000  -7.1945   0.0000   0.0000   0.0000   0.2353
   9.300   0.9811   0.02414   0.01902   0.0071  0.0102  1.0000  -7.2866   0.0000   0.0000   0.0000   0.2349
   9.400   0.9884   0.02490   0.01989   0.0075  0.0101  1.0000  -7.3693   0.0000   0.0000   0.0000   0.2344
   9.500   0.9953   0.02573   0.02085   0.0079  0.0100  1.0000  -7.4441   0.0000   0.0000   0.0000   0.2340
   9.600   1.0018   0.02660   0.02184   0.0083  0.0099  1.0000  -7.5147   0.0000   0.0000   0.0000   0.2335
   9.700   1.0080   0.02751   0.02289   0.0088  0.0098  1.0000  -7.5806   0.0000   0.0000   0.0000   0.2330
   9.800   1.0137   0.02846   0.02398   0.0092  0.0097  1.0000  -7.6423   0.0000   0.0000   0.0000   0.2325
   9.900   1.0189   0.02946   0.02512   0.0097  0.0096  1.0000  -7.7006   0.0000   0.0000   0.0000   0.2319
  10.000   1.0235   0.03050   0.02630   0.0102  0.0095  1.0000  -7.7550   0.0000   0.0000   0.0000   0.2314
  10.100   1.0275   0.03162   0.02755   0.0107  0.0094  1.0000  -7.8019   0.0000   0.0000   0.0000   0.2308
  10.200   1.0305   0.03288   0.02896   0.0113  0.0093  1.0000  -7.8309   0.0000   0.0000   0.0000   0.2302
  10.300   1.0313   0.03444   0.03070   0.0119  0.0093  1.0000  -7.8208   0.0000   0.0000   0.0000   0.2295
  10.400   1.0303   0.03624   0.03269   0.0126  0.0094  1.0000  -7.7807   0.0000   0.0000   0.0000   0.2287
  10.500   1.0274   0.03819   0.03482   0.0134  0.0094  1.0000  -7.7214   0.0000   0.0000   0.0000   0.2279
  10.600   1.0230   0.04020   0.03701   0.0141  0.0095  1.0000  -7.6520   0.0000   0.0000   0.0000   0.2271
  10.700   1.0174   0.04220   0.03917   0.0147  0.0095  1.0000  -7.5817   0.0000   0.0000   0.0000   0.2263
  10.800   1.0107   0.04402   0.04112   0.0155  0.0096  1.0000  -7.5188   0.0000   0.0000   0.0000   0.2254
  10.900   1.0030   0.04569   0.04290   0.0161  0.0097  1.0000  -7.4643   0.0000   0.0000   0.0000   0.2244
  11.000   0.9950   0.04738   0.04468   0.0165  0.0097  1.0000  -7.4129   0.0000   0.0000   0.0000   0.2238
  11.100   0.9869   0.04917   0.04656   0.0165  0.0097  1.0000  -7.3624   0.0000   0.0000   0.0000   0.2236
  11.200   0.9788   0.05110   0.04857   0.0160  0.0098  1.0000  -7.3113   0.0000   0.0000   0.0000   0.2238
  11.300   0.9707   0.05321   0.05077   0.0151  0.0098  1.0000  -7.2586   0.0000   0.0000   0.0000   0.2244
  11.400   0.9627   0.05557   0.05320   0.0136  0.0098  1.0000  -7.2026   0.0000   0.0000   0.0000   0.2257
  11.500   0.9548   0.05824   0.05594   0.0114  0.0099  1.0000  -7.1414   0.0000   0.0000   0.0000   0.2277
  11.600   0.9471   0.06129   0.05906   0.0086  0.0099  1.0000  -7.0725   0.0000   0.0000   0.0000   0.2304
  11.700   0.9394   0.06480   0.06264   0.0052  0.0099  1.0000  -6.9924   0.0000   0.0000   0.0000   0.2338
  11.800   0.9317   0.06882   0.06673   0.0013  0.0100  1.0000  -6.8969   0.0000   0.0000   0.0000   0.2378
  11.900   0.9236   0.07331   0.07128  -0.0029  0.0100  1.0000  -6.7825   0.0000   0.0000   0.0000   0.2422
  12.000   0.9148   0.07817   0.07619  -0.0070  0.0100  1.0000  -6.6466   0.0000   0.0000   0.0000   0.2467
  12.100   0.9051   0.08324   0.08130  -0.0109  0.0101  1.0000  -6.4905   0.0000   0.0000   0.0000   0.2510
  12.200   0.8948   0.08825   0.08634  -0.0143  0.0102  1.0000  -6.3235   0.0000   0.0000   0.0000   0.2549
  12.300   0.8846   0.09287   0.09097  -0.0170  0.0102  1.0000  -6.1636   0.0000   0.0000   0.0000   0.2582
  12.400   0.8762   0.09679   0.09489  -0.0192  0.0103  1.0000  -6.0361   0.0000   0.0000   0.0000   0.2608
  12.500   0.8716   0.09929   0.09738  -0.0204  0.0104  1.0000  -5.9892   0.0000   0.0000   0.0000   0.2621
  19.000   0.8837   0.24679   0.24482  -0.0875  0.0081  1.0000  -2.4853   0.0000   0.0000   0.0000   0.3331
  19.100   0.8863   0.24872   0.24675  -0.0888  0.0081  1.0000  -2.4203   0.0000   0.0000   0.0000   0.3341
  19.200   0.8887   0.25076   0.24879  -0.0903  0.0081  1.0000  -2.3333   0.0000   0.0000   0.0000   0.3354
  19.300   0.8915   0.25294   0.25096  -0.0918  0.0081  1.0000  -2.2346   0.0000   0.0000   0.0000   0.3367
  19.400   0.8947   0.25524   0.25326  -0.0933  0.0079  1.0000  -2.1160   0.0000   0.0000   0.0000   0.3380
  19.500   0.8981   0.25716   0.25518  -0.0944  0.0077  1.0000  -2.0538   0.0000   0.0000   0.0000   0.3387
  19.600   0.9013   0.25879   0.25681  -0.0953  0.0076  1.0000  -2.0323   0.0000   0.0000   0.0000   0.3393
  19.700   0.9046   0.26034   0.25836  -0.0962  0.0074  1.0000  -2.0209   0.0000   0.0000   0.0000   0.3398
  19.800   0.9078   0.26188   0.25990  -0.0971  0.0073  1.0000  -2.0140   0.0000   0.0000   0.0000   0.3402
  19.900   0.9110   0.26337   0.26139  -0.0980  0.0072  1.0000  -2.0099   0.0000   0.0000   0.0000   0.3407
  20.000   0.9142   0.26484   0.26286  -0.0989  0.0071  1.0000  -2.0080   0.0000   0.0000   0.0000   0.3411
  20.100   0.9174   0.26628   0.26431  -0.0997  0.0070  1.0000  -2.0081   0.0000   0.0000   0.0000   0.3416
  20.200   0.9206   0.26770   0.26573  -0.1006  0.0069  1.0000  -2.0103   0.0000   0.0000   0.0000   0.3420
  20.300   0.9238   0.26910   0.26713  -0.1015  0.0068  1.0000  -2.0147   0.0000   0.0000   0.0000   0.3424
  20.400   0.9271   0.27047   0.26850  -0.1024  0.0067  1.0000  -2.0217   0.0000   0.0000   0.0000   0.3428
  20.500   0.9303   0.27182   0.26985  -0.1033  0.0066  1.0000  -2.0314   0.0000   0.0000   0.0000   0.3432
  20.600   0.9335   0.27314   0.27117  -0.1041  0.0065  1.0000  -2.0440   0.0000   0.0000   0.0000   0.3436
  20.700   0.9367   0.27443   0.27246  -0.1050  0.0065  1.0000  -2.0599   0.0000   0.0000   0.0000   0.3439
  20.800   0.9399   0.27575   0.27379  -0.1058  0.0064  1.0000  -2.0792   0.0000   0.0000   0.0000   0.3443
  20.900   0.9430   0.27700   0.27504  -0.1066  0.0064  1.0000  -2.1021   0.0000   0.0000   0.0000   0.3446
  21.000   0.9461   0.27822   0.27626  -0.1074  0.0063  1.0000  -2.1289   0.0000   0.0000   0.0000   0.3449
  21.100   0.9492   0.27942   0.27746  -0.1082  0.0063  1.0000  -2.1601   0.0000   0.0000   0.0000   0.3451
  21.200   0.9523   0.28060   0.27864  -0.1089  0.0062  1.0000  -2.1981   0.0000   0.0000   0.0000   0.3453
  21.300   0.9554   0.28177   0.27982  -0.1096  0.0062  1.0000  -2.2466   0.0000   0.0000   0.0000   0.3454
  21.400   0.9585   0.28296   0.28102  -0.1100  0.0062  1.0000  -2.3047   0.0000   0.0000   0.0000   0.3453
  21.800   0.9709   0.28926   0.28731  -0.1137  0.0061  1.0000  -2.3073   0.0000   0.0000   0.0000   0.3470
  21.900   0.9741   0.29088   0.28893  -0.1149  0.0061  1.0000  -2.2827   0.0000   0.0000   0.0000   0.3477
  22.000   0.9774   0.29251   0.29056  -0.1161  0.0061  1.0000  -2.2568   0.0000   0.0000   0.0000   0.3484
  22.100   0.9807   0.29416   0.29221  -0.1173  0.0061  1.0000  -2.2291   0.0000   0.0000   0.0000   0.3490
  22.200   0.9841   0.29584   0.29389  -0.1184  0.0061  1.0000  -2.1986   0.0000   0.0000   0.0000   0.3497
  22.300   0.9876   0.29756   0.29561  -0.1196  0.0060  1.0000  -2.1614   0.0000   0.0000   0.0000   0.3503
  22.400   0.9914   0.29943   0.29748  -0.1208  0.0059  1.0000  -2.1096   0.0000   0.0000   0.0000   0.3510
  22.500   0.9951   0.30109   0.29914  -0.1219  0.0057  1.0000  -2.0788   0.0000   0.0000   0.0000   0.3514
  22.600   0.9985   0.30262   0.30067  -0.1228  0.0056  1.0000  -2.0733   0.0000   0.0000   0.0000   0.3518
  22.700   1.0018   0.30405   0.30210  -0.1238  0.0054  1.0000  -2.0758   0.0000   0.0000   0.0000   0.3522
  22.800   1.0051   0.30545   0.30351  -0.1247  0.0053  1.0000  -2.0817   0.0000   0.0000   0.0000   0.3526
  22.900   1.0083   0.30684   0.30490  -0.1257  0.0052  1.0000  -2.0889   0.0000   0.0000   0.0000   0.3529
  23.000   1.0116   0.30820   0.30626  -0.1266  0.0051  1.0000  -2.0970   0.0000   0.0000   0.0000   0.3533
  23.100   1.0148   0.30954   0.30760  -0.1276  0.0050  1.0000  -2.1066   0.0000   0.0000   0.0000   0.3536
  23.200   1.0180   0.31086   0.30893  -0.1285  0.0049  1.0000  -2.1176   0.0000   0.0000   0.0000   0.3540
  23.300   1.0212   0.31216   0.31023  -0.1295  0.0048  1.0000  -2.1304   0.0000   0.0000   0.0000   0.3543
  23.400   1.0244   0.31342   0.31149  -0.1304  0.0048  1.0000  -2.1451   0.0000   0.0000   0.0000   0.3546
  23.500   1.0275   0.31465   0.31272  -0.1314  0.0047  1.0000  -2.1621   0.0000   0.0000   0.0000   0.3550
  23.600   1.0306   0.31595   0.31402  -0.1323  0.0047  1.0000  -2.1815   0.0000   0.0000   0.0000   0.3553
  23.700   1.0337   0.31716   0.31523  -0.1332  0.0046  1.0000  -2.2038   0.0000   0.0000   0.0000   0.3556
  23.800   1.0367   0.31834   0.31641  -0.1341  0.0046  1.0000  -2.2293   0.0000   0.0000   0.0000   0.3559
  23.900   1.0397   0.31953   0.31761  -0.1350  0.0045  1.0000  -2.2586   0.0000   0.0000   0.0000   0.3561
  24.000   1.0426   0.32066   0.31875  -0.1359  0.0045  1.0000  -2.2921   0.0000   0.0000   0.0000   0.3564
  24.100   1.0455   0.32179   0.31988  -0.1367  0.0045  1.0000  -2.3308   0.0000   0.0000   0.0000   0.3566
  24.200   1.0482   0.32292   0.32101  -0.1374  0.0044  1.0000  -2.3760   0.0000   0.0000   0.0000   0.3567
  24.300   1.0509   0.32413   0.32223  -0.1380  0.0044  1.0000  -2.4312   0.0000   0.0000   0.0000   0.3567


