xflr5 v6.61

 Calculated polar for: MH 50

 1 1 Reynolds number fixed          Mach number fixed         

 xtrf =   1.000 (top)        1.000 (bottom)
 Mach =   0.000     Re =     0.625 e 6     Ncrit =   9.000

  alpha     CL        CD       CDp       Cm    Top Xtr Bot Xtr   Cpmin    Chinge    XCp    
 ------- -------- --------- --------- -------- ------- ------- -------- --------- ---------
  -9.400  -0.8705   0.04123   0.03828  -0.0173  1.0000  0.0120  -6.6094   0.0000   0.0000   0.0000   0.2231
  -9.300  -0.8714   0.03922   0.03614  -0.0171  1.0000  0.0119  -6.6292   0.0000   0.0000   0.0000   0.2235
  -9.200  -0.8719   0.03711   0.03387  -0.0167  1.0000  0.0119  -6.6622   0.0000   0.0000   0.0000   0.2239
  -9.100  -0.8719   0.03499   0.03156  -0.0163  1.0000  0.0118  -6.6997   0.0000   0.0000   0.0000   0.2245
  -9.000  -0.8709   0.03293   0.02929  -0.0158  1.0000  0.0118  -6.7338   0.0000   0.0000   0.0000   0.2250
  -8.900  -0.8688   0.03100   0.02714  -0.0153  1.0000  0.0118  -6.7570   0.0000   0.0000   0.0000   0.2256
  -8.800  -0.8654   0.02925   0.02517  -0.0148  1.0000  0.0118  -6.7635   0.0000   0.0000   0.0000   0.2262
  -8.700  -0.8608   0.02773   0.02343  -0.0143  1.0000  0.0118  -6.7495   0.0000   0.0000   0.0000   0.2268
  -8.600  -0.8551   0.02644   0.02194  -0.0138  1.0000  0.0119  -6.7142   0.0000   0.0000   0.0000   0.2273
  -8.500  -0.8483   0.02538   0.02070  -0.0134  1.0000  0.0120  -6.6818   0.0000   0.0000   0.0000   0.2277
  -8.400  -0.8405   0.02464   0.01978  -0.0131  1.0000  0.0121  -6.6219   0.0000   0.0000   0.0000   0.2281
  -8.300  -0.8354   0.02290   0.01785  -0.0126  1.0000  0.0123  -6.6211   0.0000   0.0000   0.0000   0.2286
  -8.200  -0.8276   0.02202   0.01692  -0.0124  1.0000  0.0125  -6.5259   0.0000   0.0000   0.0000   0.2288
  -8.100  -0.8186   0.02157   0.01644  -0.0122  1.0000  0.0127  -6.3948   0.0000   0.0000   0.0000   0.2289
  -8.000  -0.8093   0.02122   0.01606  -0.0121  1.0000  0.0129  -6.2604   0.0000   0.0000   0.0000   0.2289
  -7.900  -0.7997   0.02087   0.01569  -0.0120  1.0000  0.0131  -6.1293   0.0000   0.0000   0.0000   0.2290
  -7.800  -0.7904   0.02042   0.01519  -0.0119  1.0000  0.0133  -6.0174   0.0000   0.0000   0.0000   0.2291
  -7.700  -0.7812   0.01987   0.01456  -0.0117  1.0000  0.0135  -5.9213   0.0000   0.0000   0.0000   0.2293
  -7.600  -0.7720   0.01927   0.01386  -0.0114  1.0000  0.0137  -5.8351   0.0000   0.0000   0.0000   0.2295
  -7.500  -0.7627   0.01868   0.01318  -0.0112  1.0000  0.0139  -5.7488   0.0000   0.0000   0.0000   0.2297
  -7.400  -0.7533   0.01813   0.01255  -0.0109  1.0000  0.0141  -5.6597   0.0000   0.0000   0.0000   0.2299
  -7.300  -0.7437   0.01763   0.01196  -0.0107  1.0000  0.0143  -5.5671   0.0000   0.0000   0.0000   0.2301
  -7.200  -0.7340   0.01719   0.01144  -0.0105  1.0000  0.0145  -5.4704   0.0000   0.0000   0.0000   0.2303
  -7.100  -0.7241   0.01682   0.01099  -0.0103  1.0000  0.0147  -5.3685   0.0000   0.0000   0.0000   0.2305
  -7.000  -0.7140   0.01654   0.01062  -0.0101  1.0000  0.0148  -5.2600   0.0000   0.0000   0.0000   0.2306
  -6.900  -0.7057   0.01570   0.00975  -0.0098  1.0000  0.0151  -5.1840   0.0000   0.0000   0.0000   0.2310
  -6.800  -0.6966   0.01522   0.00926  -0.0095  1.0000  0.0154  -5.0769   0.0000   0.0000   0.0000   0.2312
  -6.700  -0.6871   0.01489   0.00893  -0.0093  1.0000  0.0156  -4.9600   0.0000   0.0000   0.0000   0.2314
  -6.600  -0.6775   0.01461   0.00864  -0.0091  1.0000  0.0159  -4.8429   0.0000   0.0000   0.0000   0.2316
  -6.500  -0.6680   0.01438   0.00839  -0.0089  1.0000  0.0163  -4.7261   0.0000   0.0000   0.0000   0.2318
  -6.400  -0.6587   0.01415   0.00814  -0.0086  1.0000  0.0167  -4.6127   0.0000   0.0000   0.0000   0.2321
  -6.300  -0.6497   0.01393   0.00788  -0.0083  1.0000  0.0171  -4.5047   0.0000   0.0000   0.0000   0.2326
  -6.200  -0.6412   0.01373   0.00764  -0.0078  1.0000  0.0175  -4.4015   0.0000   0.0000   0.0000   0.2332
  -6.100  -0.6329   0.01357   0.00744  -0.0072  1.0000  0.0178  -4.3019   0.0000   0.0000   0.0000   0.2340
  -6.000  -0.6265   0.01314   0.00698  -0.0064  1.0000  0.0182  -4.2360   0.0000   0.0000   0.0000   0.2353
  -5.900  -0.6197   0.01280   0.00665  -0.0057  1.0000  0.0185  -4.1572   0.0000   0.0000   0.0000   0.2364
  -5.800  -0.6124   0.01258   0.00643  -0.0051  1.0000  0.0189  -4.0704   0.0000   0.0000   0.0000   0.2374
  -5.700  -0.6048   0.01239   0.00623  -0.0044  1.0000  0.0193  -3.9830   0.0000   0.0000   0.0000   0.2384
  -5.600  -0.5971   0.01220   0.00603  -0.0038  1.0000  0.0198  -3.8970   0.0000   0.0000   0.0000   0.2394
  -5.500  -0.5878   0.01201   0.00581  -0.0035  0.9998  0.0203  -3.8058   0.0000   0.0000   0.0000   0.2399
  -5.400  -0.5744   0.01181   0.00557  -0.0041  0.9989  0.0209  -3.6973   0.0000   0.0000   0.0000   0.2389
  -5.300  -0.5614   0.01151   0.00525  -0.0046  0.9979  0.0215  -3.5945   0.0000   0.0000   0.0000   0.2379
  -5.200  -0.5483   0.01124   0.00500  -0.0051  0.9970  0.0224  -3.4810   0.0000   0.0000   0.0000   0.2367
  -5.100  -0.5348   0.01107   0.00483  -0.0057  0.9960  0.0234  -3.3658   0.0000   0.0000   0.0000   0.2355
  -5.000  -0.5211   0.01093   0.00466  -0.0063  0.9951  0.0245  -3.2547   0.0000   0.0000   0.0000   0.2341
  -4.900  -0.5079   0.01065   0.00438  -0.0068  0.9941  0.0256  -3.1502   0.0000   0.0000   0.0000   0.2328
  -4.800  -0.4943   0.01047   0.00420  -0.0074  0.9933  0.0269  -3.0392   0.0000   0.0000   0.0000   0.2313
  -4.700  -0.4808   0.01032   0.00402  -0.0080  0.9922  0.0283  -2.9319   0.0000   0.0000   0.0000   0.2298
  -4.600  -0.4672   0.01008   0.00380  -0.0086  0.9914  0.0300  -2.8262   0.0000   0.0000   0.0000   0.2280
  -4.500  -0.4536   0.00994   0.00365  -0.0092  0.9904  0.0322  -2.7234   0.0000   0.0000   0.0000   0.2263
  -4.400  -0.4400   0.00974   0.00347  -0.0098  0.9895  0.0350  -2.6303   0.0000   0.0000   0.0000   0.2243
  -4.300  -0.4260   0.00956   0.00331  -0.0104  0.9888  0.0389  -2.5369   0.0000   0.0000   0.0000   0.2221
  -4.200  -0.4126   0.00938   0.00315  -0.0110  0.9876  0.0443  -2.4458   0.0000   0.0000   0.0000   0.2200
  -4.100  -0.3992   0.00918   0.00300  -0.0115  0.9865  0.0527  -2.3556   0.0000   0.0000   0.0000   0.2178
  -4.000  -0.3857   0.00897   0.00286  -0.0121  0.9855  0.0659  -2.2634   0.0000   0.0000   0.0000   0.2153
  -3.900  -0.3730   0.00878   0.00275  -0.0125  0.9840  0.0817  -2.1733   0.0000   0.0000   0.0000   0.2131
  -3.800  -0.3598   0.00860   0.00264  -0.0131  0.9827  0.0987  -2.0812   0.0000   0.0000   0.0000   0.2104
  -3.700  -0.3470   0.00844   0.00255  -0.0135  0.9811  0.1158  -1.9913   0.0000   0.0000   0.0000   0.2078
  -3.600  -0.3343   0.00828   0.00247  -0.0139  0.9795  0.1336  -1.9024   0.0000   0.0000   0.0000   0.2051
  -3.500  -0.3217   0.00811   0.00238  -0.0143  0.9779  0.1532  -1.8149   0.0000   0.0000   0.0000   0.2023
  -3.400  -0.3098   0.00795   0.00231  -0.0146  0.9759  0.1748  -1.7346   0.0000   0.0000   0.0000   0.1998
  -3.300  -0.2978   0.00779   0.00223  -0.0149  0.9742  0.1987  -1.6593   0.0000   0.0000   0.0000   0.1970
  -3.200  -0.2867   0.00763   0.00217  -0.0149  0.9718  0.2241  -1.5881   0.0000   0.0000   0.0000   0.1949
  -3.100  -0.2754   0.00746   0.00211  -0.0150  0.9699  0.2519  -1.5168   0.0000   0.0000   0.0000   0.1923
  -3.000  -0.2650   0.00730   0.00206  -0.0149  0.9673  0.2798  -1.4493   0.0000   0.0000   0.0000   0.1906
  -2.900  -0.2544   0.00715   0.00201  -0.0149  0.9652  0.3102  -1.3819   0.0000   0.0000   0.0000   0.1885
  -2.800  -0.2446   0.00699   0.00196  -0.0146  0.9624  0.3408  -1.3176   0.0000   0.0000   0.0000   0.1871
  -2.700  -0.2346   0.00683   0.00192  -0.0144  0.9601  0.3724  -1.2537   0.0000   0.0000   0.0000   0.1856
  -2.600  -0.2251   0.00668   0.00188  -0.0141  0.9573  0.4048  -1.1920   0.0000   0.0000   0.0000   0.1844
  -2.500  -0.2156   0.00653   0.00184  -0.0138  0.9549  0.4385  -1.1350   0.0000   0.0000   0.0000   0.1833
  -2.400  -0.2064   0.00638   0.00181  -0.0134  0.9520  0.4726  -1.0815   0.0000   0.0000   0.0000   0.1824
  -2.300  -0.1973   0.00623   0.00178  -0.0129  0.9497  0.5071  -1.0286   0.0000   0.0000   0.0000   0.1816
  -2.200  -0.1881   0.00608   0.00176  -0.0125  0.9467  0.5408  -0.9764   0.0000   0.0000   0.0000   0.1807
  -2.100  -0.1791   0.00595   0.00173  -0.0120  0.9442  0.5735  -0.9249   0.0000   0.0000   0.0000   0.1801
  -2.000  -0.1699   0.00581   0.00171  -0.0116  0.9413  0.6047  -0.8740   0.0000   0.0000   0.0000   0.1792
  -1.800  -0.1518   0.00557   0.00167  -0.0105  0.9361  0.6644  -0.7800   0.0000   0.0000   0.0000   0.1779
  -1.600  -0.1338   0.00535   0.00163  -0.0094  0.9309  0.7212  -0.6922   0.0000   0.0000   0.0000   0.1771
  -1.400  -0.1157   0.00515   0.00162  -0.0082  0.9252  0.7752  -0.6103   0.0000   0.0000   0.0000   0.1764
  -1.300  -0.1067   0.00506   0.00163  -0.0076  0.9223  0.8010  -0.5720   0.0000   0.0000   0.0000   0.1764
  -1.200  -0.0978   0.00500   0.00165  -0.0069  0.9193  0.8252  -0.5359   0.0000   0.0000   0.0000   0.1772
  -1.100  -0.0888   0.00497   0.00168  -0.0061  0.9166  0.8468  -0.5021   0.0000   0.0000   0.0000   0.1781
  -1.000  -0.0796   0.00496   0.00170  -0.0055  0.9132  0.8646  -0.4718   0.0000   0.0000   0.0000   0.1779
  -0.900  -0.0704   0.00497   0.00172  -0.0048  0.9104  0.8789  -0.4474   0.0000   0.0000   0.0000   0.1786
  -0.800  -0.0609   0.00497   0.00174  -0.0043  0.9067  0.8906  -0.4253   0.0000   0.0000   0.0000   0.1769
  -0.700  -0.0517   0.00498   0.00175  -0.0036  0.9035  0.9005  -0.4050   0.0000   0.0000   0.0000   0.1765
  -0.600  -0.0423   0.00499   0.00176  -0.0031  0.8998  0.9093  -0.3856   0.0000   0.0000   0.0000   0.1740
  -0.500  -0.0330   0.00500   0.00176  -0.0025  0.8962  0.9170  -0.3672   0.0000   0.0000   0.0000   0.1719
  -0.400  -0.0237   0.00501   0.00177  -0.0019  0.8925  0.9240  -0.3495   0.0000   0.0000   0.0000   0.1675
  -0.300  -0.0144   0.00502   0.00177  -0.0012  0.8886  0.9302  -0.3327   0.0000   0.0000   0.0000   0.1593
  -0.200  -0.0051   0.00503   0.00177  -0.0006  0.8848  0.9358  -0.3162   0.0000   0.0000   0.0000   0.1180
  -0.100   0.0043   0.00504   0.00177  -0.0000  0.8806  0.9411  -0.3091   0.0000   0.0000   0.0000   0.2624
   0.000   0.0137   0.00505   0.00177   0.0005  0.8766  0.9462  -0.3219   0.0000   0.0000   0.0000   0.2103
   0.100   0.0233   0.00505   0.00177   0.0011  0.8722  0.9510  -0.3349   0.0000   0.0000   0.0000   0.2023
   0.200   0.0330   0.00505   0.00176   0.0016  0.8680  0.9557  -0.3481   0.0000   0.0000   0.0000   0.2004
   0.300   0.0433   0.00506   0.00176   0.0020  0.8634  0.9599  -0.3623   0.0000   0.0000   0.0000   0.2029
   0.400   0.0545   0.00506   0.00175   0.0021  0.8588  0.9635  -0.3772   0.0000   0.0000   0.0000   0.2086
   0.500   0.0659   0.00506   0.00174   0.0023  0.8539  0.9671  -0.3924   0.0000   0.0000   0.0000   0.2136
   0.600   0.0777   0.00506   0.00173   0.0023  0.8485  0.9706  -0.4086   0.0000   0.0000   0.0000   0.2188
   0.700   0.0906   0.00506   0.00171   0.0020  0.8433  0.9733  -0.4258   0.0000   0.0000   0.0000   0.2255
   0.800   0.1042   0.00506   0.00170   0.0016  0.8368  0.9759  -0.4435   0.0000   0.0000   0.0000   0.2324
   0.900   0.1175   0.00506   0.00169   0.0013  0.8299  0.9786  -0.4620   0.0000   0.0000   0.0000   0.2372
   1.000   0.1326   0.00506   0.00168   0.0005  0.8223  0.9803  -0.4819   0.0000   0.0000   0.0000   0.2441
   1.100   0.1470   0.00506   0.00166  -0.0001  0.8133  0.9824  -0.5017   0.0000   0.0000   0.0000   0.2486
   1.200   0.1628   0.00506   0.00164  -0.0010  0.8024  0.9837  -0.5235   0.0000   0.0000   0.0000   0.2543
   1.300   0.1774   0.00507   0.00162  -0.0017  0.7893  0.9856  -0.5444   0.0000   0.0000   0.0000   0.2575
   1.400   0.1928   0.00509   0.00159  -0.0025  0.7726  0.9869  -0.5671   0.0000   0.0000   0.0000   0.2611
   1.500   0.2072   0.00513   0.00156  -0.0031  0.7525  0.9887  -0.5890   0.0000   0.0000   0.0000   0.2631
   1.600   0.2220   0.00520   0.00153  -0.0039  0.7287  0.9901  -0.6125   0.0000   0.0000   0.0000   0.2654
   1.700   0.2364   0.00529   0.00152  -0.0046  0.7037  0.9916  -0.6360   0.0000   0.0000   0.0000   0.2671
   1.800   0.2510   0.00539   0.00152  -0.0053  0.6787  0.9931  -0.6608   0.0000   0.0000   0.0000   0.2690
   1.900   0.2658   0.00550   0.00153  -0.0061  0.6529  0.9944  -0.6869   0.0000   0.0000   0.0000   0.2708
   2.000   0.2806   0.00561   0.00154  -0.0069  0.6273  0.9957  -0.7141   0.0000   0.0000   0.0000   0.2724
   2.100   0.2954   0.00573   0.00156  -0.0078  0.6011  0.9970  -0.7433   0.0000   0.0000   0.0000   0.2740
   2.200   0.3103   0.00585   0.00157  -0.0086  0.5749  0.9982  -0.7911   0.0000   0.0000   0.0000   0.2756
   2.300   0.3252   0.00596   0.00159  -0.0095  0.5480  0.9994  -0.8511   0.0000   0.0000   0.0000   0.2770
   2.400   0.3383   0.00608   0.00162  -0.0100  0.5224  1.0000  -0.9105   0.0000   0.0000   0.0000   0.2773
   2.500   0.3489   0.00620   0.00165  -0.0100  0.4987  1.0000  -0.9678   0.0000   0.0000   0.0000   0.2763
   2.600   0.3595   0.00632   0.00168  -0.0100  0.4750  1.0000  -1.0258   0.0000   0.0000   0.0000   0.2753
   2.700   0.3700   0.00644   0.00171  -0.0099  0.4515  1.0000  -1.0843   0.0000   0.0000   0.0000   0.2744
   2.800   0.3804   0.00656   0.00175  -0.0099  0.4281  1.0000  -1.1433   0.0000   0.0000   0.0000   0.2734
   2.900   0.3907   0.00669   0.00179  -0.0098  0.4048  1.0000  -1.2078   0.0000   0.0000   0.0000   0.2725
   3.000   0.4010   0.00682   0.00183  -0.0097  0.3816  1.0000  -1.2751   0.0000   0.0000   0.0000   0.2716
   3.100   0.4112   0.00696   0.00188  -0.0096  0.3584  1.0000  -1.3432   0.0000   0.0000   0.0000   0.2707
   3.200   0.4214   0.00710   0.00194  -0.0095  0.3346  1.0000  -1.4119   0.0000   0.0000   0.0000   0.2699
   3.300   0.4314   0.00726   0.00199  -0.0094  0.3095  1.0000  -1.4812   0.0000   0.0000   0.0000   0.2691
   3.400   0.4414   0.00742   0.00205  -0.0093  0.2843  1.0000  -1.5512   0.0000   0.0000   0.0000   0.2682
   3.500   0.4513   0.00758   0.00212  -0.0092  0.2613  1.0000  -1.6218   0.0000   0.0000   0.0000   0.2674
   3.600   0.4611   0.00773   0.00218  -0.0090  0.2414  1.0000  -1.6932   0.0000   0.0000   0.0000   0.2666
   3.700   0.4710   0.00786   0.00225  -0.0089  0.2245  1.0000  -1.7655   0.0000   0.0000   0.0000   0.2658
   3.800   0.4808   0.00800   0.00231  -0.0087  0.2096  1.0000  -1.8385   0.0000   0.0000   0.0000   0.2650
   3.900   0.4907   0.00812   0.00238  -0.0085  0.1962  1.0000  -1.9187   0.0000   0.0000   0.0000   0.2642
   4.000   0.5004   0.00824   0.00246  -0.0083  0.1842  1.0000  -2.0021   0.0000   0.0000   0.0000   0.2634
   4.100   0.5102   0.00836   0.00253  -0.0081  0.1730  1.0000  -2.0863   0.0000   0.0000   0.0000   0.2626
   4.200   0.5199   0.00847   0.00261  -0.0079  0.1626  1.0000  -2.1715   0.0000   0.0000   0.0000   0.2618
   4.300   0.5296   0.00858   0.00269  -0.0077  0.1528  1.0000  -2.2576   0.0000   0.0000   0.0000   0.2610
   4.400   0.5392   0.00870   0.00276  -0.0074  0.1431  1.0000  -2.3444   0.0000   0.0000   0.0000   0.2603
   4.500   0.5488   0.00881   0.00284  -0.0072  0.1334  1.0000  -2.4319   0.0000   0.0000   0.0000   0.2595
   4.600   0.5584   0.00894   0.00293  -0.0069  0.1238  1.0000  -2.5199   0.0000   0.0000   0.0000   0.2587
   4.700   0.5678   0.00906   0.00302  -0.0066  0.1144  1.0000  -2.6084   0.0000   0.0000   0.0000   0.2580
   4.800   0.5773   0.00919   0.00312  -0.0064  0.1040  1.0000  -2.6973   0.0000   0.0000   0.0000   0.2573
   4.900   0.5866   0.00935   0.00322  -0.0061  0.0920  1.0000  -2.7857   0.0000   0.0000   0.0000   0.2565
   5.000   0.5957   0.00953   0.00333  -0.0058  0.0772  1.0000  -2.8730   0.0000   0.0000   0.0000   0.2558
   5.100   0.6044   0.00978   0.00348  -0.0054  0.0593  1.0000  -2.9574   0.0000   0.0000   0.0000   0.2550
   5.200   0.6129   0.01008   0.00368  -0.0050  0.0436  1.0000  -3.0381   0.0000   0.0000   0.0000   0.2541
   5.300   0.6216   0.01033   0.00388  -0.0046  0.0351  1.0000  -3.1176   0.0000   0.0000   0.0000   0.2533
   5.400   0.6305   0.01056   0.00408  -0.0042  0.0306  1.0000  -3.1976   0.0000   0.0000   0.0000   0.2525
   5.500   0.6396   0.01076   0.00427  -0.0038  0.0278  1.0000  -3.2776   0.0000   0.0000   0.0000   0.2517
   5.600   0.6483   0.01100   0.00451  -0.0034  0.0257  1.0000  -3.3629   0.0000   0.0000   0.0000   0.2509
   5.700   0.6576   0.01115   0.00468  -0.0030  0.0241  1.0000  -3.4594   0.0000   0.0000   0.0000   0.2502
   5.800   0.6666   0.01135   0.00487  -0.0027  0.0228  1.0000  -3.5583   0.0000   0.0000   0.0000   0.2495
   5.900   0.6755   0.01159   0.00512  -0.0023  0.0217  1.0000  -3.6528   0.0000   0.0000   0.0000   0.2487
   6.000   0.6848   0.01174   0.00529  -0.0019  0.0207  1.0000  -3.7538   0.0000   0.0000   0.0000   0.2481
   6.100   0.6940   0.01192   0.00548  -0.0016  0.0198  1.0000  -3.8581   0.0000   0.0000   0.0000   0.2475
   6.200   0.7025   0.01224   0.00579  -0.0012  0.0189  1.0000  -3.9539   0.0000   0.0000   0.0000   0.2468
   6.300   0.7119   0.01244   0.00601  -0.0009  0.0184  1.0000  -4.0531   0.0000   0.0000   0.0000   0.2463
   6.400   0.7213   0.01263   0.00624  -0.0006  0.0178  1.0000  -4.1541   0.0000   0.0000   0.0000   0.2457
   6.500   0.7307   0.01285   0.00647  -0.0003  0.0173  1.0000  -4.2570   0.0000   0.0000   0.0000   0.2452
   6.600   0.7401   0.01307   0.00671   0.0000  0.0168  1.0000  -4.3623   0.0000   0.0000   0.0000   0.2448
   6.700   0.7493   0.01334   0.00698   0.0003  0.0164  1.0000  -4.4676   0.0000   0.0000   0.0000   0.2443
   6.800   0.7577   0.01376   0.00741   0.0007  0.0159  1.0000  -4.5602   0.0000   0.0000   0.0000   0.2437
   6.900   0.7667   0.01410   0.00777   0.0010  0.0156  1.0000  -4.6536   0.0000   0.0000   0.0000   0.2432
   7.000   0.7763   0.01434   0.00805   0.0012  0.0153  1.0000  -4.7549   0.0000   0.0000   0.0000   0.2428
   7.100   0.7858   0.01461   0.00835   0.0015  0.0150  1.0000  -4.8548   0.0000   0.0000   0.0000   0.2424
   7.200   0.7953   0.01489   0.00867   0.0017  0.0147  1.0000  -4.9562   0.0000   0.0000   0.0000   0.2420
   7.300   0.8047   0.01516   0.00897   0.0020  0.0144  1.0000  -5.0614   0.0000   0.0000   0.0000   0.2417
   7.400   0.8143   0.01543   0.00925   0.0022  0.0140  1.0000  -5.1720   0.0000   0.0000   0.0000   0.2414
   7.500   0.8237   0.01570   0.00953   0.0024  0.0137  1.0000  -5.2871   0.0000   0.0000   0.0000   0.2410
   7.600   0.8327   0.01605   0.00988   0.0026  0.0134  1.0000  -5.4002   0.0000   0.0000   0.0000   0.2407
   7.700   0.8405   0.01671   0.01054   0.0030  0.0131  1.0000  -5.4857   0.0000   0.0000   0.0000   0.2402
   7.800   0.8495   0.01713   0.01101   0.0033  0.0129  1.0000  -5.5779   0.0000   0.0000   0.0000   0.2398
   7.900   0.8590   0.01744   0.01138   0.0035  0.0127  1.0000  -5.6775   0.0000   0.0000   0.0000   0.2395
   8.000   0.8684   0.01780   0.01180   0.0038  0.0125  1.0000  -5.7731   0.0000   0.0000   0.0000   0.2391
   8.100   0.8776   0.01820   0.01225   0.0040  0.0124  1.0000  -5.8789   0.0000   0.0000   0.0000   0.2388
   8.200   0.8867   0.01863   0.01273   0.0043  0.0122  1.0000  -5.9923   0.0000   0.0000   0.0000   0.2384
   8.300   0.8957   0.01907   0.01324   0.0046  0.0120  1.0000  -6.1055   0.0000   0.0000   0.0000   0.2380
   8.400   0.9046   0.01954   0.01375   0.0048  0.0119  1.0000  -6.2187   0.0000   0.0000   0.0000   0.2377
   8.500   0.9135   0.02001   0.01429   0.0051  0.0117  1.0000  -6.3325   0.0000   0.0000   0.0000   0.2373
   8.600   0.9223   0.02050   0.01482   0.0054  0.0116  1.0000  -6.4474   0.0000   0.0000   0.0000   0.2370
   8.700   0.9310   0.02099   0.01537   0.0056  0.0114  1.0000  -6.5638   0.0000   0.0000   0.0000   0.2367
   8.800   0.9397   0.02148   0.01591   0.0059  0.0113  1.0000  -6.6823   0.0000   0.0000   0.0000   0.2363
   8.900   0.9482   0.02200   0.01649   0.0062  0.0112  1.0000  -6.7992   0.0000   0.0000   0.0000   0.2360
   9.000   0.9566   0.02254   0.01708   0.0064  0.0110  1.0000  -6.9161   0.0000   0.0000   0.0000   0.2357
   9.100   0.9648   0.02312   0.01772   0.0067  0.0109  1.0000  -7.0320   0.0000   0.0000   0.0000   0.2354
   9.200   0.9726   0.02376   0.01841   0.0070  0.0108  1.0000  -7.1439   0.0000   0.0000   0.0000   0.2350
   9.300   0.9801   0.02452   0.01923   0.0073  0.0107  1.0000  -7.2464   0.0000   0.0000   0.0000   0.2346
   9.400   0.9870   0.02544   0.02023   0.0077  0.0106  1.0000  -7.3328   0.0000   0.0000   0.0000   0.2342
   9.500   0.9931   0.02654   0.02143   0.0081  0.0106  1.0000  -7.3994   0.0000   0.0000   0.0000   0.2338
   9.600   0.9985   0.02781   0.02282   0.0086  0.0105  1.0000  -7.4473   0.0000   0.0000   0.0000   0.2332
   9.700   1.0025   0.02936   0.02452   0.0091  0.0105  1.0000  -7.4686   0.0000   0.0000   0.0000   0.2326
   9.800   1.0064   0.03065   0.02599   0.0097  0.0104  1.0000  -7.4985   0.0000   0.0000   0.0000   0.2320
   9.900   1.0118   0.03137   0.02687   0.0101  0.0103  1.0000  -7.5675   0.0000   0.0000   0.0000   0.2315
  10.000   1.0162   0.03231   0.02798   0.0107  0.0102  1.0000  -7.6163   0.0000   0.0000   0.0000   0.2309
  10.100   1.0195   0.03344   0.02929   0.0112  0.0102  1.0000  -7.6474   0.0000   0.0000   0.0000   0.2303
  10.200   1.0217   0.03473   0.03075   0.0118  0.0101  1.0000  -7.6630   0.0000   0.0000   0.0000   0.2296
  10.300   1.0227   0.03616   0.03235   0.0124  0.0101  1.0000  -7.6651   0.0000   0.0000   0.0000   0.2290
  10.400   1.0225   0.03770   0.03405   0.0131  0.0101  1.0000  -7.6563   0.0000   0.0000   0.0000   0.2283
  10.500   1.0212   0.03931   0.03581   0.0137  0.0101  1.0000  -7.6402   0.0000   0.0000   0.0000   0.2276
  10.600   1.0189   0.04095   0.03759   0.0142  0.0101  1.0000  -7.6198   0.0000   0.0000   0.0000   0.2269
  10.700   1.0156   0.04260   0.03936   0.0148  0.0101  1.0000  -7.5964   0.0000   0.0000   0.0000   0.2262
  10.800   1.0112   0.04418   0.04105   0.0154  0.0102  1.0000  -7.5712   0.0000   0.0000   0.0000   0.2254
  10.900   1.0054   0.04566   0.04262   0.0161  0.0102  1.0000  -7.5452   0.0000   0.0000   0.0000   0.2245
  11.000   0.9990   0.04716   0.04421   0.0166  0.0102  1.0000  -7.5179   0.0000   0.0000   0.0000   0.2238
  11.100   0.9923   0.04875   0.04587   0.0168  0.0102  1.0000  -7.4889   0.0000   0.0000   0.0000   0.2234
  11.200   0.9856   0.05044   0.04764   0.0167  0.0103  1.0000  -7.4581   0.0000   0.0000   0.0000   0.2232
  11.300   0.9787   0.05227   0.04953   0.0162  0.0103  1.0000  -7.4255   0.0000   0.0000   0.0000   0.2234
  11.400   0.9720   0.05425   0.05156   0.0155  0.0103  1.0000  -7.3913   0.0000   0.0000   0.0000   0.2239
  11.500   0.9593   0.05764   0.05518   0.0133  0.0108  1.0000  -7.1531   0.0000   0.0000   0.0000   0.2259
  11.600   0.9557   0.05960   0.05718   0.0117  0.0108  1.0000  -7.1580   0.0000   0.0000   0.0000   0.2273
  11.700   0.9521   0.06174   0.05935   0.0099  0.0108  1.0000  -7.1580   0.0000   0.0000   0.0000   0.2290
  11.800   0.9487   0.06403   0.06168   0.0078  0.0107  1.0000  -7.1552   0.0000   0.0000   0.0000   0.2309
  11.900   0.9454   0.06644   0.06412   0.0057  0.0107  1.0000  -7.1558   0.0000   0.0000   0.0000   0.2330
  14.600   0.7692   0.17810   0.17603  -0.0533  0.0138  1.0000  -2.3137   0.0000   0.0000   0.0000   0.3087
  14.700   0.7715   0.17956   0.17749  -0.0540  0.0136  1.0000  -2.3322   0.0000   0.0000   0.0000   0.3092
  14.800   0.7739   0.18094   0.17887  -0.0546  0.0135  1.0000  -2.3570   0.0000   0.0000   0.0000   0.3096
  14.900   0.7764   0.18224   0.18017  -0.0551  0.0134  1.0000  -2.3888   0.0000   0.0000   0.0000   0.3099
  15.000   0.7791   0.18345   0.18139  -0.0556  0.0133  1.0000  -2.4290   0.0000   0.0000   0.0000   0.3101
  15.100   0.7821   0.18456   0.18250  -0.0559  0.0132  1.0000  -2.4802   0.0000   0.0000   0.0000   0.3101
  15.200   0.7853   0.18559   0.18353  -0.0561  0.0132  1.0000  -2.5411   0.0000   0.0000   0.0000   0.3100
  15.300   0.7883   0.18662   0.18457  -0.0564  0.0131  1.0000  -2.6041   0.0000   0.0000   0.0000   0.3099
  15.400   0.7910   0.18767   0.18561  -0.0565  0.0130  1.0000  -2.6741   0.0000   0.0000   0.0000   0.3096
  15.500   0.7924   0.18955   0.18749  -0.0571  0.0130  1.0000  -2.6678   0.0000   0.0000   0.0000   0.3101
  15.600   0.7935   0.19193   0.18987  -0.0584  0.0129  1.0000  -2.5949   0.0000   0.0000   0.0000   0.3116
  15.700   0.7943   0.19450   0.19244  -0.0598  0.0129  1.0000  -2.5001   0.0000   0.0000   0.0000   0.3133
  15.800   0.7932   0.19824   0.19615  -0.0625  0.0127  1.0000  -2.2778   0.0000   0.0000   0.0000   0.3169
  15.900   0.7947   0.20070   0.19861  -0.0639  0.0123  1.0000  -2.1895   0.0000   0.0000   0.0000   0.3184
  16.000   0.7971   0.20250   0.20041  -0.0647  0.0121  1.0000  -2.1704   0.0000   0.0000   0.0000   0.3192
  16.100   0.7995   0.20420   0.20211  -0.0656  0.0119  1.0000  -2.1618   0.0000   0.0000   0.0000   0.3199
  16.200   0.8021   0.20583   0.20374  -0.0664  0.0117  1.0000  -2.1583   0.0000   0.0000   0.0000   0.3206
  16.300   0.8047   0.20742   0.20533  -0.0672  0.0116  1.0000  -2.1584   0.0000   0.0000   0.0000   0.3212
  16.400   0.8073   0.20897   0.20688  -0.0680  0.0114  1.0000  -2.1623   0.0000   0.0000   0.0000   0.3218
  16.500   0.8101   0.21046   0.20837  -0.0687  0.0113  1.0000  -2.1704   0.0000   0.0000   0.0000   0.3223
  16.600   0.8129   0.21190   0.20982  -0.0695  0.0112  1.0000  -2.1836   0.0000   0.0000   0.0000   0.3228
  16.700   0.8157   0.21328   0.21120  -0.0702  0.0110  1.0000  -2.2023   0.0000   0.0000   0.0000   0.3232
  16.800   0.8187   0.21460   0.21252  -0.0709  0.0109  1.0000  -2.2274   0.0000   0.0000   0.0000   0.3236
  16.900   0.8217   0.21589   0.21380  -0.0715  0.0108  1.0000  -2.2599   0.0000   0.0000   0.0000   0.3239
  17.000   0.8248   0.21707   0.21499  -0.0721  0.0107  1.0000  -2.3010   0.0000   0.0000   0.0000   0.3241
  17.100   0.8280   0.21816   0.21609  -0.0726  0.0106  1.0000  -2.3531   0.0000   0.0000   0.0000   0.3242
  17.200   0.8314   0.21916   0.21709  -0.0729  0.0106  1.0000  -2.4199   0.0000   0.0000   0.0000   0.3240
  17.300   0.8352   0.22007   0.21800  -0.0729  0.0105  1.0000  -2.5093   0.0000   0.0000   0.0000   0.3234
  17.400   0.8382   0.22144   0.21937  -0.0729  0.0104  1.0000  -2.5703   0.0000   0.0000   0.0000   0.3231
  17.500   0.8404   0.22342   0.22135  -0.0741  0.0104  1.0000  -2.5200   0.0000   0.0000   0.0000   0.3242
  17.600   0.8425   0.22543   0.22336  -0.0754  0.0104  1.0000  -2.4624   0.0000   0.0000   0.0000   0.3254
  17.700   0.8442   0.22769   0.22562  -0.0770  0.0104  1.0000  -2.3688   0.0000   0.0000   0.0000   0.3271
  17.800   0.8460   0.23040   0.22832  -0.0790  0.0102  1.0000  -2.2196   0.0000   0.0000   0.0000   0.3292
  17.900   0.8488   0.23265   0.23057  -0.0804  0.0099  1.0000  -2.1301   0.0000   0.0000   0.0000   0.3305
  18.000   0.8518   0.23433   0.23225  -0.0813  0.0097  1.0000  -2.1111   0.0000   0.0000   0.0000   0.3311
  18.100   0.8548   0.23590   0.23381  -0.0821  0.0095  1.0000  -2.1036   0.0000   0.0000   0.0000   0.3317
  18.200   0.8578   0.23744   0.23535  -0.0830  0.0093  1.0000  -2.1012   0.0000   0.0000   0.0000   0.3322
  18.300   0.8608   0.23893   0.23685  -0.0838  0.0091  1.0000  -2.1023   0.0000   0.0000   0.0000   0.3327
  18.400   0.8639   0.24039   0.23830  -0.0846  0.0090  1.0000  -2.1066   0.0000   0.0000   0.0000   0.3332
  18.500   0.8669   0.24181   0.23973  -0.0855  0.0089  1.0000  -2.1138   0.0000   0.0000   0.0000   0.3336
  18.600   0.8700   0.24320   0.24112  -0.0863  0.0088  1.0000  -2.1242   0.0000   0.0000   0.0000   0.3341
  18.700   0.8731   0.24456   0.24248  -0.0871  0.0087  1.0000  -2.1381   0.0000   0.0000   0.0000   0.3345
  18.800   0.8763   0.24588   0.24380  -0.0879  0.0086  1.0000  -2.1557   0.0000   0.0000   0.0000   0.3349
  18.900   0.8794   0.24717   0.24509  -0.0886  0.0085  1.0000  -2.1775   0.0000   0.0000   0.0000   0.3352
  19.000   0.8825   0.24847   0.24640  -0.0894  0.0084  1.0000  -2.2040   0.0000   0.0000   0.0000   0.3355
  19.100   0.8856   0.24969   0.24762  -0.0900  0.0084  1.0000  -2.2360   0.0000   0.0000   0.0000   0.3358
  19.200   0.8888   0.25087   0.24881  -0.0907  0.0083  1.0000  -2.2750   0.0000   0.0000   0.0000   0.3359
  19.300   0.8919   0.25202   0.24996  -0.0912  0.0083  1.0000  -2.3229   0.0000   0.0000   0.0000   0.3360
  19.400   0.8952   0.25314   0.25108  -0.0916  0.0082  1.0000  -2.3842   0.0000   0.0000   0.0000   0.3358
  19.500   0.8988   0.25435   0.25230  -0.0915  0.0082  1.0000  -2.4705   0.0000   0.0000   0.0000   0.3351
  19.600   0.9016   0.25613   0.25408  -0.0925  0.0081  1.0000  -2.4361   0.0000   0.0000   0.0000   0.3358
  19.700   0.9043   0.25797   0.25591  -0.0938  0.0081  1.0000  -2.3747   0.0000   0.0000   0.0000   0.3368
  19.800   0.9070   0.25983   0.25777  -0.0952  0.0081  1.0000  -2.3046   0.0000   0.0000   0.0000   0.3379
  19.900   0.9098   0.26173   0.25967  -0.0966  0.0081  1.0000  -2.2317   0.0000   0.0000   0.0000   0.3390
  20.000   0.9129   0.26371   0.26164  -0.0979  0.0080  1.0000  -2.1529   0.0000   0.0000   0.0000   0.3401
  20.100   0.9163   0.26573   0.26366  -0.0993  0.0080  1.0000  -2.0699   0.0000   0.0000   0.0000   0.3411
  20.200   0.9198   0.26754   0.26547  -0.1004  0.0078  1.0000  -2.0124   0.0000   0.0000   0.0000   0.3418
  20.300   0.9232   0.26920   0.26712  -0.1014  0.0077  1.0000  -1.9855   0.0000   0.0000   0.0000   0.3423
  20.400   0.9265   0.27072   0.26865  -0.1023  0.0075  1.0000  -1.9712   0.0000   0.0000   0.0000   0.3428
  20.500   0.9298   0.27227   0.27020  -0.1032  0.0074  1.0000  -1.9625   0.0000   0.0000   0.0000   0.3432
  20.600   0.9330   0.27375   0.27169  -0.1041  0.0072  1.0000  -1.9573   0.0000   0.0000   0.0000   0.3437
  20.700   0.9363   0.27521   0.27314  -0.1050  0.0071  1.0000  -1.9548   0.0000   0.0000   0.0000   0.3441
  20.800   0.9395   0.27663   0.27457  -0.1059  0.0070  1.0000  -1.9547   0.0000   0.0000   0.0000   0.3445
  20.900   0.9428   0.27804   0.27597  -0.1068  0.0069  1.0000  -1.9616   0.0000   0.0000   0.0000   0.3449
  21.000   0.9460   0.27942   0.27736  -0.1077  0.0068  1.0000  -1.9769   0.0000   0.0000   0.0000   0.3453
  21.100   0.9493   0.28079   0.27873  -0.1086  0.0067  1.0000  -1.9936   0.0000   0.0000   0.0000   0.3457
  21.200   0.9525   0.28216   0.28010  -0.1095  0.0066  1.0000  -2.0112   0.0000   0.0000   0.0000   0.3461
  21.300   0.9557   0.28347   0.28142  -0.1104  0.0066  1.0000  -2.0299   0.0000   0.0000   0.0000   0.3464
  21.400   0.9589   0.28478   0.28273  -0.1113  0.0065  1.0000  -2.0503   0.0000   0.0000   0.0000   0.3468
  21.500   0.9621   0.28607   0.28402  -0.1121  0.0065  1.0000  -2.0728   0.0000   0.0000   0.0000   0.3471
  21.600   0.9653   0.28733   0.28528  -0.1130  0.0064  1.0000  -2.0975   0.0000   0.0000   0.0000   0.3475
  21.700   0.9684   0.28865   0.28660  -0.1139  0.0064  1.0000  -2.1248   0.0000   0.0000   0.0000   0.3478
  21.800   0.9716   0.28988   0.28783  -0.1147  0.0063  1.0000  -2.1552   0.0000   0.0000   0.0000   0.3481
  21.900   0.9746   0.29109   0.28904  -0.1155  0.0063  1.0000  -2.1895   0.0000   0.0000   0.0000   0.3483
  22.000   0.9777   0.29228   0.29024  -0.1162  0.0062  1.0000  -2.2285   0.0000   0.0000   0.0000   0.3485
  22.100   0.9807   0.29346   0.29143  -0.1169  0.0062  1.0000  -2.2737   0.0000   0.0000   0.0000   0.3486
  22.200   0.9837   0.29470   0.29267  -0.1174  0.0062  1.0000  -2.3283   0.0000   0.0000   0.0000   0.3486
  22.300   0.9868   0.29611   0.29408  -0.1177  0.0061  1.0000  -2.4002   0.0000   0.0000   0.0000   0.3482


