xflr5 v6.61

 Calculated polar for: MH 50

 1 1 Reynolds number fixed          Mach number fixed         

 xtrf =   1.000 (top)        1.000 (bottom)
 Mach =   0.000     Re =     0.450 e 6     Ncrit =   9.000

  alpha     CL        CD       CDp       Cm    Top Xtr Bot Xtr   Cpmin    Chinge    XCp    
 ------- -------- --------- --------- -------- ------- ------- -------- --------- ---------
  -8.500  -0.8083   0.03831   0.03455  -0.0173  1.0000  0.0176  -5.3570   0.0000   0.0000   0.0000   0.2227
  -8.400  -0.8036   0.03690   0.03308  -0.0171  1.0000  0.0175  -5.3030   0.0000   0.0000   0.0000   0.2228
  -8.300  -0.7996   0.03528   0.03134  -0.0168  1.0000  0.0173  -5.2791   0.0000   0.0000   0.0000   0.2232
  -8.200  -0.7963   0.03336   0.02924  -0.0163  1.0000  0.0172  -5.2920   0.0000   0.0000   0.0000   0.2237
  -8.100  -0.7928   0.03141   0.02705  -0.0158  1.0000  0.0171  -5.3252   0.0000   0.0000   0.0000   0.2243
  -8.000  -0.7883   0.02963   0.02503  -0.0153  1.0000  0.0171  -5.3586   0.0000   0.0000   0.0000   0.2249
  -7.900  -0.7827   0.02804   0.02323  -0.0148  1.0000  0.0172  -5.3742   0.0000   0.0000   0.0000   0.2254
  -7.800  -0.7765   0.02657   0.02156  -0.0143  1.0000  0.0171  -5.3784   0.0000   0.0000   0.0000   0.2260
  -7.700  -0.7696   0.02521   0.02000  -0.0138  1.0000  0.0171  -5.3731   0.0000   0.0000   0.0000   0.2265
  -7.600  -0.7621   0.02398   0.01859  -0.0133  1.0000  0.0171  -5.3560   0.0000   0.0000   0.0000   0.2269
  -7.500  -0.7541   0.02291   0.01733  -0.0129  1.0000  0.0172  -5.3257   0.0000   0.0000   0.0000   0.2274
  -7.400  -0.7457   0.02197   0.01623  -0.0125  1.0000  0.0173  -5.2832   0.0000   0.0000   0.0000   0.2277
  -7.300  -0.7369   0.02115   0.01526  -0.0122  1.0000  0.0174  -5.2301   0.0000   0.0000   0.0000   0.2281
  -7.200  -0.7277   0.02045   0.01441  -0.0118  1.0000  0.0176  -5.1673   0.0000   0.0000   0.0000   0.2284
  -7.100  -0.7183   0.01988   0.01369  -0.0115  1.0000  0.0178  -5.0948   0.0000   0.0000   0.0000   0.2287
  -7.000  -0.7090   0.01921   0.01291  -0.0112  1.0000  0.0180  -5.0225   0.0000   0.0000   0.0000   0.2290
  -6.900  -0.7003   0.01831   0.01199  -0.0110  1.0000  0.0182  -4.9432   0.0000   0.0000   0.0000   0.2292
  -6.800  -0.6909   0.01780   0.01148  -0.0108  1.0000  0.0186  -4.8355   0.0000   0.0000   0.0000   0.2293
  -6.700  -0.6813   0.01746   0.01113  -0.0107  1.0000  0.0190  -4.7199   0.0000   0.0000   0.0000   0.2294
  -6.600  -0.6715   0.01716   0.01081  -0.0105  1.0000  0.0194  -4.6060   0.0000   0.0000   0.0000   0.2295
  -6.500  -0.6619   0.01682   0.01043  -0.0103  1.0000  0.0199  -4.5023   0.0000   0.0000   0.0000   0.2297
  -6.400  -0.6523   0.01646   0.01001  -0.0100  1.0000  0.0204  -4.4073   0.0000   0.0000   0.0000   0.2299
  -6.300  -0.6428   0.01611   0.00958  -0.0097  1.0000  0.0208  -4.3166   0.0000   0.0000   0.0000   0.2303
  -6.200  -0.6334   0.01580   0.00919  -0.0093  1.0000  0.0211  -4.2260   0.0000   0.0000   0.0000   0.2307
  -6.100  -0.6250   0.01526   0.00863  -0.0089  1.0000  0.0214  -4.1443   0.0000   0.0000   0.0000   0.2313
  -6.000  -0.6170   0.01479   0.00818  -0.0084  1.0000  0.0218  -4.0637   0.0000   0.0000   0.0000   0.2319
  -5.900  -0.6089   0.01448   0.00788  -0.0079  1.0000  0.0222  -3.9797   0.0000   0.0000   0.0000   0.2327
  -5.800  -0.6010   0.01421   0.00760  -0.0073  1.0000  0.0227  -3.8980   0.0000   0.0000   0.0000   0.2335
  -5.700  -0.5932   0.01396   0.00733  -0.0067  1.0000  0.0232  -3.8194   0.0000   0.0000   0.0000   0.2344
  -5.600  -0.5854   0.01371   0.00706  -0.0061  1.0000  0.0238  -3.7430   0.0000   0.0000   0.0000   0.2354
  -5.500  -0.5775   0.01350   0.00681  -0.0055  1.0000  0.0244  -3.6659   0.0000   0.0000   0.0000   0.2364
  -5.400  -0.5699   0.01324   0.00651  -0.0049  1.0000  0.0250  -3.5912   0.0000   0.0000   0.0000   0.2374
  -5.300  -0.5627   0.01292   0.00622  -0.0042  1.0000  0.0258  -3.5105   0.0000   0.0000   0.0000   0.2385
  -5.200  -0.5548   0.01272   0.00603  -0.0037  1.0000  0.0266  -3.4250   0.0000   0.0000   0.0000   0.2395
  -5.100  -0.5467   0.01253   0.00582  -0.0031  1.0000  0.0274  -3.3435   0.0000   0.0000   0.0000   0.2404
  -5.000  -0.5384   0.01235   0.00561  -0.0026  1.0000  0.0283  -3.2651   0.0000   0.0000   0.0000   0.2414
  -4.900  -0.5305   0.01206   0.00531  -0.0021  1.0000  0.0291  -3.1906   0.0000   0.0000   0.0000   0.2424
  -4.800  -0.5223   0.01183   0.00509  -0.0016  1.0000  0.0301  -3.1080   0.0000   0.0000   0.0000   0.2434
  -4.700  -0.5138   0.01165   0.00491  -0.0011  1.0000  0.0313  -3.0252   0.0000   0.0000   0.0000   0.2442
  -4.600  -0.5049   0.01151   0.00473  -0.0007  1.0000  0.0326  -2.9443   0.0000   0.0000   0.0000   0.2451
  -4.500  -0.4965   0.01126   0.00449  -0.0003  1.0000  0.0342  -2.8622   0.0000   0.0000   0.0000   0.2460
  -4.400  -0.4875   0.01111   0.00434   0.0001  1.0000  0.0362  -2.7774   0.0000   0.0000   0.0000   0.2468
  -4.300  -0.4784   0.01091   0.00415   0.0004  1.0000  0.0384  -2.6988   0.0000   0.0000   0.0000   0.2475
  -4.200  -0.4645   0.01073   0.00397  -0.0002  0.9990  0.0418  -2.6100   0.0000   0.0000   0.0000   0.2462
  -4.100  -0.4507   0.01051   0.00376  -0.0009  0.9981  0.0465  -2.5222   0.0000   0.0000   0.0000   0.2448
  -4.000  -0.4369   0.01026   0.00357  -0.0015  0.9971  0.0534  -2.4343   0.0000   0.0000   0.0000   0.2433
  -3.900  -0.4233   0.01001   0.00340  -0.0022  0.9961  0.0653  -2.3462   0.0000   0.0000   0.0000   0.2417
  -3.800  -0.4096   0.00976   0.00324  -0.0029  0.9951  0.0838  -2.2564   0.0000   0.0000   0.0000   0.2399
  -3.700  -0.3958   0.00953   0.00311  -0.0036  0.9940  0.1051  -2.1643   0.0000   0.0000   0.0000   0.2379
  -3.600  -0.3820   0.00932   0.00300  -0.0043  0.9929  0.1272  -2.0712   0.0000   0.0000   0.0000   0.2357
  -3.500  -0.3681   0.00912   0.00290  -0.0050  0.9918  0.1512  -1.9782   0.0000   0.0000   0.0000   0.2333
  -3.400  -0.3542   0.00891   0.00281  -0.0058  0.9907  0.1777  -1.8856   0.0000   0.0000   0.0000   0.2306
  -3.300  -0.3404   0.00870   0.00273  -0.0065  0.9895  0.2072  -1.7945   0.0000   0.0000   0.0000   0.2278
  -3.200  -0.3260   0.00848   0.00265  -0.0074  0.9886  0.2411  -1.7103   0.0000   0.0000   0.0000   0.2244
  -3.100  -0.3125   0.00827   0.00256  -0.0081  0.9871  0.2764  -1.6311   0.0000   0.0000   0.0000   0.2212
  -3.000  -0.2983   0.00804   0.00249  -0.0089  0.9860  0.3155  -1.5507   0.0000   0.0000   0.0000   0.2173
  -2.900  -0.2844   0.00782   0.00243  -0.0097  0.9848  0.3561  -1.4721   0.0000   0.0000   0.0000   0.2132
  -2.800  -0.2706   0.00760   0.00237  -0.0104  0.9834  0.3977  -1.3948   0.0000   0.0000   0.0000   0.2088
  -2.700  -0.2562   0.00738   0.00232  -0.0112  0.9824  0.4418  -1.3166   0.0000   0.0000   0.0000   0.2033
  -2.600  -0.2430   0.00717   0.00227  -0.0118  0.9808  0.4852  -1.2432   0.0000   0.0000   0.0000   0.1987
  -2.500  -0.2296   0.00696   0.00222  -0.0124  0.9793  0.5292  -1.1713   0.0000   0.0000   0.0000   0.1933
  -2.400  -0.2167   0.00676   0.00219  -0.0128  0.9777  0.5719  -1.1076   0.0000   0.0000   0.0000   0.1881
  -2.300  -0.2042   0.00658   0.00216  -0.0131  0.9757  0.6121  -1.0459   0.0000   0.0000   0.0000   0.1831
  -2.200  -0.1916   0.00641   0.00214  -0.0134  0.9740  0.6503  -0.9846   0.0000   0.0000   0.0000   0.1773
  -2.100  -0.1801   0.00627   0.00213  -0.0134  0.9716  0.6853  -0.9270   0.0000   0.0000   0.0000   0.1728
  -2.000  -0.1682   0.00613   0.00212  -0.0135  0.9697  0.7189  -0.8689   0.0000   0.0000   0.0000   0.1672
  -1.900  -0.1575   0.00602   0.00212  -0.0132  0.9671  0.7498  -0.8172   0.0000   0.0000   0.0000   0.1632
  -1.800  -0.1464   0.00593   0.00214  -0.0130  0.9649  0.7792  -0.7679   0.0000   0.0000   0.0000   0.1583
  -1.700  -0.1363   0.00586   0.00216  -0.0125  0.9621  0.8059  -0.7214   0.0000   0.0000   0.0000   0.1552
  -1.600  -0.1259   0.00583   0.00221  -0.0121  0.9597  0.8302  -0.6746   0.0000   0.0000   0.0000   0.1510
  -1.500  -0.1161   0.00583   0.00226  -0.0115  0.9568  0.8506  -0.6321   0.0000   0.0000   0.0000   0.1480
  -1.400  -0.1062   0.00585   0.00230  -0.0110  0.9542  0.8674  -0.5918   0.0000   0.0000   0.0000   0.1438
  -1.300  -0.0967   0.00587   0.00234  -0.0103  0.9511  0.8814  -0.5530   0.0000   0.0000   0.0000   0.1401
  -1.200  -0.0874   0.00590   0.00237  -0.0097  0.9481  0.8928  -0.5181   0.0000   0.0000   0.0000   0.1363
  -1.100  -0.0784   0.00593   0.00240  -0.0090  0.9449  0.9032  -0.4860   0.0000   0.0000   0.0000   0.1326
  -1.000  -0.0695   0.00596   0.00243  -0.0082  0.9415  0.9120  -0.4591   0.0000   0.0000   0.0000   0.1289
  -0.900  -0.0607   0.00599   0.00244  -0.0074  0.9384  0.9199  -0.4364   0.0000   0.0000   0.0000   0.1248
  -0.800  -0.0521   0.00602   0.00247  -0.0066  0.9347  0.9272  -0.4160   0.0000   0.0000   0.0000   0.1203
  -0.700  -0.0434   0.00604   0.00248  -0.0057  0.9315  0.9339  -0.3965   0.0000   0.0000   0.0000   0.1142
  -0.600  -0.0346   0.00607   0.00250  -0.0050  0.9276  0.9403  -0.3782   0.0000   0.0000   0.0000   0.1029
  -0.500  -0.0255   0.00608   0.00250  -0.0042  0.9244  0.9461  -0.3602   0.0000   0.0000   0.0000   0.0815
  -0.400  -0.0159   0.00610   0.00251  -0.0036  0.9202  0.9516  -0.3424   0.0000   0.0000   0.0000   0.0184
  -0.300  -0.0058   0.00611   0.00250  -0.0031  0.9168  0.9566  -0.3251   0.0000   0.0000   0.0000  -0.2925
  -0.200   0.0052   0.00611   0.00250  -0.0028  0.9126  0.9614  -0.3077   0.0000   0.0000   0.0000   0.7978
  -0.100   0.0168   0.00611   0.00248  -0.0026  0.9089  0.9658  -0.3173   0.0000   0.0000   0.0000   0.4074
   0.000   0.0299   0.00611   0.00246  -0.0028  0.9047  0.9695  -0.3328   0.0000   0.0000   0.0000   0.3442
   0.100   0.0442   0.00610   0.00244  -0.0033  0.9008  0.9726  -0.3492   0.0000   0.0000   0.0000   0.3236
   0.200   0.0587   0.00609   0.00242  -0.0038  0.8966  0.9757  -0.3663   0.0000   0.0000   0.0000   0.3141
   0.300   0.0737   0.00608   0.00240  -0.0045  0.8923  0.9786  -0.3840   0.0000   0.0000   0.0000   0.3097
   0.400   0.0902   0.00607   0.00237  -0.0055  0.8880  0.9806  -0.4031   0.0000   0.0000   0.0000   0.3096
   0.500   0.1059   0.00605   0.00234  -0.0064  0.8833  0.9831  -0.4224   0.0000   0.0000   0.0000   0.3088
   0.600   0.1211   0.00603   0.00231  -0.0071  0.8789  0.9856  -0.4414   0.0000   0.0000   0.0000   0.3072
   0.700   0.1373   0.00601   0.00228  -0.0081  0.8733  0.9879  -0.4617   0.0000   0.0000   0.0000   0.3075
   0.800   0.1530   0.00599   0.00225  -0.0090  0.8681  0.9901  -0.4823   0.0000   0.0000   0.0000   0.3073
   0.900   0.1687   0.00596   0.00221  -0.0099  0.8623  0.9924  -0.5029   0.0000   0.0000   0.0000   0.3070
   1.000   0.1846   0.00594   0.00218  -0.0109  0.8556  0.9947  -0.5247   0.0000   0.0000   0.0000   0.3072
   1.100   0.2005   0.00591   0.00214  -0.0118  0.8486  0.9969  -0.5466   0.0000   0.0000   0.0000   0.3073
   1.200   0.2164   0.00588   0.00210  -0.0128  0.8407  0.9989  -0.5697   0.0000   0.0000   0.0000   0.3075
   1.300   0.2294   0.00585   0.00206  -0.0132  0.8320  1.0000  -0.5903   0.0000   0.0000   0.0000   0.3056
   1.400   0.2394   0.00583   0.00203  -0.0129  0.8222  1.0000  -0.6089   0.0000   0.0000   0.0000   0.3020
   1.500   0.2494   0.00582   0.00199  -0.0126  0.8107  1.0000  -0.6279   0.0000   0.0000   0.0000   0.2986
   1.600   0.2593   0.00581   0.00195  -0.0123  0.7975  1.0000  -0.6475   0.0000   0.0000   0.0000   0.2953
   1.700   0.2692   0.00580   0.00192  -0.0119  0.7812  1.0000  -0.6677   0.0000   0.0000   0.0000   0.2923
   1.800   0.2790   0.00582   0.00187  -0.0116  0.7615  1.0000  -0.6888   0.0000   0.0000   0.0000   0.2894
   1.900   0.2888   0.00586   0.00183  -0.0112  0.7387  1.0000  -0.7107   0.0000   0.0000   0.0000   0.2867
   2.000   0.2988   0.00593   0.00180  -0.0109  0.7140  1.0000  -0.7340   0.0000   0.0000   0.0000   0.2843
   2.100   0.3089   0.00603   0.00178  -0.0106  0.6885  1.0000  -0.7622   0.0000   0.0000   0.0000   0.2822
   2.200   0.3192   0.00613   0.00179  -0.0104  0.6631  1.0000  -0.8094   0.0000   0.0000   0.0000   0.2805
   2.300   0.3295   0.00625   0.00180  -0.0103  0.6375  1.0000  -0.8589   0.0000   0.0000   0.0000   0.2789
   2.400   0.3398   0.00637   0.00182  -0.0101  0.6120  1.0000  -0.9113   0.0000   0.0000   0.0000   0.2774
   2.500   0.3500   0.00650   0.00185  -0.0100  0.5866  1.0000  -0.9675   0.0000   0.0000   0.0000   0.2761
   2.600   0.3602   0.00662   0.00188  -0.0098  0.5610  1.0000  -1.0244   0.0000   0.0000   0.0000   0.2748
   2.700   0.3704   0.00675   0.00192  -0.0097  0.5352  1.0000  -1.0820   0.0000   0.0000   0.0000   0.2737
   2.800   0.3805   0.00689   0.00196  -0.0096  0.5096  1.0000  -1.1402   0.0000   0.0000   0.0000   0.2726
   2.900   0.3906   0.00703   0.00200  -0.0094  0.4839  1.0000  -1.2017   0.0000   0.0000   0.0000   0.2715
   3.000   0.4006   0.00718   0.00205  -0.0093  0.4583  1.0000  -1.2680   0.0000   0.0000   0.0000   0.2705
   3.100   0.4105   0.00733   0.00210  -0.0091  0.4327  1.0000  -1.3350   0.0000   0.0000   0.0000   0.2695
   3.200   0.4204   0.00748   0.00216  -0.0090  0.4072  1.0000  -1.4027   0.0000   0.0000   0.0000   0.2686
   3.300   0.4303   0.00764   0.00222  -0.0088  0.3817  1.0000  -1.4711   0.0000   0.0000   0.0000   0.2676
   3.400   0.4400   0.00781   0.00229  -0.0086  0.3557  1.0000  -1.5401   0.0000   0.0000   0.0000   0.2667
   3.500   0.4497   0.00798   0.00236  -0.0085  0.3290  1.0000  -1.6096   0.0000   0.0000   0.0000   0.2659
   3.600   0.4593   0.00817   0.00243  -0.0083  0.3030  1.0000  -1.6797   0.0000   0.0000   0.0000   0.2650
   3.700   0.4689   0.00835   0.00250  -0.0081  0.2786  1.0000  -1.7505   0.0000   0.0000   0.0000   0.2642
   3.800   0.4785   0.00852   0.00258  -0.0079  0.2569  1.0000  -1.8221   0.0000   0.0000   0.0000   0.2634
   3.900   0.4880   0.00868   0.00266  -0.0077  0.2382  1.0000  -1.8966   0.0000   0.0000   0.0000   0.2625
   4.000   0.4976   0.00883   0.00275  -0.0075  0.2217  1.0000  -1.9785   0.0000   0.0000   0.0000   0.2617
   4.100   0.5071   0.00897   0.00284  -0.0072  0.2072  1.0000  -2.0612   0.0000   0.0000   0.0000   0.2609
   4.200   0.5167   0.00911   0.00293  -0.0070  0.1939  1.0000  -2.1448   0.0000   0.0000   0.0000   0.2601
   4.400   0.5357   0.00938   0.00311  -0.0065  0.1707  1.0000  -2.3146   0.0000   0.0000   0.0000   0.2586
   4.500   0.5452   0.00951   0.00320  -0.0062  0.1599  1.0000  -2.4008   0.0000   0.0000   0.0000   0.2578
   4.600   0.5547   0.00965   0.00330  -0.0059  0.1494  1.0000  -2.4876   0.0000   0.0000   0.0000   0.2571
   4.700   0.5641   0.00979   0.00339  -0.0057  0.1391  1.0000  -2.5748   0.0000   0.0000   0.0000   0.2563
   4.800   0.5735   0.00993   0.00350  -0.0054  0.1283  1.0000  -2.6627   0.0000   0.0000   0.0000   0.2556
   4.900   0.5828   0.01008   0.00361  -0.0051  0.1167  1.0000  -2.7506   0.0000   0.0000   0.0000   0.2549
   5.000   0.5920   0.01024   0.00372  -0.0048  0.1039  1.0000  -2.8380   0.0000   0.0000   0.0000   0.2542
   5.100   0.6011   0.01044   0.00385  -0.0045  0.0882  1.0000  -2.9236   0.0000   0.0000   0.0000   0.2535
   5.200   0.6097   0.01073   0.00402  -0.0041  0.0671  1.0000  -3.0039   0.0000   0.0000   0.0000   0.2527
   5.300   0.6179   0.01110   0.00427  -0.0037  0.0488  1.0000  -3.0770   0.0000   0.0000   0.0000   0.2518
   5.400   0.6264   0.01142   0.00452  -0.0033  0.0399  1.0000  -3.1496   0.0000   0.0000   0.0000   0.2510
   5.500   0.6352   0.01168   0.00476  -0.0029  0.0351  1.0000  -3.2250   0.0000   0.0000   0.0000   0.2502
   5.600   0.6441   0.01194   0.00501  -0.0025  0.0321  1.0000  -3.3011   0.0000   0.0000   0.0000   0.2494
   5.700   0.6530   0.01220   0.00526  -0.0021  0.0299  1.0000  -3.3925   0.0000   0.0000   0.0000   0.2487
   5.800   0.6620   0.01243   0.00552  -0.0017  0.0281  1.0000  -3.4814   0.0000   0.0000   0.0000   0.2480
   5.900   0.6711   0.01266   0.00575  -0.0013  0.0267  1.0000  -3.5751   0.0000   0.0000   0.0000   0.2474
   6.000   0.6796   0.01302   0.00609  -0.0009  0.0256  1.0000  -3.6632   0.0000   0.0000   0.0000   0.2467
   6.100   0.6891   0.01322   0.00633  -0.0006  0.0245  1.0000  -3.7560   0.0000   0.0000   0.0000   0.2461
   6.200   0.6983   0.01345   0.00657  -0.0003  0.0235  1.0000  -3.8533   0.0000   0.0000   0.0000   0.2455
   6.300   0.7073   0.01374   0.00685   0.0000  0.0226  1.0000  -3.9527   0.0000   0.0000   0.0000   0.2450
   6.400   0.7160   0.01409   0.00722   0.0004  0.0218  1.0000  -4.0429   0.0000   0.0000   0.0000   0.2444
   6.500   0.7255   0.01432   0.00749   0.0007  0.0211  1.0000  -4.1391   0.0000   0.0000   0.0000   0.2440
   6.600   0.7348   0.01459   0.00778   0.0010  0.0204  1.0000  -4.2343   0.0000   0.0000   0.0000   0.2435
   6.700   0.7440   0.01489   0.00809   0.0013  0.0199  1.0000  -4.3319   0.0000   0.0000   0.0000   0.2430
   6.800   0.7530   0.01523   0.00842   0.0016  0.0194  1.0000  -4.4300   0.0000   0.0000   0.0000   0.2425
   6.900   0.7611   0.01574   0.00892   0.0019  0.0190  1.0000  -4.5168   0.0000   0.0000   0.0000   0.2420
   7.000   0.7700   0.01616   0.00937   0.0023  0.0186  1.0000  -4.6005   0.0000   0.0000   0.0000   0.2415
   7.100   0.7794   0.01648   0.00973   0.0026  0.0183  1.0000  -4.6894   0.0000   0.0000   0.0000   0.2410
   7.200   0.7887   0.01683   0.01013   0.0029  0.0180  1.0000  -4.7765   0.0000   0.0000   0.0000   0.2406
   7.300   0.7979   0.01722   0.01057   0.0032  0.0177  1.0000  -4.8633   0.0000   0.0000   0.0000   0.2402
   7.400   0.8071   0.01762   0.01100   0.0035  0.0173  1.0000  -4.9508   0.0000   0.0000   0.0000   0.2397
   7.500   0.8163   0.01802   0.01143   0.0038  0.0170  1.0000  -5.0426   0.0000   0.0000   0.0000   0.2394
   7.600   0.8255   0.01840   0.01184   0.0040  0.0167  1.0000  -5.1403   0.0000   0.0000   0.0000   0.2390
   7.700   0.8346   0.01881   0.01225   0.0042  0.0164  1.0000  -5.2442   0.0000   0.0000   0.0000   0.2387
   7.800   0.8432   0.01937   0.01280   0.0045  0.0160  1.0000  -5.3430   0.0000   0.0000   0.0000   0.2384
   7.900   0.8513   0.02021   0.01366   0.0048  0.0157  1.0000  -5.4127   0.0000   0.0000   0.0000   0.2379
   8.000   0.8608   0.02051   0.01408   0.0051  0.0155  1.0000  -5.5098   0.0000   0.0000   0.0000   0.2376
   8.100   0.8699   0.02098   0.01465   0.0054  0.0152  1.0000  -5.6090   0.0000   0.0000   0.0000   0.2372
   8.200   0.8788   0.02156   0.01533   0.0057  0.0150  1.0000  -5.7015   0.0000   0.0000   0.0000   0.2368
   8.300   0.8875   0.02219   0.01605   0.0061  0.0149  1.0000  -5.7913   0.0000   0.0000   0.0000   0.2364
   8.400   0.8960   0.02286   0.01682   0.0064  0.0147  1.0000  -5.8780   0.0000   0.0000   0.0000   0.2359
   8.500   0.9043   0.02357   0.01763   0.0068  0.0146  1.0000  -5.9612   0.0000   0.0000   0.0000   0.2355
   8.600   0.9124   0.02434   0.01851   0.0071  0.0145  1.0000  -6.0404   0.0000   0.0000   0.0000   0.2351
   8.700   0.9203   0.02516   0.01944   0.0075  0.0144  1.0000  -6.1142   0.0000   0.0000   0.0000   0.2346
   8.800   0.9277   0.02605   0.02046   0.0079  0.0143  1.0000  -6.1809   0.0000   0.0000   0.0000   0.2342
   8.900   0.9347   0.02704   0.02159   0.0084  0.0142  1.0000  -6.2373   0.0000   0.0000   0.0000   0.2337
   9.000   0.9411   0.02816   0.02287   0.0089  0.0142  1.0000  -6.2788   0.0000   0.0000   0.0000   0.2331
   9.100   0.9466   0.02948   0.02437   0.0095  0.0143  1.0000  -6.2983   0.0000   0.0000   0.0000   0.2325
   9.200   0.9509   0.03104   0.02615   0.0101  0.0144  1.0000  -6.2913   0.0000   0.0000   0.0000   0.2318
   9.300   0.9540   0.03279   0.02812   0.0108  0.0146  1.0000  -6.2667   0.0000   0.0000   0.0000   0.2310
   9.400   0.9564   0.03458   0.03010   0.0114  0.0148  1.0000  -6.2428   0.0000   0.0000   0.0000   0.2303
   9.500   0.9586   0.03631   0.03200   0.0120  0.0150  1.0000  -6.2309   0.0000   0.0000   0.0000   0.2297
   9.600   0.9607   0.03796   0.03379   0.0125  0.0152  1.0000  -6.2330   0.0000   0.0000   0.0000   0.2291
   9.700   0.9626   0.03959   0.03552   0.0130  0.0154  1.0000  -6.2446   0.0000   0.0000   0.0000   0.2285
   9.800   0.9644   0.04122   0.03723   0.0134  0.0155  1.0000  -6.2642   0.0000   0.0000   0.0000   0.2281
  20.600   0.9314   0.27366   0.27123  -0.1034  0.0095  1.0000  -1.9233   0.0000   0.0000   0.0000   0.3432
  20.700   0.9346   0.27511   0.27267  -0.1044  0.0094  1.0000  -1.9187   0.0000   0.0000   0.0000   0.3436
  20.800   0.9379   0.27655   0.27411  -0.1053  0.0092  1.0000  -1.9158   0.0000   0.0000   0.0000   0.3441
  20.900   0.9412   0.27800   0.27556  -0.1062  0.0091  1.0000  -1.9146   0.0000   0.0000   0.0000   0.3445
  21.000   0.9444   0.27939   0.27696  -0.1071  0.0090  1.0000  -1.9203   0.0000   0.0000   0.0000   0.3449
  21.100   0.9477   0.28077   0.27834  -0.1080  0.0089  1.0000  -1.9342   0.0000   0.0000   0.0000   0.3453
  21.200   0.9509   0.28212   0.27969  -0.1088  0.0088  1.0000  -1.9499   0.0000   0.0000   0.0000   0.3456
  21.300   0.9542   0.28343   0.28101  -0.1097  0.0087  1.0000  -1.9679   0.0000   0.0000   0.0000   0.3460
  21.400   0.9574   0.28472   0.28230  -0.1106  0.0086  1.0000  -1.9885   0.0000   0.0000   0.0000   0.3463
  21.500   0.9606   0.28605   0.28363  -0.1115  0.0085  1.0000  -2.0122   0.0000   0.0000   0.0000   0.3467
  21.600   0.9637   0.28730   0.28488  -0.1123  0.0084  1.0000  -2.0396   0.0000   0.0000   0.0000   0.3470
  21.700   0.9669   0.28851   0.28610  -0.1131  0.0084  1.0000  -2.0715   0.0000   0.0000   0.0000   0.3472
  21.800   0.9699   0.28971   0.28730  -0.1138  0.0083  1.0000  -2.1088   0.0000   0.0000   0.0000   0.3474
  21.900   0.9730   0.29092   0.28852  -0.1145  0.0083  1.0000  -2.1533   0.0000   0.0000   0.0000   0.3475
  22.000   0.9760   0.29215   0.28975  -0.1150  0.0082  1.0000  -2.2077   0.0000   0.0000   0.0000   0.3475
  22.100   0.9792   0.29352   0.29113  -0.1152  0.0082  1.0000  -2.2777   0.0000   0.0000   0.0000   0.3471
  22.300   0.9855   0.29660   0.29420  -0.1173  0.0081  1.0000  -2.2580   0.0000   0.0000   0.0000   0.3482
  22.400   0.9886   0.29824   0.29584  -0.1186  0.0081  1.0000  -2.2235   0.0000   0.0000   0.0000   0.3490
  22.500   0.9919   0.29980   0.29740  -0.1199  0.0081  1.0000  -2.1879   0.0000   0.0000   0.0000   0.3498
  22.600   0.9953   0.30141   0.29900  -0.1212  0.0081  1.0000  -2.1513   0.0000   0.0000   0.0000   0.3505
  22.700   0.9988   0.30304   0.30064  -0.1225  0.0080  1.0000  -2.1148   0.0000   0.0000   0.0000   0.3512
  22.800   1.0024   0.30468   0.30227  -0.1237  0.0080  1.0000  -2.0818   0.0000   0.0000   0.0000   0.3518
  22.900   1.0060   0.30626   0.30386  -0.1247  0.0079  1.0000  -2.0567   0.0000   0.0000   0.0000   0.3523
  23.000   1.0095   0.30778   0.30538  -0.1258  0.0077  1.0000  -2.0408   0.0000   0.0000   0.0000   0.3527
  23.100   1.0129   0.30926   0.30687  -0.1268  0.0076  1.0000  -2.0341   0.0000   0.0000   0.0000   0.3531
  23.200   1.0162   0.31071   0.30831  -0.1277  0.0074  1.0000  -2.0331   0.0000   0.0000   0.0000   0.3535
  23.300   1.0195   0.31207   0.30968  -0.1287  0.0072  1.0000  -2.0357   0.0000   0.0000   0.0000   0.3538
  23.400   1.0227   0.31345   0.31106  -0.1297  0.0071  1.0000  -2.0410   0.0000   0.0000   0.0000   0.3542
  23.500   1.0259   0.31479   0.31240  -0.1306  0.0069  1.0000  -2.0487   0.0000   0.0000   0.0000   0.3545
  23.600   1.0291   0.31610   0.31371  -0.1316  0.0068  1.0000  -2.0582   0.0000   0.0000   0.0000   0.3549
  23.700   1.0323   0.31740   0.31501  -0.1325  0.0067  1.0000  -2.0690   0.0000   0.0000   0.0000   0.3552
  23.800   1.0355   0.31868   0.31630  -0.1335  0.0066  1.0000  -2.0805   0.0000   0.0000   0.0000   0.3555
  23.900   1.0386   0.31986   0.31748  -0.1344  0.0065  1.0000  -2.0939   0.0000   0.0000   0.0000   0.3558
  24.000   1.0417   0.32116   0.31879  -0.1353  0.0065  1.0000  -2.1099   0.0000   0.0000   0.0000   0.3562
  24.100   1.0448   0.32236   0.31999  -0.1363  0.0064  1.0000  -2.1291   0.0000   0.0000   0.0000   0.3564
  24.200   1.0478   0.32358   0.32121  -0.1372  0.0063  1.0000  -2.1520   0.0000   0.0000   0.0000   0.3567
  24.300   1.0507   0.32474   0.32238  -0.1380  0.0063  1.0000  -2.1794   0.0000   0.0000   0.0000   0.3569
  24.400   1.0536   0.32589   0.32353  -0.1388  0.0062  1.0000  -2.2125   0.0000   0.0000   0.0000   0.3571
  24.500   1.0563   0.32706   0.32470  -0.1396  0.0062  1.0000  -2.2527   0.0000   0.0000   0.0000   0.3572
  24.600   1.0591   0.32831   0.32596  -0.1402  0.0062  1.0000  -2.3021   0.0000   0.0000   0.0000   0.3572


