xflr5 v6.61

 Calculated polar for: MH 50

 1 1 Reynolds number fixed          Mach number fixed         

 xtrf =   1.000 (top)        1.000 (bottom)
 Mach =   0.000     Re =     0.100 e 6     Ncrit =   9.000

  alpha     CL        CD       CDp       Cm    Top Xtr Bot Xtr   Cpmin    Chinge    XCp    
 ------- -------- --------- --------- -------- ------- ------- -------- --------- ---------
  -9.800  -0.6538   0.11277   0.10797   0.0170  1.0000  0.1111  -1.9483   0.0000   0.0000   0.0000   0.2708
  -9.700  -0.6499   0.11136   0.10656   0.0172  1.0000  0.1127  -1.9291   0.0000   0.0000   0.0000   0.2713
  -9.600  -0.6504   0.10974   0.10496   0.0162  1.0000  0.1147  -1.9412   0.0000   0.0000   0.0000   0.2699
  -9.500  -0.6593   0.10771   0.10297   0.0130  1.0000  0.1165  -2.0133   0.0000   0.0000   0.0000   0.2647
  -9.400  -0.6735   0.10529   0.10062   0.0082  1.0000  0.1170  -2.1207   0.0000   0.0000   0.0000   0.2573
  -9.300  -0.6547   0.10423   0.09951   0.0127  1.0000  0.1186  -1.9997   0.0000   0.0000   0.0000   0.2646
  -9.200  -0.6501   0.10289   0.09816   0.0132  1.0000  0.1203  -1.9747   0.0000   0.0000   0.0000   0.2655
  -9.100  -0.6508   0.10123   0.09652   0.0121  1.0000  0.1224  -1.9868   0.0000   0.0000   0.0000   0.2639
  -9.000  -0.6627   0.09888   0.09423   0.0079  1.0000  0.1244  -2.0737   0.0000   0.0000   0.0000   0.2574
  -7.000  -0.6798   0.04505   0.03855  -0.0193  1.0000  0.0754  -3.1295   0.0000   0.0000   0.0000   0.2174
  -6.800  -0.6702   0.04022   0.03304  -0.0182  1.0000  0.0685  -3.2519   0.0000   0.0000   0.0000   0.2185
  -6.700  -0.6627   0.03873   0.03147  -0.0179  1.0000  0.0681  -3.2269   0.0000   0.0000   0.0000   0.2187
  -6.600  -0.6553   0.03724   0.02986  -0.0176  1.0000  0.0675  -3.2072   0.0000   0.0000   0.0000   0.2190
  -6.500  -0.6480   0.03569   0.02815  -0.0171  1.0000  0.0665  -3.1976   0.0000   0.0000   0.0000   0.2194
  -6.400  -0.6408   0.03405   0.02626  -0.0166  1.0000  0.0654  -3.2027   0.0000   0.0000   0.0000   0.2200
  -6.300  -0.6335   0.03239   0.02426  -0.0159  1.0000  0.0644  -3.2187   0.0000   0.0000   0.0000   0.2208
  -6.200  -0.6255   0.03097   0.02254  -0.0152  1.0000  0.0639  -3.2182   0.0000   0.0000   0.0000   0.2215
  -6.100  -0.6169   0.02983   0.02120  -0.0147  1.0000  0.0640  -3.1900   0.0000   0.0000   0.0000   0.2219
  -6.000  -0.6079   0.02896   0.02026  -0.0144  1.0000  0.0649  -3.1352   0.0000   0.0000   0.0000   0.2222
  -5.900  -0.5990   0.02811   0.01927  -0.0140  1.0000  0.0663  -3.1007   0.0000   0.0000   0.0000   0.2226
  -5.800  -0.5900   0.02722   0.01814  -0.0135  1.0000  0.0675  -3.0779   0.0000   0.0000   0.0000   0.2232
  -5.700  -0.5808   0.02633   0.01698  -0.0129  1.0000  0.0685  -3.0613   0.0000   0.0000   0.0000   0.2238
  -5.600  -0.5711   0.02542   0.01604  -0.0126  1.0000  0.0695  -3.0164   0.0000   0.0000   0.0000   0.2240
  -5.500  -0.5613   0.02464   0.01526  -0.0123  1.0000  0.0707  -2.9657   0.0000   0.0000   0.0000   0.2242
  -5.400  -0.5515   0.02390   0.01445  -0.0119  1.0000  0.0720  -2.9217   0.0000   0.0000   0.0000   0.2246
  -5.300  -0.5418   0.02322   0.01362  -0.0114  1.0000  0.0741  -2.8832   0.0000   0.0000   0.0000   0.2251
  -5.200  -0.5323   0.02256   0.01296  -0.0111  1.0000  0.0765  -2.8268   0.0000   0.0000   0.0000   0.2254
  -5.100  -0.5228   0.02201   0.01239  -0.0107  1.0000  0.0795  -2.7697   0.0000   0.0000   0.0000   0.2258
  -5.000  -0.5131   0.02137   0.01168  -0.0103  1.0000  0.0821  -2.7234   0.0000   0.0000   0.0000   0.2263
  -4.900  -0.5037   0.02077   0.01112  -0.0099  1.0000  0.0850  -2.6653   0.0000   0.0000   0.0000   0.2267
  -4.800  -0.4942   0.02021   0.01050  -0.0094  1.0000  0.0887  -2.6162   0.0000   0.0000   0.0000   0.2274
  -4.700  -0.4853   0.01971   0.01006  -0.0090  1.0000  0.0934  -2.5551   0.0000   0.0000   0.0000   0.2279
  -4.600  -0.4765   0.01919   0.00959  -0.0085  1.0000  0.0985  -2.4968   0.0000   0.0000   0.0000   0.2286
  -4.500  -0.4678   0.01865   0.00910  -0.0080  1.0000  0.1043  -2.4544   0.0000   0.0000   0.0000   0.2294
  -4.400  -0.4594   0.01815   0.00866  -0.0075  1.0000  0.1118  -2.4096   0.0000   0.0000   0.0000   0.2303
  -4.300  -0.4513   0.01765   0.00824  -0.0069  1.0000  0.1214  -2.3644   0.0000   0.0000   0.0000   0.2314
  -4.200  -0.4433   0.01713   0.00780  -0.0063  1.0000  0.1340  -2.3223   0.0000   0.0000   0.0000   0.2325
  -4.100  -0.4358   0.01658   0.00739  -0.0057  1.0000  0.1510  -2.2788   0.0000   0.0000   0.0000   0.2338
  -4.000  -0.4286   0.01599   0.00697  -0.0050  1.0000  0.1756  -2.2358   0.0000   0.0000   0.0000   0.2352
  -3.900  -0.4219   0.01533   0.00659  -0.0043  1.0000  0.2099  -2.1908   0.0000   0.0000   0.0000   0.2366
  -3.800  -0.4154   0.01465   0.00626  -0.0036  1.0000  0.2592  -2.1429   0.0000   0.0000   0.0000   0.2382
  -3.700  -0.4091   0.01401   0.00601  -0.0029  1.0000  0.3235  -2.0904   0.0000   0.0000   0.0000   0.2399
  -3.600  -0.4031   0.01343   0.00584  -0.0021  1.0000  0.3964  -2.0346   0.0000   0.0000   0.0000   0.2419
  -3.500  -0.3971   0.01294   0.00572  -0.0011  1.0000  0.4699  -1.9762   0.0000   0.0000   0.0000   0.2444
  -3.400  -0.3910   0.01253   0.00565   0.0001  1.0000  0.5403  -1.9160   0.0000   0.0000   0.0000   0.2474
  -3.300  -0.3847   0.01219   0.00561   0.0014  1.0000  0.6068  -1.8544   0.0000   0.0000   0.0000   0.2509
  -3.200  -0.3780   0.01194   0.00561   0.0029  1.0000  0.6699  -1.7953   0.0000   0.0000   0.0000   0.2548
  -3.100  -0.3706   0.01178   0.00568   0.0044  1.0000  0.7288  -1.7353   0.0000   0.0000   0.0000   0.2592
  -3.000  -0.3618   0.01176   0.00580   0.0059  1.0000  0.7819  -1.6708   0.0000   0.0000   0.0000   0.2636
  -2.900  -0.3508   0.01185   0.00594   0.0070  1.0000  0.8272  -1.5997   0.0000   0.0000   0.0000   0.2674
  -2.800  -0.3388   0.01199   0.00607   0.0078  1.0000  0.8645  -1.5265   0.0000   0.0000   0.0000   0.2705
  -2.700  -0.3254   0.01214   0.00617   0.0082  1.0000  0.8954  -1.4501   0.0000   0.0000   0.0000   0.2726
  -2.600  -0.3074   0.01230   0.00623   0.0076  1.0000  0.9211  -1.3609   0.0000   0.0000   0.0000   0.2723
  -2.500  -0.2818   0.01246   0.00626   0.0055  1.0000  0.9427  -1.2499   0.0000   0.0000   0.0000   0.2670
  -2.400  -0.2445   0.01259   0.00620   0.0010  1.0000  0.9596  -1.1196   0.0000   0.0000   0.0000   0.2515
  -2.300  -0.1995   0.01263   0.00604  -0.0052  1.0000  0.9722  -0.9739   0.0000   0.0000   0.0000   0.2210
  -2.200  -0.1596   0.01255   0.00581  -0.0107  1.0000  0.9838  -0.8498   0.0000   0.0000   0.0000   0.1798
  -2.100  -0.1219   0.01240   0.00551  -0.0159  1.0000  0.9944  -0.7423   0.0000   0.0000   0.0000   0.1153
  -2.000  -0.0980   0.01223   0.00525  -0.0188  1.0000  1.0000  -0.6699   0.0000   0.0000   0.0000   0.0539
  -1.900  -0.0914   0.01213   0.00511  -0.0184  1.0000  1.0000  -0.6381   0.0000   0.0000   0.0000   0.0439
  -1.800  -0.0850   0.01204   0.00498  -0.0180  1.0000  1.0000  -0.6069   0.0000   0.0000   0.0000   0.0338
  -1.700  -0.0789   0.01196   0.00488  -0.0174  1.0000  1.0000  -0.5765   0.0000   0.0000   0.0000   0.0242
  -1.600  -0.0733   0.01190   0.00478  -0.0168  1.0000  1.0000  -0.5495   0.0000   0.0000   0.0000   0.0159
  -1.500  -0.0681   0.01184   0.00470  -0.0160  1.0000  1.0000  -0.5237   0.0000   0.0000   0.0000   0.0099
  -1.400  -0.0636   0.01180   0.00463  -0.0151  1.0000  1.0000  -0.5006   0.0000   0.0000   0.0000   0.0073
  -1.300  -0.0597   0.01177   0.00458  -0.0141  1.0000  1.0000  -0.4798   0.0000   0.0000   0.0000   0.0092
  -1.200  -0.0563   0.01174   0.00453  -0.0129  1.0000  1.0000  -0.4616   0.0000   0.0000   0.0000   0.0154
  -1.100  -0.0532   0.01173   0.00448  -0.0117  1.0000  1.0000  -0.4460   0.0000   0.0000   0.0000   0.0250
  -1.000  -0.0500   0.01172   0.00445  -0.0105  1.0000  1.0000  -0.4315   0.0000   0.0000   0.0000   0.0359
  -0.900  -0.0469   0.01171   0.00442  -0.0093  1.0000  1.0000  -0.4177   0.0000   0.0000   0.0000   0.0484
  -0.800  -0.0437   0.01171   0.00439  -0.0080  1.0000  1.0000  -0.4048   0.0000   0.0000   0.0000   0.0624
  -0.700  -0.0404   0.01171   0.00437  -0.0068  1.0000  1.0000  -0.3921   0.0000   0.0000   0.0000   0.0780
  -0.600  -0.0369   0.01172   0.00436  -0.0056  1.0000  1.0000  -0.3797   0.0000   0.0000   0.0000   0.0952
  -0.500  -0.0333   0.01172   0.00435  -0.0044  1.0000  1.0000  -0.3677   0.0000   0.0000   0.0000   0.1144
  -0.400  -0.0294   0.01174   0.00434  -0.0033  1.0000  1.0000  -0.3557   0.0000   0.0000   0.0000   0.1363
  -0.300  -0.0254   0.01175   0.00434  -0.0022  1.0000  1.0000  -0.3440   0.0000   0.0000   0.0000   0.1624
  -0.200  -0.0212   0.01177   0.00434  -0.0011  1.0000  1.0000  -0.3324   0.0000   0.0000   0.0000   0.1968
  -0.100  -0.0167   0.01180   0.00435  -0.0000  1.0000  1.0000  -0.3210   0.0000   0.0000   0.0000   0.2456
   0.000  -0.0120   0.01183   0.00437   0.0009  1.0000  1.0000  -0.3097   0.0000   0.0000   0.0000   0.3265
   0.100  -0.0069   0.01186   0.00439   0.0018  1.0000  1.0000  -0.3081   0.0000   0.0000   0.0000   0.5157
   0.200  -0.0015   0.01190   0.00441   0.0026  1.0000  1.0000  -0.3172   0.0000   0.0000   0.0000   2.0553
   0.300   0.0043   0.01194   0.00444   0.0034  1.0000  1.0000  -0.3269   0.0000   0.0000   0.0000  -0.5563
   0.400   0.0104   0.01199   0.00448   0.0041  1.0000  1.0000  -0.3368   0.0000   0.0000   0.0000  -0.1514
   0.500   0.0168   0.01205   0.00453   0.0047  1.0000  1.0000  -0.3470   0.0000   0.0000   0.0000  -0.0372
   0.600   0.0234   0.01211   0.00459   0.0053  1.0000  1.0000  -0.3576   0.0000   0.0000   0.0000   0.0191
   0.700   0.0303   0.01218   0.00465   0.0058  1.0000  1.0000  -0.3686   0.0000   0.0000   0.0000   0.0536
   0.800   0.0373   0.01225   0.00472   0.0062  1.0000  1.0000  -0.3797   0.0000   0.0000   0.0000   0.0776
   0.900   0.0445   0.01233   0.00480   0.0067  1.0000  1.0000  -0.3910   0.0000   0.0000   0.0000   0.0954
   1.000   0.0517   0.01242   0.00489   0.0070  1.0000  1.0000  -0.4029   0.0000   0.0000   0.0000   0.1095
   1.100   0.0591   0.01252   0.00500   0.0074  1.0000  1.0000  -0.4148   0.0000   0.0000   0.0000   0.1209
   1.200   0.0666   0.01262   0.00511   0.0077  1.0000  1.0000  -0.4268   0.0000   0.0000   0.0000   0.1305
   1.300   0.0741   0.01274   0.00523   0.0079  1.0000  1.0000  -0.4392   0.0000   0.0000   0.0000   0.1387
   1.400   0.0996   0.01293   0.00546   0.0048  0.9944  1.0000  -0.4670   0.0000   0.0000   0.0000   0.1984
   1.500   0.1284   0.01310   0.00568   0.0011  0.9875  1.0000  -0.4986   0.0000   0.0000   0.0000   0.2385
   1.600   0.1574   0.01324   0.00588  -0.0026  0.9802  1.0000  -0.5316   0.0000   0.0000   0.0000   0.2637
   1.700   0.1868   0.01334   0.00605  -0.0063  0.9725  1.0000  -0.5667   0.0000   0.0000   0.0000   0.2809
   1.800   0.2178   0.01340   0.00619  -0.0101  0.9652  1.0000  -0.6050   0.0000   0.0000   0.0000   0.2941
   1.900   0.2478   0.01342   0.00629  -0.0138  0.9570  1.0000  -0.6446   0.0000   0.0000   0.0000   0.3032
   2.000   0.2806   0.01338   0.00636  -0.0178  0.9497  1.0000  -0.6901   0.0000   0.0000   0.0000   0.3111
   2.100   0.3063   0.01333   0.00640  -0.0204  0.9401  1.0000  -0.7318   0.0000   0.0000   0.0000   0.3142
   2.200   0.3325   0.01325   0.00640  -0.0229  0.9311  1.0000  -0.7972   0.0000   0.0000   0.0000   0.3166
   2.300   0.3512   0.01318   0.00641  -0.0239  0.9197  1.0000  -0.8651   0.0000   0.0000   0.0000   0.3158
   2.400   0.3683   0.01310   0.00641  -0.0245  0.9084  1.0000  -0.9323   0.0000   0.0000   0.0000   0.3143
   2.500   0.3820   0.01302   0.00639  -0.0244  0.8961  1.0000  -0.9970   0.0000   0.0000   0.0000   0.3116
   2.600   0.3926   0.01295   0.00636  -0.0237  0.8828  1.0000  -1.0560   0.0000   0.0000   0.0000   0.3080
   2.700   0.4029   0.01285   0.00631  -0.0229  0.8698  1.0000  -1.1150   0.0000   0.0000   0.0000   0.3043
   2.800   0.4108   0.01278   0.00627  -0.0216  0.8547  1.0000  -1.1678   0.0000   0.0000   0.0000   0.3002
   2.900   0.4185   0.01269   0.00622  -0.0203  0.8387  1.0000  -1.2204   0.0000   0.0000   0.0000   0.2961
   3.000   0.4260   0.01260   0.00615  -0.0190  0.8216  1.0000  -1.2742   0.0000   0.0000   0.0000   0.2920
   3.100   0.4335   0.01250   0.00607  -0.0177  0.8025  1.0000  -1.3333   0.0000   0.0000   0.0000   0.2881
   3.200   0.4410   0.01240   0.00601  -0.0163  0.7812  1.0000  -1.3934   0.0000   0.0000   0.0000   0.2844
   3.300   0.4487   0.01231   0.00590  -0.0150  0.7581  1.0000  -1.4548   0.0000   0.0000   0.0000   0.2806
   3.400   0.4564   0.01224   0.00579  -0.0136  0.7319  1.0000  -1.5169   0.0000   0.0000   0.0000   0.2769
   3.500   0.4641   0.01222   0.00568  -0.0122  0.7029  1.0000  -1.5799   0.0000   0.0000   0.0000   0.2734
   3.600   0.4717   0.01228   0.00562  -0.0108  0.6700  1.0000  -1.6428   0.0000   0.0000   0.0000   0.2701
   3.700   0.4792   0.01241   0.00561  -0.0096  0.6344  1.0000  -1.7058   0.0000   0.0000   0.0000   0.2670
   3.800   0.4867   0.01260   0.00564  -0.0085  0.5963  1.0000  -1.7686   0.0000   0.0000   0.0000   0.2644
   3.900   0.4942   0.01285   0.00571  -0.0074  0.5572  1.0000  -1.8314   0.0000   0.0000   0.0000   0.2619
   4.100   0.5091   0.01347   0.00595  -0.0056  0.4805  1.0000  -1.9571   0.0000   0.0000   0.0000   0.2578
   4.200   0.5167   0.01381   0.00610  -0.0049  0.4449  1.0000  -2.0249   0.0000   0.0000   0.0000   0.2561
   4.300   0.5245   0.01417   0.00628  -0.0042  0.4123  1.0000  -2.0961   0.0000   0.0000   0.0000   0.2546
   4.400   0.5324   0.01453   0.00647  -0.0036  0.3836  1.0000  -2.1681   0.0000   0.0000   0.0000   0.2533
   4.500   0.5405   0.01488   0.00668  -0.0030  0.3570  1.0000  -2.2411   0.0000   0.0000   0.0000   0.2521
   4.600   0.5487   0.01523   0.00690  -0.0025  0.3330  1.0000  -2.3149   0.0000   0.0000   0.0000   0.2510
   4.700   0.5570   0.01556   0.00712  -0.0020  0.3110  1.0000  -2.3897   0.0000   0.0000   0.0000   0.2500
   4.800   0.5653   0.01589   0.00734  -0.0016  0.2905  1.0000  -2.4651   0.0000   0.0000   0.0000   0.2491
   4.900   0.5736   0.01622   0.00758  -0.0011  0.2709  1.0000  -2.5411   0.0000   0.0000   0.0000   0.2482
   5.000   0.5821   0.01653   0.00782  -0.0007  0.2511  1.0000  -2.6171   0.0000   0.0000   0.0000   0.2474
   5.100   0.5905   0.01685   0.00807  -0.0003  0.2317  1.0000  -2.6924   0.0000   0.0000   0.0000   0.2466
   5.200   0.5988   0.01720   0.00834   0.0001  0.2120  1.0000  -2.7662   0.0000   0.0000   0.0000   0.2458
   5.300   0.6069   0.01759   0.00863   0.0005  0.1915  1.0000  -2.8369   0.0000   0.0000   0.0000   0.2451
   5.400   0.6149   0.01804   0.00899   0.0010  0.1681  1.0000  -2.9000   0.0000   0.0000   0.0000   0.2443
   5.500   0.6226   0.01860   0.00940   0.0015  0.1446  1.0000  -2.9541   0.0000   0.0000   0.0000   0.2434
   5.600   0.6303   0.01921   0.00988   0.0020  0.1241  1.0000  -2.9994   0.0000   0.0000   0.0000   0.2425
   5.700   0.6384   0.01982   0.01038   0.0025  0.1092  1.0000  -3.0431   0.0000   0.0000   0.0000   0.2417
   5.800   0.6468   0.02042   0.01092   0.0030  0.0988  1.0000  -3.0865   0.0000   0.0000   0.0000   0.2409
   5.900   0.6555   0.02098   0.01144   0.0034  0.0906  1.0000  -3.1351   0.0000   0.0000   0.0000   0.2402
   6.000   0.6644   0.02158   0.01199   0.0039  0.0846  1.0000  -3.1950   0.0000   0.0000   0.0000   0.2395
   6.100   0.6733   0.02221   0.01252   0.0043  0.0803  1.0000  -3.2598   0.0000   0.0000   0.0000   0.2389
   6.200   0.6828   0.02279   0.01317   0.0047  0.0759  1.0000  -3.3164   0.0000   0.0000   0.0000   0.2383
   6.300   0.6920   0.02342   0.01381   0.0051  0.0722  1.0000  -3.3773   0.0000   0.0000   0.0000   0.2378
   6.400   0.7013   0.02401   0.01434   0.0054  0.0691  1.0000  -3.4476   0.0000   0.0000   0.0000   0.2374
   6.500   0.7111   0.02479   0.01520   0.0058  0.0668  1.0000  -3.4960   0.0000   0.0000   0.0000   0.2368
   6.600   0.7209   0.02556   0.01604   0.0062  0.0649  1.0000  -3.5464   0.0000   0.0000   0.0000   0.2363
   6.800   0.7403   0.02720   0.01777   0.0068  0.0618  1.0000  -3.6552   0.0000   0.0000   0.0000   0.2355
   6.900   0.7495   0.02804   0.01879   0.0073  0.0601  1.0000  -3.6951   0.0000   0.0000   0.0000   0.2350
   7.000   0.7589   0.02873   0.01948   0.0075  0.0583  1.0000  -3.7623   0.0000   0.0000   0.0000   0.2347
   7.100   0.7681   0.02963   0.02037   0.0078  0.0570  1.0000  -3.8248   0.0000   0.0000   0.0000   0.2344
   7.200   0.7767   0.03070   0.02171   0.0083  0.0562  1.0000  -3.8433   0.0000   0.0000   0.0000   0.2338
   7.300   0.7852   0.03188   0.02310   0.0088  0.0558  1.0000  -3.8622   0.0000   0.0000   0.0000   0.2332
   7.400   0.7933   0.03312   0.02456   0.0094  0.0555  1.0000  -3.8776   0.0000   0.0000   0.0000   0.2326
   7.500   0.8008   0.03446   0.02613   0.0099  0.0554  1.0000  -3.8866   0.0000   0.0000   0.0000   0.2319
   7.600   0.8079   0.03590   0.02780   0.0105  0.0555  1.0000  -3.8902   0.0000   0.0000   0.0000   0.2313
   7.700   0.8144   0.03742   0.02955   0.0110  0.0557  1.0000  -3.8895   0.0000   0.0000   0.0000   0.2307
   7.800   0.8204   0.03899   0.03135   0.0116  0.0559  1.0000  -3.8868   0.0000   0.0000   0.0000   0.2301
   7.900   0.8258   0.04060   0.03319   0.0121  0.0561  1.0000  -3.8823   0.0000   0.0000   0.0000   0.2295
   8.000   0.8307   0.04226   0.03506   0.0126  0.0562  1.0000  -3.8880   0.0000   0.0000   0.0000   0.2289
   8.100   0.8349   0.04396   0.03698   0.0131  0.0563  1.0000  -3.8915   0.0000   0.0000   0.0000   0.2284
   8.200   0.8387   0.04571   0.03892   0.0136  0.0565  1.0000  -3.8929   0.0000   0.0000   0.0000   0.2278
   8.300   0.8421   0.04748   0.04086   0.0140  0.0566  1.0000  -3.8942   0.0000   0.0000   0.0000   0.2274
   8.400   0.8455   0.04924   0.04278   0.0143  0.0568  1.0000  -3.8989   0.0000   0.0000   0.0000   0.2269
   8.500   0.8494   0.05097   0.04461   0.0146  0.0570  1.0000  -3.9125   0.0000   0.0000   0.0000   0.2266
   8.800   0.8285   0.06210   0.05676   0.0149  0.0677  1.0000  -3.4850   0.0000   0.0000   0.0000   0.2260
   9.400   0.6371   0.05781   0.05334   0.0192  0.0761  1.0000  -2.6489   0.0000   0.0000   0.0000   0.2145
   9.500   0.6156   0.06202   0.05756   0.0158  0.0768  1.0000  -2.5231   0.0000   0.0000   0.0000   0.2190
   9.600   0.6234   0.06329   0.05883   0.0172  0.0800  1.0000  -2.5538   0.0000   0.0000   0.0000   0.2170
   9.700   0.5990   0.06968   0.06520   0.0125  0.0866  1.0000  -2.3445   0.0000   0.0000   0.0000   0.2239
  11.300   0.7064   0.13377   0.12875  -0.0293  0.1108  1.0000  -1.9191   0.0000   0.0000   0.0000   0.2843
  11.400   0.7115   0.13512   0.13011  -0.0288  0.1089  1.0000  -1.9532   0.0000   0.0000   0.0000   0.2833
  16.600   0.8000   0.21657   0.21139  -0.0653  0.0590  1.0000  -1.7784   0.0000   0.0000   0.0000   0.3195
  16.700   0.8037   0.21807   0.21289  -0.0657  0.0583  1.0000  -1.7981   0.0000   0.0000   0.0000   0.3194
  16.800   0.8083   0.21981   0.21465  -0.0656  0.0577  1.0000  -1.8354   0.0000   0.0000   0.0000   0.3188
  16.900   0.8140   0.22225   0.21709  -0.0653  0.0572  1.0000  -1.8812   0.0000   0.0000   0.0000   0.3176
  17.000   0.8138   0.22312   0.21794  -0.0672  0.0570  1.0000  -1.8338   0.0000   0.0000   0.0000   0.3199
  17.100   0.8148   0.22423   0.21905  -0.0688  0.0566  1.0000  -1.7977   0.0000   0.0000   0.0000   0.3217
  17.200   0.8169   0.22553   0.22034  -0.0701  0.0558  1.0000  -1.7795   0.0000   0.0000   0.0000   0.3229
  17.300   0.8196   0.22692   0.22173  -0.0710  0.0550  1.0000  -1.7747   0.0000   0.0000   0.0000   0.3236
  17.400   0.8227   0.22834   0.22315  -0.0718  0.0542  1.0000  -1.7777   0.0000   0.0000   0.0000   0.3241
  17.500   0.8260   0.22977   0.22459  -0.0724  0.0535  1.0000  -1.7884   0.0000   0.0000   0.0000   0.3244
  17.600   0.8298   0.23127   0.22609  -0.0727  0.0528  1.0000  -1.8107   0.0000   0.0000   0.0000   0.3242
  17.700   0.8349   0.23333   0.22817  -0.0724  0.0522  1.0000  -1.8599   0.0000   0.0000   0.0000   0.3232
  17.800   0.8379   0.23504   0.22988  -0.0731  0.0519  1.0000  -1.8603   0.0000   0.0000   0.0000   0.3236
  17.900   0.8389   0.23596   0.23079  -0.0749  0.0516  1.0000  -1.8185   0.0000   0.0000   0.0000   0.3256
  18.000   0.8409   0.23712   0.23194  -0.0764  0.0510  1.0000  -1.7928   0.0000   0.0000   0.0000   0.3270
  18.100   0.8436   0.23848   0.23330  -0.0775  0.0501  1.0000  -1.7856   0.0000   0.0000   0.0000   0.3278
  18.200   0.8467   0.23987   0.23469  -0.0783  0.0493  1.0000  -1.7895   0.0000   0.0000   0.0000   0.3283
  18.300   0.8500   0.24126   0.23609  -0.0789  0.0485  1.0000  -1.8023   0.0000   0.0000   0.0000   0.3286
  18.400   0.8538   0.24273   0.23756  -0.0794  0.0478  1.0000  -1.8266   0.0000   0.0000   0.0000   0.3285
  18.500   0.8583   0.24463   0.23948  -0.0792  0.0473  1.0000  -1.8731   0.0000   0.0000   0.0000   0.3277
  20.100   0.5931   0.21021   0.20570  -0.0459  0.0470  1.0000  -1.1733   0.0000   0.0000   0.0000   0.3169
  20.200   0.5932   0.21104   0.20653  -0.0468  0.0468  1.0000  -1.1465   0.0000   0.0000   0.0000   0.3183
  20.300   0.5939   0.21203   0.20753  -0.0476  0.0465  1.0000  -1.1262   0.0000   0.0000   0.0000   0.3195
  20.400   0.5951   0.21316   0.20865  -0.0483  0.0460  1.0000  -1.1132   0.0000   0.0000   0.0000   0.3204
  20.500   0.5967   0.21436   0.20986  -0.0489  0.0454  1.0000  -1.1063   0.0000   0.0000   0.0000   0.3212
  20.600   0.5984   0.21557   0.21107  -0.0495  0.0448  1.0000  -1.1034   0.0000   0.0000   0.0000   0.3218
  20.700   0.6003   0.21680   0.21232  -0.0500  0.0442  1.0000  -1.1036   0.0000   0.0000   0.0000   0.3223
  20.800   0.6024   0.21807   0.21359  -0.0505  0.0437  1.0000  -1.1070   0.0000   0.0000   0.0000   0.3227
  20.900   0.6047   0.21936   0.21489  -0.0510  0.0432  1.0000  -1.1147   0.0000   0.0000   0.0000   0.3229
  21.000   0.6074   0.22080   0.21634  -0.0513  0.0427  1.0000  -1.1296   0.0000   0.0000   0.0000   0.3230
  21.100   0.6112   0.22273   0.21828  -0.0514  0.0424  1.0000  -1.1598   0.0000   0.0000   0.0000   0.3224
  21.200   0.6122   0.22389   0.21943  -0.0521  0.0422  1.0000  -1.1440   0.0000   0.0000   0.0000   0.3233
  21.300   0.6127   0.22485   0.22040  -0.0529  0.0421  1.0000  -1.1197   0.0000   0.0000   0.0000   0.3245
  21.400   0.6137   0.22591   0.22146  -0.0537  0.0418  1.0000  -1.1000   0.0000   0.0000   0.0000   0.3256
  21.500   0.6150   0.22707   0.22263  -0.0544  0.0414  1.0000  -1.0858   0.0000   0.0000   0.0000   0.3264
  21.600   0.6165   0.22830   0.22386  -0.0550  0.0409  1.0000  -1.0767   0.0000   0.0000   0.0000   0.3271
  21.700   0.6182   0.22954   0.22511  -0.0556  0.0404  1.0000  -1.0711   0.0000   0.0000   0.0000   0.3277
  21.800   0.6200   0.23081   0.22639  -0.0561  0.0399  1.0000  -1.0681   0.0000   0.0000   0.0000   0.3282
  21.900   0.6219   0.23207   0.22766  -0.0567  0.0394  1.0000  -1.0675   0.0000   0.0000   0.0000   0.3287
  22.000   0.6239   0.23338   0.22897  -0.0572  0.0390  1.0000  -1.0698   0.0000   0.0000   0.0000   0.3290
  22.100   0.6260   0.23471   0.23030  -0.0576  0.0385  1.0000  -1.0759   0.0000   0.0000   0.0000   0.3293
  22.200   0.6285   0.23618   0.23178  -0.0580  0.0381  1.0000  -1.0886   0.0000   0.0000   0.0000   0.3293
  22.300   0.6319   0.23808   0.23370  -0.0581  0.0378  1.0000  -1.1142   0.0000   0.0000   0.0000   0.3289
  22.400   0.6330   0.23929   0.23490  -0.0588  0.0377  1.0000  -1.0983   0.0000   0.0000   0.0000   0.3298
  22.500   0.6337   0.24031   0.23593  -0.0596  0.0376  1.0000  -1.0747   0.0000   0.0000   0.0000   0.3308
  22.600   0.6347   0.24143   0.23705  -0.0604  0.0374  1.0000  -1.0548   0.0000   0.0000   0.0000   0.3318
  22.700   0.6360   0.24261   0.23823  -0.0611  0.0370  1.0000  -1.0393   0.0000   0.0000   0.0000   0.3325
  22.800   0.6375   0.24386   0.23949  -0.0617  0.0366  1.0000  -1.0336   0.0000   0.0000   0.0000   0.3332
  22.900   0.6392   0.24514   0.24078  -0.0623  0.0361  1.0000  -1.0343   0.0000   0.0000   0.0000   0.3338
  23.000   0.6409   0.24643   0.24207  -0.0629  0.0356  1.0000  -1.0377   0.0000   0.0000   0.0000   0.3342
  23.100   0.6427   0.24772   0.24337  -0.0634  0.0351  1.0000  -1.0436   0.0000   0.0000   0.0000   0.3347
  23.200   0.6446   0.24902   0.24469  -0.0639  0.0346  1.0000  -1.0525   0.0000   0.0000   0.0000   0.3350
  23.300   0.6466   0.25038   0.24605  -0.0644  0.0342  1.0000  -1.0660   0.0000   0.0000   0.0000   0.3353
  23.400   0.6490   0.25190   0.24758  -0.0647  0.0338  1.0000  -1.0877   0.0000   0.0000   0.0000   0.3353
  23.900   1.0309   0.31896   0.31393  -0.1300  0.0282  1.0000  -1.8875   0.0000   0.0000   0.0000   0.3528
  24.000   1.0342   0.32025   0.31523  -0.1310  0.0279  1.0000  -1.8895   0.0000   0.0000   0.0000   0.3532
  24.100   1.0374   0.32156   0.31653  -0.1319  0.0276  1.0000  -1.8933   0.0000   0.0000   0.0000   0.3536
  24.200   1.0406   0.32285   0.31784  -0.1329  0.0273  1.0000  -1.8986   0.0000   0.0000   0.0000   0.3539
  24.300   1.0438   0.32415   0.31914  -0.1338  0.0270  1.0000  -1.9054   0.0000   0.0000   0.0000   0.3542
  24.400   1.0470   0.32539   0.32039  -0.1348  0.0267  1.0000  -1.9143   0.0000   0.0000   0.0000   0.3545
  24.500   1.0502   0.32671   0.32172  -0.1356  0.0265  1.0000  -1.9255   0.0000   0.0000   0.0000   0.3547
  24.600   1.0534   0.32801   0.32303  -0.1365  0.0262  1.0000  -1.9402   0.0000   0.0000   0.0000   0.3549
  24.700   1.0564   0.32944   0.32447  -0.1372  0.0260  1.0000  -1.9600   0.0000   0.0000   0.0000   0.3550
  24.800   1.0595   0.33108   0.32612  -0.1378  0.0258  1.0000  -1.9880   0.0000   0.0000   0.0000   0.3550


