xflr5 v6.61

 Calculated polar for: MH 50

 1 1 Reynolds number fixed          Mach number fixed         

 xtrf =   1.000 (top)        1.000 (bottom)
 Mach =   0.000     Re =     0.400 e 6     Ncrit =   9.000

  alpha     CL        CD       CDp       Cm    Top Xtr Bot Xtr   Cpmin    Chinge    XCp    
 ------- -------- --------- --------- -------- ------- ------- -------- --------- ---------
  -8.700  -0.7664   0.05631   0.05346  -0.0184  1.0000  0.0289  -4.0864   0.0000   0.0000   0.0000   0.2205
  -8.600  -0.7608   0.05555   0.05272  -0.0183  1.0000  0.0291  -3.9880   0.0000   0.0000   0.0000   0.2206
  -8.500  -0.7565   0.05463   0.05181  -0.0183  1.0000  0.0292  -3.9108   0.0000   0.0000   0.0000   0.2205
  -8.400  -0.7524   0.05367   0.05083  -0.0183  1.0000  0.0294  -3.8413   0.0000   0.0000   0.0000   0.2205
  -8.200  -0.7873   0.03748   0.03327  -0.0170  1.0000  0.0211  -4.9944   0.0000   0.0000   0.0000   0.2226
  -8.100  -0.7815   0.03598   0.03173  -0.0169  1.0000  0.0209  -4.9381   0.0000   0.0000   0.0000   0.2228
  -8.000  -0.7762   0.03446   0.03013  -0.0166  1.0000  0.0208  -4.9048   0.0000   0.0000   0.0000   0.2230
  -7.900  -0.7709   0.03291   0.02846  -0.0163  1.0000  0.0206  -4.8921   0.0000   0.0000   0.0000   0.2233
  -7.800  -0.7657   0.03124   0.02665  -0.0159  1.0000  0.0203  -4.8956   0.0000   0.0000   0.0000   0.2237
  -7.700  -0.7612   0.02915   0.02432  -0.0153  1.0000  0.0197  -4.9501   0.0000   0.0000   0.0000   0.2244
  -7.600  -0.7593   0.02559   0.02019  -0.0140  1.0000  0.0187  -5.1903   0.0000   0.0000   0.0000   0.2260
  -7.500  -0.7522   0.02417   0.01853  -0.0135  1.0000  0.0186  -5.1996   0.0000   0.0000   0.0000   0.2266
  -7.400  -0.7437   0.02329   0.01753  -0.0131  1.0000  0.0187  -5.1415   0.0000   0.0000   0.0000   0.2269
  -7.300  -0.7349   0.02251   0.01665  -0.0129  1.0000  0.0189  -5.0730   0.0000   0.0000   0.0000   0.2272
  -7.200  -0.7259   0.02178   0.01581  -0.0126  1.0000  0.0191  -5.0010   0.0000   0.0000   0.0000   0.2274
  -7.100  -0.7168   0.02109   0.01502  -0.0123  1.0000  0.0193  -4.9275   0.0000   0.0000   0.0000   0.2276
  -7.000  -0.7075   0.02042   0.01426  -0.0120  1.0000  0.0195  -4.8531   0.0000   0.0000   0.0000   0.2279
  -6.900  -0.6982   0.01979   0.01353  -0.0117  1.0000  0.0197  -4.7779   0.0000   0.0000   0.0000   0.2281
  -6.800  -0.6887   0.01925   0.01290  -0.0115  1.0000  0.0201  -4.6960   0.0000   0.0000   0.0000   0.2284
  -6.700  -0.6791   0.01878   0.01231  -0.0112  1.0000  0.0206  -4.6137   0.0000   0.0000   0.0000   0.2286
  -6.600  -0.6693   0.01842   0.01181  -0.0109  1.0000  0.0211  -4.5306   0.0000   0.0000   0.0000   0.2289
  -6.500  -0.6602   0.01774   0.01106  -0.0106  1.0000  0.0214  -4.4529   0.0000   0.0000   0.0000   0.2292
  -6.400  -0.6511   0.01715   0.01049  -0.0103  1.0000  0.0218  -4.3561   0.0000   0.0000   0.0000   0.2294
  -6.300  -0.6418   0.01673   0.01006  -0.0101  1.0000  0.0222  -4.2566   0.0000   0.0000   0.0000   0.2297
  -6.200  -0.6325   0.01635   0.00965  -0.0098  1.0000  0.0226  -4.1605   0.0000   0.0000   0.0000   0.2300
  -6.100  -0.6233   0.01598   0.00926  -0.0094  1.0000  0.0230  -4.0665   0.0000   0.0000   0.0000   0.2304
  -6.000  -0.6144   0.01563   0.00888  -0.0090  1.0000  0.0235  -3.9822   0.0000   0.0000   0.0000   0.2309
  -5.900  -0.6057   0.01529   0.00850  -0.0086  1.0000  0.0239  -3.9106   0.0000   0.0000   0.0000   0.2315
  -5.800  -0.5972   0.01500   0.00815  -0.0080  1.0000  0.0244  -3.8401   0.0000   0.0000   0.0000   0.2322
  -5.700  -0.5889   0.01473   0.00783  -0.0075  1.0000  0.0248  -3.7695   0.0000   0.0000   0.0000   0.2331
  -5.600  -0.5821   0.01423   0.00737  -0.0068  1.0000  0.0255  -3.6976   0.0000   0.0000   0.0000   0.2342
  -5.500  -0.5744   0.01398   0.00714  -0.0062  1.0000  0.0262  -3.6117   0.0000   0.0000   0.0000   0.2351
  -5.400  -0.5664   0.01377   0.00692  -0.0057  1.0000  0.0270  -3.5290   0.0000   0.0000   0.0000   0.2360
  -5.300  -0.5584   0.01357   0.00668  -0.0051  1.0000  0.0279  -3.4517   0.0000   0.0000   0.0000   0.2369
  -5.200  -0.5502   0.01339   0.00645  -0.0045  1.0000  0.0286  -3.3766   0.0000   0.0000   0.0000   0.2379
  -5.100  -0.5432   0.01298   0.00607  -0.0038  1.0000  0.0294  -3.3060   0.0000   0.0000   0.0000   0.2391
  -5.000  -0.5354   0.01274   0.00584  -0.0033  1.0000  0.0302  -3.2259   0.0000   0.0000   0.0000   0.2401
  -4.900  -0.5272   0.01253   0.00562  -0.0028  1.0000  0.0312  -3.1472   0.0000   0.0000   0.0000   0.2411
  -4.800  -0.5188   0.01234   0.00540  -0.0022  1.0000  0.0324  -3.0706   0.0000   0.0000   0.0000   0.2421
  -4.700  -0.5108   0.01206   0.00512  -0.0017  1.0000  0.0336  -2.9947   0.0000   0.0000   0.0000   0.2431
  -4.600  -0.5023   0.01187   0.00494  -0.0013  1.0000  0.0351  -2.9108   0.0000   0.0000   0.0000   0.2439
  -4.500  -0.4935   0.01173   0.00476  -0.0009  1.0000  0.0370  -2.8300   0.0000   0.0000   0.0000   0.2448
  -4.400  -0.4850   0.01147   0.00454  -0.0004  1.0000  0.0390  -2.7495   0.0000   0.0000   0.0000   0.2457
  -4.300  -0.4760   0.01132   0.00437  -0.0001  1.0000  0.0415  -2.6747   0.0000   0.0000   0.0000   0.2465
  -4.200  -0.4672   0.01109   0.00417   0.0003  1.0000  0.0443  -2.6057   0.0000   0.0000   0.0000   0.2474
  -4.100  -0.4582   0.01089   0.00398   0.0007  1.0000  0.0480  -2.5374   0.0000   0.0000   0.0000   0.2482
  -4.000  -0.4491   0.01069   0.00381   0.0010  1.0000  0.0534  -2.4673   0.0000   0.0000   0.0000   0.2490
  -3.900  -0.4398   0.01049   0.00365   0.0013  1.0000  0.0616  -2.3970   0.0000   0.0000   0.0000   0.2498
  -3.800  -0.4306   0.01025   0.00349   0.0015  1.0000  0.0742  -2.3264   0.0000   0.0000   0.0000   0.2505
  -3.700  -0.4189   0.01000   0.00333   0.0012  0.9995  0.0937  -2.2444   0.0000   0.0000   0.0000   0.2499
  -3.600  -0.4049   0.00976   0.00321   0.0005  0.9985  0.1175  -2.1521   0.0000   0.0000   0.0000   0.2482
  -3.500  -0.3909   0.00953   0.00310  -0.0003  0.9974  0.1427  -2.0589   0.0000   0.0000   0.0000   0.2462
  -3.400  -0.3769   0.00931   0.00300  -0.0011  0.9963  0.1702  -1.9659   0.0000   0.0000   0.0000   0.2441
  -3.300  -0.3629   0.00909   0.00291  -0.0019  0.9952  0.2009  -1.8734   0.0000   0.0000   0.0000   0.2418
  -3.200  -0.3488   0.00887   0.00283  -0.0027  0.9940  0.2355  -1.7820   0.0000   0.0000   0.0000   0.2393
  -3.100  -0.3349   0.00864   0.00275  -0.0035  0.9927  0.2729  -1.7009   0.0000   0.0000   0.0000   0.2366
  -3.000  -0.3207   0.00841   0.00268  -0.0044  0.9915  0.3138  -1.6200   0.0000   0.0000   0.0000   0.2336
  -2.900  -0.3069   0.00818   0.00261  -0.0051  0.9902  0.3566  -1.5409   0.0000   0.0000   0.0000   0.2305
  -2.800  -0.2927   0.00795   0.00256  -0.0059  0.9889  0.4011  -1.4618   0.0000   0.0000   0.0000   0.2270
  -2.700  -0.2790   0.00772   0.00251  -0.0067  0.9875  0.4464  -1.3850   0.0000   0.0000   0.0000   0.2235
  -2.600  -0.2651   0.00749   0.00247  -0.0074  0.9862  0.4932  -1.3084   0.0000   0.0000   0.0000   0.2194
  -2.500  -0.2514   0.00727   0.00243  -0.0080  0.9847  0.5402  -1.2336   0.0000   0.0000   0.0000   0.2153
  -2.400  -0.2377   0.00706   0.00239  -0.0086  0.9832  0.5865  -1.1625   0.0000   0.0000   0.0000   0.2109
  -2.300  -0.2235   0.00686   0.00237  -0.0093  0.9820  0.6315  -1.0956   0.0000   0.0000   0.0000   0.2056
  -2.200  -0.2105   0.00668   0.00235  -0.0097  0.9802  0.6724  -1.0325   0.0000   0.0000   0.0000   0.2012
  -2.100  -0.1964   0.00652   0.00234  -0.0102  0.9789  0.7118  -0.9676   0.0000   0.0000   0.0000   0.1952
  -2.000  -0.1838   0.00639   0.00234  -0.0104  0.9770  0.7473  -0.9073   0.0000   0.0000   0.0000   0.1906
  -1.900  -0.1708   0.00628   0.00236  -0.0107  0.9753  0.7804  -0.8465   0.0000   0.0000   0.0000   0.1849
  -1.800  -0.1584   0.00622   0.00240  -0.0107  0.9733  0.8101  -0.7938   0.0000   0.0000   0.0000   0.1800
  -1.700  -0.1461   0.00619   0.00245  -0.0106  0.9713  0.8358  -0.7419   0.0000   0.0000   0.0000   0.1745
  -1.600  -0.1337   0.00620   0.00251  -0.0106  0.9692  0.8569  -0.6907   0.0000   0.0000   0.0000   0.1679
  -1.500  -0.1218   0.00623   0.00255  -0.0105  0.9668  0.8736  -0.6428   0.0000   0.0000   0.0000   0.1611
  -1.400  -0.1101   0.00626   0.00259  -0.0104  0.9644  0.8871  -0.5989   0.0000   0.0000   0.0000   0.1530
  -1.300  -0.0989   0.00629   0.00262  -0.0101  0.9617  0.8983  -0.5567   0.0000   0.0000   0.0000   0.1448
  -1.200  -0.0882   0.00633   0.00266  -0.0098  0.9588  0.9081  -0.5194   0.0000   0.0000   0.0000   0.1362
  -1.100  -0.0776   0.00636   0.00268  -0.0094  0.9560  0.9170  -0.4849   0.0000   0.0000   0.0000   0.1262
  -1.000  -0.0681   0.00640   0.00271  -0.0088  0.9526  0.9251  -0.4573   0.0000   0.0000   0.0000   0.1182
  -0.900  -0.0578   0.00643   0.00273  -0.0083  0.9498  0.9321  -0.4332   0.0000   0.0000   0.0000   0.1037
  -0.800  -0.0484   0.00647   0.00276  -0.0076  0.9461  0.9388  -0.4122   0.0000   0.0000   0.0000   0.0900
  -0.700  -0.0383   0.00649   0.00278  -0.0070  0.9430  0.9448  -0.3916   0.0000   0.0000   0.0000   0.0627
  -0.600  -0.0282   0.00651   0.00279  -0.0065  0.9393  0.9506  -0.3720   0.0000   0.0000   0.0000   0.0149
  -0.500  -0.0174   0.00653   0.00279  -0.0061  0.9359  0.9559  -0.3529   0.0000   0.0000   0.0000  -0.1078
  -0.400  -0.0060   0.00654   0.00279  -0.0059  0.9324  0.9608  -0.3339   0.0000   0.0000   0.0000  -0.7469
  -0.300   0.0066   0.00655   0.00278  -0.0059  0.9287  0.9651  -0.3147   0.0000   0.0000   0.0000   1.1597
  -0.200   0.0205   0.00654   0.00277  -0.0062  0.9252  0.9687  -0.3133   0.0000   0.0000   0.0000   0.5555
  -0.100   0.0349   0.00654   0.00275  -0.0067  0.9211  0.9722  -0.3295   0.0000   0.0000   0.0000   0.4423
   0.000   0.0497   0.00653   0.00272  -0.0072  0.9176  0.9754  -0.3462   0.0000   0.0000   0.0000   0.3953
   0.100   0.0651   0.00651   0.00269  -0.0080  0.9131  0.9785  -0.3638   0.0000   0.0000   0.0000   0.3720
   0.200   0.0815   0.00649   0.00265  -0.0089  0.9092  0.9809  -0.3825   0.0000   0.0000   0.0000   0.3585
   0.300   0.0972   0.00646   0.00262  -0.0098  0.9046  0.9836  -0.4010   0.0000   0.0000   0.0000   0.3494
   0.400   0.1128   0.00644   0.00258  -0.0106  0.9001  0.9863  -0.4200   0.0000   0.0000   0.0000   0.3425
   0.500   0.1282   0.00641   0.00254  -0.0114  0.8956  0.9890  -0.4393   0.0000   0.0000   0.0000   0.3373
   0.600   0.1441   0.00638   0.00251  -0.0123  0.8904  0.9917  -0.4592   0.0000   0.0000   0.0000   0.3340
   0.700   0.1599   0.00635   0.00246  -0.0132  0.8855  0.9942  -0.4797   0.0000   0.0000   0.0000   0.3310
   0.800   0.1759   0.00631   0.00242  -0.0142  0.8799  0.9967  -0.5005   0.0000   0.0000   0.0000   0.3289
   0.900   0.1921   0.00627   0.00237  -0.0152  0.8738  0.9991  -0.5224   0.0000   0.0000   0.0000   0.3275
   1.000   0.2041   0.00624   0.00233  -0.0153  0.8675  1.0000  -0.5410   0.0000   0.0000   0.0000   0.3234
   1.100   0.2135   0.00622   0.00230  -0.0149  0.8610  1.0000  -0.5577   0.0000   0.0000   0.0000   0.3180
   1.200   0.2232   0.00620   0.00226  -0.0145  0.8535  1.0000  -0.5753   0.0000   0.0000   0.0000   0.3134
   1.300   0.2330   0.00617   0.00223  -0.0142  0.8454  1.0000  -0.5930   0.0000   0.0000   0.0000   0.3091
   1.400   0.2428   0.00615   0.00220  -0.0139  0.8367  1.0000  -0.6116   0.0000   0.0000   0.0000   0.3052
   1.500   0.2526   0.00613   0.00217  -0.0135  0.8270  1.0000  -0.6304   0.0000   0.0000   0.0000   0.3016
   1.600   0.2624   0.00611   0.00213  -0.0131  0.8162  1.0000  -0.6500   0.0000   0.0000   0.0000   0.2982
   1.700   0.2722   0.00610   0.00211  -0.0128  0.8031  1.0000  -0.6701   0.0000   0.0000   0.0000   0.2951
   1.800   0.2820   0.00609   0.00206  -0.0124  0.7879  1.0000  -0.6913   0.0000   0.0000   0.0000   0.2920
   1.900   0.2917   0.00610   0.00202  -0.0120  0.7693  1.0000  -0.7132   0.0000   0.0000   0.0000   0.2891
   2.000   0.3013   0.00612   0.00197  -0.0116  0.7475  1.0000  -0.7362   0.0000   0.0000   0.0000   0.2863
   2.100   0.3110   0.00618   0.00193  -0.0112  0.7233  1.0000  -0.7655   0.0000   0.0000   0.0000   0.2838
   2.200   0.3209   0.00627   0.00191  -0.0109  0.6975  1.0000  -0.8120   0.0000   0.0000   0.0000   0.2816
   2.300   0.3309   0.00638   0.00191  -0.0106  0.6716  1.0000  -0.8610   0.0000   0.0000   0.0000   0.2797
   2.500   0.3509   0.00662   0.00195  -0.0101  0.6197  1.0000  -0.9683   0.0000   0.0000   0.0000   0.2764
   2.600   0.3609   0.00675   0.00198  -0.0099  0.5935  1.0000  -1.0249   0.0000   0.0000   0.0000   0.2750
   2.700   0.3710   0.00689   0.00201  -0.0097  0.5671  1.0000  -1.0820   0.0000   0.0000   0.0000   0.2737
   2.800   0.3809   0.00703   0.00205  -0.0095  0.5408  1.0000  -1.1398   0.0000   0.0000   0.0000   0.2725
   3.000   0.4008   0.00732   0.00214  -0.0092  0.4881  1.0000  -1.2662   0.0000   0.0000   0.0000   0.2702
   3.100   0.4106   0.00747   0.00220  -0.0090  0.4616  1.0000  -1.3328   0.0000   0.0000   0.0000   0.2692
   3.200   0.4204   0.00763   0.00226  -0.0088  0.4351  1.0000  -1.4000   0.0000   0.0000   0.0000   0.2682
   3.300   0.4301   0.00780   0.00232  -0.0086  0.4087  1.0000  -1.4679   0.0000   0.0000   0.0000   0.2672
   3.400   0.4398   0.00797   0.00239  -0.0084  0.3824  1.0000  -1.5365   0.0000   0.0000   0.0000   0.2663
   3.500   0.4494   0.00815   0.00246  -0.0082  0.3555  1.0000  -1.6056   0.0000   0.0000   0.0000   0.2654
   3.600   0.4589   0.00833   0.00253  -0.0080  0.3283  1.0000  -1.6753   0.0000   0.0000   0.0000   0.2645
   3.700   0.4684   0.00853   0.00261  -0.0078  0.3023  1.0000  -1.7455   0.0000   0.0000   0.0000   0.2636
   3.800   0.4778   0.00871   0.00269  -0.0076  0.2780  1.0000  -1.8165   0.0000   0.0000   0.0000   0.2628
   3.900   0.4873   0.00889   0.00278  -0.0074  0.2566  1.0000  -1.8890   0.0000   0.0000   0.0000   0.2620
   4.000   0.4967   0.00906   0.00288  -0.0071  0.2380  1.0000  -1.9701   0.0000   0.0000   0.0000   0.2611
   4.100   0.5062   0.00921   0.00297  -0.0069  0.2216  1.0000  -2.0522   0.0000   0.0000   0.0000   0.2603
   4.200   0.5157   0.00936   0.00306  -0.0067  0.2072  1.0000  -2.1352   0.0000   0.0000   0.0000   0.2595
   4.300   0.5251   0.00951   0.00315  -0.0064  0.1938  1.0000  -2.2191   0.0000   0.0000   0.0000   0.2588
   4.500   0.5440   0.00980   0.00335  -0.0059  0.1704  1.0000  -2.3893   0.0000   0.0000   0.0000   0.2572
   4.600   0.5535   0.00993   0.00345  -0.0056  0.1593  1.0000  -2.4757   0.0000   0.0000   0.0000   0.2565
   4.700   0.5628   0.01008   0.00355  -0.0053  0.1484  1.0000  -2.5625   0.0000   0.0000   0.0000   0.2558
   4.800   0.5722   0.01023   0.00367  -0.0051  0.1378  1.0000  -2.6497   0.0000   0.0000   0.0000   0.2551
   4.900   0.5816   0.01037   0.00378  -0.0048  0.1262  1.0000  -2.7375   0.0000   0.0000   0.0000   0.2543
   5.000   0.5908   0.01054   0.00389  -0.0045  0.1134  1.0000  -2.8247   0.0000   0.0000   0.0000   0.2537
   5.100   0.5999   0.01073   0.00402  -0.0042  0.0981  1.0000  -2.9105   0.0000   0.0000   0.0000   0.2530
   5.200   0.6087   0.01099   0.00418  -0.0038  0.0778  1.0000  -2.9919   0.0000   0.0000   0.0000   0.2522
   5.300   0.6168   0.01138   0.00442  -0.0034  0.0560  1.0000  -3.0639   0.0000   0.0000   0.0000   0.2514
   5.400   0.6252   0.01175   0.00470  -0.0029  0.0445  1.0000  -3.1326   0.0000   0.0000   0.0000   0.2505
   5.500   0.6338   0.01205   0.00496  -0.0025  0.0387  1.0000  -3.2053   0.0000   0.0000   0.0000   0.2497
   5.600   0.6427   0.01231   0.00522  -0.0021  0.0350  1.0000  -3.2797   0.0000   0.0000   0.0000   0.2490
   5.700   0.6516   0.01259   0.00549  -0.0017  0.0324  1.0000  -3.3664   0.0000   0.0000   0.0000   0.2482
   5.800   0.6607   0.01283   0.00574  -0.0014  0.0304  1.0000  -3.4574   0.0000   0.0000   0.0000   0.2476
   5.900   0.6694   0.01315   0.00606  -0.0010  0.0289  1.0000  -3.5438   0.0000   0.0000   0.0000   0.2469
   6.000   0.6786   0.01339   0.00633  -0.0006  0.0276  1.0000  -3.6333   0.0000   0.0000   0.0000   0.2462
   6.100   0.6876   0.01367   0.00660  -0.0003  0.0265  1.0000  -3.7263   0.0000   0.0000   0.0000   0.2457
   6.200   0.6960   0.01408   0.00699   0.0001  0.0255  1.0000  -3.8120   0.0000   0.0000   0.0000   0.2450
   6.300   0.7055   0.01430   0.00726   0.0004  0.0246  1.0000  -3.9035   0.0000   0.0000   0.0000   0.2445
   6.400   0.7148   0.01456   0.00753   0.0007  0.0236  1.0000  -3.9999   0.0000   0.0000   0.0000   0.2440
   6.500   0.7238   0.01485   0.00782   0.0010  0.0228  1.0000  -4.1003   0.0000   0.0000   0.0000   0.2435
   6.600   0.7319   0.01535   0.00830   0.0014  0.0220  1.0000  -4.1862   0.0000   0.0000   0.0000   0.2429
   6.700   0.7415   0.01561   0.00862   0.0017  0.0215  1.0000  -4.2759   0.0000   0.0000   0.0000   0.2424
   6.800   0.7507   0.01594   0.00897   0.0020  0.0210  1.0000  -4.3643   0.0000   0.0000   0.0000   0.2419
   6.900   0.7599   0.01628   0.00934   0.0023  0.0205  1.0000  -4.4539   0.0000   0.0000   0.0000   0.2415
   7.000   0.7690   0.01663   0.00971   0.0026  0.0200  1.0000  -4.5460   0.0000   0.0000   0.0000   0.2410
   7.100   0.7781   0.01701   0.01009   0.0029  0.0196  1.0000  -4.6402   0.0000   0.0000   0.0000   0.2406
   7.200   0.7868   0.01746   0.01053   0.0032  0.0193  1.0000  -4.7329   0.0000   0.0000   0.0000   0.2402
   7.300   0.7950   0.01812   0.01118   0.0036  0.0189  1.0000  -4.8124   0.0000   0.0000   0.0000   0.2397
   7.400   0.8040   0.01866   0.01177   0.0039  0.0187  1.0000  -4.8867   0.0000   0.0000   0.0000   0.2392
   7.500   0.8134   0.01908   0.01226   0.0042  0.0185  1.0000  -4.9640   0.0000   0.0000   0.0000   0.2388
   7.600   0.8227   0.01955   0.01280   0.0045  0.0182  1.0000  -5.0389   0.0000   0.0000   0.0000   0.2384
   7.700   0.8319   0.02002   0.01335   0.0048  0.0179  1.0000  -5.1151   0.0000   0.0000   0.0000   0.2380
   7.800   0.8411   0.02049   0.01389   0.0051  0.0175  1.0000  -5.1961   0.0000   0.0000   0.0000   0.2376
   7.900   0.8503   0.02093   0.01439   0.0054  0.0172  1.0000  -5.2899   0.0000   0.0000   0.0000   0.2373
   8.000   0.8594   0.02135   0.01483   0.0056  0.0168  1.0000  -5.4083   0.0000   0.0000   0.0000   0.2370
   8.100   0.8685   0.02179   0.01528   0.0058  0.0165  1.0000  -5.5300   0.0000   0.0000   0.0000   0.2367
   8.200   0.8772   0.02235   0.01587   0.0060  0.0162  1.0000  -5.6457   0.0000   0.0000   0.0000   0.2364
   8.300   0.8856   0.02314   0.01669   0.0063  0.0160  1.0000  -5.7439   0.0000   0.0000   0.0000   0.2361
   8.400   0.8936   0.02421   0.01781   0.0066  0.0158  1.0000  -5.8209   0.0000   0.0000   0.0000   0.2357
   8.500   0.9015   0.02515   0.01886   0.0070  0.0157  1.0000  -5.8908   0.0000   0.0000   0.0000   0.2353
   8.600   0.9095   0.02587   0.01973   0.0074  0.0157  1.0000  -5.9649   0.0000   0.0000   0.0000   0.2348
   8.700   0.9172   0.02670   0.02071   0.0078  0.0156  1.0000  -6.0315   0.0000   0.0000   0.0000   0.2344
   8.800   0.9244   0.02762   0.02179   0.0082  0.0155  1.0000  -6.0903   0.0000   0.0000   0.0000   0.2339
   8.900   0.9312   0.02865   0.02298   0.0087  0.0155  1.0000  -6.1414   0.0000   0.0000   0.0000   0.2333
   9.000   0.9374   0.02977   0.02426   0.0092  0.0155  1.0000  -6.1851   0.0000   0.0000   0.0000   0.2328
   9.100   0.9432   0.03099   0.02563   0.0097  0.0155  1.0000  -6.2221   0.0000   0.0000   0.0000   0.2322
   9.200   0.9483   0.03230   0.02710   0.0102  0.0155  1.0000  -6.2538   0.0000   0.0000   0.0000   0.2317
   9.300   0.9530   0.03371   0.02865   0.0106  0.0156  1.0000  -6.2821   0.0000   0.0000   0.0000   0.2312
   9.400   0.9574   0.03526   0.03031   0.0111  0.0157  1.0000  -6.3091   0.0000   0.0000   0.0000   0.2307
  20.100   0.9146   0.26545   0.26286  -0.0983  0.0108  1.0000  -2.0337   0.0000   0.0000   0.0000   0.3403
  20.200   0.9178   0.26671   0.26413  -0.0990  0.0107  1.0000  -2.0576   0.0000   0.0000   0.0000   0.3405
  20.300   0.9209   0.26795   0.26537  -0.0997  0.0106  1.0000  -2.0881   0.0000   0.0000   0.0000   0.3407
  20.400   0.9241   0.26917   0.26660  -0.1002  0.0106  1.0000  -2.1275   0.0000   0.0000   0.0000   0.3407
  20.500   0.9274   0.27043   0.26786  -0.1006  0.0105  1.0000  -2.1800   0.0000   0.0000   0.0000   0.3405
  20.600   0.9310   0.27189   0.26934  -0.1006  0.0104  1.0000  -2.2543   0.0000   0.0000   0.0000   0.3399
  20.700   0.9341   0.27355   0.27099  -0.1015  0.0104  1.0000  -2.2385   0.0000   0.0000   0.0000   0.3404
  20.800   0.9368   0.27517   0.27261  -0.1030  0.0104  1.0000  -2.1761   0.0000   0.0000   0.0000   0.3415
  20.900   0.9398   0.27680   0.27423  -0.1044  0.0104  1.0000  -2.1141   0.0000   0.0000   0.0000   0.3426
  21.000   0.9429   0.27848   0.27591  -0.1058  0.0103  1.0000  -2.0524   0.0000   0.0000   0.0000   0.3436
  21.100   0.9462   0.28020   0.27763  -0.1071  0.0103  1.0000  -1.9938   0.0000   0.0000   0.0000   0.3445
  21.200   0.9497   0.28194   0.27936  -0.1084  0.0102  1.0000  -1.9600   0.0000   0.0000   0.0000   0.3452
  21.300   0.9533   0.28353   0.28095  -0.1095  0.0101  1.0000  -1.9412   0.0000   0.0000   0.0000   0.3458
  21.400   0.9567   0.28509   0.28251  -0.1105  0.0099  1.0000  -1.9342   0.0000   0.0000   0.0000   0.3463
  21.500   0.9601   0.28655   0.28398  -0.1114  0.0097  1.0000  -1.9342   0.0000   0.0000   0.0000   0.3468
  21.600   0.9634   0.28806   0.28549  -0.1124  0.0096  1.0000  -1.9380   0.0000   0.0000   0.0000   0.3472
  21.700   0.9667   0.28951   0.28694  -0.1133  0.0094  1.0000  -1.9443   0.0000   0.0000   0.0000   0.3476
  21.800   0.9699   0.29092   0.28836  -0.1142  0.0093  1.0000  -1.9526   0.0000   0.0000   0.0000   0.3480
  21.900   0.9732   0.29231   0.28975  -0.1151  0.0091  1.0000  -1.9626   0.0000   0.0000   0.0000   0.3484
  22.000   0.9765   0.29368   0.29112  -0.1161  0.0090  1.0000  -1.9742   0.0000   0.0000   0.0000   0.3487
  22.100   0.9797   0.29503   0.29247  -0.1170  0.0089  1.0000  -1.9872   0.0000   0.0000   0.0000   0.3491
  22.200   0.9830   0.29637   0.29381  -0.1179  0.0088  1.0000  -2.0014   0.0000   0.0000   0.0000   0.3495
  22.300   0.9862   0.29767   0.29512  -0.1188  0.0087  1.0000  -2.0166   0.0000   0.0000   0.0000   0.3498
  22.400   0.9894   0.29894   0.29639  -0.1197  0.0086  1.0000  -2.0337   0.0000   0.0000   0.0000   0.3502
  22.500   0.9926   0.30019   0.29764  -0.1206  0.0085  1.0000  -2.0530   0.0000   0.0000   0.0000   0.3505
  22.600   0.9958   0.30151   0.29897  -0.1215  0.0085  1.0000  -2.0749   0.0000   0.0000   0.0000   0.3508
  22.700   0.9989   0.30274   0.30020  -0.1223  0.0084  1.0000  -2.1001   0.0000   0.0000   0.0000   0.3510
  22.800   1.0019   0.30396   0.30142  -0.1231  0.0083  1.0000  -2.1295   0.0000   0.0000   0.0000   0.3513
  22.900   1.0049   0.30520   0.30266  -0.1239  0.0083  1.0000  -2.1643   0.0000   0.0000   0.0000   0.3515
  23.000   1.0079   0.30643   0.30390  -0.1245  0.0082  1.0000  -2.2064   0.0000   0.0000   0.0000   0.3515
  23.100   1.0109   0.30774   0.30522  -0.1250  0.0082  1.0000  -2.2587   0.0000   0.0000   0.0000   0.3514
  23.200   1.0140   0.30933   0.30681  -0.1252  0.0082  1.0000  -2.3261   0.0000   0.0000   0.0000   0.3510


