xflr5 v6.61

 Calculated polar for: MH 50

 1 1 Reynolds number fixed          Mach number fixed         

 xtrf =   1.000 (top)        1.000 (bottom)
 Mach =   0.000     Re =     0.160 e 6     Ncrit =   9.000

  alpha     CL        CD       CDp       Cm    Top Xtr Bot Xtr   Cpmin    Chinge    XCp    
 ------- -------- --------- --------- -------- ------- ------- -------- --------- ---------
  -7.100  -0.6978   0.03715   0.03083  -0.0175  1.0000  0.0468  -3.7096   0.0000   0.0000   0.0000   0.2203
  -7.000  -0.6888   0.03583   0.02956  -0.0173  1.0000  0.0460  -3.6519   0.0000   0.0000   0.0000   0.2202
  -6.900  -0.6814   0.03437   0.02803  -0.0170  1.0000  0.0452  -3.6244   0.0000   0.0000   0.0000   0.2204
  -6.800  -0.6786   0.03114   0.02390  -0.0154  1.0000  0.0417  -3.8385   0.0000   0.0000   0.0000   0.2227
  -6.700  -0.6701   0.02987   0.02253  -0.0150  1.0000  0.0415  -3.8026   0.0000   0.0000   0.0000   0.2230
  -6.600  -0.6618   0.02866   0.02116  -0.0146  1.0000  0.0414  -3.7719   0.0000   0.0000   0.0000   0.2234
  -6.500  -0.6533   0.02752   0.01984  -0.0141  1.0000  0.0414  -3.7427   0.0000   0.0000   0.0000   0.2238
  -6.400  -0.6449   0.02657   0.01862  -0.0135  1.0000  0.0417  -3.7178   0.0000   0.0000   0.0000   0.2245
  -6.300  -0.6356   0.02570   0.01787  -0.0135  1.0000  0.0426  -3.6217   0.0000   0.0000   0.0000   0.2243
  -6.200  -0.6263   0.02511   0.01728  -0.0133  1.0000  0.0436  -3.5371   0.0000   0.0000   0.0000   0.2244
  -6.100  -0.6171   0.02437   0.01642  -0.0129  1.0000  0.0444  -3.4792   0.0000   0.0000   0.0000   0.2247
  -6.000  -0.6078   0.02356   0.01546  -0.0125  1.0000  0.0450  -3.4307   0.0000   0.0000   0.0000   0.2252
  -5.900  -0.5983   0.02276   0.01450  -0.0120  1.0000  0.0454  -3.3918   0.0000   0.0000   0.0000   0.2256
  -5.800  -0.5887   0.02201   0.01360  -0.0116  1.0000  0.0459  -3.3588   0.0000   0.0000   0.0000   0.2261
  -5.600  -0.5696   0.02059   0.01203  -0.0108  1.0000  0.0473  -3.2659   0.0000   0.0000   0.0000   0.2269
  -5.500  -0.5602   0.02008   0.01156  -0.0105  1.0000  0.0486  -3.1937   0.0000   0.0000   0.0000   0.2272
  -5.400  -0.5509   0.01964   0.01108  -0.0102  1.0000  0.0503  -3.1307   0.0000   0.0000   0.0000   0.2276
  -5.300  -0.5415   0.01918   0.01048  -0.0097  1.0000  0.0519  -3.0808   0.0000   0.0000   0.0000   0.2282
  -5.200  -0.5326   0.01862   0.01002  -0.0093  1.0000  0.0534  -3.0091   0.0000   0.0000   0.0000   0.2286
  -5.100  -0.5236   0.01817   0.00956  -0.0089  1.0000  0.0550  -2.9473   0.0000   0.0000   0.0000   0.2292
  -5.000  -0.5146   0.01773   0.00905  -0.0084  1.0000  0.0568  -2.8944   0.0000   0.0000   0.0000   0.2300
  -4.900  -0.5062   0.01722   0.00861  -0.0079  1.0000  0.0586  -2.8307   0.0000   0.0000   0.0000   0.2307
  -4.800  -0.4977   0.01687   0.00825  -0.0074  1.0000  0.0613  -2.7640   0.0000   0.0000   0.0000   0.2315
  -4.700  -0.4895   0.01647   0.00787  -0.0069  1.0000  0.0642  -2.7004   0.0000   0.0000   0.0000   0.2324
  -4.600  -0.4812   0.01613   0.00754  -0.0063  1.0000  0.0677  -2.6359   0.0000   0.0000   0.0000   0.2334
  -4.500  -0.4733   0.01572   0.00718  -0.0058  1.0000  0.0710  -2.5737   0.0000   0.0000   0.0000   0.2344
  -4.400  -0.4651   0.01535   0.00681  -0.0052  1.0000  0.0756  -2.5253   0.0000   0.0000   0.0000   0.2355
  -4.300  -0.4570   0.01501   0.00650  -0.0046  1.0000  0.0816  -2.4720   0.0000   0.0000   0.0000   0.2365
  -4.200  -0.4492   0.01463   0.00619  -0.0041  1.0000  0.0889  -2.4185   0.0000   0.0000   0.0000   0.2376
  -4.100  -0.4413   0.01424   0.00588  -0.0035  1.0000  0.0987  -2.3662   0.0000   0.0000   0.0000   0.2388
  -4.000  -0.4335   0.01382   0.00557  -0.0030  1.0000  0.1134  -2.3147   0.0000   0.0000   0.0000   0.2399
  -3.900  -0.4258   0.01335   0.00526  -0.0025  1.0000  0.1357  -2.2625   0.0000   0.0000   0.0000   0.2410
  -3.800  -0.4181   0.01288   0.00497  -0.0020  1.0000  0.1678  -2.2063   0.0000   0.0000   0.0000   0.2421
  -3.700  -0.4105   0.01242   0.00475  -0.0016  1.0000  0.2077  -2.1453   0.0000   0.0000   0.0000   0.2431
  -3.600  -0.4027   0.01200   0.00457  -0.0012  1.0000  0.2550  -2.0810   0.0000   0.0000   0.0000   0.2441
  -3.500  -0.3949   0.01161   0.00443  -0.0008  1.0000  0.3065  -2.0152   0.0000   0.0000   0.0000   0.2451
  -3.400  -0.3872   0.01124   0.00431  -0.0003  1.0000  0.3606  -1.9485   0.0000   0.0000   0.0000   0.2463
  -3.300  -0.3794   0.01090   0.00421   0.0002  1.0000  0.4158  -1.8815   0.0000   0.0000   0.0000   0.2476
  -3.200  -0.3717   0.01057   0.00414   0.0007  1.0000  0.4707  -1.8147   0.0000   0.0000   0.0000   0.2492
  -3.100  -0.3639   0.01027   0.00407   0.0014  1.0000  0.5260  -1.7546   0.0000   0.0000   0.0000   0.2511
  -3.000  -0.3563   0.00998   0.00403   0.0021  1.0000  0.5803  -1.6948   0.0000   0.0000   0.0000   0.2533
  -2.900  -0.3487   0.00973   0.00399   0.0030  1.0000  0.6340  -1.6352   0.0000   0.0000   0.0000   0.2560
  -2.800  -0.3412   0.00951   0.00400   0.0040  1.0000  0.6857  -1.5761   0.0000   0.0000   0.0000   0.2592
  -2.700  -0.3338   0.00936   0.00404   0.0052  1.0000  0.7352  -1.5174   0.0000   0.0000   0.0000   0.2631
  -2.600  -0.3263   0.00929   0.00413   0.0065  1.0000  0.7809  -1.4588   0.0000   0.0000   0.0000   0.2675
  -2.500  -0.3184   0.00931   0.00425   0.0078  1.0000  0.8214  -1.3990   0.0000   0.0000   0.0000   0.2722
  -2.400  -0.3096   0.00938   0.00436   0.0089  1.0000  0.8564  -1.3374   0.0000   0.0000   0.0000   0.2765
  -2.300  -0.3003   0.00947   0.00445   0.0098  1.0000  0.8848  -1.2753   0.0000   0.0000   0.0000   0.2804
  -2.200  -0.2904   0.00955   0.00451   0.0105  1.0000  0.9084  -1.2133   0.0000   0.0000   0.0000   0.2839
  -2.100  -0.2780   0.00963   0.00454   0.0107  1.0000  0.9285  -1.1507   0.0000   0.0000   0.0000   0.2861
  -2.000  -0.2617   0.00971   0.00457   0.0100  1.0000  0.9456  -1.0785   0.0000   0.0000   0.0000   0.2860
  -1.900  -0.2398   0.00979   0.00458   0.0082  1.0000  0.9595  -0.9930   0.0000   0.0000   0.0000   0.2818
  -1.800  -0.2126   0.00986   0.00458   0.0052  1.0000  0.9704  -0.8957   0.0000   0.0000   0.0000   0.2720
  -1.700  -0.1805   0.00991   0.00454   0.0012  1.0000  0.9782  -0.7967   0.0000   0.0000   0.0000   0.2540
  -1.600  -0.1467   0.00991   0.00446  -0.0032  1.0000  0.9842  -0.6986   0.0000   0.0000   0.0000   0.2253
  -1.500  -0.1147   0.00988   0.00436  -0.0073  1.0000  0.9899  -0.6132   0.0000   0.0000   0.0000   0.1829
  -1.400  -0.0838   0.00982   0.00424  -0.0113  1.0000  0.9953  -0.5369   0.0000   0.0000   0.0000   0.1114
  -1.300  -0.0543   0.00973   0.00410  -0.0151  1.0000  1.0000  -0.4730   0.0000   0.0000   0.0000  -0.0322
  -1.200  -0.0527   0.00971   0.00406  -0.0136  1.0000  1.0000  -0.4579   0.0000   0.0000   0.0000  -0.0132
  -1.100  -0.0513   0.00969   0.00402  -0.0121  1.0000  1.0000  -0.4445   0.0000   0.0000   0.0000   0.0088
  -1.000  -0.0499   0.00969   0.00399  -0.0106  1.0000  1.0000  -0.4321   0.0000   0.0000   0.0000   0.0324
  -0.900  -0.0483   0.00968   0.00397  -0.0091  1.0000  1.0000  -0.4201   0.0000   0.0000   0.0000   0.0573
  -0.800  -0.0466   0.00968   0.00395  -0.0076  1.0000  1.0000  -0.4086   0.0000   0.0000   0.0000   0.0826
  -0.700  -0.0446   0.00968   0.00393  -0.0062  1.0000  1.0000  -0.3970   0.0000   0.0000   0.0000   0.1082
  -0.600  -0.0423   0.00969   0.00392  -0.0048  1.0000  1.0000  -0.3857   0.0000   0.0000   0.0000   0.1343
  -0.500  -0.0397   0.00970   0.00392  -0.0034  1.0000  1.0000  -0.3742   0.0000   0.0000   0.0000   0.1613
  -0.400  -0.0367   0.00971   0.00392  -0.0021  1.0000  1.0000  -0.3630   0.0000   0.0000   0.0000   0.1900
  -0.300  -0.0334   0.00973   0.00392  -0.0009  1.0000  1.0000  -0.3515   0.0000   0.0000   0.0000   0.2214
  -0.200  -0.0298   0.00975   0.00392   0.0003  1.0000  1.0000  -0.3404   0.0000   0.0000   0.0000   0.2580
  -0.100  -0.0259   0.00978   0.00394   0.0014  1.0000  1.0000  -0.3290   0.0000   0.0000   0.0000   0.3030
   0.000  -0.0214   0.00981   0.00395   0.0024  1.0000  1.0000  -0.3178   0.0000   0.0000   0.0000   0.3621
   0.100  -0.0164   0.00984   0.00398   0.0033  1.0000  1.0000  -0.3062   0.0000   0.0000   0.0000   0.4521
   0.200  -0.0074   0.00990   0.00402   0.0034  0.9993  1.0000  -0.3127   0.0000   0.0000   0.0000   0.7189
   0.300   0.0155   0.00998   0.00409   0.0009  0.9959  1.0000  -0.3347   0.0000   0.0000   0.0000   0.1893
   0.400   0.0388   0.01005   0.00417  -0.0017  0.9923  1.0000  -0.3574   0.0000   0.0000   0.0000   0.2915
   0.500   0.0629   0.01011   0.00423  -0.0044  0.9887  1.0000  -0.3816   0.0000   0.0000   0.0000   0.3183
   0.600   0.0875   0.01015   0.00429  -0.0072  0.9848  1.0000  -0.4067   0.0000   0.0000   0.0000   0.3305
   0.700   0.1127   0.01018   0.00433  -0.0101  0.9807  1.0000  -0.4333   0.0000   0.0000   0.0000   0.3376
   0.800   0.1387   0.01019   0.00436  -0.0131  0.9765  1.0000  -0.4613   0.0000   0.0000   0.0000   0.3426
   0.900   0.1657   0.01017   0.00437  -0.0162  0.9725  1.0000  -0.4910   0.0000   0.0000   0.0000   0.3463
   1.000   0.1923   0.01014   0.00438  -0.0193  0.9682  1.0000  -0.5216   0.0000   0.0000   0.0000   0.3486
   1.100   0.2163   0.01010   0.00437  -0.0218  0.9630  1.0000  -0.5507   0.0000   0.0000   0.0000   0.3489
   1.200   0.2384   0.01005   0.00435  -0.0238  0.9572  1.0000  -0.5796   0.0000   0.0000   0.0000   0.3482
   1.300   0.2583   0.01001   0.00434  -0.0254  0.9507  1.0000  -0.6072   0.0000   0.0000   0.0000   0.3465
   1.400   0.2759   0.00996   0.00432  -0.0265  0.9438  1.0000  -0.6337   0.0000   0.0000   0.0000   0.3441
   1.500   0.2892   0.00993   0.00432  -0.0266  0.9352  1.0000  -0.6571   0.0000   0.0000   0.0000   0.3402
   1.600   0.3012   0.00991   0.00432  -0.0265  0.9266  1.0000  -0.6801   0.0000   0.0000   0.0000   0.3361
   1.700   0.3118   0.00988   0.00431  -0.0260  0.9180  1.0000  -0.7025   0.0000   0.0000   0.0000   0.3315
   1.800   0.3206   0.00986   0.00430  -0.0252  0.9085  1.0000  -0.7241   0.0000   0.0000   0.0000   0.3266
   1.900   0.3286   0.00983   0.00430  -0.0242  0.8987  1.0000  -0.7462   0.0000   0.0000   0.0000   0.3217
   2.000   0.3364   0.00980   0.00428  -0.0232  0.8889  1.0000  -0.7786   0.0000   0.0000   0.0000   0.3168
   2.100   0.3440   0.00977   0.00425  -0.0221  0.8791  1.0000  -0.8197   0.0000   0.0000   0.0000   0.3120
   2.200   0.3514   0.00974   0.00423  -0.0210  0.8679  1.0000  -0.8627   0.0000   0.0000   0.0000   0.3075
   2.300   0.3589   0.00970   0.00421  -0.0199  0.8562  1.0000  -0.9065   0.0000   0.0000   0.0000   0.3032
   2.400   0.3665   0.00965   0.00418  -0.0188  0.8444  1.0000  -0.9540   0.0000   0.0000   0.0000   0.2991
   2.500   0.3742   0.00961   0.00415  -0.0178  0.8303  1.0000  -1.0042   0.0000   0.0000   0.0000   0.2953
   2.600   0.3821   0.00956   0.00410  -0.0168  0.8159  1.0000  -1.0555   0.0000   0.0000   0.0000   0.2916
   2.700   0.3900   0.00952   0.00406  -0.0159  0.7987  1.0000  -1.1075   0.0000   0.0000   0.0000   0.2882
   2.800   0.3980   0.00948   0.00401  -0.0149  0.7797  1.0000  -1.1604   0.0000   0.0000   0.0000   0.2849
   2.900   0.4060   0.00945   0.00395  -0.0139  0.7583  1.0000  -1.2142   0.0000   0.0000   0.0000   0.2816
   3.000   0.4141   0.00944   0.00387  -0.0128  0.7343  1.0000  -1.2729   0.0000   0.0000   0.0000   0.2783
   3.100   0.4222   0.00948   0.00382  -0.0118  0.7073  1.0000  -1.3345   0.0000   0.0000   0.0000   0.2753
   3.200   0.4304   0.00956   0.00379  -0.0109  0.6783  1.0000  -1.3968   0.0000   0.0000   0.0000   0.2726
   3.300   0.4387   0.00968   0.00379  -0.0100  0.6475  1.0000  -1.4601   0.0000   0.0000   0.0000   0.2701
   3.400   0.4470   0.00984   0.00382  -0.0093  0.6153  1.0000  -1.5241   0.0000   0.0000   0.0000   0.2679
   3.500   0.4554   0.01003   0.00387  -0.0086  0.5822  1.0000  -1.5886   0.0000   0.0000   0.0000   0.2659
   3.600   0.4637   0.01024   0.00393  -0.0079  0.5485  1.0000  -1.6535   0.0000   0.0000   0.0000   0.2641
   3.700   0.4720   0.01048   0.00401  -0.0073  0.5144  1.0000  -1.7188   0.0000   0.0000   0.0000   0.2624
   3.800   0.4803   0.01072   0.00411  -0.0067  0.4798  1.0000  -1.7845   0.0000   0.0000   0.0000   0.2609
   3.900   0.4885   0.01098   0.00421  -0.0062  0.4455  1.0000  -1.8505   0.0000   0.0000   0.0000   0.2595
   4.000   0.4968   0.01125   0.00435  -0.0057  0.4123  1.0000  -1.9169   0.0000   0.0000   0.0000   0.2582
   4.100   0.5051   0.01153   0.00448  -0.0052  0.3810  1.0000  -1.9883   0.0000   0.0000   0.0000   0.2570
   4.200   0.5134   0.01181   0.00462  -0.0047  0.3517  1.0000  -2.0637   0.0000   0.0000   0.0000   0.2559
   4.300   0.5218   0.01210   0.00477  -0.0043  0.3256  1.0000  -2.1398   0.0000   0.0000   0.0000   0.2548
   4.400   0.5303   0.01236   0.00492  -0.0039  0.3016  1.0000  -2.2173   0.0000   0.0000   0.0000   0.2539
   4.500   0.5389   0.01263   0.00508  -0.0035  0.2802  1.0000  -2.2957   0.0000   0.0000   0.0000   0.2530
   4.600   0.5476   0.01288   0.00524  -0.0032  0.2607  1.0000  -2.3752   0.0000   0.0000   0.0000   0.2522
   4.700   0.5565   0.01311   0.00540  -0.0028  0.2426  1.0000  -2.4558   0.0000   0.0000   0.0000   0.2514
   4.800   0.5653   0.01335   0.00557  -0.0025  0.2261  1.0000  -2.5370   0.0000   0.0000   0.0000   0.2507
   4.900   0.5742   0.01359   0.00576  -0.0022  0.2105  1.0000  -2.6186   0.0000   0.0000   0.0000   0.2500
   5.000   0.5832   0.01381   0.00594  -0.0019  0.1947  1.0000  -2.7009   0.0000   0.0000   0.0000   0.2493
   5.100   0.5922   0.01406   0.00613  -0.0016  0.1790  1.0000  -2.7825   0.0000   0.0000   0.0000   0.2487
   5.200   0.6011   0.01431   0.00632  -0.0013  0.1619  1.0000  -2.8629   0.0000   0.0000   0.0000   0.2481
   5.300   0.6099   0.01461   0.00654  -0.0010  0.1413  1.0000  -2.9398   0.0000   0.0000   0.0000   0.2474
   5.400   0.6182   0.01502   0.00683  -0.0006  0.1165  1.0000  -3.0065   0.0000   0.0000   0.0000   0.2467
   5.500   0.6260   0.01558   0.00719  -0.0001  0.0934  1.0000  -3.0601   0.0000   0.0000   0.0000   0.2459
   5.600   0.6341   0.01611   0.00763   0.0004  0.0785  1.0000  -3.1077   0.0000   0.0000   0.0000   0.2450
   5.700   0.6424   0.01659   0.00805   0.0008  0.0698  1.0000  -3.1601   0.0000   0.0000   0.0000   0.2442
   5.800   0.6508   0.01705   0.00846   0.0013  0.0637  1.0000  -3.2227   0.0000   0.0000   0.0000   0.2435
   5.900   0.6594   0.01749   0.00888   0.0017  0.0590  1.0000  -3.2930   0.0000   0.0000   0.0000   0.2428
   6.000   0.6678   0.01799   0.00935   0.0021  0.0557  1.0000  -3.3605   0.0000   0.0000   0.0000   0.2421
   6.100   0.6764   0.01846   0.00980   0.0026  0.0531  1.0000  -3.4305   0.0000   0.0000   0.0000   0.2414
   6.200   0.6850   0.01900   0.01032   0.0030  0.0509  1.0000  -3.4970   0.0000   0.0000   0.0000   0.2408
   6.300   0.6941   0.01945   0.01079   0.0034  0.0486  1.0000  -3.5687   0.0000   0.0000   0.0000   0.2402
   6.400   0.7026   0.02002   0.01128   0.0037  0.0467  1.0000  -3.6464   0.0000   0.0000   0.0000   0.2397
   6.500   0.7121   0.02046   0.01181   0.0041  0.0447  1.0000  -3.7138   0.0000   0.0000   0.0000   0.2391
   6.600   0.7212   0.02097   0.01231   0.0044  0.0433  1.0000  -3.7906   0.0000   0.0000   0.0000   0.2387
   6.700   0.7301   0.02170   0.01295   0.0047  0.0423  1.0000  -3.8637   0.0000   0.0000   0.0000   0.2383
   6.800   0.7398   0.02229   0.01367   0.0052  0.0414  1.0000  -3.9155   0.0000   0.0000   0.0000   0.2377
   6.900   0.7494   0.02296   0.01442   0.0055  0.0406  1.0000  -3.9700   0.0000   0.0000   0.0000   0.2372
   7.000   0.7590   0.02365   0.01518   0.0059  0.0399  1.0000  -4.0271   0.0000   0.0000   0.0000   0.2367
   7.100   0.7686   0.02434   0.01591   0.0062  0.0392  1.0000  -4.0893   0.0000   0.0000   0.0000   0.2363
   7.200   0.7781   0.02503   0.01658   0.0064  0.0384  1.0000  -4.1642   0.0000   0.0000   0.0000   0.2361
   7.300   0.7874   0.02594   0.01748   0.0067  0.0376  1.0000  -4.2309   0.0000   0.0000   0.0000   0.2358
   7.400   0.7961   0.02666   0.01846   0.0072  0.0369  1.0000  -4.2645   0.0000   0.0000   0.0000   0.2352
   7.500   0.8047   0.02746   0.01945   0.0076  0.0361  1.0000  -4.3054   0.0000   0.0000   0.0000   0.2346
   7.600   0.8133   0.02832   0.02047   0.0081  0.0356  1.0000  -4.3483   0.0000   0.0000   0.0000   0.2341
   7.700   0.8216   0.02934   0.02165   0.0085  0.0354  1.0000  -4.3791   0.0000   0.0000   0.0000   0.2336
   7.800   0.8296   0.03046   0.02296   0.0090  0.0353  1.0000  -4.4037   0.0000   0.0000   0.0000   0.2331
   7.900   0.8370   0.03171   0.02441   0.0095  0.0353  1.0000  -4.4341   0.0000   0.0000   0.0000   0.2325
   8.000   0.8438   0.03310   0.02602   0.0101  0.0355  1.0000  -4.4531   0.0000   0.0000   0.0000   0.2318
   8.100   0.8498   0.03465   0.02781   0.0107  0.0359  1.0000  -4.4589   0.0000   0.0000   0.0000   0.2311
   8.200   0.8552   0.03628   0.02967   0.0113  0.0363  1.0000  -4.4616   0.0000   0.0000   0.0000   0.2304
   8.300   0.8604   0.03790   0.03148   0.0118  0.0367  1.0000  -4.4705   0.0000   0.0000   0.0000   0.2299
   8.400   0.8659   0.03947   0.03319   0.0123  0.0371  1.0000  -4.4912   0.0000   0.0000   0.0000   0.2294
   8.500   0.8721   0.04099   0.03477   0.0126  0.0375  1.0000  -4.5286   0.0000   0.0000   0.0000   0.2290
   8.600   0.8800   0.04248   0.03625   0.0128  0.0378  1.0000  -4.5869   0.0000   0.0000   0.0000   0.2289
   8.800   0.8725   0.05100   0.04571   0.0148  0.0471  1.0000  -4.1764   0.0000   0.0000   0.0000   0.2266
  16.200   0.7927   0.20851   0.20441  -0.0629  0.0387  1.0000  -1.8905   0.0000   0.0000   0.0000   0.3175
  16.300   0.7969   0.20984   0.20574  -0.0629  0.0382  1.0000  -1.9398   0.0000   0.0000   0.0000   0.3169
  16.400   0.8046   0.21190   0.20782  -0.0614  0.0378  1.0000  -2.0554   0.0000   0.0000   0.0000   0.3141
  16.500   0.8033   0.21323   0.20913  -0.0638  0.0376  1.0000  -1.9721   0.0000   0.0000   0.0000   0.3171
  16.600   0.8035   0.21478   0.21067  -0.0659  0.0373  1.0000  -1.9011   0.0000   0.0000   0.0000   0.3196
  16.700   0.8054   0.21635   0.21224  -0.0672  0.0367  1.0000  -1.8677   0.0000   0.0000   0.0000   0.3210
  16.800   0.8081   0.21788   0.21376  -0.0682  0.0360  1.0000  -1.8598   0.0000   0.0000   0.0000   0.3218
  16.900   0.8109   0.21937   0.21526  -0.0690  0.0355  1.0000  -1.8614   0.0000   0.0000   0.0000   0.3224
  17.000   0.8140   0.22079   0.21668  -0.0697  0.0350  1.0000  -1.8692   0.0000   0.0000   0.0000   0.3228
  17.100   0.8172   0.22220   0.21809  -0.0703  0.0345  1.0000  -1.8838   0.0000   0.0000   0.0000   0.3231
  17.200   0.8206   0.22357   0.21946  -0.0707  0.0341  1.0000  -1.9077   0.0000   0.0000   0.0000   0.3231
  17.300   0.8245   0.22500   0.22090  -0.0709  0.0338  1.0000  -1.9467   0.0000   0.0000   0.0000   0.3227
  17.400   0.8298   0.22685   0.22276  -0.0703  0.0336  1.0000  -2.0194   0.0000   0.0000   0.0000   0.3213
  17.500   0.8320   0.22849   0.22439  -0.0714  0.0335  1.0000  -1.9992   0.0000   0.0000   0.0000   0.3223
  17.600   0.8328   0.22980   0.22569  -0.0733  0.0333  1.0000  -1.9373   0.0000   0.0000   0.0000   0.3245
  17.700   0.8346   0.23132   0.22721  -0.0750  0.0330  1.0000  -1.8909   0.0000   0.0000   0.0000   0.3261
  17.800   0.8372   0.23282   0.22870  -0.0762  0.0325  1.0000  -1.8681   0.0000   0.0000   0.0000   0.3272
  17.900   0.8401   0.23431   0.23020  -0.0772  0.0321  1.0000  -1.8609   0.0000   0.0000   0.0000   0.3279
  18.000   0.8431   0.23579   0.23168  -0.0780  0.0316  1.0000  -1.8612   0.0000   0.0000   0.0000   0.3285
  18.100   0.8463   0.23722   0.23311  -0.0788  0.0312  1.0000  -1.8663   0.0000   0.0000   0.0000   0.3290
  18.200   0.8494   0.23861   0.23450  -0.0796  0.0308  1.0000  -1.8761   0.0000   0.0000   0.0000   0.3294
  18.300   0.8527   0.24000   0.23590  -0.0802  0.0304  1.0000  -1.8913   0.0000   0.0000   0.0000   0.3296
  18.400   0.8561   0.24136   0.23726  -0.0808  0.0301  1.0000  -1.9138   0.0000   0.0000   0.0000   0.3298
  18.500   0.8597   0.24278   0.23868  -0.0811  0.0298  1.0000  -1.9478   0.0000   0.0000   0.0000   0.3296
  18.600   0.8639   0.24444   0.24036  -0.0810  0.0296  1.0000  -2.0036   0.0000   0.0000   0.0000   0.3289
  18.700   0.8676   0.24635   0.24226  -0.0813  0.0295  1.0000  -2.0282   0.0000   0.0000   0.0000   0.3287
  18.800   0.8692   0.24756   0.24346  -0.0832  0.0294  1.0000  -1.9703   0.0000   0.0000   0.0000   0.3305
  18.900   0.8714   0.24897   0.24487  -0.0848  0.0292  1.0000  -1.9221   0.0000   0.0000   0.0000   0.3321
  19.000   0.8742   0.25042   0.24632  -0.0862  0.0289  1.0000  -1.8892   0.0000   0.0000   0.0000   0.3332
  19.100   0.8773   0.25192   0.24782  -0.0873  0.0285  1.0000  -1.8725   0.0000   0.0000   0.0000   0.3340
  19.200   0.8804   0.25338   0.24928  -0.0882  0.0281  1.0000  -1.8654   0.0000   0.0000   0.0000   0.3346
  19.300   0.8836   0.25485   0.25074  -0.0891  0.0277  1.0000  -1.8633   0.0000   0.0000   0.0000   0.3351
  19.400   0.8869   0.25627   0.25217  -0.0900  0.0274  1.0000  -1.8649   0.0000   0.0000   0.0000   0.3355
  19.500   0.8901   0.25765   0.25355  -0.0908  0.0270  1.0000  -1.8698   0.0000   0.0000   0.0000   0.3359
  19.600   0.8934   0.25900   0.25491  -0.0916  0.0267  1.0000  -1.8787   0.0000   0.0000   0.0000   0.3363
  19.700   0.8968   0.26038   0.25629  -0.0923  0.0264  1.0000  -1.8935   0.0000   0.0000   0.0000   0.3365
  19.800   0.9001   0.26173   0.25765  -0.0928  0.0261  1.0000  -1.9179   0.0000   0.0000   0.0000   0.3365
  19.900   0.9037   0.26322   0.25915  -0.0930  0.0259  1.0000  -1.9594   0.0000   0.0000   0.0000   0.3362
  20.300   0.9158   0.26922   0.26513  -0.0977  0.0251  1.0000  -1.8649   0.0000   0.0000   0.0000   0.3395
  20.400   0.9191   0.27064   0.26655  -0.0988  0.0246  1.0000  -1.8485   0.0000   0.0000   0.0000   0.3401
  20.500   0.9224   0.27204   0.26796  -0.0998  0.0242  1.0000  -1.8424   0.0000   0.0000   0.0000   0.3406
  20.600   0.9256   0.27347   0.26939  -0.1007  0.0238  1.0000  -1.8417   0.0000   0.0000   0.0000   0.3410
  20.700   0.9289   0.27485   0.27077  -0.1015  0.0234  1.0000  -1.8445   0.0000   0.0000   0.0000   0.3414
  20.800   0.9322   0.27620   0.27213  -0.1024  0.0231  1.0000  -1.8504   0.0000   0.0000   0.0000   0.3418
  20.900   0.9355   0.27755   0.27348  -0.1031  0.0229  1.0000  -1.8597   0.0000   0.0000   0.0000   0.3421
  21.000   0.9388   0.27888   0.27481  -0.1039  0.0227  1.0000  -1.8741   0.0000   0.0000   0.0000   0.3423
  21.100   0.9421   0.28025   0.27620  -0.1045  0.0225  1.0000  -1.8959   0.0000   0.0000   0.0000   0.3424
  21.200   0.9455   0.28174   0.27769  -0.1049  0.0223  1.0000  -1.9293   0.0000   0.0000   0.0000   0.3422
  21.300   0.9492   0.28365   0.27962  -0.1048  0.0221  1.0000  -1.9830   0.0000   0.0000   0.0000   0.3415
  21.400   0.9521   0.28505   0.28100  -0.1061  0.0221  1.0000  -1.9549   0.0000   0.0000   0.0000   0.3424
  21.500   0.9550   0.28626   0.28221  -0.1077  0.0220  1.0000  -1.9072   0.0000   0.0000   0.0000   0.3436
  21.600   0.9581   0.28761   0.28356  -0.1091  0.0219  1.0000  -1.8731   0.0000   0.0000   0.0000   0.3445
  21.700   0.9615   0.28899   0.28493  -0.1104  0.0217  1.0000  -1.8549   0.0000   0.0000   0.0000   0.3453
  21.800   0.9648   0.29039   0.28634  -0.1115  0.0215  1.0000  -1.8459   0.0000   0.0000   0.0000   0.3459
  21.900   0.9682   0.29177   0.28772  -0.1126  0.0212  1.0000  -1.8441   0.0000   0.0000   0.0000   0.3465
  22.000   0.9715   0.29323   0.28918  -0.1135  0.0210  1.0000  -1.8465   0.0000   0.0000   0.0000   0.3469
  22.100   0.9748   0.29465   0.29060  -0.1145  0.0207  1.0000  -1.8515   0.0000   0.0000   0.0000   0.3473
  22.200   0.9781   0.29603   0.29198  -0.1154  0.0205  1.0000  -1.8585   0.0000   0.0000   0.0000   0.3477
  22.300   0.9814   0.29738   0.29334  -0.1163  0.0202  1.0000  -1.8673   0.0000   0.0000   0.0000   0.3481
  22.400   0.9847   0.29870   0.29467  -0.1173  0.0200  1.0000  -1.8777   0.0000   0.0000   0.0000   0.3484
  22.500   0.9880   0.30000   0.29597  -0.1181  0.0198  1.0000  -1.8902   0.0000   0.0000   0.0000   0.3488
  22.600   0.9912   0.30127   0.29725  -0.1190  0.0196  1.0000  -1.9050   0.0000   0.0000   0.0000   0.3491
  22.700   0.9944   0.30262   0.29861  -0.1198  0.0194  1.0000  -1.9229   0.0000   0.0000   0.0000   0.3493
  22.800   0.9976   0.30392   0.29991  -0.1206  0.0192  1.0000  -1.9452   0.0000   0.0000   0.0000   0.3495
  22.900   1.0008   0.30530   0.30130  -0.1213  0.0191  1.0000  -1.9737   0.0000   0.0000   0.0000   0.3496
  23.000   1.0039   0.30681   0.30281  -0.1218  0.0189  1.0000  -2.0121   0.0000   0.0000   0.0000   0.3495
  23.700   1.0269   0.31641   0.31241  -0.1296  0.0183  1.0000  -1.9423   0.0000   0.0000   0.0000   0.3532
  23.800   1.0302   0.31779   0.31380  -0.1307  0.0181  1.0000  -1.9377   0.0000   0.0000   0.0000   0.3537
  23.900   1.0335   0.31920   0.31521  -0.1317  0.0179  1.0000  -1.9362   0.0000   0.0000   0.0000   0.3541
  24.000   1.0368   0.32055   0.31656  -0.1327  0.0176  1.0000  -1.9368   0.0000   0.0000   0.0000   0.3544
  24.100   1.0400   0.32188   0.31790  -0.1337  0.0174  1.0000  -1.9391   0.0000   0.0000   0.0000   0.3548
  24.200   1.0432   0.32319   0.31922  -0.1346  0.0172  1.0000  -1.9429   0.0000   0.0000   0.0000   0.3551
  24.300   1.0464   0.32449   0.32052  -0.1356  0.0170  1.0000  -1.9484   0.0000   0.0000   0.0000   0.3555
  24.400   1.0496   0.32573   0.32177  -0.1365  0.0167  1.0000  -1.9560   0.0000   0.0000   0.0000   0.3558
  24.500   1.0528   0.32692   0.32296  -0.1375  0.0165  1.0000  -1.9659   0.0000   0.0000   0.0000   0.3561
  24.600   1.0559   0.32825   0.32429  -0.1384  0.0164  1.0000  -1.9788   0.0000   0.0000   0.0000   0.3563
  24.700   1.0589   0.32950   0.32556  -0.1392  0.0162  1.0000  -1.9958   0.0000   0.0000   0.0000   0.3565
  24.800   1.0619   0.33076   0.32682  -0.1400  0.0160  1.0000  -2.0183   0.0000   0.0000   0.0000   0.3567
  24.900   1.0648   0.33210   0.32817  -0.1407  0.0159  1.0000  -2.0489   0.0000   0.0000   0.0000   0.3567
  25.000   1.0677   0.33373   0.32980  -0.1411  0.0158  1.0000  -2.0915   0.0000   0.0000   0.0000   0.3565
  27.600   1.1495   0.36467   0.36084  -0.1692  0.0127  1.0000  -1.9178   0.0000   0.0000   0.0000   0.3659
  27.700   1.1527   0.36592   0.36209  -0.1703  0.0126  1.0000  -1.9143   0.0000   0.0000   0.0000   0.3662
  27.800   1.1558   0.36710   0.36328  -0.1714  0.0124  1.0000  -1.9133   0.0000   0.0000   0.0000   0.3666
  27.900   1.1588   0.36828   0.36446  -0.1724  0.0123  1.0000  -1.9143   0.0000   0.0000   0.0000   0.3669
  28.000   1.1618   0.36945   0.36564  -0.1735  0.0122  1.0000  -1.9167   0.0000   0.0000   0.0000   0.3672
  28.100   1.1648   0.37060   0.36679  -0.1746  0.0120  1.0000  -1.9201   0.0000   0.0000   0.0000   0.3674
  28.200   1.1678   0.37174   0.36794  -0.1756  0.0119  1.0000  -1.9242   0.0000   0.0000   0.0000   0.3677
  28.300   1.1707   0.37287   0.36908  -0.1767  0.0118  1.0000  -1.9290   0.0000   0.0000   0.0000   0.3680
  28.400   1.1736   0.37399   0.37021  -0.1777  0.0117  1.0000  -1.9343   0.0000   0.0000   0.0000   0.3683
  28.500   1.1765   0.37511   0.37132  -0.1788  0.0116  1.0000  -1.9402   0.0000   0.0000   0.0000   0.3686
  28.600   1.1793   0.37621   0.37243  -0.1799  0.0114  1.0000  -1.9466   0.0000   0.0000   0.0000   0.3688
  28.700   1.1822   0.37730   0.37353  -0.1809  0.0113  1.0000  -1.9535   0.0000   0.0000   0.0000   0.3691
  28.800   1.1850   0.37839   0.37462  -0.1820  0.0112  1.0000  -1.9611   0.0000   0.0000   0.0000   0.3694
  28.900   1.1878   0.37946   0.37570  -0.1830  0.0111  1.0000  -1.9693   0.0000   0.0000   0.0000   0.3696
  29.000   1.1906   0.38053   0.37677  -0.1840  0.0110  1.0000  -1.9784   0.0000   0.0000   0.0000   0.3699
  29.100   1.1933   0.38158   0.37783  -0.1851  0.0109  1.0000  -1.9883   0.0000   0.0000   0.0000   0.3702
  29.200   1.1960   0.38262   0.37888  -0.1861  0.0109  1.0000  -1.9994   0.0000   0.0000   0.0000   0.3704
  29.300   1.1986   0.38365   0.37991  -0.1872  0.0108  1.0000  -2.0120   0.0000   0.0000   0.0000   0.3706
  29.400   1.2012   0.38471   0.38098  -0.1882  0.0107  1.0000  -2.0263   0.0000   0.0000   0.0000   0.3709
  29.500   1.2037   0.38575   0.38203  -0.1891  0.0106  1.0000  -2.0430   0.0000   0.0000   0.0000   0.3711
  29.600   1.2062   0.38683   0.38312  -0.1901  0.0106  1.0000  -2.0631   0.0000   0.0000   0.0000   0.3712
  29.700   1.2085   0.38799   0.38429  -0.1909  0.0105  1.0000  -2.0877   0.0000   0.0000   0.0000   0.3714
  29.800   1.2107   0.38936   0.38567  -0.1917  0.0105  1.0000  -2.1183   0.0000   0.0000   0.0000   0.3714


