xflr5 v6.61

 Calculated polar for: MILEY M06-13-128

 1 1 Reynolds number fixed          Mach number fixed         

 xtrf =   1.000 (top)        1.000 (bottom)
 Mach =   0.000     Re =     1.000 e 6     Ncrit =   9.000

  alpha     CL        CD       CDp       Cm    Top Xtr Bot Xtr   Cpmin    Chinge    XCp    
 ------- -------- --------- --------- -------- ------- ------- -------- --------- ---------
 -10.000  -0.3497   0.12376   0.12097   0.0147  0.5394  0.0079  -1.5354   0.0000   0.0000   0.0000   0.2819
  -9.900  -0.3472   0.12247   0.11969   0.0141  0.5391  0.0080  -1.5394   0.0000   0.0000   0.0000   0.2805
  -9.800  -0.3448   0.12120   0.11842   0.0135  0.5388  0.0081  -1.5435   0.0000   0.0000   0.0000   0.2791
  -9.700  -0.3424   0.11993   0.11715   0.0129  0.5384  0.0081  -1.5478   0.0000   0.0000   0.0000   0.2777
  -9.600  -0.3400   0.11867   0.11589   0.0123  0.5381  0.0082  -1.5522   0.0000   0.0000   0.0000   0.2762
  -9.500  -0.3378   0.11743   0.11465   0.0117  0.5377  0.0083  -1.5568   0.0000   0.0000   0.0000   0.2748
  -9.400  -0.3356   0.11620   0.11342   0.0112  0.5374  0.0083  -1.5617   0.0000   0.0000   0.0000   0.2734
  -9.300  -0.3335   0.11497   0.11220   0.0106  0.5370  0.0084  -1.5666   0.0000   0.0000   0.0000   0.2719
  -9.200  -0.3313   0.11374   0.11097   0.0100  0.5365  0.0085  -1.5716   0.0000   0.0000   0.0000   0.2704
  -9.100  -0.3288   0.11248   0.10971   0.0094  0.5361  0.0085  -1.5765   0.0000   0.0000   0.0000   0.2687
  -9.000  -0.3263   0.11120   0.10844   0.0087  0.5356  0.0086  -1.5814   0.0000   0.0000   0.0000   0.2670
  -8.900  -0.3238   0.10993   0.10717   0.0080  0.5351  0.0087  -1.5864   0.0000   0.0000   0.0000   0.2652
  -8.800  -0.3212   0.10866   0.10590   0.0074  0.5346  0.0088  -1.5915   0.0000   0.0000   0.0000   0.2633
  -8.700  -0.3158   0.10870   0.10612   0.0055  0.5227  0.0089  -1.5927   0.0000   0.0000   0.0000   0.2575
  -8.600  -0.3134   0.10742   0.10484   0.0048  0.5226  0.0090  -1.5982   0.0000   0.0000   0.0000   0.2556
  -8.500  -0.3109   0.10614   0.10356   0.0041  0.5226  0.0091  -1.6039   0.0000   0.0000   0.0000   0.2536
  -8.400  -0.3084   0.10486   0.10229   0.0035  0.5226  0.0092  -1.6097   0.0000   0.0000   0.0000   0.2515
  -8.300  -0.3060   0.10359   0.10103   0.0028  0.5225  0.0093  -1.6157   0.0000   0.0000   0.0000   0.2494
  -8.200  -0.3036   0.10233   0.09977   0.0021  0.5225  0.0094  -1.6220   0.0000   0.0000   0.0000   0.2472
  -8.100  -0.3012   0.10107   0.09851   0.0014  0.5225  0.0095  -1.6284   0.0000   0.0000   0.0000   0.2450
  -8.000  -0.2990   0.09982   0.09726   0.0007  0.5224  0.0096  -1.6351   0.0000   0.0000   0.0000   0.2428
  -7.900  -0.2970   0.09853   0.09594   0.0000  0.5224  0.0096  -1.6437   0.0000   0.0000   0.0000   0.2406
  -7.800  -0.2947   0.09729   0.09470  -0.0007  0.5224  0.0097  -1.6508   0.0000   0.0000   0.0000   0.2382
  -7.700  -0.2923   0.09604   0.09346  -0.0015  0.5223  0.0098  -1.6577   0.0000   0.0000   0.0000   0.2357
  -7.600  -0.2897   0.09478   0.09220  -0.0023  0.5223  0.0100  -1.6646   0.0000   0.0000   0.0000   0.2329
  -7.500  -0.2872   0.09352   0.09095  -0.0031  0.5222  0.0101  -1.6716   0.0000   0.0000   0.0000   0.2300
  -7.400  -0.2846   0.09228   0.08971  -0.0040  0.5222  0.0102  -1.6784   0.0000   0.0000   0.0000   0.2270
  -7.300  -0.2821   0.09105   0.08848  -0.0048  0.5221  0.0103  -1.6852   0.0000   0.0000   0.0000   0.2238
  -7.200  -0.2796   0.08981   0.08725  -0.0058  0.5221  0.0104  -1.6921   0.0000   0.0000   0.0000   0.2204
  -7.100  -0.2769   0.08857   0.08601  -0.0067  0.5220  0.0105  -1.6985   0.0000   0.0000   0.0000   0.2167
  -7.000  -0.2742   0.08731   0.08476  -0.0078  0.5220  0.0106  -1.7052   0.0000   0.0000   0.0000   0.2127
  -6.900  -0.2716   0.08606   0.08352  -0.0089  0.5219  0.0107  -1.7117   0.0000   0.0000   0.0000   0.2084
  -6.800  -0.2697   0.08486   0.08232  -0.0100  0.5219  0.0108  -1.7194   0.0000   0.0000   0.0000   0.2042
  -6.700  -0.2697   0.08380   0.08128  -0.0109  0.5218  0.0109  -1.7307   0.0000   0.0000   0.0000   0.2009
  -6.600  -0.2667   0.08254   0.08001  -0.0124  0.5218  0.0110  -1.7365   0.0000   0.0000   0.0000   0.1949
  -6.500  -0.2622   0.08119   0.07866  -0.0141  0.5217  0.0111  -1.7389   0.0000   0.0000   0.0000   0.1878
  -6.400  -0.2574   0.07980   0.07728  -0.0158  0.5217  0.0111  -1.7415   0.0000   0.0000   0.0000   0.1803
  -6.300  -0.2523   0.07839   0.07586  -0.0175  0.5216  0.0112  -1.7444   0.0000   0.0000   0.0000   0.1724
  -6.200  -0.2470   0.07695   0.07441  -0.0191  0.5216  0.0113  -1.7478   0.0000   0.0000   0.0000   0.1641
  -6.100  -0.2414   0.07548   0.07294  -0.0208  0.5215  0.0113  -1.7516   0.0000   0.0000   0.0000   0.1554
  -6.000  -0.2355   0.07399   0.07145  -0.0224  0.5215  0.0114  -1.7555   0.0000   0.0000   0.0000   0.1464
  -5.900  -0.2295   0.07249   0.06993  -0.0240  0.5215  0.0114  -1.7597   0.0000   0.0000   0.0000   0.1369
  -5.800  -0.2231   0.07098   0.06841  -0.0255  0.5214  0.0115  -1.7640   0.0000   0.0000   0.0000   0.1270
  -5.700  -0.2166   0.06946   0.06688  -0.0269  0.5214  0.0115  -1.7683   0.0000   0.0000   0.0000   0.1168
  -5.600  -0.2098   0.06794   0.06534  -0.0283  0.5213  0.0115  -1.7725   0.0000   0.0000   0.0000   0.1059
  -5.500  -0.2029   0.06642   0.06380  -0.0296  0.5213  0.0116  -1.7765   0.0000   0.0000   0.0000   0.0947
  -5.400  -0.1957   0.06490   0.06226  -0.0309  0.5212  0.0116  -1.7803   0.0000   0.0000   0.0000   0.0827
  -5.300  -0.1884   0.06340   0.06073  -0.0321  0.5211  0.0116  -1.7838   0.0000   0.0000   0.0000   0.0702
  -5.200  -0.1808   0.06189   0.05920  -0.0332  0.5211  0.0117  -1.7871   0.0000   0.0000   0.0000   0.0567
  -5.100  -0.1731   0.06041   0.05768  -0.0342  0.5210  0.0117  -1.7899   0.0000   0.0000   0.0000   0.0425
  -5.000  -0.1653   0.05893   0.05617  -0.0351  0.5210  0.0117  -1.7925   0.0000   0.0000   0.0000   0.0271
  -4.900  -0.1572   0.05746   0.05468  -0.0360  0.5209  0.0117  -1.7945   0.0000   0.0000   0.0000   0.0104
  -4.800  -0.1491   0.05602   0.05320  -0.0367  0.5209  0.0117  -1.7960   0.0000   0.0000   0.0000  -0.0078
  -4.700  -0.1408   0.05459   0.05173  -0.0375  0.5208  0.0118  -1.7972   0.0000   0.0000   0.0000  -0.0279
  -4.600  -0.1324   0.05318   0.05028  -0.0381  0.5208  0.0118  -1.7977   0.0000   0.0000   0.0000  -0.0502
  -4.500  -0.1240   0.05180   0.04885  -0.0387  0.5207  0.0118  -1.7976   0.0000   0.0000   0.0000  -0.0752
  -4.400  -0.1153   0.05043   0.04744  -0.0392  0.5207  0.0118  -1.7972   0.0000   0.0000   0.0000  -0.1039
  -4.300  -0.1066   0.04909   0.04605  -0.0396  0.5206  0.0118  -1.7959   0.0000   0.0000   0.0000  -0.1368
  -4.200  -0.0978   0.04777   0.04468  -0.0400  0.5206  0.0118  -1.7939   0.0000   0.0000   0.0000  -0.1754
  -4.100  -0.0888   0.04647   0.04333  -0.0403  0.5205  0.0119  -1.7915   0.0000   0.0000   0.0000  -0.2216
  -4.000  -0.0798   0.04520   0.04201  -0.0406  0.5205  0.0119  -1.7882   0.0000   0.0000   0.0000  -0.2780
  -3.900  -0.0708   0.04396   0.04071  -0.0408  0.5204  0.0119  -1.7839   0.0000   0.0000   0.0000  -0.3483
  -3.800  -0.0616   0.04274   0.03944  -0.0410  0.5204  0.0119  -1.7791   0.0000   0.0000   0.0000  -0.4397
  -3.700  -0.0524   0.04155   0.03818  -0.0411  0.5203  0.0119  -1.7735   0.0000   0.0000   0.0000  -0.5636
  -3.600  -0.0431   0.04039   0.03696  -0.0412  0.5202  0.0119  -1.7667   0.0000   0.0000   0.0000  -0.7402
  -3.500  -0.0338   0.03926   0.03576  -0.0413  0.5202  0.0119  -1.7589   0.0000   0.0000   0.0000  -1.0149
  -3.400  -0.0244   0.03813   0.03457  -0.0413  0.5201  0.0119  -1.7512   0.0000   0.0000   0.0000  -1.5005
  -3.300  -0.0150   0.03702   0.03339  -0.0413  0.5201  0.0119  -1.7428   0.0000   0.0000   0.0000  -2.6008
  -3.200  -0.0055   0.03595   0.03224  -0.0412  0.5200  0.0120  -1.7331   0.0000   0.0000   0.0000  -7.5082
  -3.100   0.0040   0.03490   0.03112  -0.0412  0.5200  0.0120  -1.7221   0.0000   0.0000   0.0000  10.8026
  -3.000   0.0136   0.03388   0.03003  -0.0411  0.5199  0.0120  -1.7102   0.0000   0.0000   0.0000   3.3622
  -2.900   0.0233   0.03288   0.02896  -0.0409  0.5198  0.0120  -1.6974   0.0000   0.0000   0.0000   2.0642
  -2.800   0.0330   0.03191   0.02791  -0.0408  0.5198  0.0120  -1.6837   0.0000   0.0000   0.0000   1.5242
  -2.700   0.0427   0.03096   0.02689  -0.0406  0.5197  0.0120  -1.6689   0.0000   0.0000   0.0000   1.2281
  -2.600   0.0526   0.03004   0.02589  -0.0404  0.5197  0.0120  -1.6529   0.0000   0.0000   0.0000   1.0414
  -2.500   0.0624   0.02915   0.02492  -0.0402  0.5196  0.0120  -1.6360   0.0000   0.0000   0.0000   0.9127
  -2.400   0.0723   0.02827   0.02396  -0.0400  0.5195  0.0120  -1.6184   0.0000   0.0000   0.0000   0.8185
  -2.300   0.0823   0.02741   0.02302  -0.0398  0.5195  0.0120  -1.6005   0.0000   0.0000   0.0000   0.7465
  -2.200   0.0923   0.02656   0.02209  -0.0396  0.5194  0.0120  -1.5827   0.0000   0.0000   0.0000   0.6898
  -2.100   0.1024   0.02571   0.02116  -0.0393  0.5194  0.0119  -1.5660   0.0000   0.0000   0.0000   0.6439
  -2.000   0.1124   0.02483   0.02019  -0.0391  0.5193  0.0119  -1.5526   0.0000   0.0000   0.0000   0.6060
  -1.900   0.1223   0.02379   0.01906  -0.0388  0.5192  0.0118  -1.5538   0.0000   0.0000   0.0000   0.5745
  -1.800   0.1293   0.02036   0.01530  -0.0376  0.5192  0.0099  -1.8267   0.0000   0.0000   0.0000   0.5481
  -1.700   0.1397   0.01932   0.01414  -0.0372  0.5191  0.0091  -1.8692   0.0000   0.0000   0.0000   0.5223
  -1.600   0.1504   0.01848   0.01319  -0.0368  0.5190  0.0084  -1.8934   0.0000   0.0000   0.0000   0.4998
  -1.500   0.1613   0.01773   0.01234  -0.0364  0.5188  0.0079  -1.9099   0.0000   0.0000   0.0000   0.4802
  -1.400   0.1723   0.01704   0.01157  -0.0360  0.5187  0.0074  -1.9211   0.0000   0.0000   0.0000   0.4631
  -1.300   0.1832   0.01641   0.01086  -0.0356  0.5185  0.0070  -1.9274   0.0000   0.0000   0.0000   0.4481
  -1.200   0.1940   0.01583   0.01021  -0.0353  0.5184  0.0067  -1.9284   0.0000   0.0000   0.0000   0.4349
  -1.100   0.2046   0.01528   0.00959  -0.0349  0.5182  0.0064  -1.9234   0.0000   0.0000   0.0000   0.4231
  -1.000   0.2151   0.01485   0.00910  -0.0345  0.5181  0.0062  -1.9053   0.0000   0.0000   0.0000   0.4127
  -0.900   0.2255   0.01448   0.00868  -0.0341  0.5179  0.0060  -1.8783   0.0000   0.0000   0.0000   0.4034
  -0.800   0.2359   0.01418   0.00833  -0.0338  0.5178  0.0059  -1.8429   0.0000   0.0000   0.0000   0.3951
  -0.700   0.2464   0.01396   0.00805  -0.0336  0.5177  0.0059  -1.7987   0.0000   0.0000   0.0000   0.3876
  -0.600   0.2570   0.01378   0.00782  -0.0333  0.5176  0.0059  -1.7456   0.0000   0.0000   0.0000   0.3808
  -0.500   0.2678   0.01365   0.00763  -0.0332  0.5174  0.0060  -1.6833   0.0000   0.0000   0.0000   0.3746
  -0.400   0.2787   0.01355   0.00748  -0.0330  0.5173  0.0062  -1.6106   0.0000   0.0000   0.0000   0.3689
  -0.300   0.2898   0.01347   0.00737  -0.0329  0.5172  0.0066  -1.5315   0.0000   0.0000   0.0000   0.3638
  -0.200   0.3010   0.01344   0.00730  -0.0328  0.5171  0.0074  -1.4575   0.0000   0.0000   0.0000   0.3591
  -0.100   0.3122   0.01342   0.00728  -0.0328  0.5170  0.0086  -1.3650   0.0000   0.0000   0.0000   0.3549
   0.000   0.3234   0.01343   0.00728  -0.0328  0.5168  0.0098  -1.2633   0.0000   0.0000   0.0000   0.3510
   0.100   0.3346   0.01343   0.00728  -0.0328  0.5167  0.0110  -1.1601   0.0000   0.0000   0.0000   0.3474
   0.600   0.3898   0.01306   0.00714  -0.0327  0.5156  0.0956  -0.9398   0.0000   0.0000   0.0000   0.3324
   0.700   0.4017   0.01310   0.00709  -0.0328  0.5153  0.0733  -0.9480   0.0000   0.0000   0.0000   0.3300
   0.800   0.4113   0.01276   0.00705  -0.0326  0.5150  0.1767  -0.9547   0.0000   0.0000   0.0000   0.3275
   0.900   0.4176   0.01206   0.00704  -0.0320  0.5147  0.4177  -0.9596   0.0000   0.0000   0.0000   0.3247
   1.000   0.4193   0.01123   0.00705  -0.0304  0.5145  0.7019  -0.9620   0.0000   0.0000   0.0000   0.3202
   1.200   0.5130   0.01062   0.00713  -0.0457  0.5140  1.0000  -1.0204   0.0000   0.0000   0.0000   0.3366
   1.300   0.5237   0.01065   0.00714  -0.0456  0.5137  1.0000  -1.0285   0.0000   0.0000   0.0000   0.3345
   1.400   0.5343   0.01066   0.00714  -0.0455  0.5135  1.0000  -1.0368   0.0000   0.0000   0.0000   0.3325
   1.500   0.5450   0.01066   0.00712  -0.0454  0.5131  1.0000  -1.0451   0.0000   0.0000   0.0000   0.3305
   1.600   0.5558   0.01065   0.00709  -0.0453  0.5128  1.0000  -1.0536   0.0000   0.0000   0.0000   0.3286
   1.700   0.5666   0.01059   0.00701  -0.0452  0.5123  1.0000  -1.0624   0.0000   0.0000   0.0000   0.3267
   1.800   0.5776   0.01049   0.00689  -0.0451  0.5117  1.0000  -1.0716   0.0000   0.0000   0.0000   0.3248
   1.900   0.5887   0.01036   0.00674  -0.0450  0.5110  1.0000  -1.0809   0.0000   0.0000   0.0000   0.3230
   2.000   0.5998   0.01022   0.00657  -0.0449  0.5102  1.0000  -1.0904   0.0000   0.0000   0.0000   0.3212
   2.100   0.6109   0.01007   0.00640  -0.0447  0.5094  1.0000  -1.0999   0.0000   0.0000   0.0000   0.3196
   2.200   0.6220   0.00994   0.00624  -0.0446  0.5086  1.0000  -1.1096   0.0000   0.0000   0.0000   0.3179
   2.300   0.6331   0.00983   0.00611  -0.0445  0.5078  1.0000  -1.1198   0.0000   0.0000   0.0000   0.3164
   2.400   0.6442   0.00973   0.00598  -0.0445  0.5070  1.0000  -1.1332   0.0000   0.0000   0.0000   0.3149
   2.500   0.6552   0.00965   0.00589  -0.0444  0.5064  1.0000  -1.1472   0.0000   0.0000   0.0000   0.3135
   2.600   0.6662   0.00961   0.00583  -0.0443  0.5058  1.0000  -1.1611   0.0000   0.0000   0.0000   0.3122
   2.700   0.6771   0.00958   0.00579  -0.0443  0.5052  1.0000  -1.1750   0.0000   0.0000   0.0000   0.3109
   2.800   0.6881   0.00956   0.00576  -0.0442  0.5047  1.0000  -1.1889   0.0000   0.0000   0.0000   0.3097
   2.900   0.6990   0.00955   0.00574  -0.0442  0.5042  1.0000  -1.2027   0.0000   0.0000   0.0000   0.3085
   3.000   0.7099   0.00955   0.00574  -0.0441  0.5038  1.0000  -1.2166   0.0000   0.0000   0.0000   0.3074
   3.100   0.7208   0.00956   0.00574  -0.0441  0.5033  1.0000  -1.2304   0.0000   0.0000   0.0000   0.3063
   3.200   0.7317   0.00957   0.00574  -0.0441  0.5029  1.0000  -1.2443   0.0000   0.0000   0.0000   0.3052
   3.300   0.7426   0.00957   0.00574  -0.0441  0.5024  1.0000  -1.2583   0.0000   0.0000   0.0000   0.3042
   3.400   0.7535   0.00957   0.00574  -0.0440  0.5020  1.0000  -1.2723   0.0000   0.0000   0.0000   0.3031
   3.500   0.7644   0.00957   0.00573  -0.0440  0.5015  1.0000  -1.2863   0.0000   0.0000   0.0000   0.3022
   3.600   0.7754   0.00957   0.00573  -0.0440  0.5011  1.0000  -1.3004   0.0000   0.0000   0.0000   0.3012
   3.700   0.7863   0.00956   0.00573  -0.0440  0.5006  1.0000  -1.3145   0.0000   0.0000   0.0000   0.3003
   3.800   0.7973   0.00955   0.00572  -0.0440  0.5001  1.0000  -1.3287   0.0000   0.0000   0.0000   0.2994
   3.900   0.8083   0.00954   0.00571  -0.0440  0.4996  1.0000  -1.3430   0.0000   0.0000   0.0000   0.2985
   4.000   0.8193   0.00953   0.00569  -0.0439  0.4991  1.0000  -1.3573   0.0000   0.0000   0.0000   0.2976
   4.100   0.8303   0.00952   0.00567  -0.0439  0.4986  1.0000  -1.3716   0.0000   0.0000   0.0000   0.2968
   4.200   0.8414   0.00950   0.00565  -0.0439  0.4981  1.0000  -1.3860   0.0000   0.0000   0.0000   0.2959
   4.300   0.8524   0.00948   0.00563  -0.0439  0.4976  1.0000  -1.4004   0.0000   0.0000   0.0000   0.2951
   4.400   0.8635   0.00945   0.00560  -0.0439  0.4971  1.0000  -1.4149   0.0000   0.0000   0.0000   0.2944
   4.500   0.8745   0.00943   0.00557  -0.0439  0.4965  1.0000  -1.4295   0.0000   0.0000   0.0000   0.2936
   4.600   0.8856   0.00940   0.00554  -0.0439  0.4960  1.0000  -1.4441   0.0000   0.0000   0.0000   0.2928
   4.700   0.8968   0.00937   0.00551  -0.0440  0.4955  1.0000  -1.4587   0.0000   0.0000   0.0000   0.2921
   4.800   0.9079   0.00933   0.00547  -0.0440  0.4949  1.0000  -1.4734   0.0000   0.0000   0.0000   0.2914
   4.900   0.9190   0.00929   0.00543  -0.0440  0.4943  1.0000  -1.4882   0.0000   0.0000   0.0000   0.2907
   5.000   0.9302   0.00925   0.00538  -0.0440  0.4938  1.0000  -1.5030   0.0000   0.0000   0.0000   0.2900
   5.100   0.9414   0.00921   0.00534  -0.0440  0.4932  1.0000  -1.5178   0.0000   0.0000   0.0000   0.2893
   5.200   0.9526   0.00916   0.00528  -0.0440  0.4926  1.0000  -1.5328   0.0000   0.0000   0.0000   0.2887
   5.300   0.9639   0.00909   0.00521  -0.0441  0.4920  1.0000  -1.5479   0.0000   0.0000   0.0000   0.2880
   5.400   0.9752   0.00901   0.00512  -0.0441  0.4913  1.0000  -1.5630   0.0000   0.0000   0.0000   0.2874
   5.500   0.9866   0.00891   0.00507  -0.0441  0.4905  1.0000  -1.5783   0.0000   0.0000   0.0000   0.2868
   5.600   0.9980   0.00882   0.00496  -0.0441  0.4897  1.0000  -1.5937   0.0000   0.0000   0.0000   0.2861
   5.700   1.0094   0.00872   0.00485  -0.0442  0.4889  1.0000  -1.6107   0.0000   0.0000   0.0000   0.2855
   5.800   1.0208   0.00862   0.00475  -0.0442  0.4881  1.0000  -1.6280   0.0000   0.0000   0.0000   0.2849
   5.900   1.0322   0.00853   0.00465  -0.0443  0.4871  1.0000  -1.6454   0.0000   0.0000   0.0000   0.2844
   6.000   1.0441   0.00825   0.00431  -0.0443  0.4842  1.0000  -1.6639   0.0000   0.0000   0.0000   0.2837
   6.100   1.0549   0.00819   0.00421  -0.0442  0.4775  1.0000  -1.6809   0.0000   0.0000   0.0000   0.2831
   6.200   1.0678   0.00775   0.00374  -0.0443  0.4759  1.0000  -1.7007   0.0000   0.0000   0.0000   0.2826
   6.300   1.0800   0.00751   0.00347  -0.0444  0.4718  1.0000  -1.7194   0.0000   0.0000   0.0000   0.2820
   6.400   1.0918   0.00730   0.00321  -0.0445  0.4619  1.0000  -1.7379   0.0000   0.0000   0.0000   0.2815
   6.500   1.1027   0.00710   0.00279  -0.0445  0.4334  1.0000  -1.7557   0.0000   0.0000   0.0000   0.2809
   6.600   1.1126   0.00724   0.00283  -0.0444  0.4129  1.0000  -1.7717   0.0000   0.0000   0.0000   0.2803
   6.700   1.1218   0.00749   0.00297  -0.0443  0.3929  1.0000  -1.7869   0.0000   0.0000   0.0000   0.2798
   6.800   1.1319   0.00764   0.00308  -0.0443  0.3827  1.0000  -1.8030   0.0000   0.0000   0.0000   0.2793
   6.900   1.1410   0.00791   0.00326  -0.0443  0.3677  1.0000  -1.8181   0.0000   0.0000   0.0000   0.2788
   7.000   1.1499   0.00824   0.00351  -0.0442  0.3499  1.0000  -1.8328   0.0000   0.0000   0.0000   0.2782
   7.100   1.1597   0.00842   0.00366  -0.0442  0.3411  1.0000  -1.8487   0.0000   0.0000   0.0000   0.2778
   7.200   1.1687   0.00872   0.00389  -0.0441  0.3278  1.0000  -1.8637   0.0000   0.0000   0.0000   0.2773
   7.300   1.1770   0.00913   0.00421  -0.0440  0.3090  1.0000  -1.8776   0.0000   0.0000   0.0000   0.2768
   7.400   1.1864   0.00936   0.00440  -0.0440  0.2989  1.0000  -1.8931   0.0000   0.0000   0.0000   0.2763
   7.500   1.1944   0.00980   0.00474  -0.0439  0.2828  1.0000  -1.9070   0.0000   0.0000   0.0000   0.2759
   7.600   1.2027   0.01017   0.00504  -0.0439  0.2662  1.0000  -1.9212   0.0000   0.0000   0.0000   0.2754
   7.700   1.2116   0.01048   0.00529  -0.0438  0.2553  1.0000  -1.9362   0.0000   0.0000   0.0000   0.2750
   7.800   1.2190   0.01097   0.00568  -0.0437  0.2396  1.0000  -1.9494   0.0000   0.0000   0.0000   0.2745
   7.900   1.2277   0.01128   0.00594  -0.0437  0.2272  1.0000  -1.9642   0.0000   0.0000   0.0000   0.2741
   8.000   1.2366   0.01155   0.00617  -0.0437  0.2191  1.0000  -2.0492   0.0000   0.0000   0.0000   0.2736
   8.100   1.2444   0.01196   0.00652  -0.0436  0.2083  1.0000  -2.1436   0.0000   0.0000   0.0000   0.2732
   8.200   1.2520   0.01239   0.00687  -0.0436  0.1945  1.0000  -2.2392   0.0000   0.0000   0.0000   0.2728
   8.300   1.2610   0.01264   0.00710  -0.0436  0.1882  1.0000  -2.3458   0.0000   0.0000   0.0000   0.2724
   8.400   1.2641   0.01363   0.00789  -0.0434  0.1589  1.0000  -2.4193   0.0000   0.0000   0.0000   0.2720
   8.500   1.2601   0.01548   0.00944  -0.0433  0.1104  1.0000  -2.4489   0.0000   0.0000   0.0000   0.2719
   8.600   1.2572   0.01729   0.01107  -0.0437  0.0776  1.0000  -2.4832   0.0000   0.0000   0.0000   0.2721
   8.700   1.2536   0.02066   0.01437  -0.0471  0.0507  1.0000  -2.4998   0.0000   0.0000   0.0000   0.2746
   8.800   1.2457   0.02333   0.01702  -0.0488  0.0394  1.0000  -2.4968   0.0000   0.0000   0.0000   0.2759
   8.900   1.2367   0.02531   0.01903  -0.0489  0.0369  1.0000  -2.4938   0.0000   0.0000   0.0000   0.2761
   9.000   1.2274   0.02685   0.02055  -0.0482  0.0309  1.0000  -2.4919   0.0000   0.0000   0.0000   0.2756
   9.100   1.2181   0.02840   0.02210  -0.0476  0.0258  1.0000  -2.4900   0.0000   0.0000   0.0000   0.2752
   9.200   1.2090   0.03001   0.02372  -0.0471  0.0216  1.0000  -2.4877   0.0000   0.0000   0.0000   0.2748
   9.400   1.1901   0.03378   0.02771  -0.0468  0.0362  1.0000  -2.4787   0.0000   0.0000   0.0000   0.2748
   9.500   1.1813   0.03522   0.02906  -0.0461  0.0220  1.0000  -2.4778   0.0000   0.0000   0.0000   0.2742
   9.600   1.1734   0.03657   0.03032  -0.0453  0.0064  1.0000  -2.4826   0.0000   0.0000   0.0000   0.2737
   9.700   1.1732   0.03737   0.03110  -0.0449  0.0023  1.0000  -2.5374   0.0000   0.0000   0.0000   0.2731
   9.800   1.1768   0.03790   0.03163  -0.0446  0.0017  1.0000  -2.6183   0.0000   0.0000   0.0000   0.2726
   9.900   1.1808   0.03840   0.03213  -0.0444  0.0012  1.0000  -2.7037   0.0000   0.0000   0.0000   0.2721
  10.000   1.1854   0.03886   0.03260  -0.0442  0.0010  1.0000  -2.7949   0.0000   0.0000   0.0000   0.2716
  10.100   1.1899   0.03932   0.03307  -0.0440  0.0009  1.0000  -2.8888   0.0000   0.0000   0.0000   0.2711
  10.200   1.1943   0.03977   0.03353  -0.0437  0.0009  1.0000  -2.9830   0.0000   0.0000   0.0000   0.2706
  10.300   1.1989   0.04022   0.03398  -0.0435  0.0008  1.0000  -3.0797   0.0000   0.0000   0.0000   0.2701
  10.400   1.2035   0.04067   0.03445  -0.0433  0.0008  1.0000  -3.1772   0.0000   0.0000   0.0000   0.2696
  10.500   1.2087   0.04109   0.03500  -0.0431  0.0009  1.0000  -3.2125   0.0000   0.0000   0.0000   0.2691
  10.600   1.2135   0.04155   0.03548  -0.0429  0.0009  1.0000  -3.3018   0.0000   0.0000   0.0000   0.2686
  10.700   1.2181   0.04202   0.03597  -0.0427  0.0009  1.0000  -3.3993   0.0000   0.0000   0.0000   0.2681
  10.800   1.2227   0.04250   0.03647  -0.0425  0.0008  1.0000  -3.4999   0.0000   0.0000   0.0000   0.2676
  10.900   1.2273   0.04300   0.03698  -0.0423  0.0008  1.0000  -3.6019   0.0000   0.0000   0.0000   0.2672
  11.000   1.2318   0.04350   0.03751  -0.0422  0.0008  1.0000  -3.7046   0.0000   0.0000   0.0000   0.2667
  11.100   1.2363   0.04402   0.03804  -0.0420  0.0007  1.0000  -3.8073   0.0000   0.0000   0.0000   0.2663
  11.200   1.2405   0.04455   0.03860  -0.0418  0.0007  1.0000  -3.9088   0.0000   0.0000   0.0000   0.2658
  11.300   1.2447   0.04510   0.03917  -0.0416  0.0007  1.0000  -4.0095   0.0000   0.0000   0.0000   0.2653
  11.400   1.2487   0.04566   0.03976  -0.0414  0.0007  1.0000  -4.1090   0.0000   0.0000   0.0000   0.2649
  11.500   1.2526   0.04624   0.04036  -0.0413  0.0007  1.0000  -4.2075   0.0000   0.0000   0.0000   0.2645
  11.600   1.2563   0.04684   0.04099  -0.0411  0.0007  1.0000  -4.3045   0.0000   0.0000   0.0000   0.2640
  11.700   1.2599   0.04746   0.04163  -0.0409  0.0007  1.0000  -4.4002   0.0000   0.0000   0.0000   0.2636
  11.800   1.2633   0.04810   0.04230  -0.0407  0.0007  1.0000  -4.4940   0.0000   0.0000   0.0000   0.2632
  11.900   1.2664   0.04876   0.04299  -0.0405  0.0007  1.0000  -4.5857   0.0000   0.0000   0.0000   0.2628
  12.000   1.2693   0.04946   0.04372  -0.0404  0.0007  1.0000  -4.6750   0.0000   0.0000   0.0000   0.2624
  12.100   1.2719   0.05019   0.04448  -0.0402  0.0007  1.0000  -4.7612   0.0000   0.0000   0.0000   0.2620
  12.200   1.2742   0.05096   0.04529  -0.0400  0.0007  1.0000  -4.8447   0.0000   0.0000   0.0000   0.2616
  12.300   1.2762   0.05178   0.04613  -0.0399  0.0007  1.0000  -4.9258   0.0000   0.0000   0.0000   0.2612
  12.400   1.2779   0.05264   0.04703  -0.0397  0.0007  1.0000  -5.0030   0.0000   0.0000   0.0000   0.2609
  12.500   1.2790   0.05357   0.04800  -0.0396  0.0007  1.0000  -5.0758   0.0000   0.0000   0.0000   0.2605
  12.600   1.2796   0.05457   0.04904  -0.0395  0.0007  1.0000  -5.1434   0.0000   0.0000   0.0000   0.2602
  12.700   1.2795   0.05566   0.05017  -0.0394  0.0007  1.0000  -5.2048   0.0000   0.0000   0.0000   0.2600
  12.800   1.2713   0.05787   0.05244  -0.0396  0.0007  1.0000  -5.2027   0.0000   0.0000   0.0000   0.2601
  12.900   1.2698   0.05915   0.05376  -0.0396  0.0007  1.0000  -5.2519   0.0000   0.0000   0.0000   0.2599
  13.000   1.2695   0.06019   0.05484  -0.0394  0.0007  1.0000  -5.3103   0.0000   0.0000   0.0000   0.2596
  13.100   1.2694   0.06115   0.05584  -0.0392  0.0007  1.0000  -5.3702   0.0000   0.0000   0.0000   0.2593
  13.200   1.2696   0.06211   0.05683  -0.0390  0.0007  1.0000  -5.4306   0.0000   0.0000   0.0000   0.2589
  13.300   1.2698   0.06309   0.05785  -0.0389  0.0007  1.0000  -5.4903   0.0000   0.0000   0.0000   0.2586
  13.400   1.2699   0.06410   0.05890  -0.0387  0.0007  1.0000  -5.5485   0.0000   0.0000   0.0000   0.2582
  13.500   1.2700   0.06514   0.05999  -0.0386  0.0007  1.0000  -5.6047   0.0000   0.0000   0.0000   0.2579
  13.600   1.2698   0.06624   0.06112  -0.0385  0.0007  1.0000  -5.6583   0.0000   0.0000   0.0000   0.2576
  13.700   1.2695   0.06738   0.06231  -0.0384  0.0007  1.0000  -5.7089   0.0000   0.0000   0.0000   0.2574
  13.800   1.2689   0.06858   0.06354  -0.0383  0.0007  1.0000  -5.7568   0.0000   0.0000   0.0000   0.2571
  13.900   1.2682   0.06983   0.06484  -0.0383  0.0007  1.0000  -5.8018   0.0000   0.0000   0.0000   0.2569
  14.000   1.2671   0.07115   0.06620  -0.0382  0.0008  1.0000  -5.8429   0.0000   0.0000   0.0000   0.2567
  14.100   1.2656   0.07253   0.06763  -0.0383  0.0008  1.0000  -5.8798   0.0000   0.0000   0.0000   0.2565
  14.200   1.2637   0.07400   0.06914  -0.0383  0.0008  1.0000  -5.9121   0.0000   0.0000   0.0000   0.2564
  14.300   1.2613   0.07555   0.07074  -0.0384  0.0008  1.0000  -5.9395   0.0000   0.0000   0.0000   0.2563
  14.400   1.2561   0.07761   0.07285  -0.0387  0.0008  1.0000  -5.9475   0.0000   0.0000   0.0000   0.2565
  14.500   1.2513   0.07962   0.07491  -0.0390  0.0008  1.0000  -5.9563   0.0000   0.0000   0.0000   0.2567
  14.600   1.2485   0.08127   0.07660  -0.0391  0.0008  1.0000  -5.9762   0.0000   0.0000   0.0000   0.2566
  14.700   1.2461   0.08282   0.07820  -0.0392  0.0008  1.0000  -5.9963   0.0000   0.0000   0.0000   0.2566
  14.800   1.2437   0.08434   0.07976  -0.0393  0.0009  1.0000  -6.0133   0.0000   0.0000   0.0000   0.2565
  14.900   1.2413   0.08585   0.08131  -0.0393  0.0009  1.0000  -6.0246   0.0000   0.0000   0.0000   0.2564
  15.000   1.2386   0.08737   0.08288  -0.0393  0.0009  1.0000  -6.0264   0.0000   0.0000   0.0000   0.2562
  15.100   1.2351   0.08894   0.08450  -0.0393  0.0009  1.0000  -6.0068   0.0000   0.0000   0.0000   0.2561
  15.300   1.2312   0.09156   0.08717  -0.0390  0.0011  1.0000  -5.9826   0.0000   0.0000   0.0000   0.2556
  15.400   1.2344   0.09244   0.08807  -0.0393  0.0011  1.0000  -6.0947   0.0000   0.0000   0.0000   0.2554
  15.500   1.2374   0.09334   0.08899  -0.0395  0.0011  1.0000  -6.2042   0.0000   0.0000   0.0000   0.2553
  15.600   1.2404   0.09424   0.08992  -0.0397  0.0012  1.0000  -6.3095   0.0000   0.0000   0.0000   0.2552
  15.700   1.2433   0.09516   0.09086  -0.0399  0.0012  1.0000  -6.4072   0.0000   0.0000   0.0000   0.2551
  19.100   1.1659   0.15262   0.15035  -0.0562  0.0040  1.0000  -6.0237   0.0000   0.0000   0.0000   0.2645
  19.200   1.1615   0.15546   0.15324  -0.0575  0.0039  1.0000  -6.0062   0.0000   0.0000   0.0000   0.2657
  19.300   1.1571   0.15839   0.15620  -0.0590  0.0039  1.0000  -5.9855   0.0000   0.0000   0.0000   0.2670
  19.400   1.1521   0.16150   0.15937  -0.0605  0.0039  1.0000  -5.9571   0.0000   0.0000   0.0000   0.2684
  19.500   1.1450   0.16535   0.16326  -0.0625  0.0039  1.0000  -5.9010   0.0000   0.0000   0.0000   0.2704
  19.600   1.1397   0.16873   0.16668  -0.0642  0.0039  1.0000  -5.8635   0.0000   0.0000   0.0000   0.2720
  19.700   1.1349   0.17201   0.17001  -0.0657  0.0039  1.0000  -5.8305   0.0000   0.0000   0.0000   0.2735
  19.800   1.1301   0.17536   0.17340  -0.0673  0.0039  1.0000  -5.7949   0.0000   0.0000   0.0000   0.2750
  19.900   1.1247   0.17897   0.17705  -0.0690  0.0039  1.0000  -5.7493   0.0000   0.0000   0.0000   0.2767
  20.000   1.1172   0.18334   0.18147  -0.0711  0.0039  1.0000  -5.6739   0.0000   0.0000   0.0000   0.2790
  20.100   1.1117   0.18713   0.18530  -0.0728  0.0039  1.0000  -5.6215   0.0000   0.0000   0.0000   0.2808
  20.200   1.1066   0.19085   0.18906  -0.0745  0.0039  1.0000  -5.5719   0.0000   0.0000   0.0000   0.2825
  20.300   1.1013   0.19470   0.19295  -0.0761  0.0039  1.0000  -5.5167   0.0000   0.0000   0.0000   0.2842
  20.400   1.0934   0.19961   0.19791  -0.0783  0.0040  1.0000  -5.4184   0.0000   0.0000   0.0000   0.2868
  20.500   1.0871   0.20400   0.20233  -0.0801  0.0040  1.0000  -5.3400   0.0000   0.0000   0.0000   0.2888
  20.600   1.0817   0.20816   0.20653  -0.0818  0.0040  1.0000  -5.2705   0.0000   0.0000   0.0000   0.2907
  20.700   1.0759   0.21250   0.21091  -0.0835  0.0040  1.0000  -5.1926   0.0000   0.0000   0.0000   0.2927
  20.800   1.0669   0.21826   0.21671  -0.0857  0.0040  1.0000  -5.0511   0.0000   0.0000   0.0000   0.2955
  20.900   1.0604   0.22310   0.22159  -0.0874  0.0041  1.0000  -4.9471   0.0000   0.0000   0.0000   0.2977
  21.000   1.0543   0.22785   0.22636  -0.0890  0.0041  1.0000  -4.8453   0.0000   0.0000   0.0000   0.2997
  21.100   1.0456   0.23385   0.23239  -0.0909  0.0041  1.0000  -4.6820   0.0000   0.0000   0.0000   0.3024
  21.200   1.0393   0.23888   0.23745  -0.0924  0.0041  1.0000  -4.5598   0.0000   0.0000   0.0000   0.3045
  21.300   1.0327   0.24409   0.24264  -0.0939  0.0041  1.0000  -4.4269   0.0000   0.0000   0.0000   0.3065
  21.400   1.0258   0.24956   0.24811  -0.0952  0.0041  1.0000  -4.2727   0.0000   0.0000   0.0000   0.3086
  21.500   1.0194   0.25481   0.25337  -0.0964  0.0041  1.0000  -4.1226   0.0000   0.0000   0.0000   0.3105
  21.600   1.0143   0.25939   0.25796  -0.0974  0.0041  1.0000  -4.0044   0.0000   0.0000   0.0000   0.3120
  21.700   1.0098   0.26362   0.26219  -0.0982  0.0040  1.0000  -3.8996   0.0000   0.0000   0.0000   0.3133
  21.800   1.0059   0.26751   0.26609  -0.0990  0.0040  1.0000  -3.8113   0.0000   0.0000   0.0000   0.3144
  21.900   1.0022   0.27115   0.26972  -0.0997  0.0039  1.0000  -3.7368   0.0000   0.0000   0.0000   0.3154
  22.000   0.9987   0.27460   0.27317  -0.1003  0.0038  1.0000  -3.6701   0.0000   0.0000   0.0000   0.3165
  22.100   0.9951   0.27793   0.27650  -0.1010  0.0038  1.0000  -3.6075   0.0000   0.0000   0.0000   0.3174
  22.200   0.9914   0.28116   0.27973  -0.1016  0.0037  1.0000  -3.5464   0.0000   0.0000   0.0000   0.3184
  22.300   0.9875   0.28431   0.28288  -0.1021  0.0037  1.0000  -3.4843   0.0000   0.0000   0.0000   0.3193
  22.400   0.9833   0.28742   0.28599  -0.1026  0.0036  1.0000  -3.4183   0.0000   0.0000   0.0000   0.3202
  22.500   0.9785   0.29050   0.28907  -0.1030  0.0035  1.0000  -3.3441   0.0000   0.0000   0.0000   0.3212
  22.600   0.9727   0.29362   0.29219  -0.1034  0.0035  1.0000  -3.2542   0.0000   0.0000   0.0000   0.3222
  22.700   0.9650   0.29691   0.29548  -0.1036  0.0034  1.0000  -3.1300   0.0000   0.0000   0.0000   0.3234
  22.800   0.9483   0.30117   0.29973  -0.1034  0.0032  1.0000  -2.8449   0.0000   0.0000   0.0000   0.3254
  22.900   0.9341   0.29818   0.29676  -0.1017  0.0033  1.0000  -2.8615   0.0000   0.0000   0.0000   0.3253
  23.000   0.9169   0.29600   0.29459  -0.1001  0.0033  1.0000  -2.7817   0.0000   0.0000   0.0000   0.3259
  23.100   0.8722   0.29633   0.29491  -0.0973  0.0030  1.0000  -2.1176   0.0000   0.0000   0.0000   0.3297
  23.200   0.8671   0.29680   0.29538  -0.0972  0.0030  1.0000  -2.0809   0.0000   0.0000   0.0000   0.3303
  23.300   0.8625   0.29733   0.29591  -0.0972  0.0030  1.0000  -2.0463   0.0000   0.0000   0.0000   0.3309
  23.400   0.8583   0.29789   0.29648  -0.0972  0.0030  1.0000  -2.0134   0.0000   0.0000   0.0000   0.3314
  23.500   0.8544   0.29848   0.29707  -0.0972  0.0030  1.0000  -1.9823   0.0000   0.0000   0.0000   0.3320
  23.600   0.8508   0.29909   0.29769  -0.0973  0.0030  1.0000  -1.9526   0.0000   0.0000   0.0000   0.3325
  23.700   0.8474   0.29973   0.29833  -0.0973  0.0030  1.0000  -1.9243   0.0000   0.0000   0.0000   0.3330
  23.800   0.8442   0.30037   0.29898  -0.0975  0.0030  1.0000  -1.8973   0.0000   0.0000   0.0000   0.3336
  23.900   0.8412   0.30104   0.29965  -0.0976  0.0030  1.0000  -1.8714   0.0000   0.0000   0.0000   0.3341
  24.000   0.8384   0.30171   0.30032  -0.0977  0.0030  1.0000  -1.8467   0.0000   0.0000   0.0000   0.3346
  24.100   0.8358   0.30239   0.30101  -0.0979  0.0030  1.0000  -1.8230   0.0000   0.0000   0.0000   0.3351
  24.200   0.8333   0.30308   0.30170  -0.0981  0.0030  1.0000  -1.8004   0.0000   0.0000   0.0000   0.3356
  24.300   0.8309   0.30378   0.30240  -0.0982  0.0030  1.0000  -1.7787   0.0000   0.0000   0.0000   0.3361
  24.400   0.8287   0.30448   0.30311  -0.0984  0.0030  1.0000  -1.7579   0.0000   0.0000   0.0000   0.3366
  24.500   0.8266   0.30519   0.30382  -0.0986  0.0030  1.0000  -1.7381   0.0000   0.0000   0.0000   0.3371
  24.600   0.8247   0.30590   0.30454  -0.0989  0.0029  1.0000  -1.7191   0.0000   0.0000   0.0000   0.3376
  24.700   0.8228   0.30662   0.30526  -0.0991  0.0029  1.0000  -1.7011   0.0000   0.0000   0.0000   0.3381
  24.800   0.8210   0.30734   0.30598  -0.0993  0.0029  1.0000  -1.6839   0.0000   0.0000   0.0000   0.3385
  24.900   0.8193   0.30806   0.30671  -0.0996  0.0029  1.0000  -1.6677   0.0000   0.0000   0.0000   0.3390
  25.000   0.8178   0.30879   0.30744  -0.0998  0.0029  1.0000  -1.6524   0.0000   0.0000   0.0000   0.3395
  25.100   0.8163   0.30952   0.30817  -0.1001  0.0029  1.0000  -1.6381   0.0000   0.0000   0.0000   0.3399
  25.200   0.8149   0.31025   0.30890  -0.1004  0.0029  1.0000  -1.6250   0.0000   0.0000   0.0000   0.3404
  25.300   0.8136   0.31098   0.30964  -0.1007  0.0029  1.0000  -1.6132   0.0000   0.0000   0.0000   0.3408
  25.400   0.8125   0.31171   0.31037  -0.1010  0.0029  1.0000  -1.6029   0.0000   0.0000   0.0000   0.3413
  25.500   0.8114   0.31243   0.31110  -0.1013  0.0029  1.0000  -1.5945   0.0000   0.0000   0.0000   0.3417
  25.600   0.8105   0.31316   0.31183  -0.1016  0.0029  1.0000  -1.5883   0.0000   0.0000   0.0000   0.3421
  25.700   0.8097   0.31388   0.31256  -0.1019  0.0028  1.0000  -1.5845   0.0000   0.0000   0.0000   0.3426
  25.800   0.8090   0.31460   0.31328  -0.1022  0.0028  1.0000  -1.5837   0.0000   0.0000   0.0000   0.3429
  25.900   0.8085   0.31531   0.31399  -0.1026  0.0028  1.0000  -1.5853   0.0000   0.0000   0.0000   0.3433
  26.000   0.8080   0.31601   0.31470  -0.1029  0.0027  1.0000  -1.5879   0.0000   0.0000   0.0000   0.3437
  26.100   0.8076   0.31672   0.31541  -0.1033  0.0027  1.0000  -1.5900   0.0000   0.0000   0.0000   0.3440
  26.200   0.8072   0.31743   0.31612  -0.1036  0.0026  1.0000  -1.5902   0.0000   0.0000   0.0000   0.3444
  26.300   0.8068   0.31814   0.31687  -0.1039  0.0025  1.0000  -1.5893   0.0000   0.0000   0.0000   0.3447
  26.400   0.8063   0.31887   0.31760  -0.1043  0.0025  1.0000  -1.5857   0.0000   0.0000   0.0000   0.3451
  26.500   0.8057   0.31960   0.31834  -0.1046  0.0024  1.0000  -1.5803   0.0000   0.0000   0.0000   0.3454
  26.600   0.8051   0.32035   0.31909  -0.1049  0.0024  1.0000  -1.5725   0.0000   0.0000   0.0000   0.3458
  26.700   0.8045   0.32111   0.31985  -0.1053  0.0023  1.0000  -1.5637   0.0000   0.0000   0.0000   0.3462
  26.800   0.8039   0.32190   0.32065  -0.1056  0.0022  1.0000  -1.5514   0.0000   0.0000   0.0000   0.3466
  26.900   0.8032   0.32269   0.32144  -0.1060  0.0022  1.0000  -1.5387   0.0000   0.0000   0.0000   0.3470
  27.000   0.8025   0.32348   0.32223  -0.1063  0.0021  1.0000  -1.5260   0.0000   0.0000   0.0000   0.3474
  27.100   0.8019   0.32426   0.32302  -0.1066  0.0021  1.0000  -1.5134   0.0000   0.0000   0.0000   0.3479
  27.200   0.8012   0.32504   0.32380  -0.1070  0.0020  1.0000  -1.5012   0.0000   0.0000   0.0000   0.3483
  27.300   0.8006   0.32582   0.32458  -0.1073  0.0020  1.0000  -1.4895   0.0000   0.0000   0.0000   0.3487
  27.400   0.7999   0.32659   0.32535  -0.1077  0.0019  1.0000  -1.4783   0.0000   0.0000   0.0000   0.3491
  27.500   0.7993   0.32735   0.32612  -0.1080  0.0019  1.0000  -1.4677   0.0000   0.0000   0.0000   0.3494
  27.600   0.7987   0.32811   0.32689  -0.1083  0.0019  1.0000  -1.4578   0.0000   0.0000   0.0000   0.3498
  27.700   0.7981   0.32887   0.32764  -0.1087  0.0018  1.0000  -1.4486   0.0000   0.0000   0.0000   0.3502
  27.800   0.7976   0.32962   0.32840  -0.1090  0.0018  1.0000  -1.4401   0.0000   0.0000   0.0000   0.3506
  27.900   0.7970   0.33036   0.32915  -0.1094  0.0017  1.0000  -1.4323   0.0000   0.0000   0.0000   0.3510
  28.000   0.7965   0.33110   0.32988  -0.1097  0.0017  1.0000  -1.4272   0.0000   0.0000   0.0000   0.3514
  28.100   0.7961   0.33182   0.33061  -0.1101  0.0017  1.0000  -1.4238   0.0000   0.0000   0.0000   0.3518
  28.200   0.7956   0.33254   0.33133  -0.1105  0.0016  1.0000  -1.4216   0.0000   0.0000   0.0000   0.3521
  28.300   0.7952   0.33324   0.33204  -0.1108  0.0016  1.0000  -1.4206   0.0000   0.0000   0.0000   0.3525
  28.400   0.7947   0.33394   0.33275  -0.1112  0.0015  1.0000  -1.4208   0.0000   0.0000   0.0000   0.3529
  28.500   0.7943   0.33463   0.33344  -0.1116  0.0015  1.0000  -1.4222   0.0000   0.0000   0.0000   0.3532
  28.600   0.7940   0.33531   0.33412  -0.1119  0.0015  1.0000  -1.4250   0.0000   0.0000   0.0000   0.3536
  28.700   0.7936   0.33598   0.33480  -0.1123  0.0014  1.0000  -1.4290   0.0000   0.0000   0.0000   0.3539
  28.800   0.7932   0.33665   0.33546  -0.1127  0.0014  1.0000  -1.4343   0.0000   0.0000   0.0000   0.3543
  28.900   0.7929   0.33730   0.33612  -0.1131  0.0014  1.0000  -1.4410   0.0000   0.0000   0.0000   0.3546
  29.000   0.7926   0.33793   0.33676  -0.1134  0.0013  1.0000  -1.4490   0.0000   0.0000   0.0000   0.3550
  29.100   0.7923   0.33856   0.33739  -0.1138  0.0013  1.0000  -1.4584   0.0000   0.0000   0.0000   0.3553
  29.200   0.7920   0.33917   0.33801  -0.1142  0.0013  1.0000  -1.4693   0.0000   0.0000   0.0000   0.3556
  29.300   0.7917   0.33977   0.33861  -0.1146  0.0013  1.0000  -1.4816   0.0000   0.0000   0.0000   0.3560
  29.400   0.7915   0.34035   0.33920  -0.1150  0.0012  1.0000  -1.4955   0.0000   0.0000   0.0000   0.3563
  29.500   0.7912   0.34092   0.33976  -0.1153  0.0012  1.0000  -1.5110   0.0000   0.0000   0.0000   0.3566
  29.600   0.7910   0.34146   0.34031  -0.1157  0.0012  1.0000  -1.5281   0.0000   0.0000   0.0000   0.3569
  29.700   0.7908   0.34198   0.34084  -0.1161  0.0012  1.0000  -1.5468   0.0000   0.0000   0.0000   0.3572
  29.800   0.7906   0.34248   0.34134  -0.1165  0.0012  1.0000  -1.5672   0.0000   0.0000   0.0000   0.3574
  29.900   0.7904   0.34293   0.34180  -0.1168  0.0011  1.0000  -1.5893   0.0000   0.0000   0.0000   0.3577
  30.000   0.7901   0.34340   0.34227  -0.1172  0.0011  1.0000  -1.6087   0.0000   0.0000   0.0000   0.3579


