xflr5 v6.61

 Calculated polar for: MILEY M06-13-128

 1 1 Reynolds number fixed          Mach number fixed         

 xtrf =   1.000 (top)        1.000 (bottom)
 Mach =   0.000     Re =     0.500 e 6     Ncrit =   9.000

  alpha     CL        CD       CDp       Cm    Top Xtr Bot Xtr   Cpmin    Chinge    XCp    
 ------- -------- --------- --------- -------- ------- ------- -------- --------- ---------
 -10.000  -0.3315   0.12999   0.12687   0.0101  0.5606  0.0118  -1.4450   0.0000   0.0000   0.0000   0.2693
  -9.900  -0.3288   0.12871   0.12559   0.0095  0.5603  0.0118  -1.4492   0.0000   0.0000   0.0000   0.2676
  -9.800  -0.3261   0.12743   0.12432   0.0088  0.5601  0.0118  -1.4535   0.0000   0.0000   0.0000   0.2659
  -9.700  -0.3234   0.12616   0.12305   0.0082  0.5598  0.0118  -1.4580   0.0000   0.0000   0.0000   0.2642
  -9.600  -0.3208   0.12490   0.12179   0.0076  0.5596  0.0118  -1.4626   0.0000   0.0000   0.0000   0.2625
  -9.500  -0.3183   0.12364   0.12055   0.0070  0.5594  0.0118  -1.4673   0.0000   0.0000   0.0000   0.2608
  -9.400  -0.3158   0.12239   0.11930   0.0063  0.5591  0.0118  -1.4721   0.0000   0.0000   0.0000   0.2590
  -9.300  -0.3133   0.12114   0.11805   0.0057  0.5589  0.0118  -1.4770   0.0000   0.0000   0.0000   0.2571
  -9.200  -0.3106   0.11986   0.11678   0.0050  0.5587  0.0118  -1.4819   0.0000   0.0000   0.0000   0.2552
  -9.100  -0.3078   0.11857   0.11549   0.0043  0.5585  0.0118  -1.4868   0.0000   0.0000   0.0000   0.2531
  -9.000  -0.3050   0.11727   0.11420   0.0037  0.5582  0.0118  -1.4918   0.0000   0.0000   0.0000   0.2510
  -8.900  -0.3023   0.11597   0.11290   0.0030  0.5580  0.0118  -1.4969   0.0000   0.0000   0.0000   0.2488
  -8.800  -0.2996   0.11466   0.11160   0.0023  0.5576  0.0118  -1.5022   0.0000   0.0000   0.0000   0.2466
  -8.700  -0.2969   0.11335   0.11030   0.0016  0.5573  0.0118  -1.5076   0.0000   0.0000   0.0000   0.2444
  -8.600  -0.2942   0.11205   0.10900   0.0009  0.5569  0.0118  -1.5131   0.0000   0.0000   0.0000   0.2421
  -8.500  -0.2916   0.11074   0.10770   0.0002  0.5565  0.0118  -1.5188   0.0000   0.0000   0.0000   0.2398
  -8.400  -0.2890   0.10944   0.10640  -0.0005  0.5562  0.0118  -1.5246   0.0000   0.0000   0.0000   0.2374
  -8.300  -0.2865   0.10814   0.10510  -0.0012  0.5558  0.0119  -1.5307   0.0000   0.0000   0.0000   0.2349
  -8.200  -0.2839   0.10684   0.10381  -0.0019  0.5555  0.0119  -1.5369   0.0000   0.0000   0.0000   0.2324
  -8.100  -0.2814   0.10555   0.10247  -0.0027  0.5553  0.0119  -1.5437   0.0000   0.0000   0.0000   0.2297
  -8.000  -0.2789   0.10427   0.10121  -0.0034  0.5550  0.0119  -1.5504   0.0000   0.0000   0.0000   0.2270
  -7.900  -0.2764   0.10299   0.09994  -0.0042  0.5549  0.0119  -1.5572   0.0000   0.0000   0.0000   0.2241
  -7.800  -0.2738   0.10170   0.09865  -0.0050  0.5547  0.0119  -1.5641   0.0000   0.0000   0.0000   0.2211
  -7.700  -0.2712   0.10039   0.09735  -0.0058  0.5545  0.0119  -1.5712   0.0000   0.0000   0.0000   0.2178
  -7.600  -0.2685   0.09909   0.09605  -0.0067  0.5543  0.0119  -1.5786   0.0000   0.0000   0.0000   0.2143
  -7.500  -0.2659   0.09778   0.09476  -0.0076  0.5542  0.0119  -1.5862   0.0000   0.0000   0.0000   0.2108
  -7.400  -0.2633   0.09647   0.09345  -0.0085  0.5540  0.0119  -1.5941   0.0000   0.0000   0.0000   0.2070
  -7.300  -0.2606   0.09515   0.09215  -0.0095  0.5539  0.0119  -1.6023   0.0000   0.0000   0.0000   0.2031
  -7.200  -0.2580   0.09381   0.09082  -0.0105  0.5537  0.0119  -1.6109   0.0000   0.0000   0.0000   0.1988
  -7.100  -0.2553   0.09247   0.08949  -0.0116  0.5536  0.0119  -1.6199   0.0000   0.0000   0.0000   0.1941
  -7.000  -0.2527   0.09113   0.08816  -0.0127  0.5534  0.0119  -1.6295   0.0000   0.0000   0.0000   0.1892
  -6.900  -0.2507   0.08983   0.08687  -0.0139  0.5533  0.0119  -1.6401   0.0000   0.0000   0.0000   0.1842
  -6.800  -0.2501   0.08870   0.08576  -0.0149  0.5532  0.0119  -1.6528   0.0000   0.0000   0.0000   0.1802
  -6.700  -0.2485   0.08746   0.08453  -0.0162  0.5531  0.0119  -1.6655   0.0000   0.0000   0.0000   0.1748
  -6.600  -0.2449   0.08601   0.08308  -0.0179  0.5530  0.0119  -1.6772   0.0000   0.0000   0.0000   0.1669
  -6.500  -0.2409   0.08454   0.08161  -0.0196  0.5528  0.0119  -1.6890   0.0000   0.0000   0.0000   0.1587
  -6.400  -0.2366   0.08304   0.08011  -0.0212  0.5527  0.0119  -1.7008   0.0000   0.0000   0.0000   0.1502
  -6.300  -0.2320   0.08152   0.07859  -0.0229  0.5526  0.0119  -1.7125   0.0000   0.0000   0.0000   0.1412
  -6.200  -0.2272   0.08000   0.07706  -0.0245  0.5525  0.0119  -1.7241   0.0000   0.0000   0.0000   0.1319
  -6.100  -0.2220   0.07847   0.07552  -0.0261  0.5524  0.0119  -1.7357   0.0000   0.0000   0.0000   0.1222
  -6.000  -0.2167   0.07693   0.07397  -0.0276  0.5523  0.0119  -1.7470   0.0000   0.0000   0.0000   0.1121
  -5.900  -0.2111   0.07539   0.07242  -0.0291  0.5522  0.0119  -1.7580   0.0000   0.0000   0.0000   0.1016
  -5.800  -0.2052   0.07385   0.07087  -0.0305  0.5521  0.0120  -1.7687   0.0000   0.0000   0.0000   0.0907
  -5.700  -0.1992   0.07232   0.06932  -0.0318  0.5520  0.0120  -1.7790   0.0000   0.0000   0.0000   0.0792
  -5.600  -0.1930   0.07079   0.06777  -0.0331  0.5520  0.0120  -1.7889   0.0000   0.0000   0.0000   0.0672
  -5.500  -0.1865   0.06927   0.06623  -0.0343  0.5519  0.0120  -1.7983   0.0000   0.0000   0.0000   0.0546
  -5.400  -0.1799   0.06776   0.06470  -0.0354  0.5518  0.0120  -1.8072   0.0000   0.0000   0.0000   0.0412
  -5.300  -0.1731   0.06626   0.06317  -0.0365  0.5517  0.0120  -1.8155   0.0000   0.0000   0.0000   0.0270
  -5.200  -0.1661   0.06478   0.06166  -0.0375  0.5516  0.0120  -1.8233   0.0000   0.0000   0.0000   0.0118
  -5.100  -0.1589   0.06332   0.06016  -0.0384  0.5515  0.0120  -1.8304   0.0000   0.0000   0.0000  -0.0046
  -5.000  -0.1516   0.06186   0.05867  -0.0392  0.5514  0.0120  -1.8370   0.0000   0.0000   0.0000  -0.0224
  -4.900  -0.1441   0.06044   0.05721  -0.0400  0.5513  0.0120  -1.8427   0.0000   0.0000   0.0000  -0.0417
  -4.800  -0.1365   0.05902   0.05575  -0.0407  0.5513  0.0120  -1.8478   0.0000   0.0000   0.0000  -0.0631
  -4.700  -0.1288   0.05763   0.05432  -0.0414  0.5512  0.0120  -1.8521   0.0000   0.0000   0.0000  -0.0869
  -4.600  -0.1209   0.05627   0.05290  -0.0420  0.5511  0.0120  -1.8555   0.0000   0.0000   0.0000  -0.1135
  -4.500  -0.1129   0.05492   0.05151  -0.0425  0.5510  0.0120  -1.8582   0.0000   0.0000   0.0000  -0.1439
  -4.400  -0.1048   0.05359   0.05013  -0.0430  0.5509  0.0120  -1.8600   0.0000   0.0000   0.0000  -0.1788
  -4.300  -0.0966   0.05230   0.04878  -0.0434  0.5508  0.0120  -1.8607   0.0000   0.0000   0.0000  -0.2194
  -4.200  -0.0882   0.05103   0.04745  -0.0438  0.5507  0.0120  -1.8607   0.0000   0.0000   0.0000  -0.2678
  -4.100  -0.0798   0.04978   0.04614  -0.0441  0.5506  0.0120  -1.8597   0.0000   0.0000   0.0000  -0.3265
  -4.000  -0.0712   0.04855   0.04485  -0.0444  0.5504  0.0120  -1.8576   0.0000   0.0000   0.0000  -0.3992
  -3.900  -0.0626   0.04736   0.04360  -0.0446  0.5503  0.0120  -1.8543   0.0000   0.0000   0.0000  -0.4919
  -3.800  -0.0539   0.04619   0.04236  -0.0448  0.5502  0.0120  -1.8501   0.0000   0.0000   0.0000  -0.6152
  -3.700  -0.0450   0.04505   0.04115  -0.0449  0.5501  0.0120  -1.8450   0.0000   0.0000   0.0000  -0.7875
  -3.600  -0.0361   0.04393   0.03996  -0.0450  0.5499  0.0120  -1.8386   0.0000   0.0000   0.0000  -1.0456
  -3.500  -0.0274   0.04271   0.03869  -0.0451  0.5498  0.0121  -1.8408   0.0000   0.0000   0.0000  -1.4620
  -3.400  -0.0209   0.04000   0.03582  -0.0452  0.5497  0.0123  -1.9521   0.0000   0.0000   0.0000  -1.9913
  -3.300  -0.0130   0.03824   0.03392  -0.0452  0.5495  0.0125  -1.9964   0.0000   0.0000   0.0000  -3.3574
  -3.200  -0.0042   0.03696   0.03255  -0.0451  0.5493  0.0125  -2.0058   0.0000   0.0000   0.0000  -10.9112
  -3.100   0.0052   0.03600   0.03149  -0.0450  0.5492  0.0125  -1.9940   0.0000   0.0000   0.0000   9.3053
  -3.000   0.0149   0.03527   0.03069  -0.0449  0.5489  0.0125  -1.9643   0.0000   0.0000   0.0000   3.3644
  -2.900   0.0251   0.03477   0.03013  -0.0447  0.5485  0.0124  -1.9160   0.0000   0.0000   0.0000   2.0941
  -2.800   0.0358   0.03456   0.02988  -0.0446  0.5481  0.0123  -1.8446   0.0000   0.0000   0.0000   1.5409
  -2.700   0.0468   0.03461   0.02992  -0.0445  0.5476  0.0121  -1.7506   0.0000   0.0000   0.0000   1.2340
  -2.600   0.0566   0.03381   0.02901  -0.0444  0.5471  0.0120  -1.7228   0.0000   0.0000   0.0000   1.0600
  -2.500   0.0661   0.03278   0.02789  -0.0441  0.5466  0.0120  -1.7125   0.0000   0.0000   0.0000   0.9396
  -2.300   0.0822   0.02869   0.02349  -0.0433  0.5457  0.0111  -1.8738   0.0000   0.0000   0.0000   0.7934
  -2.200   0.0917   0.02746   0.02211  -0.0429  0.5453  0.0107  -1.9082   0.0000   0.0000   0.0000   0.7321
  -2.100   0.1017   0.02650   0.02101  -0.0425  0.5449  0.0104  -1.9217   0.0000   0.0000   0.0000   0.6808
  -2.000   0.1120   0.02568   0.02008  -0.0422  0.5446  0.0101  -1.9254   0.0000   0.0000   0.0000   0.6381
  -1.900   0.1224   0.02495   0.01924  -0.0419  0.5443  0.0098  -1.9225   0.0000   0.0000   0.0000   0.6022
  -1.800   0.1330   0.02429   0.01848  -0.0416  0.5440  0.0096  -1.9142   0.0000   0.0000   0.0000   0.5716
  -1.700   0.1437   0.02369   0.01778  -0.0413  0.5437  0.0094  -1.9015   0.0000   0.0000   0.0000   0.5455
  -1.600   0.1544   0.02313   0.01713  -0.0410  0.5433  0.0092  -1.8851   0.0000   0.0000   0.0000   0.5229
  -1.500   0.1652   0.02261   0.01653  -0.0408  0.5430  0.0091  -1.8652   0.0000   0.0000   0.0000   0.5032
  -1.400   0.1760   0.02213   0.01598  -0.0405  0.5426  0.0089  -1.8419   0.0000   0.0000   0.0000   0.4859
  -1.300   0.1868   0.02168   0.01547  -0.0403  0.5423  0.0088  -1.8151   0.0000   0.0000   0.0000   0.4707
  -1.200   0.1975   0.02126   0.01499  -0.0400  0.5419  0.0087  -1.7844   0.0000   0.0000   0.0000   0.4572
  -1.100   0.2081   0.02087   0.01452  -0.0397  0.5415  0.0087  -1.7479   0.0000   0.0000   0.0000   0.4450
  -1.000   0.2187   0.02052   0.01412  -0.0395  0.5411  0.0087  -1.7123   0.0000   0.0000   0.0000   0.4341
  -0.900   0.2291   0.02020   0.01376  -0.0392  0.5407  0.0087  -1.6735   0.0000   0.0000   0.0000   0.4243
  -0.800   0.2394   0.01992   0.01343  -0.0389  0.5403  0.0088  -1.6311   0.0000   0.0000   0.0000   0.4153
  -0.700   0.2497   0.01966   0.01314  -0.0386  0.5398  0.0089  -1.5850   0.0000   0.0000   0.0000   0.4071
  -0.600   0.2600   0.01944   0.01287  -0.0384  0.5394  0.0092  -1.5343   0.0000   0.0000   0.0000   0.3996
  -0.500   0.2704   0.01925   0.01262  -0.0381  0.5390  0.0095  -1.4920   0.0000   0.0000   0.0000   0.3926
  -0.400   0.2809   0.01910   0.01243  -0.0379  0.5385  0.0100  -1.4427   0.0000   0.0000   0.0000   0.3863
  -0.300   0.2915   0.01901   0.01230  -0.0377  0.5381  0.0107  -1.3753   0.0000   0.0000   0.0000   0.3805
  -0.200   0.3024   0.01900   0.01230  -0.0377  0.5377  0.0115  -1.2755   0.0000   0.0000   0.0000   0.3755
  -0.100   0.3135   0.01909   0.01241  -0.0377  0.5372  0.0120  -1.1462   0.0000   0.0000   0.0000   0.3710
   0.100   0.3335   0.01846   0.01172  -0.0369  0.5362  0.0561  -1.1709   0.0000   0.0000   0.0000   0.3608
   0.200   0.3414   0.01791   0.01168  -0.0366  0.5356  0.2106  -1.1116   0.0000   0.0000   0.0000   0.3571
   0.300   0.3439   0.01685   0.01168  -0.0354  0.5351  0.5451  -1.0694   0.0000   0.0000   0.0000   0.3527
   0.500   0.4325   0.01570   0.01161  -0.0489  0.5337  1.0000  -0.9333   0.0000   0.0000   0.0000   0.3623
   0.600   0.4426   0.01574   0.01160  -0.0487  0.5330  1.0000  -0.9413   0.0000   0.0000   0.0000   0.3590
   0.700   0.4527   0.01579   0.01162  -0.0485  0.5324  1.0000  -0.9492   0.0000   0.0000   0.0000   0.3559
   0.800   0.4627   0.01588   0.01166  -0.0483  0.5317  1.0000  -0.9569   0.0000   0.0000   0.0000   0.3530
   0.900   0.4727   0.01599   0.01175  -0.0481  0.5311  1.0000  -0.9644   0.0000   0.0000   0.0000   0.3502
   1.000   0.4827   0.01614   0.01186  -0.0479  0.5304  1.0000  -0.9718   0.0000   0.0000   0.0000   0.3477
   1.100   0.4925   0.01633   0.01203  -0.0478  0.5296  1.0000  -0.9789   0.0000   0.0000   0.0000   0.3452
   1.200   0.5020   0.01663   0.01230  -0.0477  0.5286  1.0000  -0.9854   0.0000   0.0000   0.0000   0.3430
   1.300   0.5025   0.01961   0.01538  -0.0482  0.5219  1.0000  -0.9767   0.0000   0.0000   0.0000   0.3438
   1.400   0.5131   0.01954   0.01529  -0.0480  0.5217  1.0000  -0.9860   0.0000   0.0000   0.0000   0.3414
   1.500   0.5238   0.01946   0.01518  -0.0479  0.5215  1.0000  -0.9954   0.0000   0.0000   0.0000   0.3390
   1.600   0.5346   0.01936   0.01506  -0.0477  0.5213  1.0000  -1.0049   0.0000   0.0000   0.0000   0.3368
   1.700   0.5454   0.01925   0.01493  -0.0476  0.5210  1.0000  -1.0145   0.0000   0.0000   0.0000   0.3346
   1.800   0.5563   0.01914   0.01480  -0.0475  0.5208  1.0000  -1.0242   0.0000   0.0000   0.0000   0.3325
   1.900   0.5671   0.01904   0.01467  -0.0473  0.5205  1.0000  -1.0347   0.0000   0.0000   0.0000   0.3305
   2.000   0.5780   0.01893   0.01454  -0.0472  0.5202  1.0000  -1.0455   0.0000   0.0000   0.0000   0.3285
   2.100   0.5888   0.01884   0.01443  -0.0471  0.5198  1.0000  -1.0563   0.0000   0.0000   0.0000   0.3267
   2.200   0.5997   0.01876   0.01433  -0.0469  0.5195  1.0000  -1.0670   0.0000   0.0000   0.0000   0.3249
   2.300   0.6105   0.01869   0.01424  -0.0468  0.5191  1.0000  -1.0802   0.0000   0.0000   0.0000   0.3232
   2.400   0.6213   0.01862   0.01415  -0.0467  0.5187  1.0000  -1.0938   0.0000   0.0000   0.0000   0.3216
   2.500   0.6322   0.01854   0.01405  -0.0466  0.5183  1.0000  -1.1075   0.0000   0.0000   0.0000   0.3200
   2.600   0.6431   0.01845   0.01395  -0.0465  0.5179  1.0000  -1.1213   0.0000   0.0000   0.0000   0.3184
   2.700   0.6541   0.01833   0.01382  -0.0464  0.5173  1.0000  -1.1353   0.0000   0.0000   0.0000   0.3169
   2.800   0.6652   0.01819   0.01366  -0.0463  0.5168  1.0000  -1.1495   0.0000   0.0000   0.0000   0.3154
   2.900   0.6763   0.01803   0.01348  -0.0462  0.5161  1.0000  -1.1638   0.0000   0.0000   0.0000   0.3140
   3.000   0.6875   0.01787   0.01330  -0.0461  0.5155  1.0000  -1.1782   0.0000   0.0000   0.0000   0.3125
   3.100   0.6987   0.01772   0.01313  -0.0459  0.5148  1.0000  -1.1926   0.0000   0.0000   0.0000   0.3112
   3.200   0.7098   0.01756   0.01296  -0.0458  0.5140  1.0000  -1.2071   0.0000   0.0000   0.0000   0.3098
   3.300   0.7210   0.01740   0.01279  -0.0457  0.5132  1.0000  -1.2216   0.0000   0.0000   0.0000   0.3085
   3.400   0.7321   0.01727   0.01265  -0.0456  0.5124  1.0000  -1.2360   0.0000   0.0000   0.0000   0.3073
   3.500   0.7431   0.01717   0.01254  -0.0455  0.5116  1.0000  -1.2503   0.0000   0.0000   0.0000   0.3061
   3.600   0.7540   0.01712   0.01248  -0.0455  0.5108  1.0000  -1.2643   0.0000   0.0000   0.0000   0.3050
   3.700   0.7647   0.01712   0.01248  -0.0454  0.5101  1.0000  -1.2782   0.0000   0.0000   0.0000   0.3040
   3.800   0.7754   0.01713   0.01251  -0.0454  0.5094  1.0000  -1.2919   0.0000   0.0000   0.0000   0.3030
   3.900   0.7861   0.01713   0.01251  -0.0453  0.5087  1.0000  -1.3058   0.0000   0.0000   0.0000   0.3020
   4.000   0.7968   0.01714   0.01252  -0.0453  0.5079  1.0000  -1.3197   0.0000   0.0000   0.0000   0.3011
   4.100   0.8075   0.01714   0.01252  -0.0452  0.5071  1.0000  -1.3336   0.0000   0.0000   0.0000   0.3001
   4.200   0.8182   0.01714   0.01252  -0.0452  0.5064  1.0000  -1.3476   0.0000   0.0000   0.0000   0.2992
   4.300   0.8289   0.01714   0.01252  -0.0452  0.5056  1.0000  -1.3616   0.0000   0.0000   0.0000   0.2983
   4.400   0.8397   0.01713   0.01251  -0.0451  0.5048  1.0000  -1.3757   0.0000   0.0000   0.0000   0.2974
   4.500   0.8504   0.01712   0.01250  -0.0451  0.5040  1.0000  -1.3898   0.0000   0.0000   0.0000   0.2966
   4.600   0.8612   0.01710   0.01249  -0.0450  0.5032  1.0000  -1.4040   0.0000   0.0000   0.0000   0.2957
   4.700   0.8720   0.01708   0.01247  -0.0450  0.5024  1.0000  -1.4182   0.0000   0.0000   0.0000   0.2949
   4.800   0.8828   0.01706   0.01245  -0.0450  0.5016  1.0000  -1.4325   0.0000   0.0000   0.0000   0.2941
   4.900   0.8936   0.01703   0.01243  -0.0449  0.5008  1.0000  -1.4469   0.0000   0.0000   0.0000   0.2933
   5.000   0.9044   0.01700   0.01240  -0.0449  0.5000  1.0000  -1.4613   0.0000   0.0000   0.0000   0.2925
   5.100   0.9153   0.01696   0.01236  -0.0448  0.4992  1.0000  -1.4758   0.0000   0.0000   0.0000   0.2918
   5.200   0.9262   0.01691   0.01232  -0.0448  0.4984  1.0000  -1.4904   0.0000   0.0000   0.0000   0.2910
   5.300   0.9372   0.01685   0.01227  -0.0448  0.4976  1.0000  -1.5051   0.0000   0.0000   0.0000   0.2903
   5.400   0.9481   0.01679   0.01221  -0.0447  0.4969  1.0000  -1.5198   0.0000   0.0000   0.0000   0.2895
   5.500   0.9591   0.01672   0.01215  -0.0447  0.4961  1.0000  -1.5346   0.0000   0.0000   0.0000   0.2888
   5.600   0.9702   0.01664   0.01207  -0.0446  0.4954  1.0000  -1.5495   0.0000   0.0000   0.0000   0.2881
   5.700   0.9813   0.01656   0.01207  -0.0446  0.4947  1.0000  -1.5655   0.0000   0.0000   0.0000   0.2874
   5.800   0.9924   0.01647   0.01199  -0.0446  0.4940  1.0000  -1.5824   0.0000   0.0000   0.0000   0.2867
   5.900   1.0035   0.01637   0.01189  -0.0445  0.4933  1.0000  -1.5995   0.0000   0.0000   0.0000   0.2861
   6.000   1.0146   0.01626   0.01179  -0.0445  0.4926  1.0000  -1.6166   0.0000   0.0000   0.0000   0.2854
   6.100   1.0259   0.01614   0.01167  -0.0445  0.4919  1.0000  -1.6339   0.0000   0.0000   0.0000   0.2847
   6.200   1.0373   0.01599   0.01153  -0.0444  0.4912  1.0000  -1.6515   0.0000   0.0000   0.0000   0.2841
   6.300   1.0488   0.01582   0.01136  -0.0444  0.4905  1.0000  -1.6692   0.0000   0.0000   0.0000   0.2834
   6.400   1.0604   0.01564   0.01117  -0.0443  0.4898  1.0000  -1.6872   0.0000   0.0000   0.0000   0.2828
   6.500   1.0720   0.01544   0.01096  -0.0443  0.4890  1.0000  -1.7053   0.0000   0.0000   0.0000   0.2822
   6.600   1.0837   0.01523   0.01075  -0.0443  0.4883  1.0000  -1.7235   0.0000   0.0000   0.0000   0.2815
   6.700   1.0954   0.01502   0.01054  -0.0443  0.4875  1.0000  -1.7417   0.0000   0.0000   0.0000   0.2809
   6.800   1.1071   0.01483   0.01034  -0.0442  0.4868  1.0000  -1.7599   0.0000   0.0000   0.0000   0.2803
   6.900   1.1188   0.01465   0.01015  -0.0442  0.4861  1.0000  -1.7781   0.0000   0.0000   0.0000   0.2798
   7.000   1.1306   0.01443   0.00993  -0.0442  0.4852  1.0000  -1.7966   0.0000   0.0000   0.0000   0.2792
   7.100   1.1436   0.01390   0.00936  -0.0442  0.4838  1.0000  -1.8172   0.0000   0.0000   0.0000   0.2785
   7.200   1.1574   0.01315   0.00855  -0.0441  0.4812  1.0000  -1.8393   0.0000   0.0000   0.0000   0.2778
   7.300   1.1703   0.01260   0.00793  -0.0440  0.4771  1.0000  -1.8601   0.0000   0.0000   0.0000   0.2772
   7.400   1.1836   0.01206   0.00741  -0.0442  0.4733  1.0000  -1.8811   0.0000   0.0000   0.0000   0.2767
   7.500   1.1957   0.01183   0.00721  -0.0443  0.4647  1.0000  -1.9001   0.0000   0.0000   0.0000   0.2763
   7.600   1.2089   0.01126   0.00659  -0.0444  0.4528  1.0000  -1.9212   0.0000   0.0000   0.0000   0.2758
   7.700   1.2220   0.01063   0.00582  -0.0444  0.4412  1.0000  -1.9425   0.0000   0.0000   0.0000   0.2752
   7.800   1.2332   0.01045   0.00558  -0.0444  0.4330  1.0000  -1.9607   0.0000   0.0000   0.0000   0.2747
   7.900   1.2439   0.01045   0.00555  -0.0444  0.4234  1.0000  -2.0427   0.0000   0.0000   0.0000   0.2742
   8.000   1.2540   0.01048   0.00550  -0.0444  0.4098  1.0000  -2.1471   0.0000   0.0000   0.0000   0.2737
   8.100   1.2629   0.01066   0.00555  -0.0443  0.3925  1.0000  -2.2475   0.0000   0.0000   0.0000   0.2732
   8.200   1.2722   0.01085   0.00569  -0.0442  0.3793  1.0000  -2.3516   0.0000   0.0000   0.0000   0.2728
   8.300   1.2799   0.01123   0.00595  -0.0441  0.3610  1.0000  -2.4497   0.0000   0.0000   0.0000   0.2723
   8.400   1.2877   0.01165   0.00629  -0.0440  0.3450  1.0000  -2.5493   0.0000   0.0000   0.0000   0.2719
   8.500   1.2957   0.01203   0.00660  -0.0439  0.3300  1.0000  -2.6520   0.0000   0.0000   0.0000   0.2714
   8.600   1.3018   0.01265   0.00712  -0.0438  0.3123  1.0000  -2.7460   0.0000   0.0000   0.0000   0.2710
   8.700   1.3099   0.01302   0.00746  -0.0438  0.3009  1.0000  -2.8529   0.0000   0.0000   0.0000   0.2706
   8.800   1.3156   0.01368   0.00801  -0.0437  0.2826  1.0000  -2.9472   0.0000   0.0000   0.0000   0.2702
   8.900   1.3198   0.01455   0.00877  -0.0437  0.2609  1.0000  -3.0332   0.0000   0.0000   0.0000   0.2699
   9.000   1.3221   0.01563   0.00969  -0.0437  0.2386  1.0000  -3.1081   0.0000   0.0000   0.0000   0.2697
   9.100   1.3267   0.01643   0.01045  -0.0439  0.2237  1.0000  -3.1979   0.0000   0.0000   0.0000   0.2695
   9.200   1.3462   0.01534   0.00982  -0.0438  0.2509  1.0000  -3.3248   0.0000   0.0000   0.0000   0.2689
   9.300   1.3499   0.01623   0.01064  -0.0439  0.2369  1.0000  -3.4083   0.0000   0.0000   0.0000   0.2686
   9.400   1.3546   0.01702   0.01140  -0.0441  0.2244  1.0000  -3.5005   0.0000   0.0000   0.0000   0.2685
   9.500   1.3573   0.01810   0.01243  -0.0444  0.2109  1.0000  -3.5787   0.0000   0.0000   0.0000   0.2685
   9.600   1.3563   0.02047   0.01477  -0.0466  0.1968  1.0000  -3.6245   0.0000   0.0000   0.0000   0.2698
   9.700   1.3528   0.02289   0.01720  -0.0485  0.1860  1.0000  -3.6520   0.0000   0.0000   0.0000   0.2711
   9.800   1.3445   0.02514   0.01948  -0.0493  0.1811  1.0000  -3.6522   0.0000   0.0000   0.0000   0.2717
   9.900   1.3350   0.02680   0.02115  -0.0489  0.1782  1.0000  -3.6493   0.0000   0.0000   0.0000   0.2714
  10.000   1.3256   0.02841   0.02276  -0.0483  0.1743  1.0000  -3.6468   0.0000   0.0000   0.0000   0.2710
  10.100   1.3160   0.03005   0.02440  -0.0478  0.1711  1.0000  -3.6433   0.0000   0.0000   0.0000   0.2706
  10.200   1.3058   0.03194   0.02639  -0.0475  0.1745  1.0000  -3.6336   0.0000   0.0000   0.0000   0.2705
  10.300   1.2955   0.03378   0.02832  -0.0472  0.1777  1.0000  -3.6239   0.0000   0.0000   0.0000   0.2703
  10.400   1.2868   0.03527   0.02974  -0.0466  0.1695  1.0000  -3.6255   0.0000   0.0000   0.0000   0.2699
  10.500   1.2785   0.03670   0.03106  -0.0460  0.1574  1.0000  -3.6303   0.0000   0.0000   0.0000   0.2694
  10.600   1.2705   0.03809   0.03232  -0.0454  0.1407  1.0000  -3.6373   0.0000   0.0000   0.0000   0.2690
  10.700   1.2622   0.03950   0.03358  -0.0447  0.1244  1.0000  -3.6414   0.0000   0.0000   0.0000   0.2685
  10.800   1.2527   0.04097   0.03488  -0.0439  0.1032  1.0000  -3.6381   0.0000   0.0000   0.0000   0.2679
  10.900   1.2447   0.04242   0.03615  -0.0433  0.0837  1.0000  -3.6429   0.0000   0.0000   0.0000   0.2674
  11.000   1.2376   0.04384   0.03743  -0.0427  0.0628  1.0000  -3.6529   0.0000   0.0000   0.0000   0.2669
  11.100   1.2285   0.04548   0.03889  -0.0421  0.0419  1.0000  -3.6499   0.0000   0.0000   0.0000   0.2665
  11.200   1.2199   0.04714   0.04039  -0.0415  0.0233  1.0000  -3.6492   0.0000   0.0000   0.0000   0.2661
  11.300   1.2136   0.04866   0.04178  -0.0411  0.0088  1.0000  -3.6627   0.0000   0.0000   0.0000   0.2658
  11.400   1.2132   0.04966   0.04277  -0.0408  0.0047  1.0000  -3.7102   0.0000   0.0000   0.0000   0.2654
  11.500   1.2161   0.05038   0.04351  -0.0406  0.0028  1.0000  -3.7686   0.0000   0.0000   0.0000   0.2649
  11.600   1.2189   0.05110   0.04427  -0.0405  0.0025  1.0000  -3.8465   0.0000   0.0000   0.0000   0.2645
  11.700   1.2215   0.05184   0.04504  -0.0403  0.0023  1.0000  -3.9262   0.0000   0.0000   0.0000   0.2641
  11.800   1.2240   0.05261   0.04585  -0.0402  0.0021  1.0000  -4.0057   0.0000   0.0000   0.0000   0.2637
  11.900   1.2263   0.05340   0.04668  -0.0400  0.0020  1.0000  -4.0855   0.0000   0.0000   0.0000   0.2634
  12.000   1.2284   0.05423   0.04754  -0.0399  0.0019  1.0000  -4.1640   0.0000   0.0000   0.0000   0.2630
  12.100   1.2302   0.05510   0.04845  -0.0398  0.0018  1.0000  -4.2400   0.0000   0.0000   0.0000   0.2627
  12.200   1.2316   0.05601   0.04940  -0.0397  0.0018  1.0000  -4.3130   0.0000   0.0000   0.0000   0.2624
  12.300   1.2323   0.05703   0.05047  -0.0396  0.0017  1.0000  -4.3800   0.0000   0.0000   0.0000   0.2621
  12.400   1.2293   0.05855   0.05204  -0.0397  0.0017  1.0000  -4.4187   0.0000   0.0000   0.0000   0.2620
  12.500   1.2287   0.05970   0.05322  -0.0396  0.0016  1.0000  -4.4753   0.0000   0.0000   0.0000   0.2618
  12.600   1.2291   0.06067   0.05424  -0.0395  0.0016  1.0000  -4.5401   0.0000   0.0000   0.0000   0.2615
  12.700   1.2301   0.06158   0.05520  -0.0394  0.0016  1.0000  -4.6087   0.0000   0.0000   0.0000   0.2612
  12.800   1.2312   0.06249   0.05614  -0.0392  0.0015  1.0000  -4.6787   0.0000   0.0000   0.0000   0.2608
  12.900   1.2325   0.06340   0.05709  -0.0391  0.0015  1.0000  -4.7491   0.0000   0.0000   0.0000   0.2605
  13.000   1.2337   0.06433   0.05807  -0.0390  0.0015  1.0000  -4.8186   0.0000   0.0000   0.0000   0.2602
  13.100   1.2347   0.06530   0.05908  -0.0389  0.0014  1.0000  -4.8869   0.0000   0.0000   0.0000   0.2599
  13.200   1.2357   0.06630   0.06012  -0.0388  0.0014  1.0000  -4.9540   0.0000   0.0000   0.0000   0.2596
  13.300   1.2366   0.06732   0.06118  -0.0388  0.0014  1.0000  -5.0202   0.0000   0.0000   0.0000   0.2593
  13.400   1.2374   0.06837   0.06227  -0.0387  0.0014  1.0000  -5.0850   0.0000   0.0000   0.0000   0.2591
  13.500   1.2379   0.06946   0.06340  -0.0387  0.0014  1.0000  -5.1481   0.0000   0.0000   0.0000   0.2588
  13.600   1.2383   0.07059   0.06458  -0.0387  0.0014  1.0000  -5.2089   0.0000   0.0000   0.0000   0.2586
  13.700   1.2384   0.07178   0.06582  -0.0387  0.0014  1.0000  -5.2677   0.0000   0.0000   0.0000   0.2584
  13.800   1.2383   0.07303   0.06711  -0.0387  0.0014  1.0000  -5.3240   0.0000   0.0000   0.0000   0.2582
  13.900   1.2378   0.07434   0.06846  -0.0388  0.0014  1.0000  -5.3773   0.0000   0.0000   0.0000   0.2581
  14.000   1.2370   0.07571   0.06987  -0.0389  0.0014  1.0000  -5.4273   0.0000   0.0000   0.0000   0.2580
  14.100   1.2354   0.07721   0.07143  -0.0391  0.0014  1.0000  -5.4706   0.0000   0.0000   0.0000   0.2580
  14.200   1.2316   0.07912   0.07339  -0.0394  0.0014  1.0000  -5.4952   0.0000   0.0000   0.0000   0.2581
  14.300   1.2295   0.08073   0.07504  -0.0396  0.0014  1.0000  -5.5330   0.0000   0.0000   0.0000   0.2582
  14.400   1.2282   0.08219   0.07655  -0.0398  0.0014  1.0000  -5.5768   0.0000   0.0000   0.0000   0.2581
  14.500   1.2273   0.08360   0.07800  -0.0399  0.0014  1.0000  -5.6224   0.0000   0.0000   0.0000   0.2581
  14.600   1.2265   0.08498   0.07943  -0.0401  0.0014  1.0000  -5.6681   0.0000   0.0000   0.0000   0.2580
  14.700   1.2256   0.08636   0.08085  -0.0402  0.0014  1.0000  -5.7128   0.0000   0.0000   0.0000   0.2580
  14.800   1.2248   0.08774   0.08227  -0.0404  0.0014  1.0000  -5.7560   0.0000   0.0000   0.0000   0.2579
  14.900   1.2239   0.08912   0.08370  -0.0405  0.0014  1.0000  -5.7973   0.0000   0.0000   0.0000   0.2579
  15.000   1.2228   0.09052   0.08514  -0.0407  0.0014  1.0000  -5.8359   0.0000   0.0000   0.0000   0.2578
  15.100   1.2216   0.09194   0.08660  -0.0409  0.0015  1.0000  -5.8714   0.0000   0.0000   0.0000   0.2578
  15.200   1.2203   0.09337   0.08809  -0.0411  0.0015  1.0000  -5.9034   0.0000   0.0000   0.0000   0.2578
  15.300   1.2187   0.09484   0.08960  -0.0413  0.0015  1.0000  -5.9313   0.0000   0.0000   0.0000   0.2578
  15.400   1.2155   0.09661   0.09143  -0.0417  0.0015  1.0000  -5.9448   0.0000   0.0000   0.0000   0.2580
  15.500   1.2129   0.09825   0.09312  -0.0420  0.0015  1.0000  -5.9604   0.0000   0.0000   0.0000   0.2582
  15.600   1.2114   0.09969   0.09460  -0.0422  0.0015  1.0000  -5.9804   0.0000   0.0000   0.0000   0.2582
  15.700   1.2104   0.10102   0.09598  -0.0424  0.0016  1.0000  -5.9997   0.0000   0.0000   0.0000   0.2581
  15.800   1.2096   0.10226   0.09728  -0.0425  0.0016  1.0000  -6.0163   0.0000   0.0000   0.0000   0.2580
  15.900   1.2091   0.10343   0.09850  -0.0425  0.0017  1.0000  -6.0299   0.0000   0.0000   0.0000   0.2579
  16.000   1.2089   0.10451   0.09963  -0.0425  0.0017  1.0000  -6.0403   0.0000   0.0000   0.0000   0.2576
  16.100   1.2088   0.10551   0.10069  -0.0424  0.0018  1.0000  -6.0477   0.0000   0.0000   0.0000   0.2573
  16.200   1.2090   0.10643   0.10167  -0.0422  0.0018  1.0000  -6.0474   0.0000   0.0000   0.0000   0.2570
  16.300   1.2092   0.10727   0.10258  -0.0420  0.0019  1.0000  -6.0431   0.0000   0.0000   0.0000   0.2565
  16.400   1.2095   0.10795   0.10333  -0.0416  0.0020  1.0000  -6.0360   0.0000   0.0000   0.0000   0.2560
  16.500   1.2097   0.10856   0.10400  -0.0413  0.0021  1.0000  -6.0256   0.0000   0.0000   0.0000   0.2555
  16.600   1.2096   0.10920   0.10472  -0.0409  0.0022  1.0000  -6.0110   0.0000   0.0000   0.0000   0.2550
  16.700   1.2092   0.10994   0.10554  -0.0406  0.0023  1.0000  -5.9911   0.0000   0.0000   0.0000   0.2545
  16.800   1.2082   0.11083   0.10651  -0.0403  0.0024  1.0000  -5.9630   0.0000   0.0000   0.0000   0.2541
  16.900   1.2061   0.11194   0.10770  -0.0401  0.0025  1.0000  -5.9214   0.0000   0.0000   0.0000   0.2538
  17.000   1.2025   0.11333   0.10919  -0.0400  0.0026  1.0000  -5.8524   0.0000   0.0000   0.0000   0.2536
  17.100   1.2140   0.11225   0.10814  -0.0384  0.0034  1.0000  -5.9158   0.0000   0.0000   0.0000   0.2518
  17.200   1.2141   0.11373   0.10966  -0.0392  0.0035  1.0000  -5.9788   0.0000   0.0000   0.0000   0.2522
  17.300   1.2151   0.11508   0.11104  -0.0399  0.0036  1.0000  -6.0472   0.0000   0.0000   0.0000   0.2526
  17.400   1.2164   0.11641   0.11242  -0.0406  0.0038  1.0000  -6.1060   0.0000   0.0000   0.0000   0.2529
  22.300   0.9297   0.29696   0.29489  -0.0989  0.0099  1.0000  -2.1763   0.0000   0.0000   0.0000   0.3244
  22.400   0.9078   0.29371   0.29166  -0.0967  0.0099  1.0000  -2.0994   0.0000   0.0000   0.0000   0.3248
  22.500   0.8972   0.29313   0.29110  -0.0959  0.0099  1.0000  -2.0517   0.0000   0.0000   0.0000   0.3253
  22.600   0.8891   0.29310   0.29107  -0.0954  0.0099  1.0000  -2.0111   0.0000   0.0000   0.0000   0.3259
  22.700   0.8823   0.29330   0.29129  -0.0951  0.0099  1.0000  -1.9745   0.0000   0.0000   0.0000   0.3264
  22.800   0.8765   0.29365   0.29164  -0.0950  0.0099  1.0000  -1.9408   0.0000   0.0000   0.0000   0.3269
  22.900   0.8712   0.29409   0.29209  -0.0948  0.0099  1.0000  -1.9094   0.0000   0.0000   0.0000   0.3275
  23.000   0.8664   0.29459   0.29260  -0.0948  0.0099  1.0000  -1.8799   0.0000   0.0000   0.0000   0.3280
  23.100   0.8621   0.29514   0.29315  -0.0948  0.0099  1.0000  -1.8520   0.0000   0.0000   0.0000   0.3285
  23.200   0.8581   0.29572   0.29374  -0.0948  0.0099  1.0000  -1.8257   0.0000   0.0000   0.0000   0.3291
  23.300   0.8543   0.29633   0.29435  -0.0948  0.0098  1.0000  -1.8008   0.0000   0.0000   0.0000   0.3296
  23.400   0.8509   0.29696   0.29499  -0.0949  0.0098  1.0000  -1.7772   0.0000   0.0000   0.0000   0.3301
  23.500   0.8477   0.29761   0.29564  -0.0950  0.0098  1.0000  -1.7548   0.0000   0.0000   0.0000   0.3306
  23.600   0.8448   0.29828   0.29632  -0.0952  0.0098  1.0000  -1.7338   0.0000   0.0000   0.0000   0.3311
  23.700   0.8420   0.29896   0.29700  -0.0953  0.0098  1.0000  -1.7140   0.0000   0.0000   0.0000   0.3316
  23.800   0.8395   0.29965   0.29770  -0.0955  0.0097  1.0000  -1.6958   0.0000   0.0000   0.0000   0.3321
  23.900   0.8372   0.30036   0.29841  -0.0957  0.0097  1.0000  -1.6792   0.0000   0.0000   0.0000   0.3326
  24.000   0.8352   0.30107   0.29913  -0.0959  0.0097  1.0000  -1.6648   0.0000   0.0000   0.0000   0.3331
  24.100   0.8335   0.30180   0.29987  -0.0962  0.0096  1.0000  -1.6537   0.0000   0.0000   0.0000   0.3336
  24.200   0.8324   0.30257   0.30064  -0.0965  0.0095  1.0000  -1.6481   0.0000   0.0000   0.0000   0.3341
  24.300   0.8322   0.30338   0.30146  -0.0969  0.0092  1.0000  -1.6491   0.0000   0.0000   0.0000   0.3345
  24.400   0.8316   0.30423   0.30231  -0.0973  0.0089  1.0000  -1.6434   0.0000   0.0000   0.0000   0.3349
  24.500   0.8301   0.30515   0.30323  -0.0977  0.0086  1.0000  -1.6225   0.0000   0.0000   0.0000   0.3355
  24.600   0.8282   0.30607   0.30416  -0.0980  0.0083  1.0000  -1.5977   0.0000   0.0000   0.0000   0.3361
  24.700   0.8264   0.30694   0.30504  -0.0983  0.0081  1.0000  -1.5744   0.0000   0.0000   0.0000   0.3367
  24.800   0.8246   0.30778   0.30588  -0.0986  0.0079  1.0000  -1.5529   0.0000   0.0000   0.0000   0.3372
  24.900   0.8229   0.30859   0.30670  -0.0989  0.0077  1.0000  -1.5332   0.0000   0.0000   0.0000   0.3378
  25.000   0.8212   0.30938   0.30749  -0.0991  0.0075  1.0000  -1.5152   0.0000   0.0000   0.0000   0.3383
  25.100   0.8196   0.31016   0.30827  -0.0994  0.0073  1.0000  -1.4987   0.0000   0.0000   0.0000   0.3388
  25.200   0.8181   0.31092   0.30903  -0.0997  0.0071  1.0000  -1.4835   0.0000   0.0000   0.0000   0.3392
  25.300   0.8166   0.31167   0.30979  -0.1000  0.0069  1.0000  -1.4695   0.0000   0.0000   0.0000   0.3397
  25.400   0.8152   0.31241   0.31053  -0.1002  0.0068  1.0000  -1.4567   0.0000   0.0000   0.0000   0.3402
  25.500   0.8139   0.31314   0.31127  -0.1005  0.0066  1.0000  -1.4448   0.0000   0.0000   0.0000   0.3406
  25.600   0.8126   0.31387   0.31201  -0.1008  0.0064  1.0000  -1.4338   0.0000   0.0000   0.0000   0.3411
  25.700   0.8114   0.31459   0.31273  -0.1011  0.0063  1.0000  -1.4237   0.0000   0.0000   0.0000   0.3415
  25.800   0.8102   0.31531   0.31346  -0.1014  0.0062  1.0000  -1.4143   0.0000   0.0000   0.0000   0.3419
  25.900   0.8091   0.31602   0.31418  -0.1017  0.0060  1.0000  -1.4057   0.0000   0.0000   0.0000   0.3423
  26.000   0.8081   0.31673   0.31489  -0.1020  0.0059  1.0000  -1.3978   0.0000   0.0000   0.0000   0.3428
  26.100   0.8070   0.31744   0.31560  -0.1023  0.0058  1.0000  -1.3906   0.0000   0.0000   0.0000   0.3432
  26.200   0.8061   0.31814   0.31631  -0.1026  0.0057  1.0000  -1.3840   0.0000   0.0000   0.0000   0.3436
  26.300   0.8051   0.31884   0.31701  -0.1029  0.0055  1.0000  -1.3781   0.0000   0.0000   0.0000   0.3440
  26.400   0.8043   0.31954   0.31771  -0.1032  0.0054  1.0000  -1.3728   0.0000   0.0000   0.0000   0.3444
  26.500   0.8034   0.32023   0.31841  -0.1035  0.0053  1.0000  -1.3682   0.0000   0.0000   0.0000   0.3448
  26.600   0.8026   0.32092   0.31914  -0.1038  0.0052  1.0000  -1.3639   0.0000   0.0000   0.0000   0.3452
  26.700   0.8018   0.32160   0.31983  -0.1041  0.0051  1.0000  -1.3605   0.0000   0.0000   0.0000   0.3456
  26.800   0.8011   0.32228   0.32051  -0.1044  0.0050  1.0000  -1.3578   0.0000   0.0000   0.0000   0.3459
  26.900   0.8004   0.32295   0.32119  -0.1048  0.0049  1.0000  -1.3557   0.0000   0.0000   0.0000   0.3463
  27.000   0.7997   0.32362   0.32186  -0.1051  0.0048  1.0000  -1.3543   0.0000   0.0000   0.0000   0.3467
  27.100   0.7991   0.32428   0.32253  -0.1054  0.0048  1.0000  -1.3537   0.0000   0.0000   0.0000   0.3470
  27.200   0.7985   0.32494   0.32319  -0.1057  0.0047  1.0000  -1.3537   0.0000   0.0000   0.0000   0.3474
  27.300   0.7979   0.32559   0.32385  -0.1061  0.0046  1.0000  -1.3543   0.0000   0.0000   0.0000   0.3477
  27.400   0.7974   0.32623   0.32450  -0.1064  0.0045  1.0000  -1.3558   0.0000   0.0000   0.0000   0.3481
  27.500   0.7968   0.32687   0.32514  -0.1067  0.0044  1.0000  -1.3579   0.0000   0.0000   0.0000   0.3484
  27.600   0.7963   0.32750   0.32578  -0.1070  0.0044  1.0000  -1.3608   0.0000   0.0000   0.0000   0.3487
  27.700   0.7959   0.32812   0.32640  -0.1074  0.0043  1.0000  -1.3645   0.0000   0.0000   0.0000   0.3491
  27.800   0.7954   0.32874   0.32702  -0.1077  0.0042  1.0000  -1.3690   0.0000   0.0000   0.0000   0.3494
  27.900   0.7950   0.32934   0.32763  -0.1080  0.0041  1.0000  -1.3743   0.0000   0.0000   0.0000   0.3497
  28.000   0.7946   0.32993   0.32823  -0.1084  0.0041  1.0000  -1.3805   0.0000   0.0000   0.0000   0.3500
  28.100   0.7942   0.33052   0.32882  -0.1087  0.0040  1.0000  -1.3876   0.0000   0.0000   0.0000   0.3503
  28.200   0.7939   0.33109   0.32940  -0.1090  0.0040  1.0000  -1.3956   0.0000   0.0000   0.0000   0.3506
  28.300   0.7935   0.33165   0.32997  -0.1093  0.0039  1.0000  -1.4046   0.0000   0.0000   0.0000   0.3509
  28.400   0.7932   0.33219   0.33052  -0.1097  0.0038  1.0000  -1.4144   0.0000   0.0000   0.0000   0.3511
  28.500   0.7929   0.33273   0.33106  -0.1100  0.0038  1.0000  -1.4252   0.0000   0.0000   0.0000   0.3514
  28.600   0.7926   0.33324   0.33158  -0.1103  0.0037  1.0000  -1.4369   0.0000   0.0000   0.0000   0.3516
  28.700   0.7924   0.33375   0.33209  -0.1106  0.0037  1.0000  -1.4494   0.0000   0.0000   0.0000   0.3519
  28.800   0.7921   0.33423   0.33258  -0.1109  0.0036  1.0000  -1.4625   0.0000   0.0000   0.0000   0.3521
  28.900   0.7919   0.33471   0.33306  -0.1112  0.0036  1.0000  -1.4761   0.0000   0.0000   0.0000   0.3523
  29.000   0.7915   0.33523   0.33359  -0.1115  0.0035  1.0000  -1.4849   0.0000   0.0000   0.0000   0.3525
  29.100   0.7909   0.33582   0.33418  -0.1118  0.0034  1.0000  -1.4874   0.0000   0.0000   0.0000   0.3528
  29.200   0.7902   0.33643   0.33481  -0.1121  0.0034  1.0000  -1.4848   0.0000   0.0000   0.0000   0.3531
  29.300   0.7893   0.33710   0.33547  -0.1124  0.0033  1.0000  -1.4742   0.0000   0.0000   0.0000   0.3535
  29.400   0.7877   0.33788   0.33626  -0.1126  0.0032  1.0000  -1.4425   0.0000   0.0000   0.0000   0.3539
  29.500   0.7814   0.33999   0.33834  -0.1124  0.0030  1.0000  -1.2194   0.0000   0.0000   0.0000   0.3551
  29.600   0.7811   0.34075   0.33911  -0.1127  0.0030  1.0000  -1.2116   0.0000   0.0000   0.0000   0.3555
  29.700   0.7807   0.34151   0.33987  -0.1131  0.0030  1.0000  -1.2039   0.0000   0.0000   0.0000   0.3559
  29.800   0.7804   0.34226   0.34063  -0.1135  0.0030  1.0000  -1.1964   0.0000   0.0000   0.0000   0.3562
  29.900   0.7801   0.34302   0.34139  -0.1139  0.0030  1.0000  -1.1890   0.0000   0.0000   0.0000   0.3566
  30.000   0.7798   0.34377   0.34215  -0.1143  0.0030  1.0000  -1.1818   0.0000   0.0000   0.0000   0.3569


