xflr5 v6.61

 Calculated polar for: MILEY M06-13-128

 1 1 Reynolds number fixed          Mach number fixed         

 xtrf =   1.000 (top)        1.000 (bottom)
 Mach =   0.000     Re =     0.130 e 6     Ncrit =   9.000

  alpha     CL        CD       CDp       Cm    Top Xtr Bot Xtr   Cpmin    Chinge    XCp    
 ------- -------- --------- --------- -------- ------- ------- -------- --------- ---------
 -10.000  -0.3107   0.13103   0.12699  -0.0103  0.6672  0.0297  -1.5281   0.0000   0.0000   0.0000   0.2033
  -9.900  -0.3059   0.12913   0.12509  -0.0104  0.6670  0.0301  -1.4992   0.0000   0.0000   0.0000   0.2024
  -9.800  -0.3007   0.12744   0.12340  -0.0105  0.6670  0.0305  -1.4688   0.0000   0.0000   0.0000   0.2012
  -9.700  -0.2958   0.12590   0.12187  -0.0107  0.6670  0.0308  -1.4421   0.0000   0.0000   0.0000   0.1997
  -9.600  -0.2913   0.12449   0.12046  -0.0111  0.6670  0.0312  -1.4202   0.0000   0.0000   0.0000   0.1977
  -9.500  -0.2870   0.12315   0.11913  -0.0116  0.6670  0.0316  -1.4020   0.0000   0.0000   0.0000   0.1953
  -9.400  -0.2829   0.12186   0.11784  -0.0121  0.6670  0.0319  -1.3867   0.0000   0.0000   0.0000   0.1927
  -9.300  -0.2789   0.12060   0.11659  -0.0127  0.6670  0.0323  -1.3738   0.0000   0.0000   0.0000   0.1898
  -9.200  -0.2751   0.11937   0.11537  -0.0134  0.6671  0.0326  -1.3628   0.0000   0.0000   0.0000   0.1866
  -9.100  -0.2714   0.11816   0.11417  -0.0141  0.6671  0.0330  -1.3535   0.0000   0.0000   0.0000   0.1832
  -9.000  -0.2678   0.11697   0.11299  -0.0149  0.6672  0.0333  -1.3455   0.0000   0.0000   0.0000   0.1797
  -8.900  -0.2643   0.11579   0.11181  -0.0157  0.6672  0.0337  -1.3388   0.0000   0.0000   0.0000   0.1759
  -8.800  -0.2608   0.11461   0.11065  -0.0165  0.6673  0.0341  -1.3330   0.0000   0.0000   0.0000   0.1719
  -8.700  -0.2574   0.11345   0.10949  -0.0173  0.6674  0.0344  -1.3282   0.0000   0.0000   0.0000   0.1678
  -8.600  -0.2541   0.11229   0.10834  -0.0182  0.6675  0.0348  -1.3242   0.0000   0.0000   0.0000   0.1634
  -8.500  -0.2508   0.11114   0.10720  -0.0190  0.6676  0.0352  -1.3211   0.0000   0.0000   0.0000   0.1589
  -8.400  -0.2475   0.10999   0.10596  -0.0199  0.6677  0.0356  -1.3189   0.0000   0.0000   0.0000   0.1542
  -8.300  -0.2443   0.10885   0.10484  -0.0209  0.6678  0.0360  -1.3171   0.0000   0.0000   0.0000   0.1493
  -8.200  -0.2411   0.10772   0.10372  -0.0218  0.6679  0.0364  -1.3161   0.0000   0.0000   0.0000   0.1442
  -8.100  -0.2380   0.10660   0.10261  -0.0228  0.6681  0.0368  -1.3156   0.0000   0.0000   0.0000   0.1388
  -8.000  -0.2348   0.10547   0.10149  -0.0238  0.6682  0.0372  -1.3157   0.0000   0.0000   0.0000   0.1332
  -7.900  -0.2317   0.10435   0.10037  -0.0248  0.6683  0.0376  -1.3163   0.0000   0.0000   0.0000   0.1273
  -7.800  -0.2285   0.10321   0.09925  -0.0259  0.6685  0.0381  -1.3174   0.0000   0.0000   0.0000   0.1210
  -7.700  -0.2253   0.10208   0.09813  -0.0270  0.6687  0.0385  -1.3191   0.0000   0.0000   0.0000   0.1144
  -7.600  -0.2221   0.10095   0.09702  -0.0282  0.6688  0.0390  -1.3215   0.0000   0.0000   0.0000   0.1074
  -7.500  -0.2190   0.09983   0.09591  -0.0294  0.6690  0.0394  -1.3244   0.0000   0.0000   0.0000   0.1001
  -7.400  -0.2158   0.09871   0.09480  -0.0306  0.6692  0.0399  -1.3281   0.0000   0.0000   0.0000   0.0924
  -7.300  -0.2127   0.09758   0.09368  -0.0319  0.6694  0.0404  -1.3324   0.0000   0.0000   0.0000   0.0841
  -7.200  -0.2095   0.09646   0.09257  -0.0333  0.6696  0.0409  -1.3373   0.0000   0.0000   0.0000   0.0754
  -7.100  -0.2065   0.09535   0.09148  -0.0347  0.6698  0.0414  -1.3432   0.0000   0.0000   0.0000   0.0662
  -7.000  -0.2038   0.09428   0.09042  -0.0361  0.6700  0.0419  -1.3503   0.0000   0.0000   0.0000   0.0569
  -6.900  -0.2020   0.09331   0.08947  -0.0374  0.6703  0.0423  -1.3592   0.0000   0.0000   0.0000   0.0487
  -6.800  -0.2011   0.09244   0.08861  -0.0387  0.6706  0.0427  -1.3697   0.0000   0.0000   0.0000   0.0416
  -6.700  -0.2004   0.09159   0.08778  -0.0401  0.6708  0.0431  -1.3815   0.0000   0.0000   0.0000   0.0342
  -6.600  -0.1983   0.09063   0.08682  -0.0419  0.6711  0.0435  -1.3934   0.0000   0.0000   0.0000   0.0233
  -6.500  -0.1951   0.08959   0.08579  -0.0439  0.6714  0.0441  -1.4059   0.0000   0.0000   0.0000   0.0095
  -6.400  -0.1914   0.08857   0.08476  -0.0460  0.6717  0.0447  -1.4199   0.0000   0.0000   0.0000  -0.0059
  -6.300  -0.1874   0.08758   0.08377  -0.0482  0.6721  0.0453  -1.4358   0.0000   0.0000   0.0000  -0.0233
  -6.200  -0.1826   0.08667   0.08284  -0.0506  0.6725  0.0460  -1.4536   0.0000   0.0000   0.0000  -0.0432
  -6.100  -0.1770   0.08593   0.08207  -0.0531  0.6729  0.0467  -1.4735   0.0000   0.0000   0.0000  -0.0664
  -5.900  -0.1633   0.08558   0.08163  -0.0582  0.6746  0.0484  -1.5135   0.0000   0.0000   0.0000  -0.1234
  -5.800  -0.1554   0.08498   0.08097  -0.0599  0.6749  0.0490  -1.5215   0.0000   0.0000   0.0000  -0.1533
  -5.700  -0.1483   0.08414   0.08006  -0.0612  0.6752  0.0493  -1.5273   0.0000   0.0000   0.0000  -0.1815
  -5.600  -0.1416   0.08315   0.07901  -0.0624  0.6755  0.0494  -1.5319   0.0000   0.0000   0.0000  -0.2103
  -5.500  -0.1349   0.08208   0.07788  -0.0635  0.6758  0.0496  -1.5352   0.0000   0.0000   0.0000  -0.2409
  -5.400  -0.1281   0.08097   0.07671  -0.0645  0.6761  0.0497  -1.5376   0.0000   0.0000   0.0000  -0.2745
  -5.300  -0.1216   0.07994   0.07562  -0.0654  0.6763  0.0498  -1.5390   0.0000   0.0000   0.0000  -0.3102
  -5.100  -0.2111   0.08509   0.08183  -0.0739  0.8452  0.0476  -1.5920   0.0000   0.0000   0.0000  -0.1129
  -5.000  -0.2021   0.08503   0.08167  -0.0749  0.8397  0.0487  -1.5980   0.0000   0.0000   0.0000  -0.1338
  -4.900  -0.1922   0.08464   0.08118  -0.0760  0.8360  0.0492  -1.5982   0.0000   0.0000   0.0000  -0.1594
  -4.800  -0.1823   0.08390   0.08034  -0.0772  0.8332  0.0494  -1.5971   0.0000   0.0000   0.0000  -0.1877
  -4.700  -0.1720   0.08300   0.07936  -0.0784  0.8310  0.0496  -1.5950   0.0000   0.0000   0.0000  -0.2209
  -4.600  -0.1612   0.08204   0.07830  -0.0796  0.8291  0.0497  -1.5916   0.0000   0.0000   0.0000  -0.2601
  -4.500  -0.1498   0.08105   0.07721  -0.0809  0.8275  0.0498  -1.5870   0.0000   0.0000   0.0000  -0.3076
  -4.400  -0.1456   0.07719   0.07330  -0.0827  0.8263  0.0506  -1.6509   0.0000   0.0000   0.0000  -0.3357
  -4.300  -0.1432   0.07300   0.06907  -0.0843  0.8254  0.0522  -1.6859   0.0000   0.0000   0.0000  -0.3568
  -4.200  -0.1590   0.07312   0.06916  -0.0792  0.8025  0.0519  -1.6961   0.0000   0.0000   0.0000  -0.2635
  -4.100  -0.1576   0.07120   0.06723  -0.0789  0.7984  0.0528  -1.6871   0.0000   0.0000   0.0000  -0.2662
  -4.000  -0.1526   0.06981   0.06587  -0.0788  0.7952  0.0537  -1.6485   0.0000   0.0000   0.0000  -0.2821
  -3.900  -0.1457   0.06868   0.06474  -0.0789  0.7924  0.0548  -1.6063   0.0000   0.0000   0.0000  -0.3078
  -3.800  -0.1370   0.06767   0.06372  -0.0792  0.7899  0.0560  -1.5647   0.0000   0.0000   0.0000  -0.3454
  -3.700  -0.1267   0.06673   0.06274  -0.0798  0.7877  0.0575  -1.5258   0.0000   0.0000   0.0000  -0.3981
  -3.600  -0.1150   0.06584   0.06180  -0.0806  0.7858  0.0592  -1.4894   0.0000   0.0000   0.0000  -0.4708
  -3.500  -0.1019   0.06498   0.06088  -0.0816  0.7842  0.0611  -1.4571   0.0000   0.0000   0.0000  -0.5726
  -3.400  -0.0876   0.06417   0.05998  -0.0827  0.7827  0.0633  -1.4292   0.0000   0.0000   0.0000  -0.7201
  -3.300  -0.0720   0.06345   0.05914  -0.0840  0.7814  0.0660  -1.4053   0.0000   0.0000   0.0000  -0.9481
  -3.200  -0.0551   0.06297   0.05852  -0.0853  0.7802  0.0692  -1.3854   0.0000   0.0000   0.0000  -1.3399
  -3.100  -0.0253   0.06722   0.06243  -0.0863  0.7788  0.0769  -1.3209   0.0000   0.0000   0.0000  -3.2476
  -3.000  -0.0779   0.06222   0.05773  -0.0784  0.7552  0.0691  -1.3970   0.0000   0.0000   0.0000  -0.7836
  -2.900  -0.0700   0.06198   0.05736  -0.0779  0.7510  0.0718  -1.3861   0.0000   0.0000   0.0000  -0.8925
  -2.800  -0.0539   0.06574   0.06086  -0.0768  0.7467  0.0770  -1.3296   0.0000   0.0000   0.0000  -1.2124
  -2.700  -0.0507   0.06070   0.05564  -0.0781  0.7453  0.0799  -1.3914   0.0000   0.0000   0.0000  -1.3317
  -2.600  -0.0431   0.05869   0.05362  -0.0786  0.7435  0.0825  -1.3669   0.0000   0.0000   0.0000  -1.6196
  -2.500  -0.0335   0.05771   0.05268  -0.0788  0.7417  0.0847  -1.3233   0.0000   0.0000   0.0000  -2.1645
  -2.400  -0.0227   0.05705   0.05202  -0.0791  0.7399  0.0874  -1.2805   0.0000   0.0000   0.0000  -3.3201
  -2.300  -0.0108   0.05656   0.05148  -0.0795  0.7384  0.0908  -1.2413   0.0000   0.0000   0.0000  -7.3055
  -2.200   0.0024   0.05618   0.05102  -0.0799  0.7369  0.0948  -1.2075   0.0000   0.0000   0.0000  33.8462
  -2.000   0.0441   0.05402   0.04801  -0.0796  0.7349  0.0467  -1.4357   0.0000   0.0000   0.0000   2.0998
  -1.900   0.0581   0.05240   0.04621  -0.0802  0.7340  0.0421  -1.4578   0.0000   0.0000   0.0000   1.6637
  -1.800   0.0743   0.05142   0.04500  -0.0806  0.7331  0.0378  -1.4887   0.0000   0.0000   0.0000   1.3606
  -1.700   0.0919   0.05059   0.04380  -0.0807  0.7323  0.0333  -1.5642   0.0000   0.0000   0.0000   1.1488
  -1.600   0.1094   0.05054   0.04351  -0.0810  0.7313  0.0308  -1.5839   0.0000   0.0000   0.0000   1.0070
  -1.500   0.1254   0.05092   0.04374  -0.0813  0.7303  0.0298  -1.5556   0.0000   0.0000   0.0000   0.9126
  -1.300   0.0851   0.04994   0.04280  -0.0734  0.7063  0.0304  -1.5878   0.0000   0.0000   0.0000   1.1314
  -1.200   0.0932   0.04981   0.04257  -0.0728  0.7025  0.0298  -1.5663   0.0000   0.0000   0.0000   1.0487
  -1.100   0.1028   0.04972   0.04239  -0.0725  0.6995  0.0293  -1.5379   0.0000   0.0000   0.0000   0.9701
  -1.000   0.1135   0.04961   0.04219  -0.0723  0.6969  0.0290  -1.5080   0.0000   0.0000   0.0000   0.9003
  -0.900   0.1250   0.04944   0.04193  -0.0722  0.6947  0.0288  -1.4800   0.0000   0.0000   0.0000   0.8396
  -0.800   0.1372   0.04920   0.04159  -0.0722  0.6927  0.0287  -1.4561   0.0000   0.0000   0.0000   0.7865
  -0.700   0.1504   0.04887   0.04115  -0.0722  0.6909  0.0287  -1.4379   0.0000   0.0000   0.0000   0.7397
  -0.600   0.1644   0.04845   0.04061  -0.0724  0.6892  0.0289  -1.4271   0.0000   0.0000   0.0000   0.6984
  -0.400   0.1944   0.04748   0.03942  -0.0729  0.6864  0.0309  -1.4272   0.0000   0.0000   0.0000   0.6313
  -0.300   0.2097   0.04729   0.03920  -0.0732  0.6850  0.0326  -1.3985   0.0000   0.0000   0.0000   0.6047
  -0.200   0.2252   0.04769   0.03968  -0.0740  0.6837  0.0417  -1.2829   0.0000   0.0000   0.0000   0.5834
  -0.100   0.2414   0.04803   0.04003  -0.0747  0.6825  0.0542  -1.1937   0.0000   0.0000   0.0000   0.5638
   0.000   0.2567   0.04813   0.04019  -0.0751  0.6814  0.0625  -1.1445   0.0000   0.0000   0.0000   0.5466
   0.100   0.2707   0.04842   0.04046  -0.0750  0.6803  0.0655  -1.1249   0.0000   0.0000   0.0000   0.5306
   0.200   0.2838   0.04891   0.04089  -0.0747  0.6793  0.0703  -1.1082   0.0000   0.0000   0.0000   0.5165
   0.400   0.2458   0.04858   0.04057  -0.0694  0.6603  0.0658  -1.1282   0.0000   0.0000   0.0000   0.5355
   0.500   0.2495   0.04823   0.04017  -0.0685  0.6546  0.0685  -1.1191   0.0000   0.0000   0.0000   0.5273
   0.600   0.2572   0.04814   0.04001  -0.0679  0.6509  0.0738  -1.1132   0.0000   0.0000   0.0000   0.5165
   0.700   0.2978   0.04559   0.03992  -0.0729  0.6499  1.0000  -1.2806   0.0000   0.0000   0.0000   0.4965
   0.800   0.3066   0.04587   0.04009  -0.0726  0.6468  1.0000  -1.2213   0.0000   0.0000   0.0000   0.4883
   0.900   0.3165   0.04620   0.04031  -0.0724  0.6442  1.0000  -1.1561   0.0000   0.0000   0.0000   0.4801
   1.000   0.3273   0.04656   0.04058  -0.0724  0.6419  1.0000  -1.0868   0.0000   0.0000   0.0000   0.4721
   1.100   0.3387   0.04695   0.04087  -0.0724  0.6399  1.0000  -1.0148   0.0000   0.0000   0.0000   0.4644
   1.200   0.3506   0.04736   0.04120  -0.0724  0.6380  1.0000  -0.9411   0.0000   0.0000   0.0000   0.4570
   1.300   0.3635   0.04781   0.04157  -0.0725  0.6363  1.0000  -0.8651   0.0000   0.0000   0.0000   0.4498
   1.400   0.3776   0.04829   0.04196  -0.0728  0.6347  1.0000  -0.7860   0.0000   0.0000   0.0000   0.4427
   1.500   0.3931   0.04880   0.04236  -0.0732  0.6332  1.0000  -0.7508   0.0000   0.0000   0.0000   0.4358
   1.600   0.4102   0.04938   0.04286  -0.0737  0.6318  1.0000  -0.7664   0.0000   0.0000   0.0000   0.4292
   1.700   0.4280   0.05003   0.04344  -0.0743  0.6304  1.0000  -0.7827   0.0000   0.0000   0.0000   0.4228
   1.800   0.4452   0.05078   0.04413  -0.0746  0.6291  1.0000  -0.7991   0.0000   0.0000   0.0000   0.4167
   1.900   0.4612   0.05172   0.04500  -0.0746  0.6277  1.0000  -0.8160   0.0000   0.0000   0.0000   0.4106
   2.000   0.4761   0.05308   0.04631  -0.0742  0.6263  1.0000  -0.8327   0.0000   0.0000   0.0000   0.4046
   2.100   0.4648   0.05926   0.05249  -0.0724  0.6226  1.0000  -0.8211   0.0000   0.0000   0.0000   0.4044
   2.200   0.4693   0.05966   0.05287  -0.0726  0.6223  1.0000  -0.8251   0.0000   0.0000   0.0000   0.4032
   2.300   0.4732   0.05993   0.05312  -0.0728  0.6219  1.0000  -0.8284   0.0000   0.0000   0.0000   0.4022
   2.400   0.4416   0.05126   0.04439  -0.0677  0.5905  1.0000  -0.8094   0.0000   0.0000   0.0000   0.4012
   2.500   0.4570   0.05141   0.04448  -0.0677  0.5876  1.0000  -0.8268   0.0000   0.0000   0.0000   0.3959
   2.600   0.4762   0.05146   0.04447  -0.0678  0.5849  1.0000  -0.8485   0.0000   0.0000   0.0000   0.3900
   2.700   0.5031   0.05133   0.04427  -0.0683  0.5822  1.0000  -0.8787   0.0000   0.0000   0.0000   0.3832
   2.800   0.5346   0.05106   0.04393  -0.0689  0.5796  1.0000  -0.9146   0.0000   0.0000   0.0000   0.3760
   2.900   0.5577   0.05098   0.04378  -0.0683  0.5777  1.0000  -0.9430   0.0000   0.0000   0.0000   0.3694
   3.000   0.5765   0.05120   0.04395  -0.0674  0.5762  1.0000  -0.9669   0.0000   0.0000   0.0000   0.3637
   3.100   0.5850   0.05277   0.04548  -0.0661  0.5741  1.0000  -0.9792   0.0000   0.0000   0.0000   0.3597
   3.200   0.5229   0.05246   0.04524  -0.0646  0.5532  1.0000  -0.9098   0.0000   0.0000   0.0000   0.3701
   3.300   0.5277   0.05270   0.04546  -0.0642  0.5496  1.0000  -0.9158   0.0000   0.0000   0.0000   0.3680
   3.400   0.5359   0.05285   0.04557  -0.0639  0.5462  1.0000  -0.9260   0.0000   0.0000   0.0000   0.3654
   3.500   0.5467   0.05290   0.04559  -0.0636  0.5431  1.0000  -0.9392   0.0000   0.0000   0.0000   0.3624
   3.600   0.5595   0.05289   0.04554  -0.0634  0.5405  1.0000  -0.9549   0.0000   0.0000   0.0000   0.3592
   3.700   0.5739   0.05283   0.04545  -0.0632  0.5382  1.0000  -0.9725   0.0000   0.0000   0.0000   0.3559
   3.800   0.5894   0.05274   0.04533  -0.0631  0.5363  1.0000  -0.9914   0.0000   0.0000   0.0000   0.3526
   3.900   0.6057   0.05264   0.04520  -0.0631  0.5346  1.0000  -1.0113   0.0000   0.0000   0.0000   0.3494
   4.000   0.6221   0.05255   0.04509  -0.0630  0.5332  1.0000  -1.0313   0.0000   0.0000   0.0000   0.3464
   4.100   0.6383   0.05247   0.04499  -0.0629  0.5319  1.0000  -1.0513   0.0000   0.0000   0.0000   0.3436
   4.200   0.6546   0.05243   0.04493  -0.0628  0.5308  1.0000  -1.0713   0.0000   0.0000   0.0000   0.3408
   4.300   0.6704   0.05243   0.04492  -0.0627  0.5298  1.0000  -1.0908   0.0000   0.0000   0.0000   0.3383
   4.400   0.6853   0.05247   0.04494  -0.0624  0.5290  1.0000  -1.1094   0.0000   0.0000   0.0000   0.3357
   4.500   0.6998   0.05249   0.04495  -0.0620  0.5282  1.0000  -1.1281   0.0000   0.0000   0.0000   0.3331
   4.600   0.7136   0.05255   0.04500  -0.0615  0.5273  1.0000  -1.1463   0.0000   0.0000   0.0000   0.3304
   4.700   0.7255   0.05282   0.04530  -0.0607  0.5261  1.0000  -1.1626   0.0000   0.0000   0.0000   0.3279
   4.800   0.7360   0.05347   0.04594  -0.0598  0.5248  1.0000  -1.1776   0.0000   0.0000   0.0000   0.3252
   4.900   0.6636   0.05596   0.04841  -0.0595  0.5023  1.0000  -1.0846   0.0000   0.0000   0.0000   0.3334
   5.000   0.6707   0.05611   0.04855  -0.0592  0.4991  1.0000  -1.0935   0.0000   0.0000   0.0000   0.3319
   5.100   0.6801   0.05616   0.04859  -0.0589  0.4965  1.0000  -1.1054   0.0000   0.0000   0.0000   0.3301
   5.200   0.6910   0.05613   0.04860  -0.0587  0.4942  1.0000  -1.1195   0.0000   0.0000   0.0000   0.3282
   5.300   0.7030   0.05605   0.04851  -0.0585  0.4924  1.0000  -1.1349   0.0000   0.0000   0.0000   0.3263
   5.400   0.7158   0.05593   0.04839  -0.0583  0.4907  1.0000  -1.1513   0.0000   0.0000   0.0000   0.3243
   5.500   0.7290   0.05580   0.04825  -0.0581  0.4893  1.0000  -1.1684   0.0000   0.0000   0.0000   0.3224
   5.600   0.7420   0.05567   0.04812  -0.0578  0.4881  1.0000  -1.1865   0.0000   0.0000   0.0000   0.3206
   5.700   0.7552   0.05555   0.04800  -0.0576  0.4869  1.0000  -1.2054   0.0000   0.0000   0.0000   0.3188
   5.800   0.7685   0.05543   0.04789  -0.0574  0.4860  1.0000  -1.2245   0.0000   0.0000   0.0000   0.3170
   5.900   0.7822   0.05530   0.04776  -0.0572  0.4851  1.0000  -1.2441   0.0000   0.0000   0.0000   0.3153
   6.000   0.7962   0.05515   0.04761  -0.0570  0.4843  1.0000  -1.2642   0.0000   0.0000   0.0000   0.3136
   6.100   0.8105   0.05497   0.04745  -0.0568  0.4835  1.0000  -1.2848   0.0000   0.0000   0.0000   0.3120
   6.200   0.8247   0.05480   0.04729  -0.0566  0.4828  1.0000  -1.3054   0.0000   0.0000   0.0000   0.3103
   6.300   0.8381   0.05466   0.04716  -0.0563  0.4820  1.0000  -1.3251   0.0000   0.0000   0.0000   0.3088
   6.400   0.8517   0.05451   0.04703  -0.0560  0.4813  1.0000  -1.3452   0.0000   0.0000   0.0000   0.3072
   6.500   0.8654   0.05438   0.04691  -0.0558  0.4805  1.0000  -1.3655   0.0000   0.0000   0.0000   0.3057
   6.600   0.8792   0.05426   0.04681  -0.0554  0.4799  1.0000  -1.3860   0.0000   0.0000   0.0000   0.3042
   6.700   0.8930   0.05418   0.04675  -0.0551  0.4792  1.0000  -1.4065   0.0000   0.0000   0.0000   0.3027
   6.800   0.9066   0.05420   0.04693  -0.0547  0.4784  1.0000  -1.4269   0.0000   0.0000   0.0000   0.3011
   7.000   0.8277   0.06027   0.05283  -0.0545  0.4491  1.0000  -1.3150   0.0000   0.0000   0.0000   0.3062
   7.100   0.8390   0.06016   0.05274  -0.0542  0.4476  1.0000  -1.3318   0.0000   0.0000   0.0000   0.3049
   7.200   0.8508   0.06000   0.05259  -0.0540  0.4463  1.0000  -1.3495   0.0000   0.0000   0.0000   0.3035
   7.300   0.8633   0.05979   0.05254  -0.0537  0.4451  1.0000  -1.3681   0.0000   0.0000   0.0000   0.3022
   7.400   0.8755   0.05957   0.05234  -0.0535  0.4439  1.0000  -1.3867   0.0000   0.0000   0.0000   0.3008
   7.500   0.8877   0.05934   0.05213  -0.0532  0.4428  1.0000  -1.4052   0.0000   0.0000   0.0000   0.2995
   7.600   0.9001   0.05907   0.05188  -0.0529  0.4418  1.0000  -1.4243   0.0000   0.0000   0.0000   0.2982
   7.700   0.9129   0.05878   0.05162  -0.0526  0.4408  1.0000  -1.4438   0.0000   0.0000   0.0000   0.2968
   7.800   0.9261   0.05845   0.05130  -0.0523  0.4400  1.0000  -1.4641   0.0000   0.0000   0.0000   0.2955
   7.900   0.9396   0.05806   0.05094  -0.0520  0.4392  1.0000  -1.4852   0.0000   0.0000   0.0000   0.2942
   8.000   0.9535   0.05764   0.05054  -0.0516  0.4384  1.0000  -1.5068   0.0000   0.0000   0.0000   0.2928
   8.100   0.9676   0.05720   0.05012  -0.0513  0.4376  1.0000  -1.5289   0.0000   0.0000   0.0000   0.2915
   8.200   0.9817   0.05675   0.04970  -0.0509  0.4368  1.0000  -1.5512   0.0000   0.0000   0.0000   0.2902
   8.300   0.9958   0.05633   0.04931  -0.0505  0.4360  1.0000  -1.5734   0.0000   0.0000   0.0000   0.2889
   8.700   0.9501   0.06371   0.05672  -0.0504  0.4054  1.0000  -1.4988   0.0000   0.0000   0.0000   0.2906
   8.800   0.9612   0.06348   0.05651  -0.0501  0.4040  1.0000  -1.5184   0.0000   0.0000   0.0000   0.2895
   8.900   0.9728   0.06319   0.05625  -0.0498  0.4027  1.0000  -1.5391   0.0000   0.0000   0.0000   0.2884
   9.000   0.9849   0.06286   0.05595  -0.0495  0.4016  1.0000  -1.5604   0.0000   0.0000   0.0000   0.2872
   9.100   0.9973   0.06248   0.05560  -0.0492  0.4006  1.0000  -1.5824   0.0000   0.0000   0.0000   0.2861
   9.200   1.0099   0.06206   0.05522  -0.0488  0.3997  1.0000  -1.6050   0.0000   0.0000   0.0000   0.2850
   9.300   1.0228   0.06162   0.05481  -0.0485  0.3988  1.0000  -1.6280   0.0000   0.0000   0.0000   0.2839
   9.400   1.0359   0.06115   0.05438  -0.0482  0.3979  1.0000  -1.6513   0.0000   0.0000   0.0000   0.2828
   9.500   1.0490   0.06067   0.05394  -0.0478  0.3971  1.0000  -1.6749   0.0000   0.0000   0.0000   0.2817
   9.600   1.0622   0.06019   0.05350  -0.0475  0.3963  1.0000  -1.7547   0.0000   0.0000   0.0000   0.2806
   9.700   1.0752   0.05971   0.05307  -0.0471  0.3954  1.0000  -1.8697   0.0000   0.0000   0.0000   0.2795
   9.800   1.0877   0.05930   0.05269  -0.0467  0.3944  1.0000  -1.9847   0.0000   0.0000   0.0000   0.2785
   9.900   1.0988   0.05909   0.05253  -0.0463  0.3930  1.0000  -2.0935   0.0000   0.0000   0.0000   0.2774
  10.100   1.0146   0.07140   0.06476  -0.0480  0.3671  1.0000  -1.6781   0.0000   0.0000   0.0000   0.2825
  10.200   1.0228   0.07148   0.06488  -0.0478  0.3652  1.0000  -1.7647   0.0000   0.0000   0.0000   0.2817
  10.300   1.0320   0.07143   0.06487  -0.0475  0.3637  1.0000  -1.8586   0.0000   0.0000   0.0000   0.2808
  10.400   1.0423   0.07124   0.06471  -0.0472  0.3623  1.0000  -1.9609   0.0000   0.0000   0.0000   0.2799
  10.500   1.0537   0.07085   0.06437  -0.0468  0.3612  1.0000  -2.0727   0.0000   0.0000   0.0000   0.2789
  10.600   1.0661   0.07033   0.06389  -0.0464  0.3602  1.0000  -2.1927   0.0000   0.0000   0.0000   0.2778
  10.700   1.0792   0.06968   0.06329  -0.0460  0.3592  1.0000  -2.3197   0.0000   0.0000   0.0000   0.2766
  10.800   1.0929   0.06895   0.06261  -0.0456  0.3584  1.0000  -2.4525   0.0000   0.0000   0.0000   0.2755
  10.900   1.1067   0.06817   0.06187  -0.0452  0.3576  1.0000  -2.5895   0.0000   0.0000   0.0000   0.2744
  11.000   1.1207   0.06736   0.06112  -0.0447  0.3568  1.0000  -2.7299   0.0000   0.0000   0.0000   0.2732
  11.100   1.1350   0.06654   0.06035  -0.0443  0.3561  1.0000  -2.8744   0.0000   0.0000   0.0000   0.2721
  11.200   1.1494   0.06575   0.05962  -0.0438  0.3553  1.0000  -3.0210   0.0000   0.0000   0.0000   0.2711
  11.300   1.1654   0.06474   0.05909  -0.0433  0.3545  1.0000  -3.1546   0.0000   0.0000   0.0000   0.2699
  11.400   1.1828   0.06351   0.05795  -0.0428  0.3535  1.0000  -3.3219   0.0000   0.0000   0.0000   0.2687
  11.500   1.2001   0.06232   0.05684  -0.0422  0.3521  1.0000  -3.4966   0.0000   0.0000   0.0000   0.2675
  11.700   1.0493   0.08618   0.08002  -0.0469  0.3249  1.0000  -2.5473   0.0000   0.0000   0.0000   0.2773
  11.800   1.0581   0.08606   0.07995  -0.0466  0.3231  1.0000  -2.6538   0.0000   0.0000   0.0000   0.2764
  11.900   1.0703   0.08537   0.07932  -0.0461  0.3217  1.0000  -2.7872   0.0000   0.0000   0.0000   0.2752
  12.000   1.0854   0.08421   0.07821  -0.0455  0.3205  1.0000  -2.9443   0.0000   0.0000   0.0000   0.2738
  12.100   1.1029   0.08264   0.07712  -0.0447  0.3195  1.0000  -3.0963   0.0000   0.0000   0.0000   0.2721
  12.200   1.1212   0.08091   0.07548  -0.0439  0.3187  1.0000  -3.2769   0.0000   0.0000   0.0000   0.2705
  12.300   1.1394   0.07918   0.07384  -0.0432  0.3181  1.0000  -3.4650   0.0000   0.0000   0.0000   0.2689
  12.400   1.1570   0.07760   0.07235  -0.0425  0.3175  1.0000  -3.6519   0.0000   0.0000   0.0000   0.2675
  12.500   1.1747   0.07611   0.07096  -0.0418  0.3168  1.0000  -3.8421   0.0000   0.0000   0.0000   0.2661
  12.600   1.1929   0.07463   0.06959  -0.0412  0.3162  1.0000  -4.0364   0.0000   0.0000   0.0000   0.2648
  12.800   1.2928   0.05807   0.05197  -0.0374  0.2124  1.0000  -5.0576   0.0000   0.0000   0.0000   0.2579
  12.900   1.2851   0.05967   0.05337  -0.0372  0.1969  1.0000  -5.0533   0.0000   0.0000   0.0000   0.2577
  13.000   1.2778   0.06142   0.05503  -0.0371  0.1777  1.0000  -5.0429   0.0000   0.0000   0.0000   0.2576
  13.200   1.2603   0.06546   0.05875  -0.0372  0.1397  1.0000  -5.0120   0.0000   0.0000   0.0000   0.2577
  13.300   1.2511   0.06768   0.06082  -0.0373  0.1241  1.0000  -4.9966   0.0000   0.0000   0.0000   0.2578
  13.400   1.2419   0.06990   0.06287  -0.0375  0.1049  1.0000  -4.9802   0.0000   0.0000   0.0000   0.2579
  13.500   1.2327   0.07216   0.06496  -0.0377  0.0894  1.0000  -4.9639   0.0000   0.0000   0.0000   0.2581
  13.600   1.2238   0.07441   0.06705  -0.0378  0.0743  1.0000  -4.9456   0.0000   0.0000   0.0000   0.2583
  13.800   1.2065   0.07893   0.07129  -0.0382  0.0412  1.0000  -4.9066   0.0000   0.0000   0.0000   0.2587
  13.900   1.1984   0.08119   0.07344  -0.0385  0.0316  1.0000  -4.8813   0.0000   0.0000   0.0000   0.2590
  14.000   1.1911   0.08347   0.07565  -0.0388  0.0253  1.0000  -4.8504   0.0000   0.0000   0.0000   0.2593
  14.100   1.1839   0.08580   0.07795  -0.0391  0.0208  1.0000  -4.8090   0.0000   0.0000   0.0000   0.2596
  14.200   1.1798   0.08771   0.07992  -0.0394  0.0187  1.0000  -4.7895   0.0000   0.0000   0.0000   0.2598
  14.300   1.1764   0.08950   0.08178  -0.0397  0.0171  1.0000  -4.7814   0.0000   0.0000   0.0000   0.2599
  14.400   1.1733   0.09126   0.08359  -0.0400  0.0159  1.0000  -4.7793   0.0000   0.0000   0.0000   0.2601
  14.500   1.1701   0.09300   0.08538  -0.0403  0.0150  1.0000  -4.7803   0.0000   0.0000   0.0000   0.2602
  14.600   1.1669   0.09477   0.08719  -0.0407  0.0142  1.0000  -4.7817   0.0000   0.0000   0.0000   0.2605
  14.700   1.1635   0.09656   0.08904  -0.0411  0.0136  1.0000  -4.7822   0.0000   0.0000   0.0000   0.2607
  14.800   1.1599   0.09839   0.09093  -0.0415  0.0131  1.0000  -4.7808   0.0000   0.0000   0.0000   0.2610
  14.900   1.1557   0.10035   0.09296  -0.0421  0.0127  1.0000  -4.7758   0.0000   0.0000   0.0000   0.2615
  15.000   1.1516   0.10228   0.09495  -0.0426  0.0123  1.0000  -4.7704   0.0000   0.0000   0.0000   0.2619
  15.100   1.1478   0.10413   0.09687  -0.0431  0.0119  1.0000  -4.7652   0.0000   0.0000   0.0000   0.2623
  15.200   1.1443   0.10595   0.09875  -0.0436  0.0116  1.0000  -4.7598   0.0000   0.0000   0.0000   0.2627
  15.300   1.1410   0.10772   0.10060  -0.0441  0.0113  1.0000  -4.7543   0.0000   0.0000   0.0000   0.2630
  15.400   1.1378   0.10942   0.10237  -0.0446  0.0110  1.0000  -4.7486   0.0000   0.0000   0.0000   0.2634
  15.500   1.1347   0.11101   0.10402  -0.0451  0.0107  1.0000  -4.7424   0.0000   0.0000   0.0000   0.2637
  15.600   1.1321   0.11244   0.10552  -0.0454  0.0105  1.0000  -4.7371   0.0000   0.0000   0.0000   0.2640
  15.700   1.1302   0.11369   0.10683  -0.0457  0.0102  1.0000  -4.7331   0.0000   0.0000   0.0000   0.2640
  15.800   1.1294   0.11465   0.10785  -0.0457  0.0100  1.0000  -4.7316   0.0000   0.0000   0.0000   0.2639
  15.900   1.1310   0.11542   0.10861  -0.0458  0.0099  1.0000  -4.7679   0.0000   0.0000   0.0000   0.2636
  16.000   1.1331   0.11612   0.10935  -0.0458  0.0097  1.0000  -4.8094   0.0000   0.0000   0.0000   0.2633
  16.100   1.1356   0.11676   0.11004  -0.0457  0.0096  1.0000  -4.8518   0.0000   0.0000   0.0000   0.2630
  16.200   1.1391   0.11718   0.11049  -0.0455  0.0095  1.0000  -4.9005   0.0000   0.0000   0.0000   0.2624
  16.300   1.1427   0.11757   0.11093  -0.0452  0.0094  1.0000  -4.9487   0.0000   0.0000   0.0000   0.2618
  16.400   1.1461   0.11803   0.11143  -0.0450  0.0093  1.0000  -4.9941   0.0000   0.0000   0.0000   0.2613
  16.500   1.1501   0.11838   0.11181  -0.0447  0.0092  1.0000  -5.0422   0.0000   0.0000   0.0000   0.2606
  16.600   1.1540   0.11874   0.11222  -0.0443  0.0091  1.0000  -5.0893   0.0000   0.0000   0.0000   0.2599
  16.700   1.1573   0.11928   0.11282  -0.0441  0.0090  1.0000  -5.1303   0.0000   0.0000   0.0000   0.2594
  16.800   1.1604   0.11987   0.11347  -0.0438  0.0090  1.0000  -5.1695   0.0000   0.0000   0.0000   0.2589
  16.900   1.1635   0.12052   0.11417  -0.0436  0.0089  1.0000  -5.2072   0.0000   0.0000   0.0000   0.2583
  17.000   1.1664   0.12123   0.11495  -0.0434  0.0089  1.0000  -5.2426   0.0000   0.0000   0.0000   0.2579
  17.100   1.1683   0.12218   0.11597  -0.0434  0.0089  1.0000  -5.2706   0.0000   0.0000   0.0000   0.2576
  17.200   1.1697   0.12328   0.11714  -0.0435  0.0088  1.0000  -5.2938   0.0000   0.0000   0.0000   0.2574
  17.300   1.1706   0.12450   0.11843  -0.0436  0.0088  1.0000  -5.3134   0.0000   0.0000   0.0000   0.2573
  17.400   1.1709   0.12589   0.11989  -0.0439  0.0088  1.0000  -5.3277   0.0000   0.0000   0.0000   0.2573
  17.500   1.1706   0.12741   0.12150  -0.0443  0.0088  1.0000  -5.3380   0.0000   0.0000   0.0000   0.2574
  17.600   1.1700   0.12905   0.12322  -0.0447  0.0089  1.0000  -5.3461   0.0000   0.0000   0.0000   0.2576
  17.700   1.1688   0.13083   0.12507  -0.0453  0.0089  1.0000  -5.3501   0.0000   0.0000   0.0000   0.2580
  17.800   1.1670   0.13279   0.12711  -0.0460  0.0089  1.0000  -5.3484   0.0000   0.0000   0.0000   0.2584
  17.900   1.1645   0.13494   0.12934  -0.0468  0.0089  1.0000  -5.3412   0.0000   0.0000   0.0000   0.2591
  18.000   1.1616   0.13722   0.13170  -0.0478  0.0089  1.0000  -5.3307   0.0000   0.0000   0.0000   0.2598
  18.100   1.1587   0.13957   0.13425  -0.0487  0.0090  1.0000  -5.3190   0.0000   0.0000   0.0000   0.2606
  18.200   1.1555   0.14200   0.13677  -0.0498  0.0090  1.0000  -5.3041   0.0000   0.0000   0.0000   0.2614
  18.300   1.1522   0.14452   0.13937  -0.0508  0.0090  1.0000  -5.2863   0.0000   0.0000   0.0000   0.2623
  18.400   1.1485   0.14715   0.14208  -0.0520  0.0091  1.0000  -5.2651   0.0000   0.0000   0.0000   0.2633
  18.500   1.1445   0.14990   0.14490  -0.0532  0.0091  1.0000  -5.2403   0.0000   0.0000   0.0000   0.2644
  18.600   1.1398   0.15289   0.14797  -0.0546  0.0091  1.0000  -5.2088   0.0000   0.0000   0.0000   0.2657
  18.700   1.1349   0.15599   0.15115  -0.0561  0.0092  1.0000  -5.1738   0.0000   0.0000   0.0000   0.2670
  18.800   1.1300   0.15913   0.15435  -0.0575  0.0092  1.0000  -5.1376   0.0000   0.0000   0.0000   0.2684
  18.900   1.1251   0.16234   0.15763  -0.0590  0.0092  1.0000  -5.0990   0.0000   0.0000   0.0000   0.2698
  19.000   1.1201   0.16566   0.16102  -0.0605  0.0093  1.0000  -5.0573   0.0000   0.0000   0.0000   0.2713
  19.100   1.1146   0.16915   0.16459  -0.0621  0.0093  1.0000  -5.0102   0.0000   0.0000   0.0000   0.2729
  19.200   1.1085   0.17290   0.16840  -0.0639  0.0094  1.0000  -4.9560   0.0000   0.0000   0.0000   0.2747
  19.300   1.1026   0.17665   0.17221  -0.0656  0.0094  1.0000  -4.9001   0.0000   0.0000   0.0000   0.2765
  19.400   1.0967   0.18047   0.17597  -0.0673  0.0094  1.0000  -4.8415   0.0000   0.0000   0.0000   0.2783
  19.500   1.0907   0.18441   0.17998  -0.0690  0.0095  1.0000  -4.7787   0.0000   0.0000   0.0000   0.2802
  19.600   1.0841   0.18865   0.18427  -0.0709  0.0095  1.0000  -4.7070   0.0000   0.0000   0.0000   0.2823
  19.700   1.0772   0.19304   0.18871  -0.0727  0.0096  1.0000  -4.6292   0.0000   0.0000   0.0000   0.2844
  19.800   1.0704   0.19745   0.19318  -0.0746  0.0097  1.0000  -4.5478   0.0000   0.0000   0.0000   0.2865
  19.900   1.0635   0.20199   0.19776  -0.0764  0.0097  1.0000  -4.4601   0.0000   0.0000   0.0000   0.2887
  20.000   1.0559   0.20689   0.20269  -0.0782  0.0098  1.0000  -4.3590   0.0000   0.0000   0.0000   0.2910
  20.100   1.0478   0.21199   0.20784  -0.0801  0.0099  1.0000  -4.2429   0.0000   0.0000   0.0000   0.2934
  20.700   1.0272   0.23412   0.23017  -0.0877  0.0104  1.0000  -3.9637   0.0000   0.0000   0.0000   0.3022
  20.800   1.0239   0.23785   0.23392  -0.0889  0.0105  1.0000  -3.9101   0.0000   0.0000   0.0000   0.3035
  20.900   1.0200   0.24191   0.23799  -0.0901  0.0107  1.0000  -3.8402   0.0000   0.0000   0.0000   0.3050
  21.000   1.0157   0.24622   0.24232  -0.0912  0.0109  1.0000  -3.7527   0.0000   0.0000   0.0000   0.3066
  21.100   1.0097   0.25146   0.24758  -0.0925  0.0112  1.0000  -3.6111   0.0000   0.0000   0.0000   0.3086
  21.200   0.9975   0.26005   0.25615  -0.0939  0.0121  1.0000  -3.2624   0.0000   0.0000   0.0000   0.3116
  21.300   0.9858   0.26767   0.26374  -0.0950  0.0131  1.0000  -2.9581   0.0000   0.0000   0.0000   0.3142
  21.400   0.9781   0.27284   0.26888  -0.0958  0.0138  1.0000  -2.7871   0.0000   0.0000   0.0000   0.3160
  21.500   0.9724   0.27683   0.27286  -0.0964  0.0144  1.0000  -2.6738   0.0000   0.0000   0.0000   0.3173
  21.600   0.9673   0.28026   0.27628  -0.0969  0.0149  1.0000  -2.5852   0.0000   0.0000   0.0000   0.3183
  21.700   0.9625   0.28328   0.27930  -0.0972  0.0154  1.0000  -2.5111   0.0000   0.0000   0.0000   0.3192
  21.800   0.9577   0.28599   0.28200  -0.0975  0.0159  1.0000  -2.4472   0.0000   0.0000   0.0000   0.3200
  21.900   0.9528   0.28838   0.28440  -0.0977  0.0164  1.0000  -2.3906   0.0000   0.0000   0.0000   0.3206
  22.000   0.9476   0.29047   0.28650  -0.0977  0.0169  1.0000  -2.3397   0.0000   0.0000   0.0000   0.3212
  22.100   0.9410   0.29198   0.28801  -0.0975  0.0174  1.0000  -2.2910   0.0000   0.0000   0.0000   0.3217
  22.200   0.9258   0.29095   0.28701  -0.0961  0.0178  1.0000  -2.2276   0.0000   0.0000   0.0000   0.3221
  22.300   0.9128   0.29003   0.28612  -0.0949  0.0182  1.0000  -2.1725   0.0000   0.0000   0.0000   0.3224
  22.400   0.9030   0.28968   0.28578  -0.0941  0.0187  1.0000  -2.1278   0.0000   0.0000   0.0000   0.3227
  22.500   0.8944   0.28950   0.28562  -0.0934  0.0193  1.0000  -2.0894   0.0000   0.0000   0.0000   0.3230
  22.600   0.8741   0.29300   0.28914  -0.0931  0.0301  1.0000  -1.7134   0.0000   0.0000   0.0000   0.3260
  24.500   0.8241   0.30604   0.30239  -0.0914  0.0354  1.0000  -1.4332   0.0000   0.0000   0.0000   0.3292
  24.600   0.8223   0.30675   0.30310  -0.0916  0.0354  1.0000  -1.4180   0.0000   0.0000   0.0000   0.3298
  24.700   0.8206   0.30744   0.30380  -0.0919  0.0353  1.0000  -1.4030   0.0000   0.0000   0.0000   0.3303
  24.800   0.8189   0.30812   0.30449  -0.0922  0.0353  1.0000  -1.3882   0.0000   0.0000   0.0000   0.3308
  24.900   0.8172   0.30878   0.30516  -0.0925  0.0352  1.0000  -1.3734   0.0000   0.0000   0.0000   0.3313
  25.000   0.8156   0.30941   0.30580  -0.0929  0.0352  1.0000  -1.3587   0.0000   0.0000   0.0000   0.3319
  25.100   0.8140   0.31002   0.30642  -0.0932  0.0351  1.0000  -1.3441   0.0000   0.0000   0.0000   0.3324
  25.200   0.8124   0.31062   0.30702  -0.0936  0.0350  1.0000  -1.3295   0.0000   0.0000   0.0000   0.3330
  25.300   0.8106   0.31115   0.30756  -0.0940  0.0349  1.0000  -1.3128   0.0000   0.0000   0.0000   0.3337
  25.400   0.8084   0.31161   0.30803  -0.0945  0.0348  1.0000  -1.2920   0.0000   0.0000   0.0000   0.3346
  25.500   0.8058   0.31203   0.30844  -0.0950  0.0347  1.0000  -1.2680   0.0000   0.0000   0.0000   0.3356
  25.600   0.8033   0.31249   0.30891  -0.0957  0.0344  1.0000  -1.2419   0.0000   0.0000   0.0000   0.3367
  25.700   0.8009   0.31307   0.30950  -0.0964  0.0341  1.0000  -1.2137   0.0000   0.0000   0.0000   0.3379
  25.800   0.7990   0.31385   0.31028  -0.0972  0.0336  1.0000  -1.1847   0.0000   0.0000   0.0000   0.3392
  25.900   0.7975   0.31477   0.31120  -0.0979  0.0329  1.0000  -1.1597   0.0000   0.0000   0.0000   0.3402
  26.000   0.7964   0.31568   0.31211  -0.0985  0.0323  1.0000  -1.1409   0.0000   0.0000   0.0000   0.3410
  26.100   0.7954   0.31653   0.31297  -0.0989  0.0317  1.0000  -1.1265   0.0000   0.0000   0.0000   0.3416
  26.200   0.7945   0.31733   0.31379  -0.0993  0.0311  1.0000  -1.1148   0.0000   0.0000   0.0000   0.3421
  26.300   0.7937   0.31811   0.31457  -0.0997  0.0306  1.0000  -1.1049   0.0000   0.0000   0.0000   0.3426
  26.400   0.7929   0.31886   0.31533  -0.1000  0.0300  1.0000  -1.0963   0.0000   0.0000   0.0000   0.3430
  26.500   0.7922   0.31960   0.31608  -0.1004  0.0296  1.0000  -1.0887   0.0000   0.0000   0.0000   0.3434
  26.600   0.7915   0.32032   0.31681  -0.1007  0.0291  1.0000  -1.0819   0.0000   0.0000   0.0000   0.3438
  26.700   0.7908   0.32103   0.31753  -0.1010  0.0286  1.0000  -1.0760   0.0000   0.0000   0.0000   0.3442
  26.800   0.7902   0.32173   0.31823  -0.1013  0.0282  1.0000  -1.0707   0.0000   0.0000   0.0000   0.3445
  26.900   0.7896   0.32242   0.31893  -0.1016  0.0278  1.0000  -1.0661   0.0000   0.0000   0.0000   0.3449
  27.000   0.7891   0.32310   0.31962  -0.1019  0.0274  1.0000  -1.0621   0.0000   0.0000   0.0000   0.3452
  27.100   0.7885   0.32378   0.32039  -0.1022  0.0270  1.0000  -1.0550   0.0000   0.0000   0.0000   0.3456
  27.200   0.7880   0.32444   0.32106  -0.1025  0.0266  1.0000  -1.0516   0.0000   0.0000   0.0000   0.3459
  27.300   0.7876   0.32509   0.32172  -0.1028  0.0263  1.0000  -1.0491   0.0000   0.0000   0.0000   0.3462
  27.400   0.7872   0.32573   0.32237  -0.1031  0.0259  1.0000  -1.0474   0.0000   0.0000   0.0000   0.3464
  27.500   0.7868   0.32636   0.32300  -0.1034  0.0256  1.0000  -1.0466   0.0000   0.0000   0.0000   0.3467
  27.600   0.7864   0.32697   0.32363  -0.1037  0.0252  1.0000  -1.0466   0.0000   0.0000   0.0000   0.3470
  27.700   0.7861   0.32757   0.32424  -0.1040  0.0249  1.0000  -1.0475   0.0000   0.0000   0.0000   0.3472
  27.800   0.7858   0.32815   0.32483  -0.1042  0.0245  1.0000  -1.0493   0.0000   0.0000   0.0000   0.3474
  27.900   0.7856   0.32872   0.32541  -0.1045  0.0242  1.0000  -1.0523   0.0000   0.0000   0.0000   0.3476
  28.000   0.7854   0.32927   0.32597  -0.1047  0.0239  1.0000  -1.0564   0.0000   0.0000   0.0000   0.3478
  28.100   0.7852   0.32979   0.32650  -0.1050  0.0236  1.0000  -1.0619   0.0000   0.0000   0.0000   0.3479
  28.200   0.7851   0.33030   0.32702  -0.1052  0.0233  1.0000  -1.0688   0.0000   0.0000   0.0000   0.3480
  28.300   0.7851   0.33078   0.32751  -0.1054  0.0230  1.0000  -1.0775   0.0000   0.0000   0.0000   0.3481
  28.400   0.7851   0.33125   0.32799  -0.1055  0.0227  1.0000  -1.0882   0.0000   0.0000   0.0000   0.3480
  28.500   0.7852   0.33170   0.32846  -0.1056  0.0225  1.0000  -1.1012   0.0000   0.0000   0.0000   0.3479
  28.600   0.7855   0.33218   0.32895  -0.1057  0.0222  1.0000  -1.1171   0.0000   0.0000   0.0000   0.3477
  28.700   0.7860   0.33274   0.32953  -0.1056  0.0219  1.0000  -1.1370   0.0000   0.0000   0.0000   0.3473
  28.800   0.7871   0.33362   0.33042  -0.1054  0.0216  1.0000  -1.1624   0.0000   0.0000   0.0000   0.3466
  28.900   0.7869   0.33801   0.33478  -0.1046  0.0209  1.0000  -1.1462   0.0000   0.0000   0.0000   0.3457
  29.000   0.7864   0.33870   0.33548  -0.1050  0.0208  1.0000  -1.1379   0.0000   0.0000   0.0000   0.3461
  29.100   0.7858   0.33937   0.33616  -0.1054  0.0208  1.0000  -1.1296   0.0000   0.0000   0.0000   0.3465
  29.200   0.7852   0.34003   0.33683  -0.1058  0.0208  1.0000  -1.1212   0.0000   0.0000   0.0000   0.3470
  29.300   0.7846   0.34068   0.33749  -0.1062  0.0208  1.0000  -1.1130   0.0000   0.0000   0.0000   0.3474
  29.400   0.7841   0.34133   0.33814  -0.1066  0.0208  1.0000  -1.1048   0.0000   0.0000   0.0000   0.3478
  29.500   0.7835   0.34197   0.33879  -0.1070  0.0208  1.0000  -1.0968   0.0000   0.0000   0.0000   0.3483
  29.600   0.7830   0.34260   0.33943  -0.1074  0.0207  1.0000  -1.0888   0.0000   0.0000   0.0000   0.3487
  29.700   0.7824   0.34322   0.34006  -0.1078  0.0207  1.0000  -1.0807   0.0000   0.0000   0.0000   0.3492
  29.800   0.7819   0.34382   0.34067  -0.1082  0.0207  1.0000  -1.0725   0.0000   0.0000   0.0000   0.3496
  29.900   0.7813   0.34442   0.34128  -0.1086  0.0207  1.0000  -1.0644   0.0000   0.0000   0.0000   0.3501
  30.000   0.7807   0.34501   0.34188  -0.1090  0.0207  1.0000  -1.0564   0.0000   0.0000   0.0000   0.3505


