xflr5 v6.61

 Calculated polar for: MILEY M06-13-128

 1 1 Reynolds number fixed          Mach number fixed         

 xtrf =   1.000 (top)        1.000 (bottom)
 Mach =   0.000     Re =     0.160 e 6     Ncrit =   9.000

  alpha     CL        CD       CDp       Cm    Top Xtr Bot Xtr   Cpmin    Chinge    XCp    
 ------- -------- --------- --------- -------- ------- ------- -------- --------- ---------
 -10.000  -0.3106   0.13251   0.12858  -0.0036  0.6419  0.0270  -1.4054   0.0000   0.0000   0.0000   0.2250
  -9.900  -0.3078   0.13158   0.12765  -0.0045  0.6416  0.0271  -1.4118   0.0000   0.0000   0.0000   0.2219
  -9.800  -0.3047   0.13060   0.12669  -0.0055  0.6416  0.0272  -1.4162   0.0000   0.0000   0.0000   0.2187
  -9.700  -0.3015   0.12958   0.12568  -0.0064  0.6415  0.0273  -1.4206   0.0000   0.0000   0.0000   0.2154
  -9.600  -0.2983   0.12853   0.12463  -0.0074  0.6415  0.0274  -1.4249   0.0000   0.0000   0.0000   0.2119
  -9.500  -0.2950   0.12744   0.12355  -0.0084  0.6415  0.0275  -1.4293   0.0000   0.0000   0.0000   0.2082
  -9.400  -0.2917   0.12633   0.12245  -0.0093  0.6415  0.0275  -1.4338   0.0000   0.0000   0.0000   0.2045
  -9.300  -0.2884   0.12520   0.12133  -0.0103  0.6415  0.0276  -1.4385   0.0000   0.0000   0.0000   0.2007
  -9.200  -0.2851   0.12405   0.12020  -0.0113  0.6416  0.0276  -1.4433   0.0000   0.0000   0.0000   0.1967
  -9.100  -0.2819   0.12290   0.11905  -0.0123  0.6416  0.0277  -1.4482   0.0000   0.0000   0.0000   0.1926
  -9.000  -0.2786   0.12173   0.11789  -0.0134  0.6417  0.0277  -1.4532   0.0000   0.0000   0.0000   0.1884
  -8.900  -0.2754   0.12055   0.11672  -0.0144  0.6417  0.0277  -1.4585   0.0000   0.0000   0.0000   0.1841
  -8.800  -0.2722   0.11936   0.11555  -0.0154  0.6418  0.0278  -1.4639   0.0000   0.0000   0.0000   0.1796
  -8.700  -0.2689   0.11817   0.11436  -0.0165  0.6419  0.0278  -1.4694   0.0000   0.0000   0.0000   0.1750
  -8.600  -0.2657   0.11697   0.11318  -0.0175  0.6420  0.0278  -1.4752   0.0000   0.0000   0.0000   0.1702
  -8.500  -0.2625   0.11575   0.11198  -0.0186  0.6421  0.0278  -1.4811   0.0000   0.0000   0.0000   0.1652
  -8.400  -0.2592   0.11453   0.11076  -0.0198  0.6422  0.0279  -1.4872   0.0000   0.0000   0.0000   0.1598
  -8.300  -0.2557   0.11328   0.10953  -0.0210  0.6423  0.0279  -1.4934   0.0000   0.0000   0.0000   0.1541
  -8.200  -0.2523   0.11202   0.10828  -0.0222  0.6425  0.0279  -1.4998   0.0000   0.0000   0.0000   0.1481
  -8.100  -0.2488   0.11076   0.10703  -0.0234  0.6426  0.0279  -1.5065   0.0000   0.0000   0.0000   0.1417
  -8.000  -0.2453   0.10947   0.10567  -0.0248  0.6428  0.0279  -1.5138   0.0000   0.0000   0.0000   0.1350
  -7.900  -0.2418   0.10819   0.10441  -0.0261  0.6430  0.0279  -1.5211   0.0000   0.0000   0.0000   0.1278
  -7.800  -0.2382   0.10690   0.10313  -0.0275  0.6432  0.0280  -1.5288   0.0000   0.0000   0.0000   0.1201
  -7.700  -0.2346   0.10560   0.10184  -0.0290  0.6434  0.0280  -1.5370   0.0000   0.0000   0.0000   0.1120
  -7.600  -0.2312   0.10432   0.10057  -0.0306  0.6437  0.0280  -1.5459   0.0000   0.0000   0.0000   0.1034
  -7.500  -0.2283   0.10310   0.09937  -0.0321  0.6439  0.0280  -1.5558   0.0000   0.0000   0.0000   0.0951
  -7.400  -0.2264   0.10198   0.09827  -0.0335  0.6442  0.0280  -1.5671   0.0000   0.0000   0.0000   0.0876
  -7.300  -0.2243   0.10085   0.09715  -0.0351  0.6445  0.0280  -1.5790   0.0000   0.0000   0.0000   0.0793
  -7.200  -0.2209   0.09959   0.09589  -0.0368  0.6448  0.0280  -1.5905   0.0000   0.0000   0.0000   0.0689
  -7.100  -0.2168   0.09824   0.09455  -0.0387  0.6450  0.0280  -1.6016   0.0000   0.0000   0.0000   0.0570
  -7.000  -0.2124   0.09688   0.09324  -0.0405  0.6453  0.0280  -1.6127   0.0000   0.0000   0.0000   0.0446
  -6.900  -0.2147   0.09331   0.08968  -0.0425  0.6456  0.0285  -1.6969   0.0000   0.0000   0.0000   0.0379
  -6.800  -0.2153   0.09044   0.08682  -0.0441  0.6459  0.0289  -1.7480   0.0000   0.0000   0.0000   0.0311
  -6.700  -0.2141   0.08817   0.08456  -0.0454  0.6462  0.0293  -1.7730   0.0000   0.0000   0.0000   0.0235
  -6.600  -0.2118   0.08625   0.08264  -0.0467  0.6466  0.0296  -1.7827   0.0000   0.0000   0.0000   0.0152
  -6.500  -0.2086   0.08458   0.08098  -0.0478  0.6469  0.0300  -1.7797   0.0000   0.0000   0.0000   0.0065
  -6.400  -0.2045   0.08321   0.07962  -0.0482  0.6472  0.0304  -1.7500   0.0000   0.0000   0.0000  -0.0001
  -6.300  -0.2000   0.08195   0.07837  -0.0488  0.6475  0.0308  -1.7224   0.0000   0.0000   0.0000  -0.0087
  -6.200  -0.1952   0.08075   0.07718  -0.0496  0.6479  0.0312  -1.6979   0.0000   0.0000   0.0000  -0.0189
  -6.100  -0.1902   0.07958   0.07601  -0.0505  0.6482  0.0317  -1.6758   0.0000   0.0000   0.0000  -0.0308
  -6.000  -0.1849   0.07845   0.07488  -0.0515  0.6486  0.0321  -1.6536   0.0000   0.0000   0.0000  -0.0438
  -5.900  -0.1795   0.07732   0.07374  -0.0526  0.6489  0.0326  -1.6348   0.0000   0.0000   0.0000  -0.0586
  -5.800  -0.1738   0.07618   0.07260  -0.0538  0.6493  0.0330  -1.6187   0.0000   0.0000   0.0000  -0.0754
  -5.700  -0.1680   0.07504   0.07146  -0.0550  0.6497  0.0335  -1.6048   0.0000   0.0000   0.0000  -0.0940
  -5.600  -0.1619   0.07391   0.07032  -0.0563  0.6501  0.0340  -1.5926   0.0000   0.0000   0.0000  -0.1147
  -5.500  -0.1557   0.07278   0.06917  -0.0576  0.6504  0.0345  -1.5819   0.0000   0.0000   0.0000  -0.1377
  -5.400  -0.1492   0.07165   0.06802  -0.0590  0.6508  0.0351  -1.5723   0.0000   0.0000   0.0000  -0.1634
  -5.300  -0.1427   0.07053   0.06687  -0.0603  0.6511  0.0357  -1.5638   0.0000   0.0000   0.0000  -0.1914
  -5.200  -0.1361   0.06939   0.06571  -0.0615  0.6509  0.0363  -1.5563   0.0000   0.0000   0.0000  -0.2209
  -5.100  -0.1295   0.06824   0.06452  -0.0625  0.6504  0.0370  -1.5497   0.0000   0.0000   0.0000  -0.2528
  -5.000  -0.1228   0.06709   0.06333  -0.0635  0.6497  0.0377  -1.5438   0.0000   0.0000   0.0000  -0.2879
  -4.900  -0.1161   0.06596   0.06215  -0.0644  0.6489  0.0385  -1.5384   0.0000   0.0000   0.0000  -0.3267
  -4.800  -0.1090   0.06483   0.06098  -0.0652  0.6480  0.0393  -1.5336   0.0000   0.0000   0.0000  -0.3713
  -4.700  -0.1017   0.06373   0.05982  -0.0660  0.6472  0.0402  -1.5294   0.0000   0.0000   0.0000  -0.4236
  -4.500  -0.0739   0.06753   0.06402  -0.0913  0.7595  0.0412  -1.5284   0.0000   0.0000   0.0000  -1.0216
  -4.400  -0.0736   0.06678   0.06322  -0.0906  0.7551  0.0418  -1.5298   0.0000   0.0000   0.0000  -1.0157
  -4.300  -0.0708   0.06603   0.06241  -0.0901  0.7517  0.0426  -1.5299   0.0000   0.0000   0.0000  -1.0595
  -4.200  -0.0660   0.06529   0.06160  -0.0898  0.7489  0.0436  -1.5295   0.0000   0.0000   0.0000  -1.1504
  -4.100  -0.0593   0.06466   0.06087  -0.0896  0.7464  0.0449  -1.5294   0.0000   0.0000   0.0000  -1.3047
  -4.000  -0.0495   0.06455   0.06063  -0.0895  0.7443  0.0468  -1.5262   0.0000   0.0000   0.0000  -1.6102
  -3.900  -0.0342   0.06641   0.06230  -0.0892  0.7422  0.0493  -1.4890   0.0000   0.0000   0.0000  -2.4299
  -3.800  -0.0256   0.06615   0.06192  -0.0890  0.7405  0.0496  -1.4748   0.0000   0.0000   0.0000  -3.3248
  -3.700  -0.0169   0.06560   0.06127  -0.0888  0.7389  0.0497  -1.4626   0.0000   0.0000   0.0000  -5.1600
  -3.600  -0.0083   0.06496   0.06052  -0.0886  0.7374  0.0498  -1.4509   0.0000   0.0000   0.0000  -10.7610
  -3.500   0.0006   0.06429   0.05974  -0.0884  0.7359  0.0499  -1.4388   0.0000   0.0000   0.0000  165.1926
  -3.400  -0.0038   0.05846   0.05378  -0.0889  0.7349  0.0527  -1.5448   0.0000   0.0000   0.0000  -23.6966
  -3.300   0.0035   0.05721   0.05249  -0.0888  0.7337  0.0540  -1.5178   0.0000   0.0000   0.0000  26.0917
  -3.200   0.0121   0.05649   0.05177  -0.0886  0.7325  0.0552  -1.4762   0.0000   0.0000   0.0000   7.7369
  -3.100   0.0208   0.05604   0.05129  -0.0882  0.7314  0.0564  -1.4371   0.0000   0.0000   0.0000   4.5944
  -3.000   0.0031   0.05567   0.05090  -0.0847  0.7084  0.0560  -1.4577   0.0000   0.0000   0.0000  27.9954
  -2.900   0.0067   0.05500   0.05020  -0.0840  0.7046  0.0569  -1.4322   0.0000   0.0000   0.0000  13.0556
  -2.800   0.0120   0.05442   0.04957  -0.0835  0.7018  0.0579  -1.4052   0.0000   0.0000   0.0000   7.3886
  -2.700   0.0185   0.05386   0.04897  -0.0831  0.6994  0.0592  -1.3783   0.0000   0.0000   0.0000   4.8661
  -2.600   0.0259   0.05333   0.04837  -0.0827  0.6973  0.0605  -1.3520   0.0000   0.0000   0.0000   3.5188
  -2.500   0.0343   0.05282   0.04778  -0.0824  0.6954  0.0620  -1.3267   0.0000   0.0000   0.0000   2.7106
  -2.400   0.0435   0.05233   0.04719  -0.0821  0.6937  0.0637  -1.3026   0.0000   0.0000   0.0000   2.1851
  -2.300   0.0533   0.05186   0.04662  -0.0818  0.6922  0.0653  -1.2801   0.0000   0.0000   0.0000   1.8224
  -2.200   0.0637   0.05139   0.04604  -0.0816  0.6907  0.0666  -1.2597   0.0000   0.0000   0.0000   1.5610
  -2.100   0.0745   0.05082   0.04534  -0.0813  0.6894  0.0668  -1.2455   0.0000   0.0000   0.0000   1.3672
  -2.000   0.0864   0.04966   0.04396  -0.0809  0.6883  0.0608  -1.2770   0.0000   0.0000   0.0000   1.2090
  -1.900   0.1075   0.04879   0.04254  -0.0790  0.6874  0.0269  -1.5498   0.0000   0.0000   0.0000   1.0031
  -1.800   0.1179   0.04775   0.04133  -0.0787  0.6863  0.0259  -1.5614   0.0000   0.0000   0.0000   0.9337
  -1.700   0.1289   0.04712   0.04055  -0.0784  0.6853  0.0253  -1.5562   0.0000   0.0000   0.0000   0.8725
  -1.600   0.1402   0.04665   0.03994  -0.0780  0.6843  0.0248  -1.5454   0.0000   0.0000   0.0000   0.8195
  -1.500   0.1516   0.04630   0.03946  -0.0777  0.6834  0.0244  -1.5310   0.0000   0.0000   0.0000   0.7739
  -1.400   0.1631   0.04605   0.03908  -0.0773  0.6824  0.0241  -1.5135   0.0000   0.0000   0.0000   0.7344
  -1.300   0.1745   0.04591   0.03882  -0.0768  0.6815  0.0239  -1.4932   0.0000   0.0000   0.0000   0.6999
  -1.200   0.1858   0.04589   0.03869  -0.0764  0.6806  0.0239  -1.4732   0.0000   0.0000   0.0000   0.6698
  -1.100   0.1967   0.04603   0.03873  -0.0758  0.6797  0.0239  -1.4546   0.0000   0.0000   0.0000   0.6435
  -1.000   0.1726   0.04603   0.03880  -0.0740  0.6616  0.0238  -1.4732   0.0000   0.0000   0.0000   0.6876
  -0.900   0.1746   0.04552   0.03824  -0.0731  0.6559  0.0239  -1.4642   0.0000   0.0000   0.0000   0.6771
  -0.800   0.1806   0.04524   0.03789  -0.0724  0.6524  0.0240  -1.4507   0.0000   0.0000   0.0000   0.6586
  -0.700   0.1889   0.04501   0.03759  -0.0719  0.6496  0.0243  -1.4377   0.0000   0.0000   0.0000   0.6378
  -0.600   0.1990   0.04479   0.03724  -0.0715  0.6470  0.0249  -1.4243   0.0000   0.0000   0.0000   0.6160
  -0.500   0.2104   0.04458   0.03697  -0.0713  0.6447  0.0255  -1.3977   0.0000   0.0000   0.0000   0.5948
  -0.400   0.2229   0.04441   0.03675  -0.0712  0.6426  0.0262  -1.3663   0.0000   0.0000   0.0000   0.5746
  -0.300   0.2359   0.04432   0.03661  -0.0710  0.6407  0.0272  -1.3264   0.0000   0.0000   0.0000   0.5559
  -0.200   0.2489   0.04424   0.03651  -0.0708  0.6389  0.0283  -1.2823   0.0000   0.0000   0.0000   0.5389
   0.100   0.3314   0.04009   0.03518  -0.0782  0.6356  1.0000  -1.3199   0.0000   0.0000   0.0000   0.4883
   0.200   0.3436   0.04036   0.03530  -0.0777  0.6341  1.0000  -1.2557   0.0000   0.0000   0.0000   0.4784
   0.300   0.3554   0.04067   0.03549  -0.0773  0.6328  1.0000  -1.1838   0.0000   0.0000   0.0000   0.4692
   0.400   0.3669   0.04104   0.03575  -0.0768  0.6316  1.0000  -1.1108   0.0000   0.0000   0.0000   0.4609
   0.500   0.3782   0.04146   0.03607  -0.0762  0.6305  1.0000  -1.0372   0.0000   0.0000   0.0000   0.4530
   0.600   0.3894   0.04195   0.03647  -0.0756  0.6294  1.0000  -0.9634   0.0000   0.0000   0.0000   0.4453
   0.700   0.4005   0.04259   0.03702  -0.0748  0.6282  1.0000  -0.8903   0.0000   0.0000   0.0000   0.4378
   0.800   0.4087   0.04368   0.03803  -0.0738  0.6267  1.0000  -0.8280   0.0000   0.0000   0.0000   0.4313
   0.900   0.3872   0.05040   0.04479  -0.0715  0.6227  1.0000  -0.8725   0.0000   0.0000   0.0000   0.4354
   1.000   0.3937   0.05090   0.04524  -0.0716  0.6226  1.0000  -0.8221   0.0000   0.0000   0.0000   0.4325
   1.100   0.4000   0.05137   0.04567  -0.0718  0.6224  1.0000  -0.7731   0.0000   0.0000   0.0000   0.4297
   1.200   0.4063   0.05179   0.04602  -0.0719  0.6222  1.0000  -0.7707   0.0000   0.0000   0.0000   0.4272
   1.300   0.4124   0.05210   0.04629  -0.0721  0.6219  1.0000  -0.7753   0.0000   0.0000   0.0000   0.4249
   1.400   0.4436   0.04189   0.03588  -0.0708  0.5859  1.0000  -0.8202   0.0000   0.0000   0.0000   0.4088
   1.500   0.4582   0.04175   0.03566  -0.0701  0.5841  1.0000  -0.8369   0.0000   0.0000   0.0000   0.4021
   1.600   0.4728   0.04160   0.03545  -0.0693  0.5824  1.0000  -0.8538   0.0000   0.0000   0.0000   0.3956
   1.700   0.4868   0.04149   0.03526  -0.0685  0.5810  1.0000  -0.8704   0.0000   0.0000   0.0000   0.3894
   1.800   0.5001   0.04143   0.03514  -0.0676  0.5798  1.0000  -0.8863   0.0000   0.0000   0.0000   0.3837
   1.900   0.5130   0.04143   0.03508  -0.0666  0.5786  1.0000  -0.9019   0.0000   0.0000   0.0000   0.3782
   2.000   0.5243   0.04161   0.03520  -0.0656  0.5774  1.0000  -0.9163   0.0000   0.0000   0.0000   0.3733
   2.100   0.5317   0.04237   0.03591  -0.0645  0.5757  1.0000  -0.9275   0.0000   0.0000   0.0000   0.3692
   2.200   0.5146   0.04331   0.03692  -0.0664  0.5597  1.0000  -0.9048   0.0000   0.0000   0.0000   0.3769
   2.300   0.5153   0.04368   0.03728  -0.0666  0.5548  1.0000  -0.9055   0.0000   0.0000   0.0000   0.3768
   2.400   0.5203   0.04395   0.03752  -0.0664  0.5513  1.0000  -0.9118   0.0000   0.0000   0.0000   0.3751
   2.500   0.5271   0.04418   0.03772  -0.0661  0.5485  1.0000  -0.9205   0.0000   0.0000   0.0000   0.3727
   2.600   0.5348   0.04441   0.03792  -0.0659  0.5462  1.0000  -0.9300   0.0000   0.0000   0.0000   0.3703
   2.700   0.5433   0.04462   0.03811  -0.0656  0.5442  1.0000  -0.9405   0.0000   0.0000   0.0000   0.3677
   2.800   0.5527   0.04479   0.03825  -0.0653  0.5424  1.0000  -0.9521   0.0000   0.0000   0.0000   0.3650
   2.900   0.5628   0.04492   0.03834  -0.0650  0.5407  1.0000  -0.9646   0.0000   0.0000   0.0000   0.3622
   3.000   0.5735   0.04502   0.03841  -0.0648  0.5393  1.0000  -0.9778   0.0000   0.0000   0.0000   0.3594
   3.100   0.5844   0.04510   0.03846  -0.0644  0.5379  1.0000  -0.9914   0.0000   0.0000   0.0000   0.3566
   3.200   0.5958   0.04513   0.03846  -0.0641  0.5366  1.0000  -1.0058   0.0000   0.0000   0.0000   0.3537
   3.300   0.6078   0.04510   0.03841  -0.0637  0.5354  1.0000  -1.0211   0.0000   0.0000   0.0000   0.3508
   3.400   0.6204   0.04503   0.03830  -0.0633  0.5342  1.0000  -1.0373   0.0000   0.0000   0.0000   0.3478
   3.500   0.6333   0.04491   0.03816  -0.0628  0.5332  1.0000  -1.0540   0.0000   0.0000   0.0000   0.3448
   3.600   0.6464   0.04477   0.03799  -0.0623  0.5323  1.0000  -1.0711   0.0000   0.0000   0.0000   0.3419
   3.700   0.6595   0.04460   0.03780  -0.0617  0.5314  1.0000  -1.0885   0.0000   0.0000   0.0000   0.3389
   3.800   0.6727   0.04443   0.03760  -0.0611  0.5306  1.0000  -1.1060   0.0000   0.0000   0.0000   0.3361
   3.900   0.6857   0.04426   0.03740  -0.0605  0.5299  1.0000  -1.1236   0.0000   0.0000   0.0000   0.3333
   4.000   0.6979   0.04414   0.03726  -0.0598  0.5291  1.0000  -1.1402   0.0000   0.0000   0.0000   0.3306
   4.100   0.7091   0.04412   0.03723  -0.0591  0.5281  1.0000  -1.1558   0.0000   0.0000   0.0000   0.3281
   4.200   0.7199   0.04420   0.03728  -0.0583  0.5272  1.0000  -1.1709   0.0000   0.0000   0.0000   0.3257
   4.300   0.7299   0.04442   0.03749  -0.0576  0.5262  1.0000  -1.1852   0.0000   0.0000   0.0000   0.3234
   4.400   0.7378   0.04513   0.03818  -0.0566  0.5248  1.0000  -1.1971   0.0000   0.0000   0.0000   0.3211
   4.500   0.6887   0.04836   0.04150  -0.0599  0.5031  1.0000  -1.1274   0.0000   0.0000   0.0000   0.3311
   4.600   0.6946   0.04856   0.04169  -0.0596  0.5002  1.0000  -1.1353   0.0000   0.0000   0.0000   0.3297
   4.700   0.7032   0.04862   0.04175  -0.0593  0.4979  1.0000  -1.1466   0.0000   0.0000   0.0000   0.3281
   4.800   0.7133   0.04861   0.04176  -0.0590  0.4959  1.0000  -1.1598   0.0000   0.0000   0.0000   0.3264
   4.900   0.7241   0.04853   0.04168  -0.0588  0.4941  1.0000  -1.1740   0.0000   0.0000   0.0000   0.3246
   5.000   0.7358   0.04841   0.04156  -0.0585  0.4926  1.0000  -1.1893   0.0000   0.0000   0.0000   0.3229
   5.100   0.7480   0.04826   0.04140  -0.0583  0.4913  1.0000  -1.2053   0.0000   0.0000   0.0000   0.3211
   5.200   0.7605   0.04810   0.04124  -0.0581  0.4901  1.0000  -1.2218   0.0000   0.0000   0.0000   0.3194
   5.300   0.7732   0.04794   0.04107  -0.0579  0.4891  1.0000  -1.2385   0.0000   0.0000   0.0000   0.3177
   5.400   0.7860   0.04778   0.04092  -0.0577  0.4881  1.0000  -1.2552   0.0000   0.0000   0.0000   0.3161
   5.500   0.7987   0.04764   0.04078  -0.0575  0.4873  1.0000  -1.2719   0.0000   0.0000   0.0000   0.3145
   5.600   0.8117   0.04748   0.04063  -0.0573  0.4865  1.0000  -1.2891   0.0000   0.0000   0.0000   0.3130
   5.700   0.8249   0.04730   0.04046  -0.0570  0.4859  1.0000  -1.3083   0.0000   0.0000   0.0000   0.3114
   5.800   0.8381   0.04711   0.04027  -0.0568  0.4852  1.0000  -1.3277   0.0000   0.0000   0.0000   0.3099
   5.900   0.8504   0.04693   0.04010  -0.0565  0.4845  1.0000  -1.3462   0.0000   0.0000   0.0000   0.3084
   6.000   0.8627   0.04673   0.03991  -0.0561  0.4838  1.0000  -1.3647   0.0000   0.0000   0.0000   0.3069
   6.100   0.8750   0.04652   0.03971  -0.0557  0.4831  1.0000  -1.3834   0.0000   0.0000   0.0000   0.3054
   6.200   0.8874   0.04630   0.03950  -0.0553  0.4825  1.0000  -1.4023   0.0000   0.0000   0.0000   0.3039
   6.300   0.8998   0.04607   0.03928  -0.0549  0.4819  1.0000  -1.4214   0.0000   0.0000   0.0000   0.3024
   6.400   0.9122   0.04583   0.03905  -0.0545  0.4814  1.0000  -1.4406   0.0000   0.0000   0.0000   0.3010
   6.500   0.9247   0.04558   0.03895  -0.0540  0.4809  1.0000  -1.4599   0.0000   0.0000   0.0000   0.2995
   6.600   0.9371   0.04534   0.03872  -0.0535  0.4804  1.0000  -1.4792   0.0000   0.0000   0.0000   0.2981
   6.700   0.9494   0.04509   0.03849  -0.0530  0.4799  1.0000  -1.4986   0.0000   0.0000   0.0000   0.2966
   6.800   0.9617   0.04485   0.03827  -0.0525  0.4793  1.0000  -1.5179   0.0000   0.0000   0.0000   0.2952
   6.900   0.9737   0.04464   0.03807  -0.0519  0.4788  1.0000  -1.5371   0.0000   0.0000   0.0000   0.2938
   7.000   0.9854   0.04449   0.03793  -0.0513  0.4782  1.0000  -1.5559   0.0000   0.0000   0.0000   0.2924
   7.200   0.9125   0.05140   0.04484  -0.0529  0.4465  1.0000  -1.4524   0.0000   0.0000   0.0000   0.2979
   7.300   0.9242   0.05117   0.04462  -0.0527  0.4454  1.0000  -1.4705   0.0000   0.0000   0.0000   0.2967
   7.400   0.9362   0.05090   0.04437  -0.0525  0.4443  1.0000  -1.4891   0.0000   0.0000   0.0000   0.2955
   7.500   0.9486   0.05060   0.04410  -0.0522  0.4434  1.0000  -1.5082   0.0000   0.0000   0.0000   0.2944
   7.600   0.9613   0.05027   0.04378  -0.0520  0.4426  1.0000  -1.5279   0.0000   0.0000   0.0000   0.2932
   7.700   0.9745   0.04988   0.04341  -0.0517  0.4418  1.0000  -1.5483   0.0000   0.0000   0.0000   0.2921
   7.800   0.9881   0.04944   0.04300  -0.0514  0.4411  1.0000  -1.5695   0.0000   0.0000   0.0000   0.2909
   7.900   1.0020   0.04895   0.04254  -0.0512  0.4404  1.0000  -1.5912   0.0000   0.0000   0.0000   0.2898
   8.000   1.0161   0.04843   0.04204  -0.0509  0.4397  1.0000  -1.6134   0.0000   0.0000   0.0000   0.2886
   8.100   1.0304   0.04788   0.04152  -0.0506  0.4391  1.0000  -1.6359   0.0000   0.0000   0.0000   0.2875
   8.200   1.0449   0.04732   0.04099  -0.0504  0.4385  1.0000  -1.6586   0.0000   0.0000   0.0000   0.2864
   8.300   1.0593   0.04674   0.04045  -0.0501  0.4379  1.0000  -1.6814   0.0000   0.0000   0.0000   0.2853
   8.400   1.0736   0.04618   0.03992  -0.0498  0.4372  1.0000  -1.7041   0.0000   0.0000   0.0000   0.2842
   8.500   1.0875   0.04566   0.03943  -0.0495  0.4365  1.0000  -1.7263   0.0000   0.0000   0.0000   0.2831
   8.600   1.1008   0.04521   0.03901  -0.0491  0.4356  1.0000  -1.7475   0.0000   0.0000   0.0000   0.2821
   8.800   1.0343   0.05313   0.04688  -0.0491  0.4077  1.0000  -1.6479   0.0000   0.0000   0.0000   0.2846
   8.900   1.0460   0.05280   0.04658  -0.0489  0.4064  1.0000  -1.6686   0.0000   0.0000   0.0000   0.2836
   9.000   1.0581   0.05241   0.04622  -0.0486  0.4053  1.0000  -1.6905   0.0000   0.0000   0.0000   0.2827
   9.100   1.0707   0.05198   0.04583  -0.0484  0.4042  1.0000  -1.7130   0.0000   0.0000   0.0000   0.2817
   9.200   1.0835   0.05150   0.04539  -0.0481  0.4033  1.0000  -1.7360   0.0000   0.0000   0.0000   0.2808
   9.300   1.0966   0.05099   0.04492  -0.0479  0.4024  1.0000  -1.8339   0.0000   0.0000   0.0000   0.2798
   9.400   1.1099   0.05046   0.04442  -0.0476  0.4016  1.0000  -1.9514   0.0000   0.0000   0.0000   0.2789
   9.500   1.1232   0.04990   0.04390  -0.0474  0.4008  1.0000  -2.0719   0.0000   0.0000   0.0000   0.2780
   9.600   1.1366   0.04932   0.04336  -0.0471  0.4000  1.0000  -2.1953   0.0000   0.0000   0.0000   0.2771
   9.700   1.1502   0.04873   0.04281  -0.0469  0.3992  1.0000  -2.3218   0.0000   0.0000   0.0000   0.2762
   9.800   1.1638   0.04814   0.04226  -0.0466  0.3982  1.0000  -2.4515   0.0000   0.0000   0.0000   0.2753
   9.900   1.1780   0.04750   0.04168  -0.0463  0.3973  1.0000  -2.5866   0.0000   0.0000   0.0000   0.2744
  10.000   1.1932   0.04677   0.04100  -0.0461  0.3964  1.0000  -2.7308   0.0000   0.0000   0.0000   0.2735
  10.100   1.2090   0.04600   0.04027  -0.0458  0.3954  1.0000  -2.8813   0.0000   0.0000   0.0000   0.2726
  10.200   1.2255   0.04516   0.03949  -0.0455  0.3943  1.0000  -3.0386   0.0000   0.0000   0.0000   0.2717
  10.300   1.2436   0.04418   0.03893  -0.0452  0.3931  1.0000  -3.1805   0.0000   0.0000   0.0000   0.2707
  10.500   1.1633   0.05454   0.04883  -0.0449  0.3697  1.0000  -2.7914   0.0000   0.0000   0.0000   0.2726
  10.600   1.1764   0.05395   0.04829  -0.0447  0.3683  1.0000  -2.9274   0.0000   0.0000   0.0000   0.2717
  10.700   1.1910   0.05319   0.04757  -0.0444  0.3670  1.0000  -3.0758   0.0000   0.0000   0.0000   0.2708
  10.800   1.2088   0.05204   0.04686  -0.0441  0.3658  1.0000  -3.2157   0.0000   0.0000   0.0000   0.2698
  10.900   1.2274   0.05078   0.04567  -0.0438  0.3645  1.0000  -3.3925   0.0000   0.0000   0.0000   0.2688
  11.000   1.2469   0.04944   0.04441  -0.0435  0.3631  1.0000  -3.5823   0.0000   0.0000   0.0000   0.2678
  11.100   1.3481   0.03856   0.03347  -0.0432  0.3470  1.0000  -4.4134   0.0000   0.0000   0.0000   0.2647
  11.200   1.3378   0.04046   0.03541  -0.0430  0.3431  1.0000  -4.4008   0.0000   0.0000   0.0000   0.2645
  11.300   1.3291   0.04218   0.03715  -0.0427  0.3381  1.0000  -4.4007   0.0000   0.0000   0.0000   0.2643
  11.400   1.3467   0.04030   0.03484  -0.0417  0.3073  1.0000  -4.6272   0.0000   0.0000   0.0000   0.2629
  11.500   1.3389   0.04189   0.03647  -0.0415  0.3024  1.0000  -4.6345   0.0000   0.0000   0.0000   0.2627
  11.600   1.3314   0.04344   0.03803  -0.0412  0.2962  1.0000  -4.6450   0.0000   0.0000   0.0000   0.2624
  11.700   1.3272   0.04450   0.03899  -0.0408  0.2845  1.0000  -4.6830   0.0000   0.0000   0.0000   0.2620
  11.800   1.3264   0.04497   0.03920  -0.0400  0.2678  1.0000  -4.7467   0.0000   0.0000   0.0000   0.2612
  11.900   1.3221   0.04632   0.04059  -0.0398  0.2621  1.0000  -4.7752   0.0000   0.0000   0.0000   0.2610
  12.000   1.3181   0.04755   0.04181  -0.0396  0.2526  1.0000  -4.8050   0.0000   0.0000   0.0000   0.2606
  12.100   1.3132   0.04877   0.04286  -0.0392  0.2389  1.0000  -4.8279   0.0000   0.0000   0.0000   0.2602
  12.200   1.3078   0.05009   0.04404  -0.0389  0.2245  1.0000  -4.8436   0.0000   0.0000   0.0000   0.2599
  12.300   1.3022   0.05153   0.04537  -0.0386  0.2072  1.0000  -4.8527   0.0000   0.0000   0.0000   0.2596
  12.500   1.2882   0.05478   0.04829  -0.0382  0.1696  1.0000  -4.8455   0.0000   0.0000   0.0000   0.2592
  12.600   1.2794   0.05662   0.04995  -0.0380  0.1513  1.0000  -4.8348   0.0000   0.0000   0.0000   0.2591
  12.700   1.2702   0.05847   0.05162  -0.0379  0.1310  1.0000  -4.8234   0.0000   0.0000   0.0000   0.2589
  12.800   1.2609   0.06035   0.05333  -0.0377  0.1123  1.0000  -4.8114   0.0000   0.0000   0.0000   0.2588
  12.900   1.2515   0.06239   0.05520  -0.0376  0.0958  1.0000  -4.7999   0.0000   0.0000   0.0000   0.2588
  13.000   1.2424   0.06453   0.05723  -0.0377  0.0824  1.0000  -4.7867   0.0000   0.0000   0.0000   0.2589
  13.100   1.2336   0.06666   0.05924  -0.0377  0.0668  1.0000  -4.7710   0.0000   0.0000   0.0000   0.2590
  13.200   1.2246   0.06880   0.06122  -0.0377  0.0489  1.0000  -4.7585   0.0000   0.0000   0.0000   0.2590
  13.300   1.2159   0.07095   0.06321  -0.0378  0.0337  1.0000  -4.7459   0.0000   0.0000   0.0000   0.2591
  13.400   1.2083   0.07306   0.06522  -0.0379  0.0229  1.0000  -4.7268   0.0000   0.0000   0.0000   0.2592
  13.500   1.2028   0.07497   0.06708  -0.0379  0.0172  1.0000  -4.7000   0.0000   0.0000   0.0000   0.2592
  13.600   1.1984   0.07676   0.06885  -0.0380  0.0143  1.0000  -4.6821   0.0000   0.0000   0.0000   0.2591
  13.700   1.1947   0.07850   0.07062  -0.0380  0.0122  1.0000  -4.6610   0.0000   0.0000   0.0000   0.2591
  13.800   1.1908   0.08031   0.07252  -0.0382  0.0109  1.0000  -4.6360   0.0000   0.0000   0.0000   0.2591
  13.900   1.1866   0.08221   0.07453  -0.0384  0.0101  1.0000  -4.6134   0.0000   0.0000   0.0000   0.2592
  14.000   1.1836   0.08399   0.07636  -0.0386  0.0098  1.0000  -4.6200   0.0000   0.0000   0.0000   0.2593
  14.100   1.1817   0.08561   0.07806  -0.0389  0.0096  1.0000  -4.6412   0.0000   0.0000   0.0000   0.2594
  14.200   1.1800   0.08718   0.07971  -0.0392  0.0094  1.0000  -4.6625   0.0000   0.0000   0.0000   0.2595
  14.300   1.1784   0.08873   0.08133  -0.0394  0.0092  1.0000  -4.6836   0.0000   0.0000   0.0000   0.2596
  14.400   1.1768   0.09026   0.08294  -0.0397  0.0090  1.0000  -4.7043   0.0000   0.0000   0.0000   0.2596
  14.500   1.1752   0.09179   0.08454  -0.0399  0.0088  1.0000  -4.7246   0.0000   0.0000   0.0000   0.2597
  14.600   1.1735   0.09333   0.08614  -0.0402  0.0086  1.0000  -4.7442   0.0000   0.0000   0.0000   0.2598
  14.700   1.1714   0.09492   0.08781  -0.0405  0.0085  1.0000  -4.7614   0.0000   0.0000   0.0000   0.2599
  14.800   1.1692   0.09653   0.08948  -0.0409  0.0083  1.0000  -4.7778   0.0000   0.0000   0.0000   0.2601
  14.900   1.1669   0.09815   0.09117  -0.0413  0.0082  1.0000  -4.7932   0.0000   0.0000   0.0000   0.2603
  15.000   1.1640   0.09988   0.09296  -0.0417  0.0081  1.0000  -4.8048   0.0000   0.0000   0.0000   0.2606
  15.100   1.1615   0.10152   0.09466  -0.0421  0.0080  1.0000  -4.8186   0.0000   0.0000   0.0000   0.2609
  15.200   1.1596   0.10304   0.09624  -0.0425  0.0079  1.0000  -4.8359   0.0000   0.0000   0.0000   0.2610
  15.300   1.1580   0.10450   0.09776  -0.0428  0.0078  1.0000  -4.8545   0.0000   0.0000   0.0000   0.2612
  15.400   1.1569   0.10589   0.09920  -0.0432  0.0077  1.0000  -4.8756   0.0000   0.0000   0.0000   0.2613
  15.500   1.1562   0.10719   0.10055  -0.0434  0.0076  1.0000  -4.8991   0.0000   0.0000   0.0000   0.2614
  15.600   1.1558   0.10838   0.10179  -0.0437  0.0075  1.0000  -4.9246   0.0000   0.0000   0.0000   0.2614
  15.700   1.1556   0.10945   0.10290  -0.0438  0.0074  1.0000  -4.9514   0.0000   0.0000   0.0000   0.2613
  15.800   1.1556   0.11045   0.10395  -0.0440  0.0073  1.0000  -4.9793   0.0000   0.0000   0.0000   0.2613
  15.900   1.1562   0.11135   0.10488  -0.0441  0.0073  1.0000  -5.0105   0.0000   0.0000   0.0000   0.2611
  16.000   1.1574   0.11211   0.10569  -0.0441  0.0072  1.0000  -5.0489   0.0000   0.0000   0.0000   0.2609
  16.100   1.1589   0.11286   0.10648  -0.0441  0.0071  1.0000  -5.0882   0.0000   0.0000   0.0000   0.2606
  16.200   1.1606   0.11358   0.10724  -0.0441  0.0071  1.0000  -5.1286   0.0000   0.0000   0.0000   0.2603
  16.300   1.1627   0.11423   0.10793  -0.0440  0.0070  1.0000  -5.1709   0.0000   0.0000   0.0000   0.2599
  16.400   1.1653   0.11479   0.10853  -0.0438  0.0070  1.0000  -5.2158   0.0000   0.0000   0.0000   0.2595
  16.500   1.1679   0.11537   0.10916  -0.0436  0.0069  1.0000  -5.2594   0.0000   0.0000   0.0000   0.2590
  16.600   1.1704   0.11601   0.10984  -0.0435  0.0069  1.0000  -5.3012   0.0000   0.0000   0.0000   0.2586
  16.700   1.1729   0.11666   0.11055  -0.0433  0.0069  1.0000  -5.3413   0.0000   0.0000   0.0000   0.2581
  16.800   1.1754   0.11733   0.11128  -0.0431  0.0069  1.0000  -5.3804   0.0000   0.0000   0.0000   0.2577
  16.900   1.1776   0.11811   0.11212  -0.0430  0.0069  1.0000  -5.4155   0.0000   0.0000   0.0000   0.2573
  17.000   1.1795   0.11897   0.11305  -0.0430  0.0069  1.0000  -5.4475   0.0000   0.0000   0.0000   0.2570
  17.100   1.1812   0.11992   0.11407  -0.0429  0.0069  1.0000  -5.4762   0.0000   0.0000   0.0000   0.2567
  17.200   1.1825   0.12097   0.11519  -0.0430  0.0069  1.0000  -5.5010   0.0000   0.0000   0.0000   0.2565
  17.300   1.1829   0.12222   0.11652  -0.0432  0.0070  1.0000  -5.5194   0.0000   0.0000   0.0000   0.2564
  17.400   1.1829   0.12362   0.11799  -0.0435  0.0070  1.0000  -5.5330   0.0000   0.0000   0.0000   0.2565
  17.500   1.1824   0.12513   0.11959  -0.0439  0.0070  1.0000  -5.5427   0.0000   0.0000   0.0000   0.2566
  17.600   1.1815   0.12676   0.12130  -0.0444  0.0071  1.0000  -5.5484   0.0000   0.0000   0.0000   0.2568
  17.700   1.1801   0.12853   0.12326  -0.0449  0.0071  1.0000  -5.5519   0.0000   0.0000   0.0000   0.2572
  17.800   1.1780   0.13050   0.12531  -0.0456  0.0071  1.0000  -5.5480   0.0000   0.0000   0.0000   0.2577
  17.900   1.1752   0.13266   0.12756  -0.0465  0.0072  1.0000  -5.5387   0.0000   0.0000   0.0000   0.2583
  18.000   1.1723   0.13492   0.12989  -0.0474  0.0072  1.0000  -5.5270   0.0000   0.0000   0.0000   0.2590
  18.100   1.1693   0.13722   0.13227  -0.0484  0.0073  1.0000  -5.5138   0.0000   0.0000   0.0000   0.2598
  18.200   1.1661   0.13958   0.13472  -0.0494  0.0073  1.0000  -5.4985   0.0000   0.0000   0.0000   0.2606
  18.300   1.1628   0.14204   0.13726  -0.0504  0.0074  1.0000  -5.4807   0.0000   0.0000   0.0000   0.2614
  18.400   1.1592   0.14460   0.13990  -0.0516  0.0074  1.0000  -5.4599   0.0000   0.0000   0.0000   0.2624
  18.500   1.1553   0.14727   0.14265  -0.0527  0.0075  1.0000  -5.4358   0.0000   0.0000   0.0000   0.2634
  18.600   1.1506   0.15020   0.14566  -0.0541  0.0075  1.0000  -5.4052   0.0000   0.0000   0.0000   0.2647
  18.700   1.1457   0.15324   0.14877  -0.0556  0.0075  1.0000  -5.3715   0.0000   0.0000   0.0000   0.2660
  18.800   1.1409   0.15629   0.15189  -0.0570  0.0076  1.0000  -5.3372   0.0000   0.0000   0.0000   0.2673
  18.900   1.1362   0.15941   0.15509  -0.0585  0.0076  1.0000  -5.3012   0.0000   0.0000   0.0000   0.2687
  19.000   1.1313   0.16263   0.15838  -0.0599  0.0077  1.0000  -5.2623   0.0000   0.0000   0.0000   0.2701
  19.100   1.1260   0.16603   0.16184  -0.0615  0.0077  1.0000  -5.2186   0.0000   0.0000   0.0000   0.2717
  19.200   1.1200   0.16968   0.16556  -0.0633  0.0078  1.0000  -5.1680   0.0000   0.0000   0.0000   0.2734
  19.300   1.1143   0.17333   0.16927  -0.0650  0.0078  1.0000  -5.1168   0.0000   0.0000   0.0000   0.2752
  19.400   1.1086   0.17701   0.17301  -0.0667  0.0078  1.0000  -5.0639   0.0000   0.0000   0.0000   0.2769
  19.500   1.1029   0.18082   0.17689  -0.0684  0.0079  1.0000  -5.0073   0.0000   0.0000   0.0000   0.2787
  19.600   1.0965   0.18493   0.18105  -0.0702  0.0079  1.0000  -4.9422   0.0000   0.0000   0.0000   0.2807
  19.700   1.0899   0.18914   0.18532  -0.0721  0.0080  1.0000  -4.8728   0.0000   0.0000   0.0000   0.2828
  19.800   1.0836   0.19334   0.18958  -0.0739  0.0080  1.0000  -4.8020   0.0000   0.0000   0.0000   0.2848
  19.900   1.0773   0.19767   0.19384  -0.0757  0.0081  1.0000  -4.7263   0.0000   0.0000   0.0000   0.2869
  20.000   1.0702   0.20236   0.19859  -0.0777  0.0081  1.0000  -4.6392   0.0000   0.0000   0.0000   0.2892
  20.100   1.0631   0.20713   0.20340  -0.0796  0.0082  1.0000  -4.5473   0.0000   0.0000   0.0000   0.2915
  20.200   1.0561   0.21191   0.20822  -0.0814  0.0083  1.0000  -4.4518   0.0000   0.0000   0.0000   0.2937
  20.300   1.0489   0.21692   0.21327  -0.0832  0.0083  1.0000  -4.3464   0.0000   0.0000   0.0000   0.2961
  20.400   1.0412   0.22223   0.21860  -0.0851  0.0084  1.0000  -4.2280   0.0000   0.0000   0.0000   0.2985
  20.500   1.0340   0.22741   0.22380  -0.0867  0.0085  1.0000  -4.1088   0.0000   0.0000   0.0000   0.3008
  20.600   1.0266   0.23271   0.22912  -0.0884  0.0086  1.0000  -3.9805   0.0000   0.0000   0.0000   0.3031
  20.700   1.0195   0.23802   0.23444  -0.0899  0.0087  1.0000  -3.8477   0.0000   0.0000   0.0000   0.3053
  20.800   1.0130   0.24307   0.23949  -0.0912  0.0088  1.0000  -3.7199   0.0000   0.0000   0.0000   0.3073
  20.900   1.0066   0.24802   0.24444  -0.0924  0.0090  1.0000  -3.5915   0.0000   0.0000   0.0000   0.3091
  21.000   1.0008   0.25265   0.24907  -0.0934  0.0091  1.0000  -3.4728   0.0000   0.0000   0.0000   0.3107
  21.100   0.9953   0.25707   0.25348  -0.0943  0.0093  1.0000  -3.3588   0.0000   0.0000   0.0000   0.3122
  21.200   0.9899   0.26126   0.25766  -0.0950  0.0094  1.0000  -3.2512   0.0000   0.0000   0.0000   0.3135
  21.300   0.9843   0.26531   0.26171  -0.0957  0.0097  1.0000  -3.1412   0.0000   0.0000   0.0000   0.3147
  21.900   0.9620   0.28649   0.28291  -0.0983  0.0131  1.0000  -2.5322   0.0000   0.0000   0.0000   0.3200
  22.000   0.9525   0.29055   0.28696  -0.0985  0.0143  1.0000  -2.3621   0.0000   0.0000   0.0000   0.3214
  22.100   0.9453   0.29316   0.28957  -0.0985  0.0152  1.0000  -2.2657   0.0000   0.0000   0.0000   0.3223
  22.200   0.9325   0.29351   0.28993  -0.0976  0.0159  1.0000  -2.1841   0.0000   0.0000   0.0000   0.3229
  22.300   0.9159   0.29206   0.28851  -0.0960  0.0165  1.0000  -2.1078   0.0000   0.0000   0.0000   0.3234
  22.400   0.9048   0.29158   0.28805  -0.0951  0.0172  1.0000  -2.0506   0.0000   0.0000   0.0000   0.3237
  22.500   0.8964   0.29138   0.28786  -0.0944  0.0180  1.0000  -2.0098   0.0000   0.0000   0.0000   0.3240
  22.600   0.8884   0.29107   0.28757  -0.0936  0.0191  1.0000  -1.9778   0.0000   0.0000   0.0000   0.3241
  22.700   0.8705   0.29316   0.28970  -0.0902  0.0351  1.0000  -1.6880   0.0000   0.0000   0.0000   0.3230
  22.800   0.8662   0.29373   0.29028  -0.0903  0.0351  1.0000  -1.6641   0.0000   0.0000   0.0000   0.3235
  22.900   0.8623   0.29432   0.29088  -0.0903  0.0350  1.0000  -1.6411   0.0000   0.0000   0.0000   0.3241
  23.000   0.8586   0.29493   0.29150  -0.0904  0.0350  1.0000  -1.6188   0.0000   0.0000   0.0000   0.3246
  23.100   0.8552   0.29553   0.29211  -0.0906  0.0349  1.0000  -1.5969   0.0000   0.0000   0.0000   0.3252
  23.200   0.8521   0.29616   0.29274  -0.0909  0.0347  1.0000  -1.5751   0.0000   0.0000   0.0000   0.3259
  23.300   0.8473   0.29708   0.29366  -0.0924  0.0334  1.0000  -1.5153   0.0000   0.0000   0.0000   0.3284
  23.400   0.8430   0.29811   0.29469  -0.0931  0.0324  1.0000  -1.4720   0.0000   0.0000   0.0000   0.3298
  23.500   0.8397   0.29891   0.29550  -0.0935  0.0319  1.0000  -1.4455   0.0000   0.0000   0.0000   0.3306
  23.600   0.8368   0.29968   0.29627  -0.0937  0.0314  1.0000  -1.4228   0.0000   0.0000   0.0000   0.3313
  23.700   0.8341   0.30042   0.29702  -0.0940  0.0310  1.0000  -1.4026   0.0000   0.0000   0.0000   0.3319
  23.800   0.8315   0.30114   0.29775  -0.0942  0.0306  1.0000  -1.3844   0.0000   0.0000   0.0000   0.3325
  23.900   0.8292   0.30184   0.29846  -0.0944  0.0301  1.0000  -1.3679   0.0000   0.0000   0.0000   0.3330
  24.000   0.8270   0.30253   0.29916  -0.0946  0.0297  1.0000  -1.3529   0.0000   0.0000   0.0000   0.3335
  24.100   0.8249   0.30322   0.29985  -0.0949  0.0293  1.0000  -1.3392   0.0000   0.0000   0.0000   0.3340
  24.200   0.8229   0.30389   0.30053  -0.0951  0.0289  1.0000  -1.3267   0.0000   0.0000   0.0000   0.3345
  24.300   0.8211   0.30455   0.30121  -0.0953  0.0285  1.0000  -1.3152   0.0000   0.0000   0.0000   0.3349
  24.400   0.8194   0.30521   0.30187  -0.0955  0.0281  1.0000  -1.3047   0.0000   0.0000   0.0000   0.3353
  24.500   0.8177   0.30586   0.30253  -0.0957  0.0277  1.0000  -1.2952   0.0000   0.0000   0.0000   0.3357
  24.600   0.8162   0.30650   0.30318  -0.0959  0.0274  1.0000  -1.2865   0.0000   0.0000   0.0000   0.3361
  24.700   0.8148   0.30714   0.30383  -0.0961  0.0270  1.0000  -1.2787   0.0000   0.0000   0.0000   0.3365
  24.800   0.8134   0.30777   0.30447  -0.0964  0.0267  1.0000  -1.2718   0.0000   0.0000   0.0000   0.3369
  24.900   0.8121   0.30839   0.30510  -0.0966  0.0264  1.0000  -1.2656   0.0000   0.0000   0.0000   0.3372
  25.000   0.8109   0.30901   0.30572  -0.0968  0.0260  1.0000  -1.2604   0.0000   0.0000   0.0000   0.3376
  25.100   0.8098   0.30961   0.30633  -0.0970  0.0257  1.0000  -1.2560   0.0000   0.0000   0.0000   0.3379
  25.200   0.8087   0.31021   0.30694  -0.0972  0.0254  1.0000  -1.2525   0.0000   0.0000   0.0000   0.3382
  25.300   0.8077   0.31079   0.30753  -0.0974  0.0251  1.0000  -1.2500   0.0000   0.0000   0.0000   0.3385
  25.400   0.8068   0.31136   0.30811  -0.0976  0.0248  1.0000  -1.2486   0.0000   0.0000   0.0000   0.3387
  25.500   0.8060   0.31192   0.30868  -0.0978  0.0245  1.0000  -1.2483   0.0000   0.0000   0.0000   0.3390
  25.600   0.8052   0.31246   0.30923  -0.0980  0.0242  1.0000  -1.2492   0.0000   0.0000   0.0000   0.3392
  25.700   0.8045   0.31298   0.30976  -0.0982  0.0240  1.0000  -1.2514   0.0000   0.0000   0.0000   0.3394
  25.800   0.8039   0.31349   0.31028  -0.0984  0.0237  1.0000  -1.2552   0.0000   0.0000   0.0000   0.3395
  25.900   0.8034   0.31397   0.31077  -0.0985  0.0234  1.0000  -1.2606   0.0000   0.0000   0.0000   0.3396
  26.000   0.8030   0.31443   0.31124  -0.0987  0.0231  1.0000  -1.2679   0.0000   0.0000   0.0000   0.3397
  26.100   0.8027   0.31487   0.31169  -0.0988  0.0229  1.0000  -1.2774   0.0000   0.0000   0.0000   0.3397
  26.200   0.8025   0.31528   0.31212  -0.0988  0.0226  1.0000  -1.2896   0.0000   0.0000   0.0000   0.3396
  26.300   0.8025   0.31569   0.31253  -0.0988  0.0224  1.0000  -1.3049   0.0000   0.0000   0.0000   0.3394
  26.400   0.8027   0.31614   0.31307  -0.0988  0.0221  1.0000  -1.3210   0.0000   0.0000   0.0000   0.3392
  26.500   0.8033   0.31667   0.31361  -0.0986  0.0218  1.0000  -1.3438   0.0000   0.0000   0.0000   0.3387
  26.600   0.8036   0.31757   0.31453  -0.0983  0.0215  1.0000  -1.3624   0.0000   0.0000   0.0000   0.3380
  26.900   0.7956   0.32184   0.31877  -0.0987  0.0208  1.0000  -1.2606   0.0000   0.0000   0.0000   0.3398
  27.000   0.7948   0.32258   0.31952  -0.0991  0.0208  1.0000  -1.2502   0.0000   0.0000   0.0000   0.3402
  27.100   0.7940   0.32331   0.32026  -0.0994  0.0208  1.0000  -1.2399   0.0000   0.0000   0.0000   0.3406
  27.200   0.7932   0.32404   0.32100  -0.0998  0.0208  1.0000  -1.2298   0.0000   0.0000   0.0000   0.3411
  27.300   0.7925   0.32476   0.32173  -0.1001  0.0208  1.0000  -1.2199   0.0000   0.0000   0.0000   0.3415
  27.400   0.7918   0.32548   0.32245  -0.1005  0.0207  1.0000  -1.2100   0.0000   0.0000   0.0000   0.3420
  27.500   0.7911   0.32619   0.32317  -0.1009  0.0207  1.0000  -1.2003   0.0000   0.0000   0.0000   0.3424
  27.600   0.7903   0.32689   0.32387  -0.1013  0.0207  1.0000  -1.1906   0.0000   0.0000   0.0000   0.3429
  27.700   0.7896   0.32757   0.32456  -0.1016  0.0207  1.0000  -1.1809   0.0000   0.0000   0.0000   0.3433
  27.800   0.7890   0.32825   0.32525  -0.1020  0.0206  1.0000  -1.1713   0.0000   0.0000   0.0000   0.3438
  27.900   0.7883   0.32893   0.32593  -0.1024  0.0206  1.0000  -1.1619   0.0000   0.0000   0.0000   0.3443
  28.000   0.7877   0.32960   0.32661  -0.1028  0.0206  1.0000  -1.1525   0.0000   0.0000   0.0000   0.3447
  28.100   0.7870   0.33024   0.32726  -0.1032  0.0205  1.0000  -1.1427   0.0000   0.0000   0.0000   0.3452
  28.200   0.7863   0.33089   0.32791  -0.1037  0.0205  1.0000  -1.1330   0.0000   0.0000   0.0000   0.3457
  28.300   0.7855   0.33151   0.32854  -0.1041  0.0204  1.0000  -1.1207   0.0000   0.0000   0.0000   0.3463
  28.400   0.7845   0.33212   0.32915  -0.1046  0.0204  1.0000  -1.1067   0.0000   0.0000   0.0000   0.3470
  28.500   0.7835   0.33274   0.32979  -0.1051  0.0203  1.0000  -1.0925   0.0000   0.0000   0.0000   0.3477
  28.600   0.7827   0.33339   0.33044  -0.1057  0.0202  1.0000  -1.0780   0.0000   0.0000   0.0000   0.3484
  28.700   0.7819   0.33407   0.33113  -0.1062  0.0201  1.0000  -1.0631   0.0000   0.0000   0.0000   0.3491
  28.800   0.7812   0.33480   0.33186  -0.1068  0.0200  1.0000  -1.0476   0.0000   0.0000   0.0000   0.3498
  28.900   0.7806   0.33560   0.33267  -0.1074  0.0198  1.0000  -1.0314   0.0000   0.0000   0.0000   0.3505
  29.000   0.7802   0.33647   0.33354  -0.1081  0.0196  1.0000  -1.0148   0.0000   0.0000   0.0000   0.3513
  29.100   0.7799   0.33740   0.33448  -0.1087  0.0193  1.0000  -0.9987   0.0000   0.0000   0.0000   0.3519
  29.200   0.7797   0.33835   0.33543  -0.1092  0.0190  1.0000  -0.9841   0.0000   0.0000   0.0000   0.3525
  29.300   0.7795   0.33927   0.33636  -0.1097  0.0186  1.0000  -0.9718   0.0000   0.0000   0.0000   0.3531
  29.400   0.7793   0.34014   0.33724  -0.1102  0.0183  1.0000  -0.9617   0.0000   0.0000   0.0000   0.3535
  29.500   0.7791   0.34098   0.33809  -0.1106  0.0180  1.0000  -0.9532   0.0000   0.0000   0.0000   0.3539
  29.600   0.7789   0.34179   0.33890  -0.1110  0.0176  1.0000  -0.9459   0.0000   0.0000   0.0000   0.3543
  29.700   0.7787   0.34258   0.33970  -0.1114  0.0173  1.0000  -0.9396   0.0000   0.0000   0.0000   0.3547
  29.800   0.7784   0.34335   0.34048  -0.1118  0.0170  1.0000  -0.9340   0.0000   0.0000   0.0000   0.3550
  29.900   0.7782   0.34411   0.34125  -0.1122  0.0167  1.0000  -0.9291   0.0000   0.0000   0.0000   0.3554
  30.000   0.7780   0.34485   0.34200  -0.1126  0.0164  1.0000  -0.9247   0.0000   0.0000   0.0000   0.3557


