xflr5 v6.61

 Calculated polar for: NACA65-015

 1 1 Reynolds number fixed          Mach number fixed         

 xtrf =   1.000 (top)        1.000 (bottom)
 Mach =   0.000     Re =     0.160 e 6     Ncrit =   9.000

  alpha     CL        CD       CDp       Cm    Top Xtr Bot Xtr   Cpmin    Chinge    XCp    
 ------- -------- --------- --------- -------- ------- ------- -------- --------- ---------
 -10.000  -0.9280   0.04180   0.03483  -0.0227  1.0000  0.0476  -4.1247   0.0000   0.0000   0.0000   0.2141
  -9.900  -0.9228   0.04065   0.03356  -0.0222  1.0000  0.0475  -4.1017   0.0000   0.0000   0.0000   0.2146
  -9.800  -0.9180   0.03966   0.03243  -0.0216  1.0000  0.0477  -4.0762   0.0000   0.0000   0.0000   0.2152
  -9.700  -0.9135   0.03877   0.03140  -0.0210  1.0000  0.0480  -4.0495   0.0000   0.0000   0.0000   0.2159
  -9.600  -0.9092   0.03797   0.03046  -0.0203  1.0000  0.0484  -4.0228   0.0000   0.0000   0.0000   0.2167
  -9.500  -0.9054   0.03725   0.02960  -0.0194  1.0000  0.0487  -3.9962   0.0000   0.0000   0.0000   0.2176
  -9.400  -0.9024   0.03662   0.02883  -0.0184  1.0000  0.0489  -3.9703   0.0000   0.0000   0.0000   0.2188
  -9.300  -0.9011   0.03608   0.02819  -0.0170  1.0000  0.0491  -3.9469   0.0000   0.0000   0.0000   0.2204
  -9.200  -0.9015   0.03563   0.02765  -0.0153  1.0000  0.0492  -3.9267   0.0000   0.0000   0.0000   0.2224
  -9.100  -0.9021   0.03519   0.02714  -0.0135  1.0000  0.0492  -3.9066   0.0000   0.0000   0.0000   0.2245
  -9.000  -0.9023   0.03474   0.02662  -0.0119  1.0000  0.0493  -3.8848   0.0000   0.0000   0.0000   0.2265
  -8.900  -0.9015   0.03425   0.02606  -0.0103  1.0000  0.0493  -3.8599   0.0000   0.0000   0.0000   0.2282
  -8.800  -0.9001   0.03375   0.02549  -0.0089  1.0000  0.0493  -3.8332   0.0000   0.0000   0.0000   0.2299
  -8.700  -0.8909   0.03302   0.02465  -0.0089  0.9989  0.0494  -3.7853   0.0000   0.0000   0.0000   0.2299
  -8.600  -0.8747   0.03181   0.02339  -0.0099  0.9977  0.0497  -3.7267   0.0000   0.0000   0.0000   0.2286
  -8.500  -0.8579   0.03068   0.02224  -0.0111  0.9969  0.0501  -3.6663   0.0000   0.0000   0.0000   0.2270
  -8.400  -0.8411   0.02978   0.02132  -0.0123  0.9958  0.0506  -3.5992   0.0000   0.0000   0.0000   0.2254
  -8.300  -0.8245   0.02902   0.02056  -0.0135  0.9945  0.0512  -3.5301   0.0000   0.0000   0.0000   0.2237
  -8.200  -0.8077   0.02834   0.01986  -0.0147  0.9932  0.0518  -3.4604   0.0000   0.0000   0.0000   0.2220
  -8.100  -0.7911   0.02770   0.01921  -0.0158  0.9918  0.0526  -3.3906   0.0000   0.0000   0.0000   0.2202
  -8.000  -0.7741   0.02709   0.01857  -0.0170  0.9907  0.0534  -3.3212   0.0000   0.0000   0.0000   0.2182
  -7.900  -0.7577   0.02652   0.01797  -0.0181  0.9891  0.0543  -3.2529   0.0000   0.0000   0.0000   0.2164
  -7.800  -0.7412   0.02605   0.01743  -0.0193  0.9875  0.0557  -3.1834   0.0000   0.0000   0.0000   0.2143
  -7.700  -0.7248   0.02550   0.01683  -0.0205  0.9859  0.0570  -3.1147   0.0000   0.0000   0.0000   0.2122
  -7.600  -0.7084   0.02482   0.01626  -0.0217  0.9849  0.0585  -3.0352   0.0000   0.0000   0.0000   0.2098
  -7.500  -0.6918   0.02430   0.01576  -0.0229  0.9837  0.0600  -2.9593   0.0000   0.0000   0.0000   0.2073
  -7.400  -0.6759   0.02381   0.01527  -0.0241  0.9819  0.0613  -2.8902   0.0000   0.0000   0.0000   0.2049
  -7.300  -0.6601   0.02333   0.01477  -0.0251  0.9801  0.0627  -2.8235   0.0000   0.0000   0.0000   0.2024
  -7.200  -0.6447   0.02291   0.01430  -0.0261  0.9780  0.0641  -2.7588   0.0000   0.0000   0.0000   0.2000
  -7.100  -0.6317   0.02224   0.01374  -0.0270  0.9756  0.0657  -2.6961   0.0000   0.0000   0.0000   0.1979
  -7.000  -0.6189   0.02176   0.01330  -0.0278  0.9727  0.0675  -2.6323   0.0000   0.0000   0.0000   0.1957
  -6.900  -0.6059   0.02131   0.01286  -0.0286  0.9699  0.0698  -2.5761   0.0000   0.0000   0.0000   0.1935
  -6.800  -0.5940   0.02095   0.01246  -0.0291  0.9664  0.0721  -2.5322   0.0000   0.0000   0.0000   0.1917
  -6.700  -0.5846   0.02040   0.01197  -0.0295  0.9629  0.0745  -2.4891   0.0000   0.0000   0.0000   0.1904
  -6.600  -0.5745   0.02002   0.01160  -0.0298  0.9592  0.0781  -2.4445   0.0000   0.0000   0.0000   0.1890
  -6.500  -0.5663   0.01962   0.01121  -0.0297  0.9550  0.0821  -2.4053   0.0000   0.0000   0.0000   0.1884
  -6.400  -0.5569   0.01924   0.01082  -0.0299  0.9517  0.0879  -2.3630   0.0000   0.0000   0.0000   0.1873
  -6.300  -0.5514   0.01884   0.01048  -0.0293  0.9468  0.0939  -2.3305   0.0000   0.0000   0.0000   0.1879
  -6.200  -0.5463   0.01842   0.01013  -0.0286  0.9423  0.1033  -2.3018   0.0000   0.0000   0.0000   0.1888
  -6.100  -0.5430   0.01782   0.00970  -0.0277  0.9382  0.1227  -2.2808   0.0000   0.0000   0.0000   0.1903
  -5.900  -0.5534   0.01605   0.00882  -0.0235  0.9265  0.2582  -2.2739   0.0000   0.0000   0.0000   0.1991
  -5.800  -0.5608   0.01510   0.00845  -0.0209  0.9214  0.3579  -2.2706   0.0000   0.0000   0.0000   0.2045
  -5.700  -0.5661   0.01448   0.00848  -0.0182  0.9165  0.4665  -2.2584   0.0000   0.0000   0.0000   0.2099
  -5.600  -0.5620   0.01447   0.00873  -0.0166  0.9131  0.5343  -2.2213   0.0000   0.0000   0.0000   0.2126
  -5.500  -0.5551   0.01459   0.00889  -0.0156  0.9097  0.5650  -2.1750   0.0000   0.0000   0.0000   0.2142
  -5.400  -0.5464   0.01473   0.00903  -0.0149  0.9073  0.5861  -2.1228   0.0000   0.0000   0.0000   0.2152
  -5.300  -0.5381   0.01489   0.00918  -0.0141  0.9041  0.6016  -2.0713   0.0000   0.0000   0.0000   0.2162
  -5.200  -0.5290   0.01507   0.00935  -0.0135  0.9011  0.6140  -2.0170   0.0000   0.0000   0.0000   0.2171
  -5.100  -0.5193   0.01524   0.00950  -0.0129  0.8988  0.6244  -1.9610   0.0000   0.0000   0.0000   0.2178
  -5.000  -0.5111   0.01536   0.00955  -0.0123  0.8959  0.6341  -1.9099   0.0000   0.0000   0.0000   0.2187
  -4.900  -0.5003   0.01561   0.00982  -0.0118  0.8931  0.6413  -1.8507   0.0000   0.0000   0.0000   0.2192
  -4.800  -0.4913   0.01574   0.00989  -0.0112  0.8906  0.6494  -1.7976   0.0000   0.0000   0.0000   0.2201
  -4.700  -0.4799   0.01598   0.01012  -0.0107  0.8888  0.6557  -1.7373   0.0000   0.0000   0.0000   0.2205
  -4.600  -0.4717   0.01610   0.01018  -0.0102  0.8855  0.6629  -1.6933   0.0000   0.0000   0.0000   0.2214
  -4.500  -0.4599   0.01643   0.01054  -0.0098  0.8831  0.6688  -1.6393   0.0000   0.0000   0.0000   0.2219
  -4.400  -0.4507   0.01670   0.01078  -0.0090  0.8810  0.6778  -1.5918   0.0000   0.0000   0.0000   0.2232
  -4.300  -0.4394   0.01722   0.01133  -0.0081  0.8795  0.6874  -1.5382   0.0000   0.0000   0.0000   0.2248
  -4.200  -0.4264   0.01796   0.01213  -0.0072  0.8775  0.6961  -1.4800   0.0000   0.0000   0.0000   0.2264
  -4.100  -0.4166   0.01845   0.01262  -0.0062  0.8748  0.7051  -1.4312   0.0000   0.0000   0.0000   0.2284
  -4.000  -0.4020   0.01922   0.01343  -0.0054  0.8731  0.7111  -1.3700   0.0000   0.0000   0.0000   0.2297
  -3.900  -0.3943   0.01928   0.01344  -0.0047  0.8709  0.7175  -1.3292   0.0000   0.0000   0.0000   0.2315
  -3.800  -0.3809   0.01962   0.01377  -0.0043  0.8696  0.7197  -1.2741   0.0000   0.0000   0.0000   0.2321
  -3.700  -0.3688   0.01988   0.01400  -0.0041  0.8671  0.7222  -1.2235   0.0000   0.0000   0.0000   0.2324
  -3.600  -0.3590   0.01996   0.01405  -0.0038  0.8644  0.7255  -1.1793   0.0000   0.0000   0.0000   0.2330
  -3.500  -0.3529   0.01975   0.01377  -0.0033  0.8618  0.7304  -1.1449   0.0000   0.0000   0.0000   0.2343
  -3.400  -0.3407   0.01990   0.01390  -0.0030  0.8603  0.7318  -1.0954   0.0000   0.0000   0.0000   0.2347
  -3.300  -0.3289   0.02002   0.01400  -0.0028  0.8589  0.7333  -1.0474   0.0000   0.0000   0.0000   0.2351
  -3.200  -0.3178   0.02012   0.01409  -0.0027  0.8560  0.7352  -1.0023   0.0000   0.0000   0.0000   0.2349
  -3.100  -0.3080   0.02013   0.01406  -0.0026  0.8537  0.7376  -0.9603   0.0000   0.0000   0.0000   0.2352
  -3.000  -0.3032   0.01979   0.01365  -0.0022  0.8513  0.7428  -0.9311   0.0000   0.0000   0.0000   0.2365
  -2.900  -0.2915   0.01986   0.01370  -0.0020  0.8499  0.7439  -0.8852   0.0000   0.0000   0.0000   0.2369
  -2.800  -0.2798   0.01993   0.01375  -0.0018  0.8487  0.7451  -0.8399   0.0000   0.0000   0.0000   0.2374
  -2.700  -0.2687   0.02003   0.01385  -0.0018  0.8458  0.7466  -0.7970   0.0000   0.0000   0.0000   0.2369
  -2.600  -0.2581   0.02007   0.01386  -0.0017  0.8435  0.7484  -0.7560   0.0000   0.0000   0.0000   0.2371
  -2.500  -0.2485   0.02003   0.01379  -0.0015  0.8414  0.7508  -0.7213   0.0000   0.0000   0.0000   0.2377
  -2.400  -0.2431   0.01969   0.01338  -0.0012  0.8395  0.7555  -0.6957   0.0000   0.0000   0.0000   0.2391
  -2.300  -0.2318   0.01971   0.01338  -0.0010  0.8382  0.7565  -0.6581   0.0000   0.0000   0.0000   0.2397
  -2.200  -0.2207   0.01979   0.01346  -0.0010  0.8356  0.7576  -0.6219   0.0000   0.0000   0.0000   0.2393
  -2.100  -0.2098   0.01984   0.01350  -0.0010  0.8333  0.7588  -0.5862   0.0000   0.0000   0.0000   0.2391
  -2.000  -0.1992   0.01985   0.01349  -0.0010  0.8315  0.7603  -0.5514   0.0000   0.0000   0.0000   0.2392
  -1.900  -0.1890   0.01981   0.01343  -0.0009  0.8298  0.7620  -0.5178   0.0000   0.0000   0.0000   0.2395
  -1.800  -0.1796   0.01970   0.01330  -0.0007  0.8284  0.7643  -0.5046   0.0000   0.0000   0.0000   0.2401
  -1.700  -0.1727   0.01943   0.01296  -0.0005  0.8269  0.7681  -0.5010   0.0000   0.0000   0.0000   0.2411
  -1.600  -0.1621   0.01951   0.01305  -0.0006  0.8240  0.7691  -0.4944   0.0000   0.0000   0.0000   0.2404
  -1.500  -0.1513   0.01955   0.01308  -0.0006  0.8218  0.7702  -0.4878   0.0000   0.0000   0.0000   0.2404
  -1.400  -0.1405   0.01956   0.01308  -0.0005  0.8200  0.7714  -0.4811   0.0000   0.0000   0.0000   0.2406
  -1.300  -0.1298   0.01954   0.01305  -0.0004  0.8184  0.7727  -0.4750   0.0000   0.0000   0.0000   0.2410
  -1.200  -0.1194   0.01949   0.01298  -0.0003  0.8171  0.7743  -0.4694   0.0000   0.0000   0.0000   0.2416
  -1.100  -0.1095   0.01941   0.01287  -0.0002  0.8159  0.7764  -0.4645   0.0000   0.0000   0.0000   0.2424
  -1.000  -0.1022   0.01930   0.01275  -0.0003  0.8131  0.7799  -0.4625   0.0000   0.0000   0.0000   0.2409
  -0.900  -0.0921   0.01933   0.01277  -0.0003  0.8109  0.7812  -0.4576   0.0000   0.0000   0.0000   0.2405
  -0.800  -0.0813   0.01936   0.01280  -0.0003  0.8091  0.7823  -0.4524   0.0000   0.0000   0.0000   0.2407
  -0.700  -0.0704   0.01936   0.01280  -0.0002  0.8076  0.7835  -0.4472   0.0000   0.0000   0.0000   0.2412
  -0.600  -0.0597   0.01934   0.01277  -0.0001  0.8063  0.7848  -0.4421   0.0000   0.0000   0.0000   0.2419
  -0.500  -0.0491   0.01930   0.01272  -0.0000  0.8050  0.7863  -0.4373   0.0000   0.0000   0.0000   0.2432
  -0.400  -0.0392   0.01927   0.01268  -0.0000  0.8034  0.7883  -0.4330   0.0000   0.0000   0.0000   0.2439
  -0.300  -0.0313   0.01925   0.01265  -0.0001  0.8004  0.7913  -0.4304   0.0000   0.0000   0.0000   0.2399
  -0.200  -0.0216   0.01924   0.01265  -0.0001  0.7984  0.7931  -0.4263   0.0000   0.0000   0.0000   0.2378
  -0.100  -0.0109   0.01928   0.01269  -0.0001  0.7969  0.7943  -0.4213   0.0000   0.0000   0.0000   0.2376
   0.000  -0.0000   0.01929   0.01270   0.0000  0.7955  0.7955  -0.4163   0.0000   0.0000   0.0000   0.6251
   0.100   0.0109   0.01928   0.01269   0.0001  0.7943  0.7969  -0.4213   0.0000   0.0000   0.0000   0.2376
   0.200   0.0216   0.01924   0.01265   0.0001  0.7931  0.7984  -0.4263   0.0000   0.0000   0.0000   0.2378
   0.300   0.0313   0.01925   0.01265   0.0001  0.7913  0.8004  -0.4304   0.0000   0.0000   0.0000   0.2399
   0.400   0.0392   0.01927   0.01268   0.0000  0.7883  0.8034  -0.4330   0.0000   0.0000   0.0000   0.2439
   0.500   0.0491   0.01930   0.01272   0.0000  0.7863  0.8050  -0.4373   0.0000   0.0000   0.0000   0.2432
   0.600   0.0597   0.01934   0.01277   0.0001  0.7848  0.8063  -0.4421   0.0000   0.0000   0.0000   0.2419
   0.700   0.0704   0.01936   0.01280   0.0002  0.7835  0.8076  -0.4472   0.0000   0.0000   0.0000   0.2412
   0.800   0.0813   0.01936   0.01280   0.0003  0.7823  0.8091  -0.4524   0.0000   0.0000   0.0000   0.2407
   0.900   0.0921   0.01933   0.01277   0.0003  0.7812  0.8109  -0.4576   0.0000   0.0000   0.0000   0.2405
   1.000   0.1022   0.01930   0.01275   0.0003  0.7799  0.8131  -0.4625   0.0000   0.0000   0.0000   0.2409
   1.100   0.1095   0.01941   0.01287   0.0002  0.7764  0.8159  -0.4645   0.0000   0.0000   0.0000   0.2424
   1.200   0.1194   0.01949   0.01298   0.0003  0.7743  0.8171  -0.4694   0.0000   0.0000   0.0000   0.2416
   1.300   0.1298   0.01954   0.01305   0.0004  0.7727  0.8184  -0.4750   0.0000   0.0000   0.0000   0.2410
   1.400   0.1405   0.01956   0.01308   0.0005  0.7714  0.8200  -0.4811   0.0000   0.0000   0.0000   0.2406
   1.500   0.1513   0.01955   0.01308   0.0006  0.7702  0.8218  -0.4878   0.0000   0.0000   0.0000   0.2404
   1.600   0.1621   0.01951   0.01305   0.0006  0.7691  0.8240  -0.4945   0.0000   0.0000   0.0000   0.2404
   1.700   0.1727   0.01943   0.01296   0.0005  0.7681  0.8269  -0.5010   0.0000   0.0000   0.0000   0.2411
   1.800   0.1796   0.01970   0.01330   0.0007  0.7643  0.8284  -0.5046   0.0000   0.0000   0.0000   0.2401
   1.900   0.1890   0.01981   0.01343   0.0009  0.7620  0.8298  -0.5178   0.0000   0.0000   0.0000   0.2395
   2.000   0.1992   0.01985   0.01349   0.0010  0.7603  0.8315  -0.5514   0.0000   0.0000   0.0000   0.2392
   2.100   0.2098   0.01984   0.01350   0.0010  0.7588  0.8333  -0.5862   0.0000   0.0000   0.0000   0.2391
   2.200   0.2207   0.01979   0.01346   0.0010  0.7576  0.8356  -0.6219   0.0000   0.0000   0.0000   0.2393
   2.300   0.2318   0.01971   0.01338   0.0010  0.7565  0.8382  -0.6581   0.0000   0.0000   0.0000   0.2397
   2.400   0.2431   0.01969   0.01338   0.0012  0.7555  0.8394  -0.6957   0.0000   0.0000   0.0000   0.2391
   2.500   0.2485   0.02003   0.01379   0.0015  0.7508  0.8414  -0.7213   0.0000   0.0000   0.0000   0.2377
   2.600   0.2581   0.02007   0.01386   0.0017  0.7484  0.8435  -0.7560   0.0000   0.0000   0.0000   0.2371
   2.700   0.2687   0.02003   0.01385   0.0018  0.7466  0.8458  -0.7970   0.0000   0.0000   0.0000   0.2369
   2.800   0.2798   0.01993   0.01375   0.0018  0.7451  0.8487  -0.8399   0.0000   0.0000   0.0000   0.2374
   2.900   0.2915   0.01986   0.01370   0.0020  0.7439  0.8499  -0.8852   0.0000   0.0000   0.0000   0.2369
   3.000   0.3032   0.01979   0.01365   0.0022  0.7428  0.8513  -0.9311   0.0000   0.0000   0.0000   0.2365
   3.100   0.3080   0.02013   0.01406   0.0026  0.7377  0.8537  -0.9604   0.0000   0.0000   0.0000   0.2352
   3.200   0.3179   0.02012   0.01409   0.0027  0.7352  0.8560  -1.0023   0.0000   0.0000   0.0000   0.2349
   3.300   0.3289   0.02002   0.01400   0.0028  0.7333  0.8589  -1.0474   0.0000   0.0000   0.0000   0.2351
   3.400   0.3407   0.01990   0.01390   0.0030  0.7318  0.8603  -1.0954   0.0000   0.0000   0.0000   0.2347
   3.500   0.3529   0.01975   0.01377   0.0033  0.7304  0.8618  -1.1449   0.0000   0.0000   0.0000   0.2343
   3.600   0.3590   0.01996   0.01404   0.0038  0.7256  0.8644  -1.1794   0.0000   0.0000   0.0000   0.2330
   3.700   0.3688   0.01988   0.01400   0.0041  0.7222  0.8671  -1.2235   0.0000   0.0000   0.0000   0.2324
   3.800   0.3809   0.01962   0.01377   0.0043  0.7197  0.8696  -1.2741   0.0000   0.0000   0.0000   0.2321
   3.900   0.3943   0.01928   0.01344   0.0047  0.7175  0.8709  -1.3292   0.0000   0.0000   0.0000   0.2315
   4.000   0.4020   0.01922   0.01343   0.0054  0.7111  0.8731  -1.3700   0.0000   0.0000   0.0000   0.2297
   4.100   0.4166   0.01845   0.01262   0.0062  0.7051  0.8748  -1.4312   0.0000   0.0000   0.0000   0.2284
   4.200   0.4265   0.01796   0.01213   0.0072  0.6960  0.8775  -1.4801   0.0000   0.0000   0.0000   0.2264
   4.300   0.4394   0.01722   0.01132   0.0081  0.6874  0.8795  -1.5382   0.0000   0.0000   0.0000   0.2248
   4.400   0.4507   0.01670   0.01078   0.0090  0.6778  0.8810  -1.5918   0.0000   0.0000   0.0000   0.2232
   4.500   0.4599   0.01643   0.01054   0.0098  0.6688  0.8831  -1.6393   0.0000   0.0000   0.0000   0.2219
   4.600   0.4717   0.01610   0.01018   0.0102  0.6629  0.8855  -1.6933   0.0000   0.0000   0.0000   0.2214
   4.700   0.4799   0.01598   0.01012   0.0107  0.6557  0.8888  -1.7373   0.0000   0.0000   0.0000   0.2205
   4.800   0.4913   0.01574   0.00989   0.0112  0.6494  0.8906  -1.7977   0.0000   0.0000   0.0000   0.2201
   4.900   0.5003   0.01561   0.00982   0.0118  0.6413  0.8931  -1.8507   0.0000   0.0000   0.0000   0.2192
   5.000   0.5111   0.01536   0.00955   0.0123  0.6341  0.8959  -1.9099   0.0000   0.0000   0.0000   0.2187
   5.100   0.5193   0.01524   0.00950   0.0129  0.6244  0.8988  -1.9610   0.0000   0.0000   0.0000   0.2178
   5.200   0.5290   0.01507   0.00935   0.0135  0.6139  0.9011  -2.0170   0.0000   0.0000   0.0000   0.2171
   5.300   0.5381   0.01489   0.00918   0.0141  0.6016  0.9041  -2.0713   0.0000   0.0000   0.0000   0.2162
   5.400   0.5464   0.01473   0.00903   0.0149  0.5861  0.9073  -2.1228   0.0000   0.0000   0.0000   0.2152
   5.500   0.5551   0.01459   0.00889   0.0156  0.5650  0.9097  -2.1750   0.0000   0.0000   0.0000   0.2142
   5.600   0.5620   0.01447   0.00873   0.0166  0.5343  0.9132  -2.2213   0.0000   0.0000   0.0000   0.2126
   5.700   0.5661   0.01448   0.00848   0.0182  0.4664  0.9165  -2.2584   0.0000   0.0000   0.0000   0.2099
   5.800   0.5608   0.01510   0.00845   0.0209  0.3578  0.9214  -2.2706   0.0000   0.0000   0.0000   0.2045
   5.900   0.5534   0.01605   0.00882   0.0235  0.2581  0.9265  -2.2739   0.0000   0.0000   0.0000   0.1992
   6.000   0.5463   0.01703   0.00927   0.0258  0.1706  0.9323  -2.2749   0.0000   0.0000   0.0000   0.1941
   6.100   0.5431   0.01782   0.00970   0.0277  0.1226  0.9382  -2.2808   0.0000   0.0000   0.0000   0.1903
   6.200   0.5464   0.01842   0.01013   0.0286  0.1033  0.9423  -2.3019   0.0000   0.0000   0.0000   0.1888
   6.300   0.5515   0.01884   0.01048   0.0293  0.0939  0.9468  -2.3306   0.0000   0.0000   0.0000   0.1880
   6.400   0.5570   0.01924   0.01082   0.0299  0.0879  0.9517  -2.3631   0.0000   0.0000   0.0000   0.1874
   6.500   0.5664   0.01962   0.01121   0.0297  0.0821  0.9550  -2.4054   0.0000   0.0000   0.0000   0.1884
   6.600   0.5746   0.02002   0.01160   0.0297  0.0781  0.9592  -2.4447   0.0000   0.0000   0.0000   0.1891
   6.700   0.5847   0.02040   0.01197   0.0295  0.0745  0.9629  -2.4892   0.0000   0.0000   0.0000   0.1904
   6.800   0.5941   0.02095   0.01246   0.0291  0.0721  0.9664  -2.5324   0.0000   0.0000   0.0000   0.1918
   6.900   0.6060   0.02131   0.01286   0.0286  0.0697  0.9700  -2.5764   0.0000   0.0000   0.0000   0.1935
   7.000   0.6190   0.02175   0.01329   0.0278  0.0675  0.9727  -2.6327   0.0000   0.0000   0.0000   0.1958
   7.100   0.6319   0.02224   0.01374   0.0269  0.0656  0.9756  -2.6965   0.0000   0.0000   0.0000   0.1979
   7.200   0.6448   0.02291   0.01430   0.0261  0.0641  0.9780  -2.7591   0.0000   0.0000   0.0000   0.2000
   7.300   0.6602   0.02333   0.01477   0.0251  0.0627  0.9801  -2.8239   0.0000   0.0000   0.0000   0.2025
   7.400   0.6761   0.02381   0.01527   0.0240  0.0613  0.9819  -2.8906   0.0000   0.0000   0.0000   0.2049
   7.500   0.6920   0.02430   0.01576   0.0229  0.0600  0.9837  -2.9598   0.0000   0.0000   0.0000   0.2073
   7.600   0.7085   0.02482   0.01626   0.0217  0.0585  0.9849  -3.0357   0.0000   0.0000   0.0000   0.2098
   7.700   0.7250   0.02550   0.01683   0.0204  0.0570  0.9860  -3.1152   0.0000   0.0000   0.0000   0.2122
   7.800   0.7413   0.02605   0.01742   0.0193  0.0557  0.9875  -3.1839   0.0000   0.0000   0.0000   0.2143
   7.900   0.7578   0.02652   0.01797   0.0181  0.0543  0.9891  -3.2533   0.0000   0.0000   0.0000   0.2164
   8.000   0.7743   0.02709   0.01857   0.0170  0.0534  0.9907  -3.3216   0.0000   0.0000   0.0000   0.2183
   8.100   0.7912   0.02770   0.01921   0.0158  0.0526  0.9918  -3.3910   0.0000   0.0000   0.0000   0.2202
   8.200   0.8079   0.02834   0.01986   0.0147  0.0518  0.9932  -3.4608   0.0000   0.0000   0.0000   0.2220
   8.300   0.8246   0.02902   0.02056   0.0135  0.0512  0.9945  -3.5305   0.0000   0.0000   0.0000   0.2238
   8.400   0.8412   0.02978   0.02132   0.0123  0.0506  0.9958  -3.5996   0.0000   0.0000   0.0000   0.2254
   8.500   0.8580   0.03068   0.02225   0.0111  0.0501  0.9969  -3.6667   0.0000   0.0000   0.0000   0.2271
   8.600   0.8749   0.03182   0.02339   0.0099  0.0497  0.9978  -3.7270   0.0000   0.0000   0.0000   0.2286
   8.700   0.8910   0.03302   0.02466   0.0088  0.0494  0.9989  -3.7856   0.0000   0.0000   0.0000   0.2300
   8.800   0.8999   0.03374   0.02548   0.0089  0.0493  1.0000  -3.8328   0.0000   0.0000   0.0000   0.2299
   8.900   0.9013   0.03424   0.02605   0.0104  0.0493  1.0000  -3.8596   0.0000   0.0000   0.0000   0.2282
   9.000   0.9022   0.03473   0.02661   0.0119  0.0493  1.0000  -3.8845   0.0000   0.0000   0.0000   0.2264
   9.100   0.9020   0.03519   0.02714   0.0136  0.0492  1.0000  -3.9063   0.0000   0.0000   0.0000   0.2244
   9.200   0.9014   0.03562   0.02765   0.0153  0.0492  1.0000  -3.9265   0.0000   0.0000   0.0000   0.2224
   9.300   0.9010   0.03607   0.02818   0.0170  0.0491  1.0000  -3.9468   0.0000   0.0000   0.0000   0.2204
   9.400   0.9024   0.03661   0.02883   0.0184  0.0489  1.0000  -3.9703   0.0000   0.0000   0.0000   0.2188
   9.500   0.9055   0.03725   0.02960   0.0194  0.0487  1.0000  -3.9963   0.0000   0.0000   0.0000   0.2176
   9.600   0.9093   0.03797   0.03046   0.0203  0.0484  1.0000  -4.0229   0.0000   0.0000   0.0000   0.2167
   9.700   0.9135   0.03877   0.03140   0.0210  0.0480  1.0000  -4.0497   0.0000   0.0000   0.0000   0.2159
   9.800   0.9181   0.03966   0.03243   0.0216  0.0477  1.0000  -4.0764   0.0000   0.0000   0.0000   0.2152
   9.900   0.9229   0.04065   0.03356   0.0222  0.0475  1.0000  -4.1019   0.0000   0.0000   0.0000   0.2146
  10.000   0.9281   0.04181   0.03484   0.0226  0.0476  1.0000  -4.1249   0.0000   0.0000   0.0000   0.2142
  10.100   0.9330   0.04305   0.03622   0.0231  0.0478  1.0000  -4.1453   0.0000   0.0000   0.0000   0.2137
  10.200   0.9376   0.04435   0.03763   0.0236  0.0481  1.0000  -4.1641   0.0000   0.0000   0.0000   0.2132
  10.300   0.9422   0.04571   0.03909   0.0240  0.0483  1.0000  -4.1842   0.0000   0.0000   0.0000   0.2128
  10.400   0.9475   0.04715   0.04061   0.0243  0.0486  1.0000  -4.2080   0.0000   0.0000   0.0000   0.2126
  10.500   0.9545   0.04875   0.04225   0.0243  0.0490  1.0000  -4.2401   0.0000   0.0000   0.0000   0.2126
  10.600   0.9683   0.05111   0.04454   0.0234  0.0495  1.0000  -4.2950   0.0000   0.0000   0.0000   0.2138
  15.200   0.6479   0.17025   0.16620  -0.0184  0.0683  1.0000  -1.8675   0.0000   0.0000   0.0000   0.2598
  15.300   0.6504   0.17172   0.16767  -0.0191  0.0672  1.0000  -1.8757   0.0000   0.0000   0.0000   0.2606
  15.400   0.6543   0.17297   0.16892  -0.0195  0.0663  1.0000  -1.8991   0.0000   0.0000   0.0000   0.2609
  15.500   0.6600   0.17398   0.16993  -0.0195  0.0655  1.0000  -1.9434   0.0000   0.0000   0.0000   0.2605
  15.600   0.6690   0.17461   0.17058  -0.0185  0.0648  1.0000  -2.0256   0.0000   0.0000   0.0000   0.2585
  20.700   0.5242   0.20836   0.20490  -0.0340  0.0409  1.0000  -1.1494   0.0000   0.0000   0.0000   0.2980
  20.800   0.5259   0.20955   0.20609  -0.0347  0.0401  1.0000  -1.1440   0.0000   0.0000   0.0000   0.2991
  20.900   0.5278   0.21072   0.20727  -0.0354  0.0395  1.0000  -1.1443   0.0000   0.0000   0.0000   0.3000
  21.000   0.5299   0.21185   0.20841  -0.0360  0.0389  1.0000  -1.1479   0.0000   0.0000   0.0000   0.3007
  21.100   0.5321   0.21300   0.20956  -0.0366  0.0384  1.0000  -1.1538   0.0000   0.0000   0.0000   0.3014
  21.200   0.5345   0.21416   0.21072  -0.0371  0.0380  1.0000  -1.1623   0.0000   0.0000   0.0000   0.3021
  21.300   0.5371   0.21530   0.21187  -0.0376  0.0376  1.0000  -1.1748   0.0000   0.0000   0.0000   0.3025
  21.400   0.5401   0.21648   0.21306  -0.0381  0.0372  1.0000  -1.1925   0.0000   0.0000   0.0000   0.3028
  21.500   0.5436   0.21777   0.21436  -0.0384  0.0369  1.0000  -1.2182   0.0000   0.0000   0.0000   0.3027
  21.600   0.5485   0.21938   0.21598  -0.0384  0.0367  1.0000  -1.2580   0.0000   0.0000   0.0000   0.3021
  21.700   0.5575   0.22217   0.21879  -0.0380  0.0365  1.0000  -1.3330   0.0000   0.0000   0.0000   0.2999
  21.800   0.5560   0.22300   0.21960  -0.0391  0.0364  1.0000  -1.2928   0.0000   0.0000   0.0000   0.3020
  21.900   0.5539   0.22368   0.22028  -0.0404  0.0363  1.0000  -1.2418   0.0000   0.0000   0.0000   0.3046
  22.000   0.5525   0.22453   0.22113  -0.0416  0.0362  1.0000  -1.1939   0.0000   0.0000   0.0000   0.3070
  22.100   0.5521   0.22559   0.22220  -0.0428  0.0359  1.0000  -1.1533   0.0000   0.0000   0.0000   0.3091
  22.200   0.5527   0.22681   0.22342  -0.0437  0.0355  1.0000  -1.1260   0.0000   0.0000   0.0000   0.3107
  22.300   0.5541   0.22806   0.22468  -0.0445  0.0350  1.0000  -1.1108   0.0000   0.0000   0.0000   0.3119
  22.400   0.5557   0.22931   0.22594  -0.0453  0.0345  1.0000  -1.1018   0.0000   0.0000   0.0000   0.3128
  22.500   0.5575   0.23054   0.22717  -0.0460  0.0341  1.0000  -1.0969   0.0000   0.0000   0.0000   0.3137
  22.600   0.5594   0.23178   0.22842  -0.0466  0.0336  1.0000  -1.0976   0.0000   0.0000   0.0000   0.3145
  22.700   0.5613   0.23301   0.22965  -0.0473  0.0332  1.0000  -1.0999   0.0000   0.0000   0.0000   0.3153
  22.800   0.5633   0.23423   0.23087  -0.0479  0.0329  1.0000  -1.1036   0.0000   0.0000   0.0000   0.3160
  22.900   0.5653   0.23544   0.23209  -0.0485  0.0325  1.0000  -1.1088   0.0000   0.0000   0.0000   0.3167
  23.000   0.5674   0.23663   0.23329  -0.0491  0.0322  1.0000  -1.1157   0.0000   0.0000   0.0000   0.3173
  23.100   0.5696   0.23785   0.23451  -0.0497  0.0319  1.0000  -1.1247   0.0000   0.0000   0.0000   0.3178
  23.200   0.5719   0.23905   0.23572  -0.0503  0.0316  1.0000  -1.1362   0.0000   0.0000   0.0000   0.3183
  23.300   0.5743   0.24028   0.23696  -0.0508  0.0313  1.0000  -1.1512   0.0000   0.0000   0.0000   0.3186
  23.400   0.5771   0.24157   0.23826  -0.0512  0.0311  1.0000  -1.1710   0.0000   0.0000   0.0000   0.3188
  23.500   0.5804   0.24303   0.23973  -0.0516  0.0309  1.0000  -1.1984   0.0000   0.0000   0.0000   0.3187
  23.600   0.5849   0.24492   0.24162  -0.0517  0.0307  1.0000  -1.2390   0.0000   0.0000   0.0000   0.3180
  26.500   0.9876   0.32627   0.32227  -0.1258  0.0218  1.0000  -1.9490   0.0000   0.0000   0.0000   0.3382
  26.600   0.9908   0.32737   0.32337  -0.1268  0.0216  1.0000  -1.9582   0.0000   0.0000   0.0000   0.3385
  26.700   0.9939   0.32847   0.32448  -0.1278  0.0213  1.0000  -1.9691   0.0000   0.0000   0.0000   0.3389
  26.800   0.9970   0.32962   0.32564  -0.1287  0.0211  1.0000  -1.9822   0.0000   0.0000   0.0000   0.3391
  26.900   1.0002   0.33073   0.32675  -0.1296  0.0210  1.0000  -1.9978   0.0000   0.0000   0.0000   0.3394
  27.000   1.0033   0.33184   0.32787  -0.1305  0.0208  1.0000  -2.0165   0.0000   0.0000   0.0000   0.3396
  27.100   1.0064   0.33300   0.32903  -0.1313  0.0206  1.0000  -2.0392   0.0000   0.0000   0.0000   0.3397
  27.200   1.0096   0.33426   0.33029  -0.1320  0.0205  1.0000  -2.0669   0.0000   0.0000   0.0000   0.3397
  27.300   1.0129   0.33574   0.33178  -0.1326  0.0203  1.0000  -2.1014   0.0000   0.0000   0.0000   0.3396
  27.400   1.0166   0.33770   0.33375  -0.1329  0.0202  1.0000  -2.1453   0.0000   0.0000   0.0000   0.3392
  27.500   1.0210   0.34072   0.33680  -0.1329  0.0201  1.0000  -2.2032   0.0000   0.0000   0.0000   0.3384
  29.300   1.0721   0.35864   0.35474  -0.1554  0.0177  1.0000  -1.9788   0.0000   0.0000   0.0000   0.3484
  29.400   1.0750   0.35970   0.35580  -0.1565  0.0175  1.0000  -1.9858   0.0000   0.0000   0.0000   0.3487
  29.500   1.0778   0.36075   0.35686  -0.1575  0.0173  1.0000  -1.9934   0.0000   0.0000   0.0000   0.3490
  29.600   1.0806   0.36179   0.35791  -0.1586  0.0171  1.0000  -2.0017   0.0000   0.0000   0.0000   0.3493
  29.700   1.0835   0.36281   0.35893  -0.1596  0.0170  1.0000  -2.0110   0.0000   0.0000   0.0000   0.3495
  29.800   1.0863   0.36380   0.35993  -0.1607  0.0168  1.0000  -2.0214   0.0000   0.0000   0.0000   0.3498
  29.900   1.0891   0.36477   0.36090  -0.1617  0.0166  1.0000  -2.0331   0.0000   0.0000   0.0000   0.3501
  30.000   1.0918   0.36583   0.36197  -0.1627  0.0165  1.0000  -2.0463   0.0000   0.0000   0.0000   0.3503


