xflr5 v6.61

 Calculated polar for: NACA 65(1)-412

 1 1 Reynolds number fixed          Mach number fixed         

 xtrf =   1.000 (top)        1.000 (bottom)
 Mach =   0.000     Re =     0.450 e 6     Ncrit =   9.000

  alpha     CL        CD       CDp       Cm    Top Xtr Bot Xtr   Cpmin    Chinge    XCp    
 ------- -------- --------- --------- -------- ------- ------- -------- --------- ---------
 -10.000  -0.3565   0.08959   0.08710  -0.0551  0.9953  0.0206  -1.8471   0.0000   0.0000   0.0000   0.0843
  -9.900  -0.3543   0.08752   0.08504  -0.0569  0.9944  0.0208  -1.8672   0.0000   0.0000   0.0000   0.0784
  -9.800  -0.3523   0.08542   0.08294  -0.0587  0.9935  0.0210  -1.8891   0.0000   0.0000   0.0000   0.0722
  -9.700  -0.3505   0.08327   0.08079  -0.0607  0.9925  0.0211  -1.9133   0.0000   0.0000   0.0000   0.0658
  -9.600  -0.3489   0.08105   0.07858  -0.0628  0.9914  0.0213  -1.9402   0.0000   0.0000   0.0000   0.0592
  -9.500  -0.3476   0.07875   0.07628  -0.0650  0.9902  0.0214  -1.9705   0.0000   0.0000   0.0000   0.0523
  -9.400  -0.3467   0.07631   0.07384  -0.0674  0.9888  0.0216  -2.0056   0.0000   0.0000   0.0000   0.0448
  -9.300  -0.3462   0.07362   0.07115  -0.0703  0.9871  0.0216  -2.0485   0.0000   0.0000   0.0000   0.0365
  -9.200  -0.3471   0.07044   0.06797  -0.0739  0.9852  0.0217  -2.1076   0.0000   0.0000   0.0000   0.0267
  -9.100  -0.3496   0.06710   0.06461  -0.0779  0.9830  0.0216  -2.1758   0.0000   0.0000   0.0000   0.0170
  -9.000  -0.3527   0.06425   0.06174  -0.0813  0.9803  0.0216  -2.2328   0.0000   0.0000   0.0000   0.0097
  -8.900  -0.3561   0.06174   0.05918  -0.0842  0.9774  0.0216  -2.2819   0.0000   0.0000   0.0000   0.0039
  -8.800  -0.3598   0.05950   0.05691  -0.0867  0.9742  0.0216  -2.3242   0.0000   0.0000   0.0000  -0.0005
  -8.700  -0.3632   0.05744   0.05479  -0.0889  0.9709  0.0216  -2.3605   0.0000   0.0000   0.0000  -0.0039
  -8.000  -0.4743   0.02452   0.01952  -0.0848  0.9380  0.0102  -4.6937   0.0000   0.0000   0.0000   0.0627
  -7.900  -0.4693   0.02315   0.01798  -0.0842  0.9350  0.0102  -4.6853   0.0000   0.0000   0.0000   0.0622
  -7.800  -0.4618   0.02238   0.01711  -0.0839  0.9324  0.0103  -4.6115   0.0000   0.0000   0.0000   0.0599
  -7.700  -0.4531   0.02185   0.01653  -0.0837  0.9299  0.0105  -4.5103   0.0000   0.0000   0.0000   0.0568
  -7.600  -0.4439   0.02149   0.01613  -0.0836  0.9275  0.0106  -4.3911   0.0000   0.0000   0.0000   0.0532
  -7.500  -0.4341   0.02126   0.01588  -0.0836  0.9251  0.0109  -4.2529   0.0000   0.0000   0.0000   0.0491
  -7.400  -0.4221   0.02173   0.01640  -0.0839  0.9228  0.0118  -3.9659   0.0000   0.0000   0.0000   0.0431
  -7.300  -0.4124   0.02131   0.01593  -0.0838  0.9202  0.0121  -3.8592   0.0000   0.0000   0.0000   0.0385
  -7.200  -0.4023   0.02095   0.01552  -0.0838  0.9175  0.0125  -3.7498   0.0000   0.0000   0.0000   0.0336
  -7.100  -0.3920   0.02068   0.01520  -0.0837  0.9146  0.0130  -3.6382   0.0000   0.0000   0.0000   0.0282
  -7.000  -0.3813   0.02053   0.01502  -0.0837  0.9114  0.0135  -3.5240   0.0000   0.0000   0.0000   0.0222
  -6.900  -0.3703   0.02053   0.01499  -0.0838  0.9077  0.0139  -3.4068   0.0000   0.0000   0.0000   0.0154
  -6.800  -0.3589   0.02068   0.01512  -0.0840  0.9032  0.0142  -3.2854   0.0000   0.0000   0.0000   0.0078
  -6.700  -0.3481   0.02095   0.01539  -0.0840  0.9000  0.0144  -3.1635   0.0000   0.0000   0.0000   0.0004
  -6.600  -0.3458   0.01849   0.01269  -0.0829  0.8983  0.0156  -3.2371   0.0000   0.0000   0.0000   0.0019
  -6.500  -0.3384   0.01778   0.01193  -0.0825  0.8965  0.0164  -3.1889   0.0000   0.0000   0.0000  -0.0022
  -6.400  -0.3296   0.01752   0.01167  -0.0823  0.8945  0.0169  -3.1076   0.0000   0.0000   0.0000  -0.0080
  -6.300  -0.3204   0.01739   0.01154  -0.0821  0.8923  0.0173  -3.0192   0.0000   0.0000   0.0000  -0.0147
  -6.200  -0.3109   0.01729   0.01145  -0.0820  0.8899  0.0178  -2.9312   0.0000   0.0000   0.0000  -0.0220
  -6.100  -0.3013   0.01718   0.01134  -0.0819  0.8875  0.0182  -2.8472   0.0000   0.0000   0.0000  -0.0300
  -6.000  -0.2917   0.01705   0.01121  -0.0818  0.8849  0.0187  -2.7686   0.0000   0.0000   0.0000  -0.0386
  -5.900  -0.2820   0.01689   0.01104  -0.0816  0.8823  0.0191  -2.6961   0.0000   0.0000   0.0000  -0.0477
  -5.800  -0.2723   0.01670   0.01082  -0.0814  0.8798  0.0195  -2.6295   0.0000   0.0000   0.0000  -0.0575
  -5.700  -0.2625   0.01648   0.01058  -0.0813  0.8771  0.0198  -2.5685   0.0000   0.0000   0.0000  -0.0682
  -5.600  -0.2527   0.01622   0.01028  -0.0811  0.8745  0.0201  -2.5143   0.0000   0.0000   0.0000  -0.0797
  -5.500  -0.2431   0.01573   0.00971  -0.0808  0.8719  0.0198  -2.4989   0.0000   0.0000   0.0000  -0.0913
  -5.400  -0.2331   0.01552   0.00947  -0.0807  0.8692  0.0202  -2.4389   0.0000   0.0000   0.0000  -0.1050
  -5.300  -0.2231   0.01531   0.00924  -0.0806  0.8663  0.0206  -2.3808   0.0000   0.0000   0.0000  -0.1201
  -5.200  -0.2130   0.01510   0.00900  -0.0804  0.8633  0.0210  -2.3241   0.0000   0.0000   0.0000  -0.1366
  -5.100  -0.2029   0.01490   0.00877  -0.0803  0.8599  0.0215  -2.2681   0.0000   0.0000   0.0000  -0.1553
  -5.000  -0.1925   0.01472   0.00856  -0.0803  0.8560  0.0219  -2.2119   0.0000   0.0000   0.0000  -0.1765
  -4.900  -0.1820   0.01458   0.00839  -0.0803  0.8516  0.0225  -2.1541   0.0000   0.0000   0.0000  -0.2012
  -4.800  -0.1717   0.01442   0.00823  -0.0802  0.8500  0.0231  -2.0928   0.0000   0.0000   0.0000  -0.2274
  -4.700  -0.1602   0.01527   0.00904  -0.0807  0.8487  0.0297  -1.8604   0.0000   0.0000   0.0000  -0.2645
  -4.600  -0.1499   0.01501   0.00876  -0.0806  0.8473  0.0295  -1.8248   0.0000   0.0000   0.0000  -0.2985
  -4.500  -0.1397   0.01474   0.00847  -0.0805  0.8457  0.0292  -1.7900   0.0000   0.0000   0.0000  -0.3373
  -4.400  -0.1295   0.01447   0.00818  -0.0803  0.8439  0.0290  -1.7563   0.0000   0.0000   0.0000  -0.3821
  -4.300  -0.1193   0.01418   0.00788  -0.0802  0.8419  0.0289  -1.7239   0.0000   0.0000   0.0000  -0.4343
  -4.200  -0.1092   0.01389   0.00756  -0.0800  0.8398  0.0287  -1.6931   0.0000   0.0000   0.0000  -0.4957
  -4.100  -0.0992   0.01358   0.00723  -0.0798  0.8376  0.0287  -1.6643   0.0000   0.0000   0.0000  -0.5688
  -4.000  -0.0893   0.01325   0.00688  -0.0796  0.8354  0.0286  -1.6375   0.0000   0.0000   0.0000  -0.6571
  -3.900  -0.0795   0.01291   0.00651  -0.0794  0.8331  0.0286  -1.6132   0.0000   0.0000   0.0000  -0.7655
  -3.800  -0.0698   0.01256   0.00613  -0.0792  0.8308  0.0287  -1.5914   0.0000   0.0000   0.0000  -0.9021
  -3.700  -0.0602   0.01220   0.00573  -0.0789  0.8284  0.0289  -1.5722   0.0000   0.0000   0.0000  -1.0806
  -3.600  -0.0507   0.01183   0.00532  -0.0787  0.8260  0.0292  -1.5559   0.0000   0.0000   0.0000  -1.3259
  -3.500  -0.0411   0.01147   0.00490  -0.0785  0.8236  0.0298  -1.5426   0.0000   0.0000   0.0000  -1.6883
  -3.400  -0.0313   0.01113   0.00449  -0.0783  0.8211  0.0306  -1.5317   0.0000   0.0000   0.0000  -2.2878
  -3.300  -0.0212   0.01081   0.00410  -0.0782  0.8185  0.0321  -1.5232   0.0000   0.0000   0.0000  -3.4838
  -3.200  -0.0108   0.01055   0.00377  -0.0781  0.8159  0.0344  -1.5139   0.0000   0.0000   0.0000  -7.0754
  -3.100  -0.0001   0.01034   0.00350  -0.0780  0.8129  0.0377  -1.4991   0.0000   0.0000   0.0000  -790.9423
  -3.000   0.0108   0.01020   0.00334  -0.0781  0.8096  0.0416  -1.4721   0.0000   0.0000   0.0000   7.5386
  -2.900   0.0220   0.01011   0.00323  -0.0782  0.8060  0.0453  -1.4349   0.0000   0.0000   0.0000   3.8545
  -2.800   0.0332   0.01007   0.00316  -0.0783  0.8019  0.0488  -1.3928   0.0000   0.0000   0.0000   2.6384
  -2.700   0.0443   0.01000   0.00306  -0.0784  0.8004  0.0522  -1.3480   0.0000   0.0000   0.0000   2.0410
  -2.600   0.0550   0.00976   0.00294  -0.0785  0.7994  0.0783  -1.3111   0.0000   0.0000   0.0000   1.6927
  -2.500   0.0640   0.00891   0.00270  -0.0789  0.7982  0.2411  -1.2715   0.0000   0.0000   0.0000   1.4965
  -2.400   0.0727   0.00784   0.00249  -0.0796  0.7968  0.4713  -1.2292   0.0000   0.0000   0.0000   1.3551
  -2.300   0.0826   0.00753   0.00255  -0.0795  0.7952  0.5688  -1.1799   0.0000   0.0000   0.0000   1.2216
  -2.200   0.0934   0.00748   0.00257  -0.0795  0.7935  0.6033  -1.1278   0.0000   0.0000   0.0000   1.1084
  -2.100   0.1038   0.00742   0.00263  -0.0793  0.7916  0.6295  -1.0764   0.0000   0.0000   0.0000   1.0204
  -2.000   0.1148   0.00743   0.00266  -0.0793  0.7896  0.6452  -1.0237   0.0000   0.0000   0.0000   0.9457
  -1.900   0.1259   0.00743   0.00266  -0.0793  0.7875  0.6557  -0.9716   0.0000   0.0000   0.0000   0.8843
  -1.800   0.1363   0.00741   0.00271  -0.0791  0.7854  0.6688  -0.9209   0.0000   0.0000   0.0000   0.8340
  -1.700   0.1469   0.00744   0.00277  -0.0789  0.7835  0.6804  -0.8703   0.0000   0.0000   0.0000   0.7904
  -1.600   0.1578   0.00749   0.00282  -0.0788  0.7815  0.6899  -0.8195   0.0000   0.0000   0.0000   0.7522
  -1.500   0.1689   0.00755   0.00287  -0.0787  0.7795  0.6962  -0.7689   0.0000   0.0000   0.0000   0.7187
  -1.400   0.1800   0.00760   0.00290  -0.0787  0.7775  0.7005  -0.7189   0.0000   0.0000   0.0000   0.6894
  -1.300   0.1909   0.00756   0.00287  -0.0787  0.7755  0.7076  -0.6705   0.0000   0.0000   0.0000   0.6640
  -1.200   0.2018   0.00754   0.00286  -0.0786  0.7734  0.7124  -0.6225   0.0000   0.0000   0.0000   0.6413
  -1.100   0.2127   0.00755   0.00286  -0.0786  0.7713  0.7161  -0.5750   0.0000   0.0000   0.0000   0.6208
  -1.000   0.2236   0.00756   0.00287  -0.0786  0.7691  0.7199  -0.5282   0.0000   0.0000   0.0000   0.6023
  -0.900   0.2344   0.00759   0.00291  -0.0784  0.7668  0.7247  -0.5201   0.0000   0.0000   0.0000   0.5855
  -0.800   0.2452   0.00764   0.00296  -0.0783  0.7644  0.7297  -0.5250   0.0000   0.0000   0.0000   0.5702
  -0.700   0.2560   0.00771   0.00301  -0.0782  0.7616  0.7346  -0.5299   0.0000   0.0000   0.0000   0.5561
  -0.600   0.2670   0.00779   0.00308  -0.0782  0.7586  0.7389  -0.5348   0.0000   0.0000   0.0000   0.5432
  -0.500   0.2781   0.00788   0.00316  -0.0782  0.7553  0.7423  -0.5396   0.0000   0.0000   0.0000   0.5315
  -0.400   0.2894   0.00799   0.00326  -0.0784  0.7517  0.7447  -0.5444   0.0000   0.0000   0.0000   0.5208
  -0.300   0.3007   0.00802   0.00329  -0.0785  0.7505  0.7463  -0.5494   0.0000   0.0000   0.0000   0.5108
  -0.200   0.3120   0.00802   0.00329  -0.0786  0.7497  0.7474  -0.5550   0.0000   0.0000   0.0000   0.5016
  -0.100   0.3233   0.00804   0.00330  -0.0787  0.7489  0.7484  -0.5608   0.0000   0.0000   0.0000   0.4930
   0.000   0.3347   0.00802   0.00328  -0.0788  0.7479  0.7506  -0.5666   0.0000   0.0000   0.0000   0.4850
   0.100   0.3459   0.00796   0.00324  -0.0790  0.7467  0.7548  -0.5724   0.0000   0.0000   0.0000   0.4777
   0.200   0.3569   0.00792   0.00322  -0.0790  0.7454  0.7584  -0.5781   0.0000   0.0000   0.0000   0.4707
   0.300   0.3679   0.00790   0.00321  -0.0791  0.7439  0.7614  -0.5837   0.0000   0.0000   0.0000   0.4640
   0.400   0.3789   0.00789   0.00322  -0.0791  0.7423  0.7639  -0.5894   0.0000   0.0000   0.0000   0.4578
   0.500   0.3899   0.00789   0.00322  -0.0791  0.7406  0.7663  -0.5951   0.0000   0.0000   0.0000   0.4519
   0.600   0.4008   0.00788   0.00323  -0.0791  0.7387  0.7686  -0.6008   0.0000   0.0000   0.0000   0.4463
   0.700   0.4118   0.00788   0.00326  -0.0791  0.7369  0.7708  -0.6065   0.0000   0.0000   0.0000   0.4409
   0.800   0.4229   0.00789   0.00327  -0.0792  0.7351  0.7729  -0.6122   0.0000   0.0000   0.0000   0.4359
   0.900   0.4339   0.00790   0.00329  -0.0792  0.7334  0.7751  -0.6179   0.0000   0.0000   0.0000   0.4312
   1.000   0.4450   0.00791   0.00330  -0.0793  0.7317  0.7772  -0.6236   0.0000   0.0000   0.0000   0.4266
   1.100   0.4561   0.00793   0.00332  -0.0793  0.7300  0.7793  -0.6293   0.0000   0.0000   0.0000   0.4223
   1.200   0.4672   0.00794   0.00334  -0.0794  0.7283  0.7814  -0.6350   0.0000   0.0000   0.0000   0.4182
   1.300   0.4784   0.00796   0.00335  -0.0794  0.7267  0.7835  -0.6407   0.0000   0.0000   0.0000   0.4143
   1.400   0.4895   0.00798   0.00337  -0.0795  0.7249  0.7856  -0.6464   0.0000   0.0000   0.0000   0.4106
   1.500   0.5007   0.00800   0.00339  -0.0796  0.7231  0.7876  -0.6522   0.0000   0.0000   0.0000   0.4070
   1.600   0.5119   0.00801   0.00340  -0.0796  0.7210  0.7896  -0.6769   0.0000   0.0000   0.0000   0.4036
   1.700   0.5230   0.00803   0.00340  -0.0797  0.7181  0.7914  -0.7327   0.0000   0.0000   0.0000   0.4003
   1.800   0.5341   0.00805   0.00339  -0.0797  0.7140  0.7931  -0.7894   0.0000   0.0000   0.0000   0.3970
   1.900   0.5453   0.00810   0.00341  -0.0797  0.7078  0.7947  -0.8471   0.0000   0.0000   0.0000   0.3940
   2.000   0.5564   0.00820   0.00348  -0.0798  0.7005  0.7961  -0.9055   0.0000   0.0000   0.0000   0.3911
   2.100   0.5671   0.00810   0.00339  -0.0796  0.6978  0.7975  -0.9642   0.0000   0.0000   0.0000   0.3880
   2.200   0.5776   0.00803   0.00331  -0.0795  0.6932  0.7987  -1.0233   0.0000   0.0000   0.0000   0.3850
   2.300   0.5880   0.00793   0.00321  -0.0793  0.6869  0.8023  -1.0829   0.0000   0.0000   0.0000   0.3822
   2.400   0.5982   0.00785   0.00312  -0.0791  0.6795  0.8069  -1.1427   0.0000   0.0000   0.0000   0.3795
   2.500   0.6083   0.00781   0.00306  -0.0788  0.6719  0.8107  -1.2026   0.0000   0.0000   0.0000   0.3767
   2.600   0.6181   0.00782   0.00303  -0.0785  0.6647  0.8141  -1.2627   0.0000   0.0000   0.0000   0.3741
   2.700   0.6279   0.00786   0.00304  -0.0782  0.6566  0.8171  -1.3232   0.0000   0.0000   0.0000   0.3716
   2.800   0.6382   0.00790   0.00307  -0.0780  0.6500  0.8199  -1.3857   0.0000   0.0000   0.0000   0.3692
   2.900   0.6484   0.00788   0.00309  -0.0779  0.6468  0.8226  -1.4486   0.0000   0.0000   0.0000   0.3669
   3.000   0.6586   0.00787   0.00310  -0.0777  0.6417  0.8252  -1.5123   0.0000   0.0000   0.0000   0.3647
   3.100   0.6687   0.00787   0.00311  -0.0775  0.6341  0.8278  -1.5763   0.0000   0.0000   0.0000   0.3625
   3.200   0.6784   0.00789   0.00309  -0.0772  0.6235  0.8304  -1.6401   0.0000   0.0000   0.0000   0.3603
   3.300   0.6874   0.00796   0.00308  -0.0767  0.6103  0.8330  -1.7023   0.0000   0.0000   0.0000   0.3581
   3.400   0.6967   0.00803   0.00311  -0.0764  0.5987  0.8356  -1.7658   0.0000   0.0000   0.0000   0.3561
   3.500   0.7070   0.00805   0.00314  -0.0763  0.5910  0.8380  -1.8327   0.0000   0.0000   0.0000   0.3542
   3.600   0.7170   0.00809   0.00318  -0.0761  0.5801  0.8404  -1.8991   0.0000   0.0000   0.0000   0.3523
   3.700   0.7263   0.00817   0.00320  -0.0757  0.5664  0.8426  -1.9638   0.0000   0.0000   0.0000   0.3504
   3.800   0.7344   0.00830   0.00325  -0.0752  0.5502  0.8447  -2.0250   0.0000   0.0000   0.0000   0.3484
   3.900   0.7436   0.00840   0.00330  -0.0749  0.5298  0.8465  -2.0900   0.0000   0.0000   0.0000   0.3466
   4.000   0.7475   0.00873   0.00337  -0.0736  0.4791  0.8482  -2.1384   0.0000   0.0000   0.0000   0.3442
   4.100   0.7477   0.00926   0.00354  -0.0717  0.4091  0.8521  -2.1745   0.0000   0.0000   0.0000   0.3416
   4.200   0.7477   0.00978   0.00377  -0.0698  0.3481  0.8582  -2.2091   0.0000   0.0000   0.0000   0.3390
   4.300   0.7479   0.01027   0.00401  -0.0679  0.2917  0.8634  -2.2442   0.0000   0.0000   0.0000   0.3364
   4.400   0.7484   0.01074   0.00426  -0.0661  0.2428  0.8680  -2.2795   0.0000   0.0000   0.0000   0.3337
   4.500   0.7482   0.01121   0.00452  -0.0641  0.1928  0.8726  -2.3126   0.0000   0.0000   0.0000   0.3311
   4.600   0.7478   0.01168   0.00477  -0.0621  0.1448  0.8772  -2.3439   0.0000   0.0000   0.0000   0.3283
   4.700   0.7471   0.01215   0.00503  -0.0601  0.1001  0.8819  -2.3733   0.0000   0.0000   0.0000   0.3256
   4.800   0.7464   0.01261   0.00527  -0.0580  0.0654  0.8865  -2.4012   0.0000   0.0000   0.0000   0.3228
   4.900   0.7482   0.01294   0.00550  -0.0564  0.0441  0.8907  -2.4318   0.0000   0.0000   0.0000   0.3203
   5.000   0.7417   0.01367   0.00633  -0.0526  0.0229  0.8955  -2.2873   0.0000   0.0000   0.0000   0.3159
   5.100   0.7478   0.01379   0.00647  -0.0517  0.0226  0.8983  -2.3333   0.0000   0.0000   0.0000   0.3140
   5.200   0.7524   0.01388   0.00658  -0.0505  0.0224  0.9040  -2.3734   0.0000   0.0000   0.0000   0.3119
   5.300   0.7512   0.01390   0.00664  -0.0480  0.0222  0.9130  -2.3975   0.0000   0.0000   0.0000   0.3086
   5.400   0.7480   0.01392   0.00671  -0.0451  0.0220  0.9219  -2.4161   0.0000   0.0000   0.0000   0.3049
   5.500   0.7466   0.01399   0.00682  -0.0426  0.0218  0.9307  -2.4384   0.0000   0.0000   0.0000   0.3015
   5.600   0.7464   0.01409   0.00695  -0.0404  0.0216  0.9389  -2.4631   0.0000   0.0000   0.0000   0.2985
   5.700   0.7467   0.01421   0.00711  -0.0383  0.0214  0.9461  -2.4879   0.0000   0.0000   0.0000   0.2956
   5.800   0.7499   0.01440   0.00733  -0.0370  0.0212  0.9537  -2.5186   0.0000   0.0000   0.0000   0.2934
   5.900   0.7581   0.01466   0.00764  -0.0367  0.0209  0.9662  -2.5596   0.0000   0.0000   0.0000   0.2925
   6.000   0.7664   0.01495   0.00798  -0.0365  0.0207  0.9809  -2.5996   0.0000   0.0000   0.0000   0.2916
   6.100   0.7740   0.01524   0.00831  -0.0361  0.0205  0.9955  -2.6374   0.0000   0.0000   0.0000   0.2906
   6.200   0.7802   0.01556   0.00867  -0.0356  0.0203  1.0000  -2.6719   0.0000   0.0000   0.0000   0.2893
   6.300   0.7852   0.01589   0.00903  -0.0347  0.0202  1.0000  -2.7031   0.0000   0.0000   0.0000   0.2879
   6.400   0.7897   0.01623   0.00940  -0.0338  0.0201  1.0000  -2.7328   0.0000   0.0000   0.0000   0.2864
   6.500   0.7940   0.01659   0.00979  -0.0329  0.0201  1.0000  -2.7620   0.0000   0.0000   0.0000   0.2849
   6.600   0.7986   0.01695   0.01019  -0.0320  0.0200  1.0000  -2.7912   0.0000   0.0000   0.0000   0.2834
   6.700   0.8034   0.01734   0.01061  -0.0312  0.0200  1.0000  -2.8204   0.0000   0.0000   0.0000   0.2820
   6.800   0.8085   0.01774   0.01104  -0.0303  0.0200  1.0000  -2.8497   0.0000   0.0000   0.0000   0.2806
   6.900   0.8116   0.01879   0.01244  -0.0289  0.0203  1.0000  -2.8288   0.0000   0.0000   0.0000   0.2786
   7.000   0.8191   0.01883   0.01249  -0.0286  0.0192  1.0000  -2.9252   0.0000   0.0000   0.0000   0.2778
   7.100   0.8279   0.01859   0.01220  -0.0286  0.0175  1.0000  -3.0630   0.0000   0.0000   0.0000   0.2773
   7.200   0.8363   0.01858   0.01216  -0.0284  0.0164  1.0000  -3.1715   0.0000   0.0000   0.0000   0.2767
   7.300   0.8435   0.01873   0.01230  -0.0281  0.0158  1.0000  -3.2528   0.0000   0.0000   0.0000   0.2759
   7.400   0.8497   0.01901   0.01259  -0.0275  0.0155  1.0000  -3.3118   0.0000   0.0000   0.0000   0.2748
   7.500   0.8560   0.01927   0.01288  -0.0269  0.0151  1.0000  -3.3782   0.0000   0.0000   0.0000   0.2738
   7.600   0.8621   0.01956   0.01319  -0.0263  0.0149  1.0000  -3.4354   0.0000   0.0000   0.0000   0.2728
   7.700   0.8679   0.01988   0.01352  -0.0257  0.0148  1.0000  -3.4893   0.0000   0.0000   0.0000   0.2717
   7.800   0.8738   0.02020   0.01386  -0.0251  0.0146  1.0000  -3.5423   0.0000   0.0000   0.0000   0.2707
   7.900   0.8798   0.02053   0.01422  -0.0245  0.0145  1.0000  -3.5952   0.0000   0.0000   0.0000   0.2697
   8.000   0.8860   0.02087   0.01458  -0.0239  0.0144  1.0000  -3.6484   0.0000   0.0000   0.0000   0.2688
   8.100   0.8923   0.02122   0.01494  -0.0234  0.0142  1.0000  -3.7023   0.0000   0.0000   0.0000   0.2679
   8.200   0.8988   0.02157   0.01531  -0.0229  0.0141  1.0000  -3.7569   0.0000   0.0000   0.0000   0.2670
   8.300   0.9055   0.02193   0.01569  -0.0224  0.0140  1.0000  -3.8123   0.0000   0.0000   0.0000   0.2661
   8.400   0.9124   0.02229   0.01608  -0.0219  0.0139  1.0000  -3.8685   0.0000   0.0000   0.0000   0.2653
   8.500   0.9194   0.02267   0.01647  -0.0215  0.0138  1.0000  -3.9254   0.0000   0.0000   0.0000   0.2645
   8.600   0.9264   0.02305   0.01687  -0.0211  0.0137  1.0000  -3.9830   0.0000   0.0000   0.0000   0.2638
   8.700   0.9336   0.02344   0.01729  -0.0207  0.0136  1.0000  -4.0412   0.0000   0.0000   0.0000   0.2631
   8.800   0.9408   0.02384   0.01771  -0.0203  0.0135  1.0000  -4.1001   0.0000   0.0000   0.0000   0.2624
   8.900   0.9481   0.02424   0.01814  -0.0199  0.0134  1.0000  -4.1594   0.0000   0.0000   0.0000   0.2617
   9.000   0.9554   0.02467   0.01859  -0.0195  0.0132  1.0000  -4.2189   0.0000   0.0000   0.0000   0.2610
   9.100   0.9627   0.02510   0.01905  -0.0192  0.0131  1.0000  -4.2787   0.0000   0.0000   0.0000   0.2604
   9.200   0.9700   0.02555   0.01953  -0.0188  0.0130  1.0000  -4.3385   0.0000   0.0000   0.0000   0.2598
   9.300   0.9772   0.02602   0.02003  -0.0185  0.0129  1.0000  -4.3982   0.0000   0.0000   0.0000   0.2591
   9.400   0.9844   0.02651   0.02055  -0.0181  0.0128  1.0000  -4.4573   0.0000   0.0000   0.0000   0.2585
   9.500   1.0059   0.02997   0.02426  -0.0203  0.0110  1.0000  -4.4642   0.0000   0.0000   0.0000   0.2602
   9.600   1.0161   0.03242   0.02689  -0.0207  0.0106  1.0000  -4.4422   0.0000   0.0000   0.0000   0.2604
   9.700   1.0172   0.03210   0.02657  -0.0194  0.0106  1.0000  -4.5376   0.0000   0.0000   0.0000   0.2589
   9.800   1.0195   0.03200   0.02648  -0.0183  0.0105  1.0000  -4.6261   0.0000   0.0000   0.0000   0.2577
   9.900   1.0223   0.03204   0.02654  -0.0173  0.0104  1.0000  -4.7073   0.0000   0.0000   0.0000   0.2565
  10.000   1.0249   0.03219   0.02671  -0.0164  0.0103  1.0000  -4.7824   0.0000   0.0000   0.0000   0.2554
  10.100   1.0278   0.03240   0.02694  -0.0155  0.0102  1.0000  -4.8554   0.0000   0.0000   0.0000   0.2544
  10.200   1.0310   0.03266   0.02722  -0.0147  0.0100  1.0000  -4.9278   0.0000   0.0000   0.0000   0.2534
  10.300   1.0344   0.03295   0.02754  -0.0139  0.0099  1.0000  -4.9995   0.0000   0.0000   0.0000   0.2524
  10.400   1.0379   0.03327   0.02789  -0.0131  0.0098  1.0000  -5.0705   0.0000   0.0000   0.0000   0.2515
  10.500   1.0413   0.03362   0.02826  -0.0124  0.0097  1.0000  -5.1408   0.0000   0.0000   0.0000   0.2506
  10.600   1.0448   0.03399   0.02867  -0.0117  0.0096  1.0000  -5.2103   0.0000   0.0000   0.0000   0.2498
  10.700   1.0481   0.03438   0.02909  -0.0110  0.0095  1.0000  -5.2791   0.0000   0.0000   0.0000   0.2489
  10.800   1.0510   0.03479   0.02954  -0.0102  0.0094  1.0000  -5.3456   0.0000   0.0000   0.0000   0.2480
  10.900   1.0534   0.03523   0.03001  -0.0094  0.0092  1.0000  -5.4095   0.0000   0.0000   0.0000   0.2471
  11.000   1.0556   0.03568   0.03049  -0.0087  0.0091  1.0000  -5.4728   0.0000   0.0000   0.0000   0.2462
  11.100   1.0578   0.03613   0.03098  -0.0079  0.0090  1.0000  -5.5367   0.0000   0.0000   0.0000   0.2453
  11.200   1.0600   0.03660   0.03148  -0.0072  0.0089  1.0000  -5.6018   0.0000   0.0000   0.0000   0.2444
  11.300   1.0622   0.03706   0.03198  -0.0064  0.0088  1.0000  -5.6678   0.0000   0.0000   0.0000   0.2436
  11.400   1.0644   0.03753   0.03248  -0.0058  0.0087  1.0000  -5.7345   0.0000   0.0000   0.0000   0.2428
  11.500   1.0665   0.03801   0.03299  -0.0051  0.0085  1.0000  -5.8020   0.0000   0.0000   0.0000   0.2420
  11.600   1.0685   0.03849   0.03351  -0.0044  0.0084  1.0000  -5.8700   0.0000   0.0000   0.0000   0.2412
  11.700   1.0699   0.03900   0.03404  -0.0037  0.0083  1.0000  -5.9351   0.0000   0.0000   0.0000   0.2404
  11.800   1.0707   0.03953   0.03460  -0.0030  0.0082  1.0000  -5.9980   0.0000   0.0000   0.0000   0.2395
  11.900   1.0716   0.04006   0.03517  -0.0023  0.0081  1.0000  -6.0621   0.0000   0.0000   0.0000   0.2387
  12.000   1.0727   0.04059   0.03573  -0.0016  0.0080  1.0000  -6.1287   0.0000   0.0000   0.0000   0.2379
  12.100   1.0739   0.04113   0.03630  -0.0010  0.0079  1.0000  -6.1961   0.0000   0.0000   0.0000   0.2372
  12.200   1.0752   0.04167   0.03687  -0.0004  0.0078  1.0000  -6.2653   0.0000   0.0000   0.0000   0.2365
  12.300   1.0764   0.04222   0.03745   0.0002  0.0078  1.0000  -6.3357   0.0000   0.0000   0.0000   0.2358
  12.400   1.0776   0.04277   0.03803   0.0007  0.0077  1.0000  -6.4068   0.0000   0.0000   0.0000   0.2351
  12.500   1.0779   0.04337   0.03866   0.0013  0.0076  1.0000  -6.4721   0.0000   0.0000   0.0000   0.2344
  12.600   1.0778   0.04399   0.03931   0.0019  0.0075  1.0000  -6.5355   0.0000   0.0000   0.0000   0.2337
  12.700   1.0780   0.04461   0.03996   0.0024  0.0075  1.0000  -6.6020   0.0000   0.0000   0.0000   0.2330
  12.800   1.0786   0.04522   0.04059   0.0029  0.0074  1.0000  -6.6720   0.0000   0.0000   0.0000   0.2324
  12.900   1.0793   0.04583   0.04123   0.0033  0.0073  1.0000  -6.7442   0.0000   0.0000   0.0000   0.2318
  13.000   1.0801   0.04645   0.04187   0.0037  0.0072  1.0000  -6.8177   0.0000   0.0000   0.0000   0.2313
  13.100   1.0809   0.04707   0.04251   0.0041  0.0072  1.0000  -6.8916   0.0000   0.0000   0.0000   0.2307
  13.200   1.0809   0.04776   0.04322   0.0045  0.0071  1.0000  -6.9589   0.0000   0.0000   0.0000   0.2302
  13.300   1.0801   0.04850   0.04400   0.0049  0.0071  1.0000  -7.0196   0.0000   0.0000   0.0000   0.2296
  13.400   1.0796   0.04925   0.04477   0.0052  0.0070  1.0000  -7.0832   0.0000   0.0000   0.0000   0.2291
  13.500   1.0795   0.05001   0.04555   0.0055  0.0069  1.0000  -7.1501   0.0000   0.0000   0.0000   0.2287
  13.600   1.0796   0.05077   0.04634   0.0058  0.0069  1.0000  -7.2181   0.0000   0.0000   0.0000   0.2282
  13.700   1.0796   0.05157   0.04716   0.0060  0.0068  1.0000  -7.2852   0.0000   0.0000   0.0000   0.2278
  13.800   1.0793   0.05241   0.04803   0.0062  0.0068  1.0000  -7.3493   0.0000   0.0000   0.0000   0.2274
  13.900   1.0778   0.05339   0.04904   0.0064  0.0067  1.0000  -7.4015   0.0000   0.0000   0.0000   0.2270
  14.000   1.0753   0.05448   0.05017   0.0066  0.0067  1.0000  -7.4424   0.0000   0.0000   0.0000   0.2267
  14.100   1.0730   0.05561   0.05134   0.0067  0.0066  1.0000  -7.4834   0.0000   0.0000   0.0000   0.2263
  14.200   1.0707   0.05680   0.05257   0.0068  0.0066  1.0000  -7.5216   0.0000   0.0000   0.0000   0.2260
  14.300   1.0678   0.05810   0.05391   0.0069  0.0065  1.0000  -7.5519   0.0000   0.0000   0.0000   0.2258
  14.400   1.0641   0.05955   0.05541   0.0068  0.0064  1.0000  -7.5705   0.0000   0.0000   0.0000   0.2256
  14.500   1.0595   0.06125   0.05730   0.0068  0.0066  1.0000  -7.5104   0.0000   0.0000   0.0000   0.2254
  14.600   1.0546   0.06286   0.05897   0.0067  0.0066  1.0000  -7.5074   0.0000   0.0000   0.0000   0.2253
  14.700   1.0504   0.06444   0.06060   0.0065  0.0066  1.0000  -7.5136   0.0000   0.0000   0.0000   0.2253
  14.800   1.0464   0.06604   0.06226   0.0062  0.0065  1.0000  -7.5233   0.0000   0.0000   0.0000   0.2253
  14.900   1.0421   0.06772   0.06400   0.0059  0.0065  1.0000  -7.5297   0.0000   0.0000   0.0000   0.2254
  15.000   1.0363   0.06962   0.06595   0.0054  0.0065  1.0000  -7.5211   0.0000   0.0000   0.0000   0.2256
  15.100   1.0296   0.07166   0.06805   0.0048  0.0064  1.0000  -7.5030   0.0000   0.0000   0.0000   0.2259
  15.200   1.0234   0.07375   0.07021   0.0042  0.0064  1.0000  -7.4849   0.0000   0.0000   0.0000   0.2263
  15.300   1.0168   0.07597   0.07249   0.0034  0.0064  1.0000  -7.4598   0.0000   0.0000   0.0000   0.2269
  15.400   1.0091   0.07840   0.07499   0.0025  0.0064  1.0000  -7.4218   0.0000   0.0000   0.0000   0.2276
  15.500   1.0008   0.08101   0.07766   0.0013  0.0063  1.0000  -7.3760   0.0000   0.0000   0.0000   0.2285
  15.600   0.9927   0.08373   0.08046   0.0001  0.0063  1.0000  -7.3261   0.0000   0.0000   0.0000   0.2295
  15.700   0.9833   0.08676   0.08355  -0.0013  0.0063  1.0000  -7.2614   0.0000   0.0000   0.0000   0.2308
  15.900   0.9483   0.09640   0.09333  -0.0065  0.0061  1.0000  -6.9378   0.0000   0.0000   0.0000   0.2360
  16.000   0.9413   0.09948   0.09646  -0.0083  0.0062  1.0000  -6.8809   0.0000   0.0000   0.0000   0.2377
  16.100   0.9345   0.10266   0.09971  -0.0101  0.0062  1.0000  -6.8199   0.0000   0.0000   0.0000   0.2396
  16.200   0.9277   0.10595   0.10305  -0.0122  0.0062  1.0000  -6.7563   0.0000   0.0000   0.0000   0.2417
  16.300   0.9208   0.10940   0.10655  -0.0142  0.0062  1.0000  -6.6808   0.0000   0.0000   0.0000   0.2439
  16.400   0.9134   0.11317   0.11038  -0.0166  0.0063  1.0000  -6.5910   0.0000   0.0000   0.0000   0.2465
  16.500   0.9050   0.11731   0.11458  -0.0191  0.0063  1.0000  -6.4730   0.0000   0.0000   0.0000   0.2494
  16.600   0.8912   0.12330   0.12066  -0.0227  0.0064  1.0000  -6.2379   0.0000   0.0000   0.0000   0.2538
  16.700   0.7592   0.17150   0.16899  -0.0434  0.0078  1.0000  -2.8120   0.0000   0.0000   0.0000   0.2886
  16.800   0.7558   0.17502   0.17250  -0.0447  0.0083  1.0000  -2.6578   0.0000   0.0000   0.0000   0.2906
  16.900   0.7537   0.17799   0.17547  -0.0459  0.0088  1.0000  -2.5490   0.0000   0.0000   0.0000   0.2923
  17.000   0.7505   0.18113   0.17860  -0.0471  0.0095  1.0000  -2.4320   0.0000   0.0000   0.0000   0.2942
  18.000   0.7713   0.19763   0.19510  -0.0537  0.0120  1.0000  -2.3496   0.0000   0.0000   0.0000   0.2997
  18.100   0.7728   0.19936   0.19683  -0.0545  0.0119  1.0000  -2.3373   0.0000   0.0000   0.0000   0.3004
  18.200   0.7744   0.20106   0.19853  -0.0552  0.0119  1.0000  -2.3266   0.0000   0.0000   0.0000   0.3011
  18.300   0.7760   0.20275   0.20021  -0.0560  0.0118  1.0000  -2.3172   0.0000   0.0000   0.0000   0.3017
  18.400   0.7776   0.20443   0.20189  -0.0567  0.0118  1.0000  -2.3084   0.0000   0.0000   0.0000   0.3024
  18.500   0.7792   0.20610   0.20356  -0.0574  0.0117  1.0000  -2.2998   0.0000   0.0000   0.0000   0.3030
  18.600   0.7808   0.20778   0.20524  -0.0581  0.0117  1.0000  -2.2911   0.0000   0.0000   0.0000   0.3036
  18.700   0.7825   0.20947   0.20693  -0.0588  0.0116  1.0000  -2.2816   0.0000   0.0000   0.0000   0.3042
  18.800   0.7840   0.21119   0.20864  -0.0595  0.0115  1.0000  -2.2706   0.0000   0.0000   0.0000   0.3049
  18.900   0.7855   0.21296   0.21041  -0.0602  0.0115  1.0000  -2.2570   0.0000   0.0000   0.0000   0.3055
  19.000   0.7869   0.21480   0.21225  -0.0610  0.0114  1.0000  -2.2389   0.0000   0.0000   0.0000   0.3062
  19.100   0.7880   0.21681   0.21425  -0.0617  0.0113  1.0000  -2.2117   0.0000   0.0000   0.0000   0.3069
  19.200   0.7884   0.21924   0.21668  -0.0626  0.0111  1.0000  -2.1606   0.0000   0.0000   0.0000   0.3078
  19.300   0.7825   0.22563   0.22303  -0.0642  0.0107  1.0000  -1.8837   0.0000   0.0000   0.0000   0.3106
  19.400   0.7846   0.22716   0.22456  -0.0648  0.0107  1.0000  -1.8758   0.0000   0.0000   0.0000   0.3110
  19.500   0.7866   0.22865   0.22605  -0.0654  0.0107  1.0000  -1.8681   0.0000   0.0000   0.0000   0.3115
  19.600   0.7886   0.23012   0.22751  -0.0661  0.0107  1.0000  -1.8608   0.0000   0.0000   0.0000   0.3119
  19.700   0.7907   0.23156   0.22895  -0.0667  0.0107  1.0000  -1.8536   0.0000   0.0000   0.0000   0.3124
  19.800   0.7927   0.23299   0.23038  -0.0673  0.0107  1.0000  -1.8467   0.0000   0.0000   0.0000   0.3128
  19.900   0.7947   0.23440   0.23178  -0.0679  0.0107  1.0000  -1.8399   0.0000   0.0000   0.0000   0.3132
  20.000   0.7968   0.23579   0.23317  -0.0686  0.0107  1.0000  -1.8334   0.0000   0.0000   0.0000   0.3136
  20.100   0.7988   0.23718   0.23456  -0.0692  0.0107  1.0000  -1.8270   0.0000   0.0000   0.0000   0.3140
  20.200   0.8009   0.23856   0.23594  -0.0698  0.0107  1.0000  -1.8208   0.0000   0.0000   0.0000   0.3144
  20.300   0.8029   0.23993   0.23731  -0.0704  0.0107  1.0000  -1.8148   0.0000   0.0000   0.0000   0.3148
  20.400   0.8050   0.24130   0.23868  -0.0710  0.0107  1.0000  -1.8090   0.0000   0.0000   0.0000   0.3152
  20.500   0.8070   0.24267   0.24004  -0.0716  0.0107  1.0000  -1.8033   0.0000   0.0000   0.0000   0.3155
  20.600   0.8091   0.24403   0.24140  -0.0722  0.0107  1.0000  -1.7978   0.0000   0.0000   0.0000   0.3159
  20.700   0.8111   0.24539   0.24276  -0.0728  0.0107  1.0000  -1.7925   0.0000   0.0000   0.0000   0.3163
  20.800   0.8132   0.24674   0.24411  -0.0735  0.0106  1.0000  -1.7873   0.0000   0.0000   0.0000   0.3167
  20.900   0.8152   0.24809   0.24545  -0.0741  0.0106  1.0000  -1.7822   0.0000   0.0000   0.0000   0.3170
  21.000   0.8172   0.24943   0.24679  -0.0747  0.0106  1.0000  -1.7772   0.0000   0.0000   0.0000   0.3174
  21.100   0.8193   0.25076   0.24813  -0.0753  0.0106  1.0000  -1.7724   0.0000   0.0000   0.0000   0.3177
  21.200   0.8212   0.25198   0.24934  -0.0759  0.0106  1.0000  -1.7672   0.0000   0.0000   0.0000   0.3181
  21.300   0.8228   0.25301   0.25037  -0.0766  0.0106  1.0000  -1.7622   0.0000   0.0000   0.0000   0.3186
  21.400   0.8245   0.25399   0.25134  -0.0772  0.0105  1.0000  -1.7587   0.0000   0.0000   0.0000   0.3190
  21.500   0.8262   0.25487   0.25223  -0.0779  0.0105  1.0000  -1.7568   0.0000   0.0000   0.0000   0.3194
  21.600   0.8280   0.25567   0.25302  -0.0785  0.0104  1.0000  -1.7573   0.0000   0.0000   0.0000   0.3198
  21.700   0.8298   0.25635   0.25370  -0.0791  0.0103  1.0000  -1.7597   0.0000   0.0000   0.0000   0.3202
  21.800   0.8316   0.25696   0.25431  -0.0798  0.0101  1.0000  -1.7622   0.0000   0.0000   0.0000   0.3205
  21.900   0.8331   0.25757   0.25491  -0.0805  0.0099  1.0000  -1.7546   0.0000   0.0000   0.0000   0.3210
  22.000   0.8347   0.25834   0.25568  -0.0812  0.0096  1.0000  -1.7380   0.0000   0.0000   0.0000   0.3216
  22.100   0.8366   0.25936   0.25670  -0.0819  0.0092  1.0000  -1.7203   0.0000   0.0000   0.0000   0.3220
  22.200   0.8387   0.26054   0.25788  -0.0825  0.0089  1.0000  -1.7068   0.0000   0.0000   0.0000   0.3223
  22.300   0.8409   0.26178   0.25912  -0.0831  0.0086  1.0000  -1.6993   0.0000   0.0000   0.0000   0.3227
  22.400   0.8430   0.26301   0.26035  -0.0837  0.0083  1.0000  -1.6966   0.0000   0.0000   0.0000   0.3230
  22.500   0.8452   0.26424   0.26158  -0.0843  0.0081  1.0000  -1.6976   0.0000   0.0000   0.0000   0.3233
  22.600   0.8473   0.26545   0.26279  -0.0849  0.0078  1.0000  -1.7017   0.0000   0.0000   0.0000   0.3235
  22.700   0.8495   0.26664   0.26398  -0.0855  0.0076  1.0000  -1.7083   0.0000   0.0000   0.0000   0.3238
  22.800   0.8516   0.26781   0.26515  -0.0861  0.0075  1.0000  -1.7174   0.0000   0.0000   0.0000   0.3240
  22.900   0.8538   0.26897   0.26631  -0.0867  0.0073  1.0000  -1.7287   0.0000   0.0000   0.0000   0.3243
  23.000   0.8560   0.27011   0.26745  -0.0873  0.0072  1.0000  -1.7423   0.0000   0.0000   0.0000   0.3245
  23.100   0.8582   0.27124   0.26857  -0.0879  0.0070  1.0000  -1.7581   0.0000   0.0000   0.0000   0.3247
  23.200   0.8604   0.27235   0.26968  -0.0885  0.0069  1.0000  -1.7762   0.0000   0.0000   0.0000   0.3249
  23.300   0.8627   0.27345   0.27078  -0.0891  0.0068  1.0000  -1.7965   0.0000   0.0000   0.0000   0.3251
  23.400   0.8649   0.27454   0.27187  -0.0896  0.0067  1.0000  -1.8193   0.0000   0.0000   0.0000   0.3253
  23.500   0.8672   0.27562   0.27295  -0.0902  0.0066  1.0000  -1.8447   0.0000   0.0000   0.0000   0.3255
  23.600   0.8696   0.27670   0.27403  -0.0908  0.0065  1.0000  -1.8728   0.0000   0.0000   0.0000   0.3256
  23.700   0.8720   0.27779   0.27512  -0.0913  0.0064  1.0000  -1.9039   0.0000   0.0000   0.0000   0.3257
  23.800   0.8746   0.27890   0.27623  -0.0918  0.0064  1.0000  -1.9384   0.0000   0.0000   0.0000   0.3258
  23.900   0.8773   0.28006   0.27740  -0.0924  0.0063  1.0000  -1.9770   0.0000   0.0000   0.0000   0.3258
  24.000   0.8803   0.28136   0.27869  -0.0928  0.0062  1.0000  -2.0220   0.0000   0.0000   0.0000   0.3257


