xflr5 v6.61

 Calculated polar for: NACA 65-210

 1 1 Reynolds number fixed          Mach number fixed         

 xtrf =   1.000 (top)        1.000 (bottom)
 Mach =   0.000     Re =     0.100 e 6     Ncrit =   9.000

  alpha     CL        CD       CDp       Cm    Top Xtr Bot Xtr   Cpmin    Chinge    XCp    
 ------- -------- --------- --------- -------- ------- ------- -------- --------- ---------
 -10.000  -0.4522   0.10448   0.09910  -0.0477  1.0000  0.0759  -1.6211   0.0000   0.0000   0.0000   0.1384
  -9.900  -0.4561   0.10309   0.09773  -0.0486  1.0000  0.0760  -1.6464   0.0000   0.0000   0.0000   0.1373
  -9.800  -0.4414   0.09707   0.09178  -0.0440  1.0000  0.0790  -1.5527   0.0000   0.0000   0.0000   0.1439
  -9.700  -0.4323   0.09582   0.09050  -0.0419  1.0000  0.0808  -1.4776   0.0000   0.0000   0.0000   0.1466
  -9.600  -0.4289   0.09470   0.08940  -0.0412  1.0000  0.0821  -1.4464   0.0000   0.0000   0.0000   0.1476
  -9.500  -0.4269   0.09360   0.08831  -0.0408  1.0000  0.0834  -1.4271   0.0000   0.0000   0.0000   0.1481
  -9.400  -0.4256   0.09250   0.08723  -0.0407  1.0000  0.0848  -1.4139   0.0000   0.0000   0.0000   0.1483
  -9.300  -0.4253   0.09137   0.08612  -0.0407  1.0000  0.0861  -1.4085   0.0000   0.0000   0.0000   0.1483
  -9.200  -0.4258   0.09022   0.08499  -0.0409  1.0000  0.0875  -1.4085   0.0000   0.0000   0.0000   0.1481
  -9.100  -0.4270   0.08906   0.08385  -0.0412  1.0000  0.0888  -1.4131   0.0000   0.0000   0.0000   0.1477
  -9.000  -0.4289   0.08788   0.08270  -0.0417  1.0000  0.0900  -1.4218   0.0000   0.0000   0.0000   0.1471
  -8.900  -0.4314   0.08669   0.08153  -0.0423  1.0000  0.0912  -1.4342   0.0000   0.0000   0.0000   0.1464
  -8.800  -0.4339   0.08551   0.08038  -0.0429  1.0000  0.0924  -1.4473   0.0000   0.0000   0.0000   0.1456
  -8.700  -0.4370   0.08435   0.07924  -0.0437  1.0000  0.0936  -1.4631   0.0000   0.0000   0.0000   0.1446
  -8.600  -0.4408   0.08316   0.07808  -0.0447  1.0000  0.0947  -1.4821   0.0000   0.0000   0.0000   0.1435
  -8.500  -0.4457   0.08202   0.07696  -0.0456  1.0000  0.0955  -1.5031   0.0000   0.0000   0.0000   0.1427
  -8.400  -0.4513   0.08111   0.07605  -0.0461  1.0000  0.0963  -1.5222   0.0000   0.0000   0.0000   0.1429
  -8.300  -0.4577   0.08038   0.07534  -0.0463  1.0000  0.0970  -1.5398   0.0000   0.0000   0.0000   0.1441
  -8.200  -0.4649   0.07985   0.07481  -0.0460  1.0000  0.0976  -1.5557   0.0000   0.0000   0.0000   0.1464
  -8.100  -0.4729   0.07949   0.07446  -0.0453  1.0000  0.0981  -1.5700   0.0000   0.0000   0.0000   0.1498
  -8.000  -0.4815   0.07929   0.07427  -0.0441  1.0000  0.0986  -1.5828   0.0000   0.0000   0.0000   0.1542
  -7.900  -0.4901   0.07933   0.07431  -0.0426  1.0000  0.0991  -1.5928   0.0000   0.0000   0.0000   0.1589
  -7.800  -0.4971   0.07973   0.07470  -0.0413  1.0000  0.0998  -1.5973   0.0000   0.0000   0.0000   0.1629
  -7.700  -0.5034   0.07984   0.07479  -0.0400  1.0000  0.1003  -1.6023   0.0000   0.0000   0.0000   0.1666
  -7.600  -0.5092   0.07965   0.07459  -0.0388  1.0000  0.1005  -1.6077   0.0000   0.0000   0.0000   0.1699
  -7.500  -0.5145   0.07927   0.07419  -0.0377  1.0000  0.1007  -1.6132   0.0000   0.0000   0.0000   0.1731
  -7.400  -0.5195   0.07876   0.07367  -0.0365  1.0000  0.1009  -1.6185   0.0000   0.0000   0.0000   0.1761
  -7.300  -0.5243   0.07818   0.07306  -0.0353  1.0000  0.1010  -1.6233   0.0000   0.0000   0.0000   0.1790
  -7.200  -0.5287   0.07752   0.07239  -0.0342  1.0000  0.1011  -1.6277   0.0000   0.0000   0.0000   0.1819
  -7.100  -0.5424   0.07462   0.06952  -0.0335  1.0000  0.1019  -1.6803   0.0000   0.0000   0.0000   0.1848
  -7.000  -0.5576   0.07101   0.06589  -0.0330  1.0000  0.1031  -1.7405   0.0000   0.0000   0.0000   0.1874
  -6.900  -0.5686   0.06791   0.06278  -0.0324  1.0000  0.1044  -1.7797   0.0000   0.0000   0.0000   0.1898
  -6.800  -0.5761   0.06530   0.06017  -0.0316  1.0000  0.1059  -1.7993   0.0000   0.0000   0.0000   0.1919
  -6.700  -0.5807   0.06322   0.05811  -0.0307  1.0000  0.1075  -1.8021   0.0000   0.0000   0.0000   0.1940
  -6.600  -0.5838   0.06160   0.05650  -0.0297  1.0000  0.1090  -1.7951   0.0000   0.0000   0.0000   0.1961
  -6.500  -0.5844   0.06018   0.05513  -0.0286  1.0000  0.1108  -1.7758   0.0000   0.0000   0.0000   0.1980
  -6.400  -0.5831   0.05895   0.05396  -0.0275  1.0000  0.1129  -1.7478   0.0000   0.0000   0.0000   0.1998
  -5.000  -0.5655   0.04041   0.03382  -0.0143  1.0000  0.0683  -1.9496   0.0000   0.0000   0.0000   0.2221
  -4.800  -0.5489   0.03768   0.03038  -0.0114  1.0000  0.0487  -2.1041   0.0000   0.0000   0.0000   0.2264
  -4.700  -0.5453   0.03597   0.02854  -0.0106  1.0000  0.0477  -2.1103   0.0000   0.0000   0.0000   0.2279
  -4.600  -0.5407   0.03453   0.02695  -0.0096  1.0000  0.0471  -2.1095   0.0000   0.0000   0.0000   0.2295
  -4.500  -0.5353   0.03322   0.02547  -0.0086  1.0000  0.0469  -2.1042   0.0000   0.0000   0.0000   0.2312
  -4.400  -0.5293   0.03206   0.02410  -0.0076  1.0000  0.0475  -2.0909   0.0000   0.0000   0.0000   0.2330
  -4.300  -0.5277   0.03172   0.02343  -0.0066  1.0000  0.0773  -1.9480   0.0000   0.0000   0.0000   0.2349
  -4.200  -0.5202   0.03201   0.02368  -0.0058  1.0000  0.0763  -1.8739   0.0000   0.0000   0.0000   0.2363
  -4.100  -0.5147   0.03018   0.02174  -0.0052  1.0000  0.0746  -1.8581   0.0000   0.0000   0.0000   0.2374
  -4.000  -0.5086   0.02910   0.02057  -0.0046  1.0000  0.0737  -1.8572   0.0000   0.0000   0.0000   0.2386
  -3.900  -0.4973   0.02804   0.01940  -0.0047  0.9989  0.0727  -1.8502   0.0000   0.0000   0.0000   0.2381
  -3.800  -0.4850   0.02713   0.01837  -0.0050  0.9974  0.0719  -1.8408   0.0000   0.0000   0.0000   0.2372
  -3.700  -0.4726   0.02633   0.01746  -0.0053  0.9957  0.0712  -1.8302   0.0000   0.0000   0.0000   0.2364
  -3.600  -0.4602   0.02562   0.01666  -0.0055  0.9939  0.0706  -1.8189   0.0000   0.0000   0.0000   0.2356
  -3.500  -0.4478   0.02498   0.01594  -0.0057  0.9920  0.0702  -1.8069   0.0000   0.0000   0.0000   0.2348
  -3.400  -0.4355   0.02440   0.01529  -0.0059  0.9899  0.0700  -1.7943   0.0000   0.0000   0.0000   0.2340
  -3.300  -0.4233   0.02387   0.01470  -0.0061  0.9878  0.0699  -1.7811   0.0000   0.0000   0.0000   0.2331
  -3.200  -0.4111   0.02339   0.01417  -0.0063  0.9856  0.0700  -1.7673   0.0000   0.0000   0.0000   0.2322
  -3.100  -0.3990   0.02296   0.01370  -0.0065  0.9833  0.0703  -1.7530   0.0000   0.0000   0.0000   0.2313
  -3.000  -0.3870   0.02256   0.01327  -0.0067  0.9809  0.0708  -1.7382   0.0000   0.0000   0.0000   0.2303
  -2.900  -0.3750   0.02221   0.01288  -0.0070  0.9785  0.0715  -1.7230   0.0000   0.0000   0.0000   0.2292
  -2.800  -0.3631   0.02189   0.01253  -0.0072  0.9761  0.0725  -1.7071   0.0000   0.0000   0.0000   0.2279
  -2.700  -0.3509   0.02168   0.01230  -0.0075  0.9737  0.0744  -1.6844   0.0000   0.0000   0.0000   0.2263
  -2.600  -0.3387   0.02146   0.01209  -0.0079  0.9713  0.0768  -1.6617   0.0000   0.0000   0.0000   0.2245
  -2.500  -0.3287   0.02082   0.01148  -0.0080  0.9690  0.0814  -1.6543   0.0000   0.0000   0.0000   0.2236
  -2.400  -0.3169   0.02053   0.01122  -0.0084  0.9666  0.0861  -1.6309   0.0000   0.0000   0.0000   0.2213
  -2.300  -0.3042   0.02034   0.01101  -0.0089  0.9644  0.0911  -1.6129   0.0000   0.0000   0.0000   0.2186
  -2.200  -0.2908   0.02019   0.01080  -0.0095  0.9622  0.0974  -1.5994   0.0000   0.0000   0.0000   0.2152
  -2.100  -0.2772   0.01991   0.01043  -0.0100  0.9602  0.1114  -1.6067   0.0000   0.0000   0.0000   0.2120
  -2.000  -0.2693   0.01852   0.01013  -0.0103  0.9583  0.3042  -1.6259   0.0000   0.0000   0.0000   0.2097
  -1.900  -0.2773   0.01777   0.01140  -0.0049  0.9556  0.7261  -1.6483   0.0000   0.0000   0.0000   0.2302
  -1.800  -0.2745   0.01869   0.01247  -0.0011  0.9528  0.8019  -1.6363   0.0000   0.0000   0.0000   0.2440
  -1.700  -0.2666   0.01993   0.01375   0.0016  0.9501  0.8369  -1.5960   0.0000   0.0000   0.0000   0.2542
  -1.600  -0.2711   0.01961   0.01341   0.0049  0.9463  0.8503  -1.5830   0.0000   0.0000   0.0000   0.2663
  -1.500  -0.2666   0.01996   0.01378   0.0077  0.9428  0.8680  -1.5437   0.0000   0.0000   0.0000   0.2771
  -1.400  -0.1180   0.02428   0.01777  -0.0105  0.9526  0.9287  -1.1013   0.0000   0.0000   0.0000   0.1577
  -1.300  -0.0957   0.02457   0.01799  -0.0131  0.9510  0.9315  -1.0182   0.0000   0.0000   0.0000   0.1093
  -1.200  -0.0867   0.02451   0.01789  -0.0131  0.9482  0.9357  -0.9706   0.0000   0.0000   0.0000   0.0946
  -1.100  -0.0885   0.02423   0.01759  -0.0112  0.9441  0.9407  -0.9509   0.0000   0.0000   0.0000   0.1203
  -1.000  -0.0892   0.02414   0.01748  -0.0095  0.9402  0.9452  -0.9283   0.0000   0.0000   0.0000   0.1403
  -0.900  -0.0905   0.02417   0.01749  -0.0077  0.9363  0.9492  -0.9076   0.0000   0.0000   0.0000   0.1624
  -0.800  -0.0748   0.02401   0.01729  -0.0091  0.9342  0.9516  -0.8442   0.0000   0.0000   0.0000   0.1250
  -0.700  -0.0541   0.02387   0.01710  -0.0115  0.9326  0.9539  -0.7692   0.0000   0.0000   0.0000   0.0337
  -0.600  -0.0331   0.02376   0.01695  -0.0139  0.9310  0.9564  -0.6948   0.0000   0.0000   0.0000  -0.1757
  -0.500  -0.0126   0.02369   0.01685  -0.0163  0.9294  0.9589  -0.6227   0.0000   0.0000   0.0000  -1.0554
  -0.400   0.0072   0.02364   0.01676  -0.0185  0.9277  0.9616  -0.5539   0.0000   0.0000   0.0000   2.8477
  -0.300   0.0260   0.02359   0.01669  -0.0205  0.9259  0.9643  -0.4888   0.0000   0.0000   0.0000   1.0451
  -0.200   0.0437   0.02356   0.01664  -0.0224  0.9241  0.9670  -0.4272   0.0000   0.0000   0.0000   0.7641
  -0.100   0.0609   0.02353   0.01659  -0.0242  0.9222  0.9696  -0.3683   0.0000   0.0000   0.0000   0.6475
   0.000   0.0780   0.02351   0.01656  -0.0259  0.9203  0.9723  -0.3105   0.0000   0.0000   0.0000   0.5822
   0.100   0.0952   0.02351   0.01655  -0.0276  0.9185  0.9750  -0.3157   0.0000   0.0000   0.0000   0.5403
   0.200   0.1126   0.02351   0.01654  -0.0294  0.9167  0.9777  -0.3237   0.0000   0.0000   0.0000   0.5109
   0.300   0.1308   0.02351   0.01654  -0.0313  0.9148  0.9802  -0.3322   0.0000   0.0000   0.0000   0.4888
   0.400   0.1499   0.02351   0.01654  -0.0333  0.9129  0.9826  -0.3411   0.0000   0.0000   0.0000   0.4717
   0.500   0.1696   0.02351   0.01655  -0.0354  0.9110  0.9849  -0.3505   0.0000   0.0000   0.0000   0.4582
   0.600   0.1896   0.02351   0.01656  -0.0376  0.9092  0.9870  -0.3609   0.0000   0.0000   0.0000   0.4474
   0.700   0.2103   0.02353   0.01657  -0.0398  0.9074  0.9891  -0.3717   0.0000   0.0000   0.0000   0.4385
   0.800   0.2315   0.02356   0.01660  -0.0422  0.9058  0.9912  -0.3828   0.0000   0.0000   0.0000   0.4312
   0.900   0.2529   0.02362   0.01666  -0.0446  0.9043  0.9933  -0.4182   0.0000   0.0000   0.0000   0.4252
   1.000   0.2738   0.02372   0.01677  -0.0469  0.9030  0.9953  -0.4913   0.0000   0.0000   0.0000   0.4202
   1.100   0.2943   0.02385   0.01693  -0.0492  0.9018  0.9972  -0.5651   0.0000   0.0000   0.0000   0.4159
   1.200   0.3147   0.02405   0.01714  -0.0514  0.9005  0.9988  -0.6402   0.0000   0.0000   0.0000   0.4122
   1.300   0.3014   0.02401   0.01710  -0.0478  0.8959  1.0000  -0.6298   0.0000   0.0000   0.0000   0.4073
   1.400   0.2871   0.02400   0.01708  -0.0440  0.8907  1.0000  -0.6167   0.0000   0.0000   0.0000   0.4019
   1.500   0.2813   0.02400   0.01708  -0.0417  0.8862  1.0000  -0.6254   0.0000   0.0000   0.0000   0.3967
   1.600   0.2804   0.02399   0.01707  -0.0402  0.8819  1.0000  -0.6469   0.0000   0.0000   0.0000   0.3917
   1.700   0.2833   0.02397   0.01706  -0.0393  0.8778  1.0000  -0.6786   0.0000   0.0000   0.0000   0.3869
   1.800   0.2893   0.02395   0.01704  -0.0389  0.8741  1.0000  -0.7189   0.0000   0.0000   0.0000   0.3825
   1.900   0.2978   0.02392   0.01703  -0.0389  0.8706  1.0000  -0.7664   0.0000   0.0000   0.0000   0.3785
   2.000   0.3081   0.02390   0.01702  -0.0391  0.8676  1.0000  -0.8192   0.0000   0.0000   0.0000   0.3749
   2.100   0.3192   0.02390   0.01704  -0.0395  0.8650  1.0000  -0.8753   0.0000   0.0000   0.0000   0.3717
   2.200   0.3314   0.02392   0.01708  -0.0401  0.8627  1.0000  -0.9349   0.0000   0.0000   0.0000   0.3689
   2.300   0.3451   0.02392   0.01711  -0.0409  0.8604  1.0000  -0.9997   0.0000   0.0000   0.0000   0.3663
   2.400   0.3608   0.02392   0.01714  -0.0420  0.8581  1.0000  -1.0715   0.0000   0.0000   0.0000   0.3641
   2.500   0.3791   0.02393   0.01719  -0.0435  0.8561  1.0000  -1.1519   0.0000   0.0000   0.0000   0.3624
   2.600   0.3993   0.02395   0.01726  -0.0452  0.8541  1.0000  -1.2393   0.0000   0.0000   0.0000   0.3610
   2.700   0.4210   0.02401   0.01738  -0.0473  0.8523  1.0000  -1.3322   0.0000   0.0000   0.0000   0.3600
   2.800   0.4445   0.02413   0.01758  -0.0496  0.8505  1.0000  -1.4321   0.0000   0.0000   0.0000   0.3593
   2.900   0.3626   0.02437   0.01764  -0.0347  0.8383  1.0000  -1.2132   0.0000   0.0000   0.0000   0.3429
   3.000   0.3526   0.02442   0.01767  -0.0315  0.8326  1.0000  -1.2110   0.0000   0.0000   0.0000   0.3364
   3.100   0.3524   0.02444   0.01769  -0.0298  0.8278  1.0000  -1.2386   0.0000   0.0000   0.0000   0.3317
   3.200   0.3588   0.02443   0.01771  -0.0292  0.8236  1.0000  -1.2860   0.0000   0.0000   0.0000   0.3283
   3.300   0.3702   0.02440   0.01772  -0.0293  0.8198  1.0000  -1.3492   0.0000   0.0000   0.0000   0.3261
   3.400   0.3859   0.02435   0.01772  -0.0301  0.8165  1.0000  -1.4263   0.0000   0.0000   0.0000   0.3249
   3.500   0.4066   0.02424   0.01769  -0.0316  0.8136  1.0000  -1.5196   0.0000   0.0000   0.0000   0.3247
   3.600   0.6132   0.01373   0.00720  -0.0465  0.6479  1.0000  -2.2107   0.0000   0.0000   0.0000   0.3231
   3.700   0.6049   0.01378   0.00663  -0.0417  0.5066  1.0000  -2.1954   0.0000   0.0000   0.0000   0.3162
   3.800   0.5934   0.01460   0.00652  -0.0376  0.3555  1.0000  -2.1851   0.0000   0.0000   0.0000   0.3105
   3.900   0.5825   0.01562   0.00681  -0.0343  0.2297  1.0000  -2.1777   0.0000   0.0000   0.0000   0.3059
   4.000   0.5741   0.01659   0.00717  -0.0314  0.1398  1.0000  -2.1618   0.0000   0.0000   0.0000   0.3015
   4.100   0.5711   0.01723   0.00755  -0.0289  0.1079  1.0000  -2.1376   0.0000   0.0000   0.0000   0.2975
   4.200   0.5711   0.01765   0.00799  -0.0268  0.0964  1.0000  -2.1174   0.0000   0.0000   0.0000   0.2937
   4.300   0.5734   0.01792   0.00831  -0.0253  0.0907  1.0000  -2.1202   0.0000   0.0000   0.0000   0.2907
   4.400   0.5756   0.01823   0.00862  -0.0237  0.0857  1.0000  -2.1284   0.0000   0.0000   0.0000   0.2878
   4.500   0.5775   0.01860   0.00896  -0.0222  0.0811  1.0000  -2.1406   0.0000   0.0000   0.0000   0.2850
   4.600   0.5785   0.01912   0.00944  -0.0206  0.0766  1.0000  -2.1446   0.0000   0.0000   0.0000   0.2819
   4.700   0.5811   0.01966   0.00997  -0.0191  0.0731  1.0000  -2.1469   0.0000   0.0000   0.0000   0.2792
   4.800   0.5875   0.01994   0.01026  -0.0183  0.0705  1.0000  -2.1685   0.0000   0.0000   0.0000   0.2774
   4.900   0.5939   0.02029   0.01063  -0.0175  0.0680  1.0000  -2.1868   0.0000   0.0000   0.0000   0.2756
   5.000   0.6009   0.02073   0.01108  -0.0167  0.0663  1.0000  -2.2012   0.0000   0.0000   0.0000   0.2740
   5.100   0.6087   0.02121   0.01158  -0.0161  0.0649  1.0000  -2.2159   0.0000   0.0000   0.0000   0.2725
   5.200   0.6174   0.02174   0.01211  -0.0156  0.0638  1.0000  -2.2320   0.0000   0.0000   0.0000   0.2713
   5.300   0.6269   0.02231   0.01269  -0.0153  0.0628  1.0000  -2.2493   0.0000   0.0000   0.0000   0.2703
   5.400   0.6373   0.02292   0.01332  -0.0150  0.0620  1.0000  -2.2675   0.0000   0.0000   0.0000   0.2695
   5.500   0.6481   0.02357   0.01400  -0.0149  0.0615  1.0000  -2.2859   0.0000   0.0000   0.0000   0.2688
   5.600   0.6595   0.02427   0.01473  -0.0148  0.0611  1.0000  -2.3042   0.0000   0.0000   0.0000   0.2682
   5.700   0.6711   0.02503   0.01553  -0.0147  0.0609  1.0000  -2.3218   0.0000   0.0000   0.0000   0.2676
   5.800   0.6827   0.02583   0.01639  -0.0147  0.0609  1.0000  -2.3381   0.0000   0.0000   0.0000   0.2671
   5.900   0.6942   0.02667   0.01730  -0.0146  0.0611  1.0000  -2.3528   0.0000   0.0000   0.0000   0.2665
   6.000   0.7054   0.02755   0.01828  -0.0144  0.0614  1.0000  -2.3648   0.0000   0.0000   0.0000   0.2659
   6.100   0.7162   0.02849   0.01932  -0.0142  0.0619  1.0000  -2.3746   0.0000   0.0000   0.0000   0.2652
   6.200   0.7265   0.02948   0.02042  -0.0139  0.0626  1.0000  -2.3824   0.0000   0.0000   0.0000   0.2645
   6.300   0.7363   0.03052   0.02159  -0.0135  0.0634  1.0000  -2.3887   0.0000   0.0000   0.0000   0.2637
   6.500   0.7434   0.03488   0.02659  -0.0115  0.0459  1.0000  -2.5102   0.0000   0.0000   0.0000   0.2607
   6.600   0.7505   0.03588   0.02779  -0.0105  0.0442  1.0000  -2.5426   0.0000   0.0000   0.0000   0.2591
   6.700   0.7569   0.03707   0.02915  -0.0095  0.0433  1.0000  -2.5648   0.0000   0.0000   0.0000   0.2577
   6.800   0.7627   0.03833   0.03056  -0.0086  0.0429  1.0000  -2.5813   0.0000   0.0000   0.0000   0.2563
   6.900   0.7679   0.03963   0.03202  -0.0077  0.0427  1.0000  -2.5937   0.0000   0.0000   0.0000   0.2549
   7.000   0.7726   0.04097   0.03351  -0.0067  0.0428  1.0000  -2.6028   0.0000   0.0000   0.0000   0.2536
   7.100   0.7768   0.04235   0.03502  -0.0058  0.0431  1.0000  -2.6092   0.0000   0.0000   0.0000   0.2522
   7.200   0.7803   0.04376   0.03657  -0.0048  0.0434  1.0000  -2.6134   0.0000   0.0000   0.0000   0.2509
   7.300   0.7832   0.04521   0.03814  -0.0038  0.0439  1.0000  -2.6154   0.0000   0.0000   0.0000   0.2496
   7.400   0.7854   0.04673   0.03978  -0.0028  0.0444  1.0000  -2.6149   0.0000   0.0000   0.0000   0.2482
   7.700   0.7929   0.05202   0.04583   0.0017  0.0622  1.0000  -2.4098   0.0000   0.0000   0.0000   0.2424
   7.800   0.7920   0.05420   0.04813   0.0028  0.0663  1.0000  -2.3762   0.0000   0.0000   0.0000   0.2410
   9.600   0.6208   0.08449   0.07932   0.0078  0.1823  1.0000  -1.4693   0.0000   0.0000   0.0000   0.2309
   9.700   0.6148   0.08610   0.08091   0.0070  0.1796  1.0000  -1.4514   0.0000   0.0000   0.0000   0.2319
   9.800   0.6108   0.08763   0.08242   0.0065  0.1768  1.0000  -1.4391   0.0000   0.0000   0.0000   0.2326
   9.900   0.6087   0.08910   0.08387   0.0060  0.1740  1.0000  -1.4318   0.0000   0.0000   0.0000   0.2332
  10.000   0.6083   0.09049   0.08525   0.0058  0.1713  1.0000  -1.4295   0.0000   0.0000   0.0000   0.2335
  10.100   0.6097   0.09182   0.08656   0.0057  0.1687  1.0000  -1.4328   0.0000   0.0000   0.0000   0.2336
  10.200   0.6124   0.09309   0.08783   0.0057  0.1661  1.0000  -1.4636   0.0000   0.0000   0.0000   0.2335
  11.400   0.5999   0.11565   0.11044   0.0034  0.0941  1.0000  -1.5069   0.0000   0.0000   0.0000   0.2361
  11.500   0.5994   0.11658   0.11135   0.0025  0.0923  1.0000  -1.4972   0.0000   0.0000   0.0000   0.2375
  11.600   0.5990   0.11781   0.11257   0.0017  0.0907  1.0000  -1.4875   0.0000   0.0000   0.0000   0.2389
  11.700   0.5984   0.11919   0.11393   0.0008  0.0892  1.0000  -1.4772   0.0000   0.0000   0.0000   0.2402
  11.800   0.5979   0.12062   0.11535  -0.0000  0.0878  1.0000  -1.4684   0.0000   0.0000   0.0000   0.2415
  11.900   0.5980   0.12208   0.11680  -0.0007  0.0863  1.0000  -1.4634   0.0000   0.0000   0.0000   0.2426
  12.000   0.5988   0.12354   0.11825  -0.0014  0.0848  1.0000  -1.4633   0.0000   0.0000   0.0000   0.2435
  12.100   0.6005   0.12499   0.11969  -0.0018  0.0832  1.0000  -1.4695   0.0000   0.0000   0.0000   0.2443
  12.200   0.6034   0.12640   0.12110  -0.0021  0.0816  1.0000  -1.4850   0.0000   0.0000   0.0000   0.2447
  12.300   0.6084   0.12778   0.12247  -0.0021  0.0799  1.0000  -1.5157   0.0000   0.0000   0.0000   0.2445
  12.400   0.6155   0.12919   0.12389  -0.0018  0.0782  1.0000  -1.5649   0.0000   0.0000   0.0000   0.2438
  12.500   0.6373   0.13683   0.13155   0.0008  0.0739  1.0000  -1.6952   0.0000   0.0000   0.0000   0.2398
  12.600   0.6361   0.13854   0.13324  -0.0003  0.0738  1.0000  -1.6754   0.0000   0.0000   0.0000   0.2414
  12.700   0.6351   0.14018   0.13487  -0.0014  0.0738  1.0000  -1.6562   0.0000   0.0000   0.0000   0.2429
  12.800   0.6341   0.14176   0.13643  -0.0024  0.0737  1.0000  -1.6375   0.0000   0.0000   0.0000   0.2445
  12.900   0.6332   0.14326   0.13792  -0.0034  0.0736  1.0000  -1.6190   0.0000   0.0000   0.0000   0.2460
  13.000   0.6322   0.14468   0.13933  -0.0045  0.0734  1.0000  -1.6005   0.0000   0.0000   0.0000   0.2476
  13.100   0.6312   0.14599   0.14063  -0.0055  0.0732  1.0000  -1.5813   0.0000   0.0000   0.0000   0.2491
  13.200   0.6297   0.14717   0.14179  -0.0066  0.0730  1.0000  -1.5593   0.0000   0.0000   0.0000   0.2508
  13.300   0.6267   0.14825   0.14285  -0.0079  0.0726  1.0000  -1.5287   0.0000   0.0000   0.0000   0.2528
  13.400   0.6234   0.14919   0.14377  -0.0093  0.0721  1.0000  -1.4954   0.0000   0.0000   0.0000   0.2550
  13.500   0.6202   0.15007   0.14463  -0.0107  0.0714  1.0000  -1.4605   0.0000   0.0000   0.0000   0.2572
  13.600   0.6177   0.15108   0.14562  -0.0120  0.0704  1.0000  -1.4289   0.0000   0.0000   0.0000   0.2593
  13.700   0.6160   0.15227   0.14680  -0.0132  0.0693  1.0000  -1.4032   0.0000   0.0000   0.0000   0.2611
  13.800   0.6154   0.15361   0.14812  -0.0142  0.0682  1.0000  -1.3846   0.0000   0.0000   0.0000   0.2627
  13.900   0.6155   0.15502   0.14952  -0.0151  0.0671  1.0000  -1.3710   0.0000   0.0000   0.0000   0.2641
  14.000   0.6161   0.15647   0.15096  -0.0160  0.0661  1.0000  -1.3612   0.0000   0.0000   0.0000   0.2654
  14.100   0.6171   0.15793   0.15242  -0.0168  0.0650  1.0000  -1.3540   0.0000   0.0000   0.0000   0.2666
  14.200   0.6183   0.15940   0.15388  -0.0175  0.0640  1.0000  -1.3489   0.0000   0.0000   0.0000   0.2676
  14.300   0.6198   0.16086   0.15534  -0.0183  0.0630  1.0000  -1.3455   0.0000   0.0000   0.0000   0.2686
  14.400   0.6214   0.16233   0.15679  -0.0190  0.0621  1.0000  -1.3435   0.0000   0.0000   0.0000   0.2696
  14.500   0.6232   0.16379   0.15825  -0.0197  0.0612  1.0000  -1.3431   0.0000   0.0000   0.0000   0.2705
  14.600   0.6252   0.16525   0.15970  -0.0203  0.0603  1.0000  -1.3440   0.0000   0.0000   0.0000   0.2714
  14.700   0.6273   0.16671   0.16116  -0.0210  0.0594  1.0000  -1.3465   0.0000   0.0000   0.0000   0.2722
  14.800   0.6297   0.16818   0.16262  -0.0216  0.0585  1.0000  -1.3504   0.0000   0.0000   0.0000   0.2729
  14.900   0.6322   0.16964   0.16409  -0.0221  0.0577  1.0000  -1.3561   0.0000   0.0000   0.0000   0.2736
  15.000   0.6349   0.17112   0.16556  -0.0227  0.0569  1.0000  -1.3638   0.0000   0.0000   0.0000   0.2742
  15.100   0.6379   0.17262   0.16706  -0.0232  0.0561  1.0000  -1.3739   0.0000   0.0000   0.0000   0.2748
  15.200   0.6413   0.17416   0.16859  -0.0237  0.0553  1.0000  -1.3871   0.0000   0.0000   0.0000   0.2752
  15.300   0.6451   0.17575   0.17018  -0.0241  0.0545  1.0000  -1.4044   0.0000   0.0000   0.0000   0.2755
  15.400   0.6497   0.17746   0.17189  -0.0244  0.0537  1.0000  -1.4275   0.0000   0.0000   0.0000   0.2756
  15.500   0.6556   0.17941   0.17385  -0.0246  0.0528  1.0000  -1.4605   0.0000   0.0000   0.0000   0.2755
  15.600   0.6631   0.18173   0.17618  -0.0245  0.0519  1.0000  -1.5070   0.0000   0.0000   0.0000   0.2749
  15.700   0.6731   0.18513   0.17959  -0.0242  0.0508  1.0000  -1.5723   0.0000   0.0000   0.0000   0.2737
  15.800   0.6776   0.19455   0.18896  -0.0251  0.0490  1.0000  -1.5480   0.0000   0.0000   0.0000   0.2749
  15.900   0.6794   0.19612   0.19053  -0.0259  0.0490  1.0000  -1.5412   0.0000   0.0000   0.0000   0.2758
  16.000   0.6812   0.19767   0.19207  -0.0266  0.0489  1.0000  -1.5346   0.0000   0.0000   0.0000   0.2767
  16.100   0.6830   0.19920   0.19360  -0.0274  0.0489  1.0000  -1.5281   0.0000   0.0000   0.0000   0.2777
  16.200   0.6848   0.20071   0.19510  -0.0282  0.0489  1.0000  -1.5216   0.0000   0.0000   0.0000   0.2786
  16.300   0.6866   0.20219   0.19658  -0.0289  0.0488  1.0000  -1.5153   0.0000   0.0000   0.0000   0.2795
  16.400   0.6884   0.20365   0.19803  -0.0297  0.0488  1.0000  -1.5091   0.0000   0.0000   0.0000   0.2803
  16.500   0.6902   0.20507   0.19945  -0.0304  0.0487  1.0000  -1.5030   0.0000   0.0000   0.0000   0.2812
  16.600   0.6920   0.20646   0.20083  -0.0312  0.0487  1.0000  -1.4969   0.0000   0.0000   0.0000   0.2821
  16.700   0.6938   0.20782   0.20218  -0.0319  0.0486  1.0000  -1.4909   0.0000   0.0000   0.0000   0.2829
  16.800   0.6956   0.20913   0.20349  -0.0327  0.0485  1.0000  -1.4849   0.0000   0.0000   0.0000   0.2838
  16.900   0.6973   0.21040   0.20476  -0.0334  0.0485  1.0000  -1.4789   0.0000   0.0000   0.0000   0.2846
  17.000   0.6991   0.21162   0.20597  -0.0342  0.0484  1.0000  -1.4728   0.0000   0.0000   0.0000   0.2854
  17.100   0.7005   0.21273   0.20707  -0.0350  0.0483  1.0000  -1.4650   0.0000   0.0000   0.0000   0.2863
  17.200   0.7016   0.21371   0.20805  -0.0358  0.0482  1.0000  -1.4549   0.0000   0.0000   0.0000   0.2873
  17.300   0.7026   0.21462   0.20894  -0.0366  0.0481  1.0000  -1.4445   0.0000   0.0000   0.0000   0.2882
  17.400   0.7034   0.21541   0.20973  -0.0374  0.0479  1.0000  -1.4333   0.0000   0.0000   0.0000   0.2892
  17.500   0.7039   0.21605   0.21037  -0.0382  0.0477  1.0000  -1.4204   0.0000   0.0000   0.0000   0.2902
  17.600   0.7040   0.21650   0.21080  -0.0391  0.0476  1.0000  -1.4060   0.0000   0.0000   0.0000   0.2912
  17.700   0.7039   0.21685   0.21115  -0.0399  0.0473  1.0000  -1.3908   0.0000   0.0000   0.0000   0.2923
  17.800   0.7039   0.21720   0.21148  -0.0408  0.0471  1.0000  -1.3756   0.0000   0.0000   0.0000   0.2934
  17.900   0.7042   0.21758   0.21185  -0.0416  0.0467  1.0000  -1.3606   0.0000   0.0000   0.0000   0.2944
  18.000   0.7047   0.21805   0.21231  -0.0425  0.0463  1.0000  -1.3464   0.0000   0.0000   0.0000   0.2954
  18.100   0.7056   0.21865   0.21291  -0.0433  0.0459  1.0000  -1.3335   0.0000   0.0000   0.0000   0.2964
  18.200   0.7068   0.21942   0.21367  -0.0441  0.0453  1.0000  -1.3228   0.0000   0.0000   0.0000   0.2972
  18.300   0.7084   0.22033   0.21458  -0.0448  0.0448  1.0000  -1.3141   0.0000   0.0000   0.0000   0.2980
  18.400   0.7102   0.22136   0.21561  -0.0456  0.0442  1.0000  -1.3073   0.0000   0.0000   0.0000   0.2988
  18.500   0.7122   0.22248   0.21672  -0.0463  0.0436  1.0000  -1.3021   0.0000   0.0000   0.0000   0.2995
  18.600   0.7143   0.22370   0.21798  -0.0470  0.0429  1.0000  -1.2983   0.0000   0.0000   0.0000   0.3001
  18.700   0.7165   0.22493   0.21921  -0.0477  0.0423  1.0000  -1.2955   0.0000   0.0000   0.0000   0.3008
  18.800   0.7187   0.22618   0.22046  -0.0483  0.0418  1.0000  -1.2935   0.0000   0.0000   0.0000   0.3014
  18.900   0.7211   0.22745   0.22172  -0.0490  0.0412  1.0000  -1.2921   0.0000   0.0000   0.0000   0.3019
  19.000   0.7234   0.22873   0.22299  -0.0497  0.0407  1.0000  -1.2912   0.0000   0.0000   0.0000   0.3025
  19.100   0.7258   0.23000   0.22426  -0.0503  0.0401  1.0000  -1.2908   0.0000   0.0000   0.0000   0.3030
  19.200   0.7282   0.23125   0.22551  -0.0509  0.0396  1.0000  -1.2908   0.0000   0.0000   0.0000   0.3035
  19.300   0.7307   0.23248   0.22674  -0.0516  0.0391  1.0000  -1.2911   0.0000   0.0000   0.0000   0.3040
  19.400   0.7331   0.23371   0.22796  -0.0522  0.0386  1.0000  -1.2918   0.0000   0.0000   0.0000   0.3045
  19.500   0.7356   0.23492   0.22917  -0.0528  0.0381  1.0000  -1.2928   0.0000   0.0000   0.0000   0.3050
  19.600   0.7380   0.23613   0.23038  -0.0534  0.0376  1.0000  -1.2941   0.0000   0.0000   0.0000   0.3054
  19.700   0.7405   0.23733   0.23158  -0.0540  0.0372  1.0000  -1.2956   0.0000   0.0000   0.0000   0.3058
  19.800   0.7430   0.23853   0.23277  -0.0546  0.0367  1.0000  -1.2974   0.0000   0.0000   0.0000   0.3063
  19.900   0.7455   0.23972   0.23396  -0.0552  0.0363  1.0000  -1.2994   0.0000   0.0000   0.0000   0.3067
  20.000   0.7480   0.24092   0.23516  -0.0558  0.0358  1.0000  -1.3017   0.0000   0.0000   0.0000   0.3071
  20.100   0.7505   0.24211   0.23635  -0.0564  0.0354  1.0000  -1.3042   0.0000   0.0000   0.0000   0.3075
  20.200   0.7531   0.24331   0.23754  -0.0570  0.0350  1.0000  -1.3070   0.0000   0.0000   0.0000   0.3079
  20.300   0.7556   0.24450   0.23874  -0.0576  0.0346  1.0000  -1.3100   0.0000   0.0000   0.0000   0.3083
  20.400   0.7581   0.24570   0.23993  -0.0582  0.0342  1.0000  -1.3133   0.0000   0.0000   0.0000   0.3087
  20.500   0.7607   0.24690   0.24113  -0.0588  0.0338  1.0000  -1.3168   0.0000   0.0000   0.0000   0.3091
  20.600   0.7632   0.24810   0.24233  -0.0594  0.0334  1.0000  -1.3207   0.0000   0.0000   0.0000   0.3094
  20.700   0.7658   0.24931   0.24354  -0.0600  0.0330  1.0000  -1.3248   0.0000   0.0000   0.0000   0.3098
  20.800   0.7684   0.25052   0.24475  -0.0606  0.0326  1.0000  -1.3292   0.0000   0.0000   0.0000   0.3102
  20.900   0.7709   0.25174   0.24597  -0.0612  0.0322  1.0000  -1.3339   0.0000   0.0000   0.0000   0.3105
  21.000   0.7735   0.25296   0.24719  -0.0618  0.0319  1.0000  -1.3390   0.0000   0.0000   0.0000   0.3109
  21.100   0.7761   0.25419   0.24841  -0.0623  0.0315  1.0000  -1.3444   0.0000   0.0000   0.0000   0.3112
  21.200   0.7787   0.25542   0.24965  -0.0629  0.0312  1.0000  -1.3503   0.0000   0.0000   0.0000   0.3115
  21.300   0.7814   0.25667   0.25089  -0.0635  0.0308  1.0000  -1.3565   0.0000   0.0000   0.0000   0.3118
  21.400   0.7840   0.25792   0.25215  -0.0641  0.0305  1.0000  -1.3632   0.0000   0.0000   0.0000   0.3121
  21.500   0.7867   0.25919   0.25342  -0.0646  0.0301  1.0000  -1.3704   0.0000   0.0000   0.0000   0.3124
  21.600   0.7893   0.26048   0.25471  -0.0652  0.0298  1.0000  -1.3781   0.0000   0.0000   0.0000   0.3127
  21.700   0.7921   0.26178   0.25601  -0.0658  0.0295  1.0000  -1.3864   0.0000   0.0000   0.0000   0.3130
  21.800   0.7948   0.26311   0.25734  -0.0663  0.0292  1.0000  -1.3953   0.0000   0.0000   0.0000   0.3132
  21.900   0.7976   0.26447   0.25870  -0.0669  0.0289  1.0000  -1.4049   0.0000   0.0000   0.0000   0.3135
  22.000   0.8004   0.26586   0.26009  -0.0674  0.0286  1.0000  -1.4153   0.0000   0.0000   0.0000   0.3137
  22.100   0.8033   0.26730   0.26153  -0.0680  0.0283  1.0000  -1.4265   0.0000   0.0000   0.0000   0.3139
  22.200   0.8062   0.26879   0.26303  -0.0685  0.0280  1.0000  -1.4387   0.0000   0.0000   0.0000   0.3141
  22.300   0.8092   0.27036   0.26460  -0.0690  0.0277  1.0000  -1.4519   0.0000   0.0000   0.0000   0.3143
  22.400   0.8124   0.27202   0.26626  -0.0695  0.0274  1.0000  -1.4664   0.0000   0.0000   0.0000   0.3145
  22.500   0.8157   0.27381   0.26805  -0.0700  0.0271  1.0000  -1.4823   0.0000   0.0000   0.0000   0.3146
  22.600   0.8191   0.27578   0.27003  -0.0705  0.0268  1.0000  -1.5000   0.0000   0.0000   0.0000   0.3147
  22.700   0.8229   0.27800   0.27226  -0.0710  0.0265  1.0000  -1.5198   0.0000   0.0000   0.0000   0.3147
  22.800   0.8270   0.28060   0.27487  -0.0715  0.0262  1.0000  -1.5419   0.0000   0.0000   0.0000   0.3147
  22.900   0.8316   0.28382   0.27810  -0.0719  0.0259  1.0000  -1.5670   0.0000   0.0000   0.0000   0.3146
  23.000   0.8444   0.29599   0.29032  -0.0722  0.0249  1.0000  -1.6341   0.0000   0.0000   0.0000   0.3137
  23.300   0.8507   0.31014   0.30439  -0.0752  0.0240  1.0000  -1.5389   0.0000   0.0000   0.0000   0.3163
  23.400   0.8523   0.31082   0.30508  -0.0758  0.0240  1.0000  -1.5362   0.0000   0.0000   0.0000   0.3167
  23.500   0.8540   0.31149   0.30575  -0.0764  0.0240  1.0000  -1.5336   0.0000   0.0000   0.0000   0.3171
  23.600   0.8556   0.31214   0.30639  -0.0771  0.0240  1.0000  -1.5311   0.0000   0.0000   0.0000   0.3174
  23.700   0.8572   0.31271   0.30696  -0.0777  0.0239  1.0000  -1.5284   0.0000   0.0000   0.0000   0.3178
  23.800   0.8587   0.31322   0.30748  -0.0783  0.0239  1.0000  -1.5258   0.0000   0.0000   0.0000   0.3182
  23.900   0.8602   0.31371   0.30796  -0.0790  0.0238  1.0000  -1.5232   0.0000   0.0000   0.0000   0.3186
  24.000   0.8617   0.31417   0.30841  -0.0796  0.0238  1.0000  -1.5207   0.0000   0.0000   0.0000   0.3190
  24.100   0.8632   0.31454   0.30879  -0.0802  0.0238  1.0000  -1.5181   0.0000   0.0000   0.0000   0.3194
  24.200   0.8646   0.31484   0.30908  -0.0809  0.0237  1.0000  -1.5153   0.0000   0.0000   0.0000   0.3198
  24.300   0.8659   0.31505   0.30930  -0.0815  0.0236  1.0000  -1.5123   0.0000   0.0000   0.0000   0.3202
  24.400   0.8672   0.31516   0.30940  -0.0821  0.0236  1.0000  -1.5088   0.0000   0.0000   0.0000   0.3206
  24.500   0.8680   0.31498   0.30922  -0.0828  0.0235  1.0000  -1.5028   0.0000   0.0000   0.0000   0.3210
  24.600   0.8688   0.31471   0.30894  -0.0835  0.0234  1.0000  -1.4962   0.0000   0.0000   0.0000   0.3215
  24.700   0.8699   0.31466   0.30901  -0.0841  0.0233  1.0000  -1.4905   0.0000   0.0000   0.0000   0.3219
  24.800   0.8708   0.31445   0.30880  -0.0848  0.0232  1.0000  -1.4843   0.0000   0.0000   0.0000   0.3224
  24.900   0.8717   0.31414   0.30848  -0.0855  0.0231  1.0000  -1.4776   0.0000   0.0000   0.0000   0.3228
  25.000   0.8726   0.31378   0.30812  -0.0861  0.0230  1.0000  -1.4706   0.0000   0.0000   0.0000   0.3233
  25.100   0.8736   0.31342   0.30777  -0.0868  0.0228  1.0000  -1.4634   0.0000   0.0000   0.0000   0.3237
  25.200   0.8746   0.31312   0.30746  -0.0875  0.0226  1.0000  -1.4559   0.0000   0.0000   0.0000   0.3242
  25.300   0.8758   0.31291   0.30725  -0.0882  0.0224  1.0000  -1.4483   0.0000   0.0000   0.0000   0.3246
  25.400   0.8771   0.31285   0.30719  -0.0889  0.0222  1.0000  -1.4408   0.0000   0.0000   0.0000   0.3250
  25.500   0.8786   0.31298   0.30733  -0.0895  0.0219  1.0000  -1.4337   0.0000   0.0000   0.0000   0.3254
  25.600   0.8803   0.31333   0.30767  -0.0902  0.0217  1.0000  -1.4272   0.0000   0.0000   0.0000   0.3258
  25.700   0.8820   0.31386   0.30820  -0.0909  0.0214  1.0000  -1.4217   0.0000   0.0000   0.0000   0.3262
  25.800   0.8839   0.31456   0.30891  -0.0916  0.0211  1.0000  -1.4171   0.0000   0.0000   0.0000   0.3265
  25.900   0.8859   0.31539   0.30974  -0.0922  0.0208  1.0000  -1.4135   0.0000   0.0000   0.0000   0.3269
  26.000   0.8879   0.31632   0.31068  -0.0929  0.0205  1.0000  -1.4108   0.0000   0.0000   0.0000   0.3272
  26.100   0.8899   0.31733   0.31169  -0.0935  0.0202  1.0000  -1.4089   0.0000   0.0000   0.0000   0.3275
  26.200   0.8920   0.31839   0.31275  -0.0942  0.0199  1.0000  -1.4075   0.0000   0.0000   0.0000   0.3278
  26.300   0.8940   0.31949   0.31386  -0.0948  0.0197  1.0000  -1.4067   0.0000   0.0000   0.0000   0.3280
  26.400   0.8960   0.32062   0.31499  -0.0955  0.0194  1.0000  -1.4064   0.0000   0.0000   0.0000   0.3283
  26.500   0.8981   0.32177   0.31615  -0.0961  0.0191  1.0000  -1.4065   0.0000   0.0000   0.0000   0.3286
  26.600   0.9001   0.32294   0.31732  -0.0967  0.0189  1.0000  -1.4070   0.0000   0.0000   0.0000   0.3289
  26.700   0.9022   0.32413   0.31851  -0.0974  0.0186  1.0000  -1.4077   0.0000   0.0000   0.0000   0.3291
  26.800   0.9042   0.32531   0.31970  -0.0980  0.0184  1.0000  -1.4088   0.0000   0.0000   0.0000   0.3294
  26.900   0.9062   0.32652   0.32091  -0.0987  0.0181  1.0000  -1.4101   0.0000   0.0000   0.0000   0.3297
  27.000   0.9082   0.32772   0.32212  -0.0993  0.0179  1.0000  -1.4117   0.0000   0.0000   0.0000   0.3299
  27.100   0.9102   0.32893   0.32334  -0.0999  0.0177  1.0000  -1.4135   0.0000   0.0000   0.0000   0.3302
  27.200   0.9121   0.33015   0.32456  -0.1006  0.0175  1.0000  -1.4155   0.0000   0.0000   0.0000   0.3304
  27.300   0.9141   0.33137   0.32578  -0.1012  0.0173  1.0000  -1.4178   0.0000   0.0000   0.0000   0.3307
  27.400   0.9161   0.33259   0.32701  -0.1018  0.0170  1.0000  -1.4202   0.0000   0.0000   0.0000   0.3309
  27.500   0.9180   0.33381   0.32824  -0.1025  0.0168  1.0000  -1.4228   0.0000   0.0000   0.0000   0.3312
  27.600   0.9199   0.33504   0.32947  -0.1031  0.0166  1.0000  -1.4257   0.0000   0.0000   0.0000   0.3314
  27.700   0.9219   0.33626   0.33070  -0.1037  0.0165  1.0000  -1.4287   0.0000   0.0000   0.0000   0.3317
  27.800   0.9238   0.33749   0.33193  -0.1044  0.0163  1.0000  -1.4319   0.0000   0.0000   0.0000   0.3319
  27.900   0.9257   0.33871   0.33316  -0.1050  0.0161  1.0000  -1.4353   0.0000   0.0000   0.0000   0.3321
  28.000   0.9276   0.33994   0.33440  -0.1056  0.0159  1.0000  -1.4389   0.0000   0.0000   0.0000   0.3324
  28.100   0.9294   0.34117   0.33563  -0.1062  0.0157  1.0000  -1.4428   0.0000   0.0000   0.0000   0.3326
  28.200   0.9313   0.34240   0.33687  -0.1069  0.0156  1.0000  -1.4468   0.0000   0.0000   0.0000   0.3328
  28.300   0.9331   0.34363   0.33810  -0.1075  0.0154  1.0000  -1.4511   0.0000   0.0000   0.0000   0.3330
  28.400   0.9350   0.34487   0.33934  -0.1081  0.0152  1.0000  -1.4555   0.0000   0.0000   0.0000   0.3333
  28.500   0.9368   0.34610   0.34058  -0.1088  0.0151  1.0000  -1.4602   0.0000   0.0000   0.0000   0.3335
  28.600   0.9386   0.34734   0.34183  -0.1094  0.0149  1.0000  -1.4652   0.0000   0.0000   0.0000   0.3337
  28.700   0.9405   0.34858   0.34307  -0.1100  0.0148  1.0000  -1.4704   0.0000   0.0000   0.0000   0.3339
  28.800   0.9423   0.34982   0.34432  -0.1106  0.0146  1.0000  -1.4759   0.0000   0.0000   0.0000   0.3341
  28.900   0.9440   0.35107   0.34557  -0.1113  0.0145  1.0000  -1.4816   0.0000   0.0000   0.0000   0.3344
  29.000   0.9458   0.35232   0.34683  -0.1119  0.0143  1.0000  -1.4877   0.0000   0.0000   0.0000   0.3346
  29.100   0.9476   0.35358   0.34810  -0.1125  0.0142  1.0000  -1.4940   0.0000   0.0000   0.0000   0.3348
  29.200   0.9494   0.35485   0.34938  -0.1131  0.0141  1.0000  -1.5007   0.0000   0.0000   0.0000   0.3350
  29.300   0.9511   0.35613   0.35066  -0.1138  0.0139  1.0000  -1.5078   0.0000   0.0000   0.0000   0.3352
  29.400   0.9529   0.35742   0.35196  -0.1144  0.0138  1.0000  -1.5153   0.0000   0.0000   0.0000   0.3354
  29.500   0.9546   0.35872   0.35327  -0.1150  0.0137  1.0000  -1.5231   0.0000   0.0000   0.0000   0.3355
  29.600   0.9564   0.36004   0.35459  -0.1156  0.0136  1.0000  -1.5314   0.0000   0.0000   0.0000   0.3357
  29.700   0.9581   0.36139   0.35594  -0.1162  0.0134  1.0000  -1.5402   0.0000   0.0000   0.0000   0.3359
  29.800   0.9599   0.36276   0.35732  -0.1168  0.0133  1.0000  -1.5495   0.0000   0.0000   0.0000   0.3361
  29.900   0.9617   0.36416   0.35874  -0.1175  0.0132  1.0000  -1.5594   0.0000   0.0000   0.0000   0.3363
  30.000   0.9634   0.36562   0.36020  -0.1181  0.0131  1.0000  -1.5699   0.0000   0.0000   0.0000   0.3364


