xflr5 v6.61

 Calculated polar for: NACA 4408

 1 1 Reynolds number fixed          Mach number fixed         

 xtrf =   1.000 (top)        1.000 (bottom)
 Mach =   0.000     Re =     0.160 e 6     Ncrit =   9.000

  alpha     CL        CD       CDp       Cm    Top Xtr Bot Xtr   Cpmin    Chinge    XCp    
 ------- -------- --------- --------- -------- ------- ------- -------- --------- ---------
 -10.000  -0.3759   0.11830   0.11407  -0.0283  1.0001  0.0405  -1.5994   0.0000   0.0000   0.0000   0.1684
  -9.900  -0.3770   0.11790   0.11370  -0.0299  1.0001  0.0409  -1.6478   0.0000   0.0000   0.0000   0.1647
  -9.800  -0.3771   0.11734   0.11315  -0.0312  1.0001  0.0412  -1.6890   0.0000   0.0000   0.0000   0.1612
  -9.700  -0.3769   0.11660   0.11244  -0.0324  1.0001  0.0414  -1.7228   0.0000   0.0000   0.0000   0.1583
  -9.600  -0.3760   0.11572   0.11158  -0.0332  1.0001  0.0416  -1.7471   0.0000   0.0000   0.0000   0.1558
  -9.500  -0.3750   0.11475   0.11062  -0.0340  1.0001  0.0417  -1.7665   0.0000   0.0000   0.0000   0.1538
  -9.400  -0.3741   0.11371   0.10960  -0.0346  1.0001  0.0418  -1.7842   0.0000   0.0000   0.0000   0.1518
  -9.000  -0.3591   0.10413   0.10005  -0.0307  1.0001  0.0465  -1.5799   0.0000   0.0000   0.0000   0.1588
  -8.900  -0.3560   0.10315   0.09909  -0.0305  1.0001  0.0479  -1.5409   0.0000   0.0000   0.0000   0.1586
  -8.800  -0.3541   0.10213   0.09807  -0.0307  1.0001  0.0490  -1.5220   0.0000   0.0000   0.0000   0.1579
  -8.700  -0.3527   0.10107   0.09703  -0.0308  1.0001  0.0498  -1.5110   0.0000   0.0000   0.0000   0.1571
  -8.600  -0.3516   0.10000   0.09598  -0.0311  1.0001  0.0505  -1.5041   0.0000   0.0000   0.0000   0.1563
  -8.500  -0.3508   0.09893   0.09493  -0.0313  1.0001  0.0511  -1.4994   0.0000   0.0000   0.0000   0.1556
  -8.400  -0.3503   0.09789   0.09390  -0.0315  1.0001  0.0516  -1.4959   0.0000   0.0000   0.0000   0.1550
  -8.300  -0.3501   0.09687   0.09291  -0.0316  1.0001  0.0522  -1.4938   0.0000   0.0000   0.0000   0.1547
  -8.200  -0.3503   0.09589   0.09195  -0.0317  1.0001  0.0527  -1.4932   0.0000   0.0000   0.0000   0.1546
  -8.100  -0.3510   0.09496   0.09104  -0.0317  1.0001  0.0533  -1.4945   0.0000   0.0000   0.0000   0.1548
  -8.000  -0.3522   0.09408   0.09019  -0.0317  1.0001  0.0538  -1.4978   0.0000   0.0000   0.0000   0.1554
  -7.900  -0.3541   0.09327   0.08941  -0.0315  1.0001  0.0543  -1.5038   0.0000   0.0000   0.0000   0.1563
  -7.800  -0.3567   0.09254   0.08870  -0.0313  1.0001  0.0548  -1.5126   0.0000   0.0000   0.0000   0.1578
  -7.700  -0.3605   0.09191   0.08812  -0.0309  1.0001  0.0552  -1.5246   0.0000   0.0000   0.0000   0.1600
  -7.600  -0.3653   0.09140   0.08764  -0.0303  1.0001  0.0556  -1.5395   0.0000   0.0000   0.0000   0.1630
  -7.500  -0.3710   0.09095   0.08724  -0.0295  1.0001  0.0560  -1.5567   0.0000   0.0000   0.0000   0.1664
  -7.400  -0.3762   0.09047   0.08679  -0.0292  1.0001  0.0563  -1.5771   0.0000   0.0000   0.0000   0.1686
  -7.300  -0.3801   0.08992   0.08628  -0.0296  1.0001  0.0568  -1.6026   0.0000   0.0000   0.0000   0.1685
  -7.200  -0.3835   0.08940   0.08579  -0.0304  1.0001  0.0572  -1.6315   0.0000   0.0000   0.0000   0.1674
  -7.100  -0.3860   0.08885   0.08526  -0.0314  1.0001  0.0576  -1.6597   0.0000   0.0000   0.0000   0.1654
  -7.000  -0.3875   0.08819   0.08463  -0.0326  1.0001  0.0579  -1.6851   0.0000   0.0000   0.0000   0.1628
  -6.900  -0.3884   0.08740   0.08385  -0.0338  1.0001  0.0581  -1.7078   0.0000   0.0000   0.0000   0.1600
  -6.800  -0.3881   0.08652   0.08298  -0.0347  1.0001  0.0582  -1.7199   0.0000   0.0000   0.0000   0.1576
  -6.700  -0.3873   0.08556   0.08202  -0.0355  1.0001  0.0584  -1.7271   0.0000   0.0000   0.0000   0.1555
  -6.600  -0.3863   0.08452   0.08098  -0.0362  1.0001  0.0585  -1.7331   0.0000   0.0000   0.0000   0.1534
  -6.500  -0.3849   0.08342   0.07987  -0.0369  1.0001  0.0585  -1.7379   0.0000   0.0000   0.0000   0.1513
  -6.400  -0.3833   0.08225   0.07870  -0.0377  1.0001  0.0586  -1.7417   0.0000   0.0000   0.0000   0.1491
  -6.300  -0.3814   0.08104   0.07748  -0.0383  1.0001  0.0587  -1.7445   0.0000   0.0000   0.0000   0.1468
  -6.200  -0.3792   0.07978   0.07621  -0.0390  1.0001  0.0587  -1.7465   0.0000   0.0000   0.0000   0.1444
  -6.100  -0.3768   0.07849   0.07489  -0.0397  1.0001  0.0588  -1.7475   0.0000   0.0000   0.0000   0.1420
  -6.000  -0.3740   0.07716   0.07354  -0.0404  1.0001  0.0588  -1.7476   0.0000   0.0000   0.0000   0.1394
  -5.900  -0.3840   0.07177   0.06823  -0.0405  1.0001  0.0600  -1.8110   0.0000   0.0000   0.0000   0.1420
  -5.800  -0.3839   0.07039   0.06688  -0.0394  1.0001  0.0604  -1.7706   0.0000   0.0000   0.0000   0.1450
  -5.700  -0.3831   0.06921   0.06572  -0.0385  1.0001  0.0609  -1.7300   0.0000   0.0000   0.0000   0.1471
  -5.600  -0.3816   0.06814   0.06466  -0.0378  1.0001  0.0613  -1.7053   0.0000   0.0000   0.0000   0.1487
  -5.500  -0.3798   0.06715   0.06368  -0.0371  1.0001  0.0617  -1.6815   0.0000   0.0000   0.0000   0.1500
  -5.400  -0.3775   0.06618   0.06272  -0.0366  1.0001  0.0622  -1.6590   0.0000   0.0000   0.0000   0.1508
  -5.300  -0.3699   0.06494   0.06148  -0.0372  0.9993  0.0629  -1.6283   0.0000   0.0000   0.0000   0.1471
  -5.200  -0.3567   0.06341   0.05992  -0.0391  0.9976  0.0640  -1.5919   0.0000   0.0000   0.0000   0.1381
  -5.100  -0.3423   0.06178   0.05826  -0.0415  0.9957  0.0652  -1.5622   0.0000   0.0000   0.0000   0.1264
  -5.000  -0.3263   0.06000   0.05644  -0.0445  0.9940  0.0668  -1.5397   0.0000   0.0000   0.0000   0.1113
  -4.900  -0.3104   0.05815   0.05454  -0.0476  0.9918  0.0686  -1.5265   0.0000   0.0000   0.0000   0.0942
  -4.800  -0.2923   0.05611   0.05243  -0.0514  0.9896  0.0710  -1.5235   0.0000   0.0000   0.0000   0.0717
  -4.700  -0.2487   0.05505   0.05091  -0.0612  0.9871  0.0779  -1.6114   0.0000   0.0000   0.0000   0.0007
  -4.600  -0.2312   0.05348   0.04917  -0.0640  0.9848  0.0782  -1.6205   0.0000   0.0000   0.0000  -0.0303
  -4.500  -0.2258   0.04720   0.04290  -0.0674  0.9832  0.0804  -1.6670   0.0000   0.0000   0.0000  -0.0519
  -4.400  -0.2142   0.04562   0.04124  -0.0684  0.9812  0.0815  -1.6394   0.0000   0.0000   0.0000  -0.0728
  -4.300  -0.2005   0.04422   0.03983  -0.0698  0.9794  0.0826  -1.6021   0.0000   0.0000   0.0000  -0.1019
  -4.200  -0.1851   0.04285   0.03843  -0.0715  0.9778  0.0840  -1.5698   0.0000   0.0000   0.0000  -0.1402
  -4.100  -0.1563   0.03554   0.03047  -0.0765  0.9775  0.0552  -1.9072   0.0000   0.0000   0.0000  -0.2452
  -4.000  -0.1320   0.02882   0.02274  -0.0798  0.9776  0.0428  -2.2995   0.0000   0.0000   0.0000  -0.3616
  -3.900  -0.1139   0.02772   0.02144  -0.0812  0.9765  0.0423  -2.3003   0.0000   0.0000   0.0000  -0.4717
  -3.800  -0.0963   0.02583   0.01923  -0.0828  0.9758  0.0423  -2.3419   0.0000   0.0000   0.0000  -0.6202
  -3.700  -0.0803   0.02315   0.01615  -0.0843  0.9751  0.0436  -2.4291   0.0000   0.0000   0.0000  -0.8114
  -3.600  -0.0664   0.02210   0.01503  -0.0852  0.9727  0.0463  -2.4112   0.0000   0.0000   0.0000  -1.0471
  -3.500  -0.0514   0.02177   0.01467  -0.0861  0.9701  0.0499  -2.3609   0.0000   0.0000   0.0000  -1.4430
  -3.400  -0.0349   0.02130   0.01408  -0.0871  0.9681  0.0534  -2.3214   0.0000   0.0000   0.0000  -2.2702
  -3.300  -0.0178   0.02142   0.01410  -0.0882  0.9659  0.0577  -2.2396   0.0000   0.0000   0.0000  -4.7460
  -3.200  -0.0013   0.02032   0.01287  -0.0896  0.9650  0.0629  -2.1823   0.0000   0.0000   0.0000  -71.0095
  -3.100   0.0158   0.01982   0.01233  -0.0909  0.9639  0.0654  -2.1102   0.0000   0.0000   0.0000   6.0570
  -3.000   0.0333   0.01924   0.01165  -0.0921  0.9629  0.0672  -2.0515   0.0000   0.0000   0.0000   3.0430
  -2.900   0.0460   0.01881   0.01115  -0.0924  0.9600  0.0693  -1.9998   0.0000   0.0000   0.0000   2.2743
  -2.800   0.0594   0.01841   0.01068  -0.0927  0.9570  0.0722  -1.9451   0.0000   0.0000   0.0000   1.8249
  -2.700   0.0745   0.01807   0.01026  -0.0934  0.9546  0.0758  -1.8831   0.0000   0.0000   0.0000   1.5138
  -2.600   0.0905   0.01768   0.00979  -0.0943  0.9527  0.0791  -1.8172   0.0000   0.0000   0.0000   1.2991
  -2.500   0.1068   0.01695   0.00909  -0.0954  0.9514  0.0853  -1.7483   0.0000   0.0000   0.0000   1.1498
  -2.400   0.1236   0.01670   0.00886  -0.0965  0.9498  0.0914  -1.6623   0.0000   0.0000   0.0000   1.0366
  -2.300   0.1410   0.01660   0.00870  -0.0977  0.9482  0.0991  -1.5719   0.0000   0.0000   0.0000   0.9478
  -2.200   0.1583   0.01613   0.00833  -0.0991  0.9472  0.1110  -1.4849   0.0000   0.0000   0.0000   0.8799
  -2.100   0.1733   0.01600   0.00819  -0.0999  0.9449  0.1216  -1.4044   0.0000   0.0000   0.0000   0.8296
  -2.000   0.1836   0.01564   0.00789  -0.0997  0.9405  0.1324  -1.3459   0.0000   0.0000   0.0000   0.7961
  -1.900   0.1977   0.01545   0.00774  -0.1003  0.9375  0.1465  -1.2681   0.0000   0.0000   0.0000   0.7600
  -1.800   0.2135   0.01512   0.00751  -0.1013  0.9352  0.1657  -1.1869   0.0000   0.0000   0.0000   0.7268
  -1.700   0.2300   0.01487   0.00735  -0.1024  0.9332  0.1905  -1.0986   0.0000   0.0000   0.0000   0.6972
  -1.600   0.2474   0.01460   0.00719  -0.1037  0.9316  0.2207  -1.0217   0.0000   0.0000   0.0000   0.6710
  -1.500   0.2651   0.01429   0.00695  -0.1051  0.9301  0.2561  -0.9839   0.0000   0.0000   0.0000   0.6477
  -1.400   0.2826   0.01399   0.00679  -0.1064  0.9287  0.2953  -0.9236   0.0000   0.0000   0.0000   0.6275
  -1.200   0.3062   0.01341   0.00662  -0.1067  0.9209  0.3969  -0.8274   0.0000   0.0000   0.0000   0.5994
  -1.100   0.3169   0.01274   0.00660  -0.1067  0.9175  0.5663  -0.7813   0.0000   0.0000   0.0000   0.5873
  -1.000   0.3295   0.01176   0.00649  -0.1058  0.9156  0.9999  -0.7292   0.0000   0.0000   0.0000   0.5716
  -0.900   0.3448   0.01170   0.00633  -0.1064  0.9127  0.9999  -0.6748   0.0000   0.0000   0.0000   0.5591
  -0.800   0.3606   0.01162   0.00616  -0.1072  0.9102  0.9999  -0.6198   0.0000   0.0000   0.0000   0.5476
  -0.700   0.3766   0.01155   0.00601  -0.1080  0.9081  0.9999  -0.5649   0.0000   0.0000   0.0000   0.5370
  -0.600   0.3926   0.01147   0.00587  -0.1088  0.9062  0.9999  -0.5620   0.0000   0.0000   0.0000   0.5272
  -0.500   0.4007   0.01152   0.00586  -0.1081  0.9002  0.9999  -0.5675   0.0000   0.0000   0.0000   0.5199
  -0.400   0.4115   0.01151   0.00581  -0.1080  0.8951  0.9999  -0.5747   0.0000   0.0000   0.0000   0.5123
  -0.300   0.4245   0.01146   0.00571  -0.1082  0.8913  0.9999  -0.5836   0.0000   0.0000   0.0000   0.5046
  -0.200   0.4382   0.01139   0.00559  -0.1085  0.8880  0.9999  -0.5931   0.0000   0.0000   0.0000   0.4973
  -0.100   0.4526   0.01131   0.00546  -0.1090  0.8852  0.9999  -0.6030   0.0000   0.0000   0.0000   0.4903
   0.000   0.4672   0.01123   0.00533  -0.1094  0.8827  0.9999  -0.6130   0.0000   0.0000   0.0000   0.4837
   0.100   0.4771   0.01124   0.00532  -0.1091  0.8774  0.9999  -0.6204   0.0000   0.0000   0.0000   0.4780
   0.200   0.4864   0.01125   0.00530  -0.1086  0.8711  0.9999  -0.6274   0.0000   0.0000   0.0000   0.4726
   0.300   0.4982   0.01120   0.00522  -0.1085  0.8662  0.9999  -0.6359   0.0000   0.0000   0.0000   0.4671
   0.400   0.5110   0.01113   0.00510  -0.1086  0.8621  0.9999  -0.6450   0.0000   0.0000   0.0000   0.4617
   0.500   0.5242   0.01104   0.00498  -0.1088  0.8584  0.9999  -0.6544   0.0000   0.0000   0.0000   0.4565
   0.600   0.5377   0.01097   0.00486  -0.1090  0.8551  0.9999  -0.6641   0.0000   0.0000   0.0000   0.4516
   0.700   0.5457   0.01103   0.00491  -0.1083  0.8476  0.9999  -0.6703   0.0000   0.0000   0.0000   0.4473
   0.800   0.5561   0.01102   0.00488  -0.1080  0.8414  0.9999  -0.6787   0.0000   0.0000   0.0000   0.4430
   0.900   0.5677   0.01099   0.00482  -0.1079  0.8363  0.9999  -0.6880   0.0000   0.0000   0.0000   0.4388
   1.000   0.5797   0.01094   0.00478  -0.1079  0.8319  0.9999  -0.6977   0.0000   0.0000   0.0000   0.4346
   1.100   0.5924   0.01090   0.00469  -0.1079  0.8280  0.9999  -0.7078   0.0000   0.0000   0.0000   0.4307
   1.200   0.6028   0.01094   0.00470  -0.1077  0.8222  0.9999  -0.7163   0.0000   0.0000   0.0000   0.4271
   1.300   0.6124   0.01098   0.00473  -0.1073  0.8153  0.9999  -0.7244   0.0000   0.0000   0.0000   0.4236
   1.400   0.6231   0.01098   0.00471  -0.1071  0.8091  0.9999  -0.7332   0.0000   0.0000   0.0000   0.4201
   1.500   0.6344   0.01096   0.00465  -0.1069  0.8036  0.9999  -0.7425   0.0000   0.0000   0.0000   0.4167
   1.600   0.6465   0.01094   0.00458  -0.1069  0.7987  0.9999  -0.7526   0.0000   0.0000   0.0000   0.4134
   1.700   0.6577   0.01097   0.00457  -0.1067  0.7931  0.9999  -0.7628   0.0000   0.0000   0.0000   0.4103
   1.800   0.6671   0.01102   0.00463  -0.1063  0.7856  0.9999  -0.7717   0.0000   0.0000   0.0000   0.4073
   1.900   0.6775   0.01104   0.00463  -0.1061  0.7787  0.9999  -0.7814   0.0000   0.0000   0.0000   0.4044
   2.000   0.6884   0.01105   0.00461  -0.1059  0.7726  0.9999  -0.7915   0.0000   0.0000   0.0000   0.4015
   2.100   0.7001   0.01107   0.00457  -0.1057  0.7672  0.9999  -0.8021   0.0000   0.0000   0.0000   0.3987
   2.200   0.7117   0.01112   0.00458  -0.1057  0.7620  0.9999  -0.8127   0.0000   0.0000   0.0000   0.3961
   2.300   0.7212   0.01120   0.00467  -0.1054  0.7551  0.9999  -0.8228   0.0000   0.0000   0.0000   0.3936
   2.400   0.7314   0.01126   0.00473  -0.1052  0.7483  0.9999  -0.8334   0.0000   0.0000   0.0000   0.3912
   2.500   0.7420   0.01130   0.00475  -0.1049  0.7419  0.9999  -0.8445   0.0000   0.0000   0.0000   0.3888
   2.600   0.7531   0.01134   0.00475  -0.1048  0.7361  0.9999  -0.8560   0.0000   0.0000   0.0000   0.3864
   2.700   0.7646   0.01140   0.00475  -0.1047  0.7305  0.9999  -0.8690   0.0000   0.0000   0.0000   0.3840
   2.800   0.7748   0.01149   0.00484  -0.1045  0.7242  0.9999  -0.8957   0.0000   0.0000   0.0000   0.3819
   2.900   0.7847   0.01156   0.00493  -0.1042  0.7173  0.9999  -0.9254   0.0000   0.0000   0.0000   0.3798
   3.000   0.7951   0.01162   0.00499  -0.1040  0.7108  0.9999  -0.9617   0.0000   0.0000   0.0000   0.3777
   3.100   0.8057   0.01168   0.00503  -0.1038  0.7049  0.9999  -1.0151   0.0000   0.0000   0.0000   0.3756
   3.200   0.8168   0.01176   0.00507  -0.1036  0.6994  0.9999  -1.0702   0.0000   0.0000   0.0000   0.3736
   3.300   0.8281   0.01187   0.00512  -0.1036  0.6939  0.9999  -1.1269   0.0000   0.0000   0.0000   0.3717
   3.400   0.8381   0.01197   0.00525  -0.1034  0.6881  0.9999  -1.1802   0.0000   0.0000   0.0000   0.3698
   3.500   0.8481   0.01204   0.00536  -0.1031  0.6818  0.9999  -1.2343   0.0000   0.0000   0.0000   0.3680
   3.600   0.8584   0.01212   0.00544  -0.1029  0.6756  0.9999  -1.2898   0.0000   0.0000   0.0000   0.3662
   3.700   0.8689   0.01220   0.00567  -0.1027  0.6697  0.9999  -1.3203   0.0000   0.0000   0.0000   0.3644
   3.800   0.8797   0.01229   0.00573  -0.1025  0.6641  0.9999  -1.3729   0.0000   0.0000   0.0000   0.3627
   3.900   0.8907   0.01242   0.00581  -0.1024  0.6586  0.9999  -1.4295   0.0000   0.0000   0.0000   0.3610
   4.000   0.9012   0.01255   0.00595  -0.1022  0.6532  0.9999  -1.4857   0.0000   0.0000   0.0000   0.3594
   4.100   0.9110   0.01263   0.00609  -0.1020  0.6475  0.9999  -1.5415   0.0000   0.0000   0.0000   0.3578
   4.200   0.9211   0.01271   0.00620  -0.1018  0.6413  0.9999  -1.5991   0.0000   0.0000   0.0000   0.3563
   4.300   0.9313   0.01279   0.00629  -0.1015  0.6353  0.9999  -1.6588   0.0000   0.0000   0.0000   0.3547
   4.400   0.9417   0.01287   0.00636  -0.1013  0.6294  0.9999  -1.7454   0.0000   0.0000   0.0000   0.3531
   4.500   0.9524   0.01299   0.00642  -0.1011  0.6230  0.9999  -1.8344   0.0000   0.0000   0.0000   0.3516
   4.600   0.9624   0.01310   0.00652  -0.1007  0.6150  0.9999  -1.9219   0.0000   0.0000   0.0000   0.3500
   4.700   0.9713   0.01310   0.00657  -0.1002  0.6053  0.9999  -2.0061   0.0000   0.0000   0.0000   0.3484
   4.800   0.9804   0.01311   0.00656  -0.0996  0.5942  0.9999  -2.0935   0.0000   0.0000   0.0000   0.3467
   4.900   0.9900   0.01320   0.00652  -0.0991  0.5826  0.9999  -2.1849   0.0000   0.0000   0.0000   0.3451
   5.000   0.9990   0.01324   0.00659  -0.0985  0.5719  0.9999  -2.2727   0.0000   0.0000   0.0000   0.3435
   5.100   1.0080   0.01327   0.00665  -0.0980  0.5607  0.9999  -2.3619   0.0000   0.0000   0.0000   0.3420
   5.200   1.0172   0.01335   0.00668  -0.0975  0.5500  0.9999  -2.4536   0.0000   0.0000   0.0000   0.3405
   5.300   1.0267   0.01352   0.00674  -0.0971  0.5396  0.9999  -2.5472   0.0000   0.0000   0.0000   0.3391
   5.400   1.0358   0.01355   0.00686  -0.0966  0.5298  0.9999  -2.6388   0.0000   0.0000   0.0000   0.3377
   5.500   1.0450   0.01362   0.00695  -0.0962  0.5188  0.9999  -2.7321   0.0000   0.0000   0.0000   0.3364
   5.600   1.0540   0.01375   0.00703  -0.0957  0.5081  0.9999  -2.8261   0.0000   0.0000   0.0000   0.3350
   5.700   1.0631   0.01389   0.00714  -0.0952  0.4973  0.9999  -2.9203   0.0000   0.0000   0.0000   0.3337
   5.800   1.0719   0.01395   0.00726  -0.0947  0.4841  0.9999  -3.0142   0.0000   0.0000   0.0000   0.3324
   5.900   1.0799   0.01411   0.00733  -0.0940  0.4679  0.9999  -3.1056   0.0000   0.0000   0.0000   0.3309
   6.000   1.0881   0.01424   0.00745  -0.0934  0.4507  0.9999  -3.1974   0.0000   0.0000   0.0000   0.3296
   6.100   1.0952   0.01443   0.00754  -0.0926  0.4284  0.9999  -3.2852   0.0000   0.0000   0.0000   0.3282
   6.200   1.1027   0.01462   0.00768  -0.0919  0.4026  0.9999  -3.3735   0.0000   0.0000   0.0000   0.3268
   6.300   1.1092   0.01489   0.00799  -0.0910  0.3726  0.9999  -3.4369   0.0000   0.0000   0.0000   0.3254
   6.400   1.1135   0.01534   0.00820  -0.0899  0.3242  0.9999  -3.4957   0.0000   0.0000   0.0000   0.3239
   6.500   1.1130   0.01625   0.00860  -0.0881  0.2459  0.9999  -3.5370   0.0000   0.0000   0.0000   0.3223
   6.600   1.1093   0.01767   0.00935  -0.0861  0.1525  0.9999  -3.5586   0.0000   0.0000   0.0000   0.3207
   6.700   1.1079   0.01899   0.01020  -0.0844  0.0997  0.9999  -3.5773   0.0000   0.0000   0.0000   0.3191
   6.800   1.1106   0.01987   0.01096  -0.0830  0.0801  0.9999  -3.6056   0.0000   0.0000   0.0000   0.3175
   6.900   1.1115   0.02089   0.01189  -0.0814  0.0690  0.9999  -3.6197   0.0000   0.0000   0.0000   0.3159
   7.000   1.1183   0.02133   0.01240  -0.0805  0.0634  0.9999  -3.6716   0.0000   0.0000   0.0000   0.3146
   7.100   1.1238   0.02185   0.01292  -0.0797  0.0579  0.9999  -3.7294   0.0000   0.0000   0.0000   0.3134
   7.200   1.1261   0.02268   0.01369  -0.0784  0.0527  0.9999  -3.7682   0.0000   0.0000   0.0000   0.3120
   7.300   1.1305   0.02332   0.01435  -0.0774  0.0490  0.9999  -3.8169   0.0000   0.0000   0.0000   0.3107
   7.400   1.1384   0.02359   0.01467  -0.0769  0.0458  0.9999  -3.8944   0.0000   0.0000   0.0000   0.3096
   7.500   1.1442   0.02408   0.01519  -0.0761  0.0435  0.9999  -3.9503   0.0000   0.0000   0.0000   0.3084
   7.600   1.1499   0.02459   0.01572  -0.0752  0.0414  0.9999  -4.0055   0.0000   0.0000   0.0000   0.3073
   7.700   1.1550   0.02516   0.01629  -0.0743  0.0394  0.9999  -4.0582   0.0000   0.0000   0.0000   0.3061
   7.800   1.1585   0.02594   0.01706  -0.0732  0.0374  0.9999  -4.0948   0.0000   0.0000   0.0000   0.3048
   7.900   1.1594   0.02742   0.01855  -0.0717  0.0351  0.9999  -4.0792   0.0000   0.0000   0.0000   0.3033
   8.000   1.1657   0.02827   0.01945  -0.0709  0.0336  0.9999  -4.0959   0.0000   0.0000   0.0000   0.3022
   8.100   1.1731   0.02877   0.02001  -0.0702  0.0324  0.9999  -4.1310   0.0000   0.0000   0.0000   0.3011
   8.200   1.1805   0.02946   0.02075  -0.0695  0.0311  0.9999  -4.1572   0.0000   0.0000   0.0000   0.3000
   8.300   1.1883   0.03026   0.02160  -0.0689  0.0301  0.9999  -4.1827   0.0000   0.0000   0.0000   0.2990
   8.400   1.1965   0.03112   0.02252  -0.0684  0.0293  0.9999  -4.2097   0.0000   0.0000   0.0000   0.2980
   8.500   1.2051   0.03205   0.02351  -0.0679  0.0287  0.9999  -4.2376   0.0000   0.0000   0.0000   0.2971
   8.600   1.2141   0.03304   0.02458  -0.0674  0.0283  0.9999  -4.2659   0.0000   0.0000   0.0000   0.2962
   8.700   1.2231   0.03409   0.02572  -0.0670  0.0280  0.9999  -4.2931   0.0000   0.0000   0.0000   0.2953
   8.800   1.2321   0.03521   0.02694  -0.0666  0.0278  0.9999  -4.3178   0.0000   0.0000   0.0000   0.2944
   8.900   1.2409   0.03641   0.02827  -0.0661  0.0277  0.9999  -4.3389   0.0000   0.0000   0.0000   0.2935
   9.000   1.2492   0.03770   0.02968  -0.0656  0.0278  0.9999  -4.3554   0.0000   0.0000   0.0000   0.2926
   9.100   1.2571   0.03906   0.03119  -0.0650  0.0280  0.9999  -4.3674   0.0000   0.0000   0.0000   0.2917
   9.200   1.2642   0.04050   0.03278  -0.0644  0.0282  0.9999  -4.3744   0.0000   0.0000   0.0000   0.2908
   9.300   1.2703   0.04201   0.03445  -0.0636  0.0285  0.9999  -4.3768   0.0000   0.0000   0.0000   0.2898
   9.400   1.2754   0.04357   0.03618  -0.0627  0.0289  0.9999  -4.3753   0.0000   0.0000   0.0000   0.2888
   9.500   1.2794   0.04517   0.03795  -0.0618  0.0293  0.9999  -4.3708   0.0000   0.0000   0.0000   0.2878
   9.600   1.2825   0.04681   0.03977  -0.0607  0.0297  0.9999  -4.3639   0.0000   0.0000   0.0000   0.2868
   9.700   1.2845   0.04849   0.04161  -0.0596  0.0302  0.9999  -4.3551   0.0000   0.0000   0.0000   0.2857
   9.800   1.2856   0.05021   0.04348  -0.0584  0.0307  0.9999  -4.3447   0.0000   0.0000   0.0000   0.2847
   9.900   1.2857   0.05197   0.04540  -0.0573  0.0311  0.9999  -4.3326   0.0000   0.0000   0.0000   0.2836
  10.000   1.2848   0.05378   0.04736  -0.0560  0.0316  0.9999  -4.3185   0.0000   0.0000   0.0000   0.2826
  10.100   1.2830   0.05568   0.04940  -0.0548  0.0321  0.9999  -4.3014   0.0000   0.0000   0.0000   0.2816
  10.200   1.2800   0.05772   0.05157  -0.0535  0.0326  0.9999  -4.2796   0.0000   0.0000   0.0000   0.2806
  10.300   1.2756   0.06011   0.05409  -0.0523  0.0331  0.9999  -4.2469   0.0000   0.0000   0.0000   0.2797
  10.400   1.2729   0.06286   0.05747  -0.0490  0.0423  0.9999  -3.9689   0.0000   0.0000   0.0000   0.2771
  10.500   1.2629   0.06521   0.05998  -0.0471  0.0442  0.9999  -3.9009   0.0000   0.0000   0.0000   0.2759
  10.600   1.2543   0.06731   0.06219  -0.0456  0.0456  0.9999  -3.8595   0.0000   0.0000   0.0000   0.2748
  10.700   1.2457   0.06946   0.06442  -0.0442  0.0467  0.9999  -3.8245   0.0000   0.0000   0.0000   0.2739
  10.800   1.2361   0.07213   0.06717  -0.0432  0.0479  0.9999  -3.7832   0.0000   0.0000   0.0000   0.2732
  11.100   1.1543   0.08527   0.08139  -0.0403  0.0811  0.9999  -3.0775   0.0000   0.0000   0.0000   0.2731
  11.200   1.1428   0.08746   0.08363  -0.0408  0.0809  0.9999  -3.0476   0.0000   0.0000   0.0000   0.2738
  11.300   1.1310   0.08986   0.08608  -0.0416  0.0807  0.9999  -3.0143   0.0000   0.0000   0.0000   0.2747
  11.400   1.1188   0.09247   0.08875  -0.0428  0.0806  0.9999  -2.9774   0.0000   0.0000   0.0000   0.2761
  11.500   1.1063   0.09534   0.09166  -0.0444  0.0803  0.9999  -2.9365   0.0000   0.0000   0.0000   0.2778
  11.600   1.0936   0.09846   0.09483  -0.0463  0.0801  0.9999  -2.8915   0.0000   0.0000   0.0000   0.2799
  11.700   1.0807   0.10182   0.09822  -0.0485  0.0798  0.9999  -2.8424   0.0000   0.0000   0.0000   0.2824
  11.800   1.0682   0.10541   0.10185  -0.0510  0.0793  0.9999  -2.7900   0.0000   0.0000   0.0000   0.2852
  11.900   1.0565   0.10926   0.10571  -0.0538  0.0788  0.9999  -2.7352   0.0000   0.0000   0.0000   0.2882
  12.000   1.0458   0.11326   0.10973  -0.0566  0.0783  0.9999  -2.6793   0.0000   0.0000   0.0000   0.2914
  12.100   1.0365   0.11733   0.11380  -0.0593  0.0777  0.9999  -2.6238   0.0000   0.0000   0.0000   0.2945
  12.200   1.0286   0.12139   0.11786  -0.0620  0.0771  0.9999  -2.5698   0.0000   0.0000   0.0000   0.2974
  12.300   1.0226   0.12502   0.12148  -0.0642  0.0766  0.9999  -2.5249   0.0000   0.0000   0.0000   0.2999
  12.400   1.0178   0.12824   0.12469  -0.0659  0.0761  0.9999  -2.4888   0.0000   0.0000   0.0000   0.3018
  12.500   1.0141   0.13115   0.12758  -0.0674  0.0757  0.9999  -2.4598   0.0000   0.0000   0.0000   0.3034
  12.600   1.0113   0.13379   0.13022  -0.0686  0.0752  0.9999  -2.4373   0.0000   0.0000   0.0000   0.3047
  12.700   1.0092   0.13621   0.13263  -0.0696  0.0748  0.9999  -2.4211   0.0000   0.0000   0.0000   0.3058
  12.800   1.0080   0.13840   0.13481  -0.0704  0.0743  0.9999  -2.4115   0.0000   0.0000   0.0000   0.3065
  12.900   1.0076   0.14038   0.13679  -0.0710  0.0738  0.9999  -2.4086   0.0000   0.0000   0.0000   0.3070
  13.000   1.0078   0.14216   0.13857  -0.0713  0.0733  0.9999  -2.4124   0.0000   0.0000   0.0000   0.3072
  13.100   1.0089   0.14374   0.14016  -0.0714  0.0729  0.9999  -2.4234   0.0000   0.0000   0.0000   0.3071
  13.200   1.0108   0.14513   0.14155  -0.0712  0.0724  0.9999  -2.4424   0.0000   0.0000   0.0000   0.3066
  13.300   1.0137   0.14629   0.14271  -0.0706  0.0718  0.9999  -2.4712   0.0000   0.0000   0.0000   0.3057
  13.400   1.0153   0.14776   0.14418  -0.0701  0.0712  0.9999  -2.4941   0.0000   0.0000   0.0000   0.3050
  13.500   1.0114   0.15069   0.14710  -0.0701  0.0703  0.9999  -2.4847   0.0000   0.0000   0.0000   0.3051
  13.600   0.9941   0.15830   0.15464  -0.0733  0.0692  0.9999  -2.3415   0.0000   0.0000   0.0000   0.3095
  13.700   0.9912   0.16135   0.15768  -0.0753  0.0691  0.9999  -2.2970   0.0000   0.0000   0.0000   0.3117
  13.800   0.9889   0.16417   0.16049  -0.0771  0.0690  0.9999  -2.2571   0.0000   0.0000   0.0000   0.3137
  13.900   0.9870   0.16680   0.16311  -0.0790  0.0689  0.9999  -2.2196   0.0000   0.0000   0.0000   0.3157
  14.000   0.9853   0.16922   0.16552  -0.0809  0.0687  0.9999  -2.1823   0.0000   0.0000   0.0000   0.3177
  14.100   0.9826   0.17128   0.16756  -0.0846  0.0673  0.9999  -2.1161   0.0000   0.0000   0.0000   0.3217
  14.200   0.9784   0.17403   0.17029  -0.0882  0.0652  0.9999  -2.0385   0.0000   0.0000   0.0000   0.3257
  14.300   0.9774   0.17626   0.17250  -0.0899  0.0640  0.9999  -2.0050   0.0000   0.0000   0.0000   0.3274
  14.400   0.9769   0.17832   0.17456  -0.0913  0.0630  0.9999  -1.9800   0.0000   0.0000   0.0000   0.3288
  14.500   0.9769   0.18027   0.17651  -0.0925  0.0621  0.9999  -1.9612   0.0000   0.0000   0.0000   0.3299
  14.600   0.9772   0.18215   0.17838  -0.0935  0.0612  0.9999  -1.9466   0.0000   0.0000   0.0000   0.3308
  14.700   0.9778   0.18396   0.18019  -0.0945  0.0604  0.9999  -1.9354   0.0000   0.0000   0.0000   0.3316
  14.800   0.9786   0.18573   0.18195  -0.0954  0.0596  0.9999  -1.9273   0.0000   0.0000   0.0000   0.3323
  14.900   0.9796   0.18744   0.18367  -0.0962  0.0588  0.9999  -1.9220   0.0000   0.0000   0.0000   0.3329
  15.000   0.9808   0.18911   0.18533  -0.0969  0.0581  0.9999  -1.9197   0.0000   0.0000   0.0000   0.3334
  15.100   0.9823   0.19073   0.18695  -0.0976  0.0573  0.9999  -1.9205   0.0000   0.0000   0.0000   0.3338
  15.200   0.9839   0.19231   0.18853  -0.0981  0.0567  0.9999  -1.9245   0.0000   0.0000   0.0000   0.3341
  15.300   0.9859   0.19383   0.19006  -0.0986  0.0560  0.9999  -1.9319   0.0000   0.0000   0.0000   0.3342
  15.400   0.9880   0.19531   0.19154  -0.0990  0.0554  0.9999  -1.9429   0.0000   0.0000   0.0000   0.3343
  15.500   0.9904   0.19675   0.19298  -0.0993  0.0548  0.9999  -1.9580   0.0000   0.0000   0.0000   0.3341
  15.600   0.9932   0.19814   0.19437  -0.0994  0.0542  0.9999  -1.9777   0.0000   0.0000   0.0000   0.3339
  15.700   0.9961   0.19949   0.19574  -0.0995  0.0537  0.9999  -2.0013   0.0000   0.0000   0.0000   0.3334
  15.800   0.9994   0.20082   0.19707  -0.0993  0.0532  0.9999  -2.0309   0.0000   0.0000   0.0000   0.3328
  15.900   1.0028   0.20220   0.19846  -0.0991  0.0527  0.9999  -2.0772   0.0000   0.0000   0.0000   0.3321
  16.000   1.0062   0.20370   0.19997  -0.0987  0.0522  0.9999  -2.1362   0.0000   0.0000   0.0000   0.3311
  16.100   1.0098   0.20561   0.20189  -0.0978  0.0515  0.9999  -2.2032   0.0000   0.0000   0.0000   0.3297
  16.200   1.0013   0.21265   0.20888  -0.0987  0.0504  0.9999  -2.1089   0.0000   0.0000   0.0000   0.3314
  16.300   1.0022   0.21473   0.21096  -0.0998  0.0503  0.9999  -2.1043   0.0000   0.0000   0.0000   0.3323
  16.400   1.0032   0.21678   0.21301  -0.1008  0.0503  0.9999  -2.0999   0.0000   0.0000   0.0000   0.3331
  16.500   1.0042   0.21880   0.21503  -0.1019  0.0502  0.9999  -2.0958   0.0000   0.0000   0.0000   0.3340
  16.600   1.0052   0.22079   0.21701  -0.1030  0.0502  0.9999  -2.0918   0.0000   0.0000   0.0000   0.3348
  16.700   1.0063   0.22274   0.21896  -0.1040  0.0501  0.9999  -2.0877   0.0000   0.0000   0.0000   0.3356
  16.800   1.0074   0.22463   0.22085  -0.1051  0.0500  0.9999  -2.0835   0.0000   0.0000   0.0000   0.3365
  16.900   1.0086   0.22647   0.22268  -0.1063  0.0499  0.9999  -2.0788   0.0000   0.0000   0.0000   0.3374
  17.000   1.0097   0.22822   0.22443  -0.1074  0.0498  0.9999  -2.0732   0.0000   0.0000   0.0000   0.3383
  17.100   1.0107   0.22987   0.22608  -0.1088  0.0496  0.9999  -2.0622   0.0000   0.0000   0.0000   0.3394
  17.200   1.0108   0.23145   0.22766  -0.1106  0.0492  0.9999  -2.0346   0.0000   0.0000   0.0000   0.3410
  17.300   1.0105   0.23297   0.22916  -0.1126  0.0486  0.9999  -1.9972   0.0000   0.0000   0.0000   0.3430
  17.400   1.0098   0.23456   0.23075  -0.1147  0.0479  0.9999  -1.9571   0.0000   0.0000   0.0000   0.3449
  17.500   1.0099   0.23635   0.23253  -0.1163  0.0471  0.9999  -1.9314   0.0000   0.0000   0.0000   0.3464
  17.600   1.0106   0.23825   0.23442  -0.1176  0.0463  0.9999  -1.9187   0.0000   0.0000   0.0000   0.3474
  17.700   1.0117   0.24017   0.23634  -0.1186  0.0455  0.9999  -1.9134   0.0000   0.0000   0.0000   0.3482
  17.800   1.0129   0.24209   0.23827  -0.1196  0.0448  0.9999  -1.9126   0.0000   0.0000   0.0000   0.3489
  17.900   1.0143   0.24401   0.24018  -0.1204  0.0441  0.9999  -1.9146   0.0000   0.0000   0.0000   0.3494
  18.000   1.0157   0.24590   0.24208  -0.1212  0.0434  0.9999  -1.9189   0.0000   0.0000   0.0000   0.3499
  18.100   1.0172   0.24774   0.24392  -0.1220  0.0426  0.9999  -1.9269   0.0000   0.0000   0.0000   0.3503
  18.200   1.0189   0.24950   0.24568  -0.1226  0.0416  0.9999  -1.9407   0.0000   0.0000   0.0000   0.3506
  18.300   1.0208   0.25109   0.24728  -0.1231  0.0403  0.9999  -1.9651   0.0000   0.0000   0.0000   0.3506
  18.400   1.0234   0.25237   0.24857  -0.1233  0.0389  0.9999  -2.0123   0.0000   0.0000   0.0000   0.3503
  19.000   1.0345   0.26707   0.26334  -0.1222  0.0341  0.9999  -2.1510   0.0000   0.0000   0.0000   0.3469
  19.100   1.0355   0.26885   0.26512  -0.1233  0.0339  0.9999  -2.1256   0.0000   0.0000   0.0000   0.3478
  19.200   1.0360   0.27051   0.26677  -0.1248  0.0337  0.9999  -2.0886   0.0000   0.0000   0.0000   0.3490
  19.300   1.0356   0.27200   0.26826  -0.1266  0.0333  0.9999  -2.0392   0.0000   0.0000   0.0000   0.3507
  19.400   1.0349   0.27354   0.26978  -0.1288  0.0327  0.9999  -1.9783   0.0000   0.0000   0.0000   0.3527
  19.500   1.0353   0.27544   0.27169  -0.1307  0.0316  0.9999  -1.9236   0.0000   0.0000   0.0000   0.3543
  19.600   1.0363   0.27758   0.27382  -0.1318  0.0305  0.9999  -1.8909   0.0000   0.0000   0.0000   0.3552
  19.700   1.0374   0.27970   0.27594  -0.1327  0.0295  0.9999  -1.8709   0.0000   0.0000   0.0000   0.3558
  19.800   1.0385   0.28179   0.27803  -0.1335  0.0286  0.9999  -1.8571   0.0000   0.0000   0.0000   0.3562
  19.900   1.0397   0.28385   0.28009  -0.1341  0.0279  0.9999  -1.8474   0.0000   0.0000   0.0000   0.3565
  20.000   1.0408   0.28587   0.28212  -0.1347  0.0272  0.9999  -1.8408   0.0000   0.0000   0.0000   0.3568
  20.100   1.0420   0.28787   0.28412  -0.1353  0.0265  0.9999  -1.8369   0.0000   0.0000   0.0000   0.3570
  20.200   1.0431   0.28984   0.28609  -0.1358  0.0260  0.9999  -1.8357   0.0000   0.0000   0.0000   0.3572
  20.300   1.0443   0.29178   0.28804  -0.1363  0.0255  0.9999  -1.8370   0.0000   0.0000   0.0000   0.3574
  20.400   1.0454   0.29369   0.28996  -0.1368  0.0250  0.9999  -1.8410   0.0000   0.0000   0.0000   0.3575
  20.500   1.0466   0.29558   0.29185  -0.1372  0.0246  0.9999  -1.8477   0.0000   0.0000   0.0000   0.3576
  20.600   1.0477   0.29745   0.29372  -0.1375  0.0242  0.9999  -1.8573   0.0000   0.0000   0.0000   0.3576
  20.700   1.0489   0.29930   0.29557  -0.1378  0.0238  0.9999  -1.8703   0.0000   0.0000   0.0000   0.3575
  20.800   1.0501   0.30113   0.29741  -0.1380  0.0235  0.9999  -1.8871   0.0000   0.0000   0.0000   0.3574
  20.900   1.0513   0.30296   0.29926  -0.1381  0.0232  0.9999  -1.9084   0.0000   0.0000   0.0000   0.3571
  21.000   1.0527   0.30483   0.30113  -0.1381  0.0229  0.9999  -1.9355   0.0000   0.0000   0.0000   0.3567
  21.100   1.0543   0.30679   0.30310  -0.1378  0.0226  0.9999  -1.9710   0.0000   0.0000   0.0000   0.3561
  21.200   1.0567   0.30910   0.30543  -0.1371  0.0222  0.9999  -2.0211   0.0000   0.0000   0.0000   0.3549
  21.300   1.0569   0.31329   0.30963  -0.1361  0.0217  0.9999  -2.0428   0.0000   0.0000   0.0000   0.3538
  21.400   1.0531   0.31868   0.31498  -0.1362  0.0214  0.9999  -1.9629   0.0000   0.0000   0.0000   0.3544
  21.500   1.0532   0.32084   0.31714  -0.1368  0.0214  0.9999  -1.9480   0.0000   0.0000   0.0000   0.3547
  21.600   1.0532   0.32299   0.31929  -0.1373  0.0213  0.9999  -1.9333   0.0000   0.0000   0.0000   0.3551
  21.700   1.0532   0.32511   0.32142  -0.1378  0.0213  0.9999  -1.9189   0.0000   0.0000   0.0000   0.3554
  21.800   1.0531   0.32721   0.32352  -0.1383  0.0213  0.9999  -1.9045   0.0000   0.0000   0.0000   0.3557
  21.900   1.0528   0.32928   0.32560  -0.1388  0.0213  0.9999  -1.8902   0.0000   0.0000   0.0000   0.3561
  22.000   1.0524   0.33133   0.32765  -0.1393  0.0213  0.9999  -1.8759   0.0000   0.0000   0.0000   0.3564
  22.100   1.0519   0.33335   0.32967  -0.1397  0.0213  0.9999  -1.8617   0.0000   0.0000   0.0000   0.3568
  22.200   1.0513   0.33532   0.33165  -0.1402  0.0212  0.9999  -1.8473   0.0000   0.0000   0.0000   0.3571
  22.300   1.0504   0.33726   0.33359  -0.1406  0.0212  0.9999  -1.8328   0.0000   0.0000   0.0000   0.3574
  22.400   1.0494   0.33916   0.33550  -0.1409  0.0212  0.9999  -1.8182   0.0000   0.0000   0.0000   0.3578
  22.500   1.0482   0.34101   0.33735  -0.1413  0.0212  0.9999  -1.8033   0.0000   0.0000   0.0000   0.3581
  22.600   1.0467   0.34280   0.33914  -0.1416  0.0211  0.9999  -1.7880   0.0000   0.0000   0.0000   0.3584
  22.700   1.0450   0.34452   0.34088  -0.1418  0.0211  0.9999  -1.7723   0.0000   0.0000   0.0000   0.3588
  22.800   1.0427   0.34614   0.34250  -0.1421  0.0211  0.9999  -1.7539   0.0000   0.0000   0.0000   0.3591
  22.900   1.0397   0.34764   0.34401  -0.1423  0.0211  0.9999  -1.7325   0.0000   0.0000   0.0000   0.3596
  23.000   1.0359   0.34899   0.34537  -0.1423  0.0210  0.9999  -1.7089   0.0000   0.0000   0.0000   0.3600
  23.100   1.0312   0.35015   0.34654  -0.1423  0.0210  0.9999  -1.6834   0.0000   0.0000   0.0000   0.3605
  23.200   1.0252   0.35101   0.34741  -0.1420  0.0209  0.9999  -1.6558   0.0000   0.0000   0.0000   0.3609
  23.300   0.9448   0.33353   0.33004  -0.1277  0.0211  0.9999  -1.5108   0.0000   0.0000   0.0000   0.3588
  23.400   0.9361   0.33247   0.32900  -0.1268  0.0211  0.9999  -1.4803   0.0000   0.0000   0.0000   0.3591
  23.500   0.9288   0.33172   0.32826  -0.1262  0.0210  0.9999  -1.4523   0.0000   0.0000   0.0000   0.3594
  23.600   0.9225   0.33116   0.32771  -0.1257  0.0210  0.9999  -1.4260   0.0000   0.0000   0.0000   0.3598
  23.700   0.9169   0.33075   0.32731  -0.1254  0.0210  0.9999  -1.4009   0.0000   0.0000   0.0000   0.3602
  23.800   0.9118   0.33044   0.32701  -0.1252  0.0209  0.9999  -1.3767   0.0000   0.0000   0.0000   0.3606
  23.900   0.9073   0.33023   0.32681  -0.1250  0.0209  0.9999  -1.3532   0.0000   0.0000   0.0000   0.3611
  24.000   0.9031   0.33011   0.32670  -0.1249  0.0208  0.9999  -1.3303   0.0000   0.0000   0.0000   0.3616
  24.100   0.8994   0.33006   0.32666  -0.1249  0.0207  0.9999  -1.3077   0.0000   0.0000   0.0000   0.3620
  24.200   0.8960   0.33011   0.32671  -0.1250  0.0207  0.9999  -1.2853   0.0000   0.0000   0.0000   0.3625
  24.300   0.8929   0.33022   0.32684  -0.1251  0.0205  0.9999  -1.2630   0.0000   0.0000   0.0000   0.3631
  24.400   0.8903   0.33043   0.32706  -0.1253  0.0204  0.9999  -1.2409   0.0000   0.0000   0.0000   0.3636
  24.500   0.8879   0.33073   0.32736  -0.1255  0.0202  0.9999  -1.2192   0.0000   0.0000   0.0000   0.3641
  24.600   0.8858   0.33112   0.32776  -0.1258  0.0200  0.9999  -1.1986   0.0000   0.0000   0.0000   0.3645
  24.700   0.8838   0.33153   0.32818  -0.1259  0.0198  0.9999  -1.1796   0.0000   0.0000   0.0000   0.3650
  24.800   0.8819   0.33195   0.32861  -0.1261  0.0196  0.9999  -1.1626   0.0000   0.0000   0.0000   0.3653
  24.900   0.8801   0.33236   0.32903  -0.1262  0.0193  0.9999  -1.1476   0.0000   0.0000   0.0000   0.3656
  25.000   0.8782   0.33276   0.32943  -0.1262  0.0190  0.9999  -1.1343   0.0000   0.0000   0.0000   0.3659
  25.100   0.8763   0.33314   0.32982  -0.1263  0.0188  0.9999  -1.1223   0.0000   0.0000   0.0000   0.3661
  25.200   0.8745   0.33351   0.33021  -0.1263  0.0185  0.9999  -1.1113   0.0000   0.0000   0.0000   0.3663
  25.300   0.8727   0.33388   0.33058  -0.1264  0.0183  0.9999  -1.1013   0.0000   0.0000   0.0000   0.3665
  25.400   0.8709   0.33424   0.33096  -0.1264  0.0181  0.9999  -1.0919   0.0000   0.0000   0.0000   0.3668
  25.500   0.8692   0.33461   0.33134  -0.1264  0.0178  0.9999  -1.0832   0.0000   0.0000   0.0000   0.3669
  25.600   0.8676   0.33498   0.33172  -0.1265  0.0176  0.9999  -1.0750   0.0000   0.0000   0.0000   0.3671
  25.700   0.8660   0.33536   0.33210  -0.1265  0.0174  0.9999  -1.0673   0.0000   0.0000   0.0000   0.3673
  25.800   0.8644   0.33573   0.33248  -0.1266  0.0172  0.9999  -1.0601   0.0000   0.0000   0.0000   0.3675
  25.900   0.8629   0.33611   0.33287  -0.1267  0.0170  0.9999  -1.0532   0.0000   0.0000   0.0000   0.3677
  26.000   0.8615   0.33650   0.33327  -0.1267  0.0168  0.9999  -1.0466   0.0000   0.0000   0.0000   0.3679
  26.100   0.8601   0.33688   0.33366  -0.1268  0.0166  0.9999  -1.0404   0.0000   0.0000   0.0000   0.3681
  26.200   0.8587   0.33727   0.33406  -0.1269  0.0164  0.9999  -1.0345   0.0000   0.0000   0.0000   0.3682
  26.300   0.8574   0.33767   0.33446  -0.1270  0.0162  0.9999  -1.0290   0.0000   0.0000   0.0000   0.3684
  26.400   0.8562   0.33806   0.33487  -0.1271  0.0161  0.9999  -1.0237   0.0000   0.0000   0.0000   0.3686
  26.500   0.8549   0.33847   0.33533  -0.1272  0.0159  0.9999  -1.0204   0.0000   0.0000   0.0000   0.3688
  26.600   0.8537   0.33887   0.33574  -0.1273  0.0157  0.9999  -1.0159   0.0000   0.0000   0.0000   0.3690
  26.700   0.8526   0.33928   0.33616  -0.1274  0.0156  0.9999  -1.0116   0.0000   0.0000   0.0000   0.3691
  26.800   0.8515   0.33969   0.33658  -0.1275  0.0154  0.9999  -1.0074   0.0000   0.0000   0.0000   0.3693
  26.900   0.8504   0.34010   0.33700  -0.1276  0.0153  0.9999  -1.0034   0.0000   0.0000   0.0000   0.3695
  27.000   0.8493   0.34051   0.33742  -0.1277  0.0151  0.9999  -0.9997   0.0000   0.0000   0.0000   0.3696
  27.100   0.8483   0.34093   0.33785  -0.1279  0.0149  0.9999  -0.9961   0.0000   0.0000   0.0000   0.3698
  27.200   0.8473   0.34134   0.33828  -0.1280  0.0148  0.9999  -0.9929   0.0000   0.0000   0.0000   0.3700
  27.300   0.8463   0.34176   0.33870  -0.1282  0.0147  0.9999  -0.9898   0.0000   0.0000   0.0000   0.3702
  27.400   0.8454   0.34218   0.33913  -0.1283  0.0145  0.9999  -0.9870   0.0000   0.0000   0.0000   0.3703
  27.500   0.8445   0.34260   0.33956  -0.1284  0.0144  0.9999  -0.9845   0.0000   0.0000   0.0000   0.3705
  27.600   0.8436   0.34302   0.33999  -0.1286  0.0143  0.9999  -0.9822   0.0000   0.0000   0.0000   0.3707
  27.700   0.8427   0.34345   0.34042  -0.1288  0.0141  0.9999  -0.9802   0.0000   0.0000   0.0000   0.3708
  27.800   0.8419   0.34387   0.34085  -0.1289  0.0140  0.9999  -0.9784   0.0000   0.0000   0.0000   0.3710
  27.900   0.8410   0.34429   0.34128  -0.1291  0.0139  0.9999  -0.9770   0.0000   0.0000   0.0000   0.3711
  28.000   0.8402   0.34471   0.34171  -0.1292  0.0137  0.9999  -0.9758   0.0000   0.0000   0.0000   0.3713
  28.100   0.8394   0.34512   0.34214  -0.1294  0.0136  0.9999  -0.9749   0.0000   0.0000   0.0000   0.3715
  28.200   0.8386   0.34554   0.34257  -0.1296  0.0135  0.9999  -0.9742   0.0000   0.0000   0.0000   0.3716
  28.300   0.8379   0.34595   0.34299  -0.1297  0.0134  0.9999  -0.9740   0.0000   0.0000   0.0000   0.3718
  28.400   0.8371   0.34637   0.34341  -0.1299  0.0133  0.9999  -0.9740   0.0000   0.0000   0.0000   0.3719
  28.500   0.8364   0.34678   0.34383  -0.1301  0.0132  0.9999  -0.9744   0.0000   0.0000   0.0000   0.3720
  28.600   0.8357   0.34718   0.34424  -0.1302  0.0131  0.9999  -0.9751   0.0000   0.0000   0.0000   0.3722
  28.700   0.8349   0.34758   0.34465  -0.1304  0.0130  0.9999  -0.9763   0.0000   0.0000   0.0000   0.3723
  28.800   0.8342   0.34798   0.34506  -0.1306  0.0129  0.9999  -0.9778   0.0000   0.0000   0.0000   0.3724
  28.900   0.8335   0.34837   0.34546  -0.1307  0.0128  0.9999  -0.9798   0.0000   0.0000   0.0000   0.3726
  29.000   0.8328   0.34876   0.34586  -0.1309  0.0127  0.9999  -0.9822   0.0000   0.0000   0.0000   0.3727
  29.100   0.8321   0.34914   0.34625  -0.1310  0.0126  0.9999  -0.9851   0.0000   0.0000   0.0000   0.3728
  29.200   0.8314   0.34951   0.34663  -0.1311  0.0125  0.9999  -0.9885   0.0000   0.0000   0.0000   0.3728
  29.300   0.8307   0.34989   0.34702  -0.1313  0.0124  0.9999  -0.9926   0.0000   0.0000   0.0000   0.3729
  29.400   0.8300   0.35026   0.34740  -0.1314  0.0123  0.9999  -0.9972   0.0000   0.0000   0.0000   0.3730
  29.500   0.8293   0.35063   0.34778  -0.1315  0.0122  0.9999  -1.0024   0.0000   0.0000   0.0000   0.3730
  29.600   0.8286   0.35100   0.34816  -0.1315  0.0121  0.9999  -1.0084   0.0000   0.0000   0.0000   0.3730
  29.700   0.8279   0.35140   0.34857  -0.1316  0.0120  0.9999  -1.0152   0.0000   0.0000   0.0000   0.3730
  29.800   0.8273   0.35182   0.34900  -0.1316  0.0119  0.9999  -1.0229   0.0000   0.0000   0.0000   0.3729
  29.900   0.8266   0.35232   0.34952  -0.1315  0.0119  0.9999  -1.0316   0.0000   0.0000   0.0000   0.3727
  30.000   0.8261   0.35298   0.35018  -0.1314  0.0118  0.9999  -1.0414   0.0000   0.0000   0.0000   0.3725


