xflr5 v6.61

 Calculated polar for: NACA65-015

 1 1 Reynolds number fixed          Mach number fixed         

 xtrf =   1.000 (top)        1.000 (bottom)
 Mach =   0.000     Re =     0.400 e 6     Ncrit =   9.000

  alpha     CL        CD       CDp       Cm    Top Xtr Bot Xtr   Cpmin    Chinge    XCp    
 ------- -------- --------- --------- -------- ------- ------- -------- --------- ---------
 -10.000  -0.9270   0.02687   0.02030  -0.0203  1.0000  0.0257  -4.8574   0.0000   0.0000   0.0000   0.2163
  -9.900  -0.9142   0.02616   0.01960  -0.0208  1.0000  0.0260  -4.7686   0.0000   0.0000   0.0000   0.2155
  -9.800  -0.9031   0.02563   0.01906  -0.0211  1.0000  0.0262  -4.6823   0.0000   0.0000   0.0000   0.2150
  -9.700  -0.8927   0.02517   0.01859  -0.0213  1.0000  0.0265  -4.5978   0.0000   0.0000   0.0000   0.2145
  -9.600  -0.8807   0.02473   0.01813  -0.0219  0.9870  0.0268  -4.5075   0.0000   0.0000   0.0000   0.2137
  -9.400  -0.8547   0.02386   0.01721  -0.0233  0.9725  0.0275  -4.3340   0.0000   0.0000   0.0000   0.2115
  -9.300  -0.8430   0.02347   0.01680  -0.0237  0.9660  0.0278  -4.2595   0.0000   0.0000   0.0000   0.2107
  -9.200  -0.8330   0.02315   0.01645  -0.0238  0.9591  0.0282  -4.1896   0.0000   0.0000   0.0000   0.2104
  -9.100  -0.8250   0.02287   0.01613  -0.0234  0.9519  0.0287  -4.1268   0.0000   0.0000   0.0000   0.2107
  -8.900  -0.8120   0.02238   0.01555  -0.0220  0.9386  0.0294  -4.0143   0.0000   0.0000   0.0000   0.2122
  -8.800  -0.8057   0.02215   0.01527  -0.0212  0.9325  0.0298  -3.9593   0.0000   0.0000   0.0000   0.2130
  -8.700  -0.7992   0.02193   0.01499  -0.0205  0.9270  0.0301  -3.9042   0.0000   0.0000   0.0000   0.2138
  -8.600  -0.7930   0.02172   0.01472  -0.0197  0.9221  0.0303  -3.8496   0.0000   0.0000   0.0000   0.2147
  -8.500  -0.7862   0.02151   0.01446  -0.0191  0.9171  0.0305  -3.7932   0.0000   0.0000   0.0000   0.2154
  -8.400  -0.7785   0.02104   0.01398  -0.0185  0.9133  0.0308  -3.7417   0.0000   0.0000   0.0000   0.2160
  -8.300  -0.7716   0.02048   0.01341  -0.0180  0.9092  0.0311  -3.6933   0.0000   0.0000   0.0000   0.2166
  -8.200  -0.7659   0.02008   0.01301  -0.0172  0.9053  0.0315  -3.6422   0.0000   0.0000   0.0000   0.2175
  -8.100  -0.7598   0.01974   0.01266  -0.0166  0.9009  0.0318  -3.5875   0.0000   0.0000   0.0000   0.2183
  -8.000  -0.7544   0.01946   0.01236  -0.0157  0.8974  0.0322  -3.5337   0.0000   0.0000   0.0000   0.2193
  -7.900  -0.7482   0.01919   0.01207  -0.0151  0.8931  0.0325  -3.4775   0.0000   0.0000   0.0000   0.2201
  -7.800  -0.7425   0.01894   0.01181  -0.0143  0.8895  0.0329  -3.4233   0.0000   0.0000   0.0000   0.2211
  -7.700  -0.7362   0.01870   0.01154  -0.0137  0.8858  0.0332  -3.3675   0.0000   0.0000   0.0000   0.2220
  -7.600  -0.7298   0.01845   0.01128  -0.0130  0.8821  0.0336  -3.3117   0.0000   0.0000   0.0000   0.2228
  -7.500  -0.7233   0.01822   0.01101  -0.0123  0.8792  0.0341  -3.2564   0.0000   0.0000   0.0000   0.2237
  -7.400  -0.7160   0.01797   0.01074  -0.0119  0.8754  0.0345  -3.1988   0.0000   0.0000   0.0000   0.2243
  -7.300  -0.7089   0.01773   0.01046  -0.0113  0.8720  0.0350  -3.1424   0.0000   0.0000   0.0000   0.2250
  -7.200  -0.7020   0.01751   0.01020  -0.0107  0.8693  0.0354  -3.0866   0.0000   0.0000   0.0000   0.2258
  -7.100  -0.6941   0.01729   0.00995  -0.0103  0.8657  0.0359  -3.0280   0.0000   0.0000   0.0000   0.2263
  -7.000  -0.6862   0.01710   0.00972  -0.0099  0.8625  0.0363  -2.9693   0.0000   0.0000   0.0000   0.2268
  -6.900  -0.6807   0.01674   0.00935  -0.0091  0.8597  0.0369  -2.9217   0.0000   0.0000   0.0000   0.2280
  -6.800  -0.6747   0.01638   0.00899  -0.0085  0.8564  0.0377  -2.8702   0.0000   0.0000   0.0000   0.2289
  -6.700  -0.6672   0.01614   0.00874  -0.0081  0.8533  0.0386  -2.8110   0.0000   0.0000   0.0000   0.2295
  -6.600  -0.6594   0.01594   0.00852  -0.0076  0.8507  0.0395  -2.7559   0.0000   0.0000   0.0000   0.2301
  -6.500  -0.6513   0.01575   0.00831  -0.0072  0.8484  0.0405  -2.7053   0.0000   0.0000   0.0000   0.2306
  -6.400  -0.6426   0.01556   0.00811  -0.0070  0.8453  0.0416  -2.6542   0.0000   0.0000   0.0000   0.2310
  -6.300  -0.6337   0.01540   0.00791  -0.0067  0.8425  0.0425  -2.6037   0.0000   0.0000   0.0000   0.2314
  -6.200  -0.6267   0.01510   0.00760  -0.0061  0.8400  0.0437  -2.5609   0.0000   0.0000   0.0000   0.2322
  -6.100  -0.6192   0.01486   0.00735  -0.0056  0.8379  0.0450  -2.5136   0.0000   0.0000   0.0000   0.2330
  -6.000  -0.6103   0.01465   0.00715  -0.0054  0.8348  0.0466  -2.4624   0.0000   0.0000   0.0000   0.2333
  -5.900  -0.6013   0.01448   0.00694  -0.0052  0.8321  0.0484  -2.4120   0.0000   0.0000   0.0000   0.2337
  -5.800  -0.5929   0.01426   0.00671  -0.0048  0.8297  0.0505  -2.3646   0.0000   0.0000   0.0000   0.2342
  -5.700  -0.5848   0.01404   0.00649  -0.0044  0.8276  0.0534  -2.3163   0.0000   0.0000   0.0000   0.2349
  -5.600  -0.5759   0.01384   0.00629  -0.0041  0.8249  0.0575  -2.2678   0.0000   0.0000   0.0000   0.2353
  -5.400  -0.5604   0.01322   0.00581  -0.0033  0.8196  0.0797  -2.1782   0.0000   0.0000   0.0000   0.2367
  -5.300  -0.5555   0.01267   0.00548  -0.0026  0.8173  0.1188  -2.1406   0.0000   0.0000   0.0000   0.2381
  -5.200  -0.5517   0.01202   0.00513  -0.0018  0.8152  0.1797  -2.1045   0.0000   0.0000   0.0000   0.2396
  -5.100  -0.5477   0.01133   0.00479  -0.0011  0.8123  0.2483  -2.0671   0.0000   0.0000   0.0000   0.2409
  -5.000  -0.5442   0.01061   0.00443  -0.0003  0.8097  0.3232  -2.0300   0.0000   0.0000   0.0000   0.2425
  -4.900  -0.5413   0.00988   0.00409   0.0007  0.8074  0.4040  -1.9937   0.0000   0.0000   0.0000   0.2444
  -4.800  -0.5366   0.00938   0.00392   0.0016  0.8054  0.4777  -1.9516   0.0000   0.0000   0.0000   0.2462
  -4.700  -0.5284   0.00920   0.00389   0.0020  0.8035  0.5188  -1.8996   0.0000   0.0000   0.0000   0.2472
  -4.600  -0.5185   0.00912   0.00388   0.0022  0.8011  0.5429  -1.8435   0.0000   0.0000   0.0000   0.2477
  -4.500  -0.5081   0.00908   0.00385   0.0023  0.7988  0.5593  -1.7864   0.0000   0.0000   0.0000   0.2481
  -4.400  -0.4976   0.00905   0.00383   0.0024  0.7967  0.5713  -1.7304   0.0000   0.0000   0.0000   0.2485
  -4.300  -0.4870   0.00904   0.00381   0.0025  0.7948  0.5808  -1.6801   0.0000   0.0000   0.0000   0.2488
  -4.200  -0.4762   0.00904   0.00377   0.0026  0.7931  0.5892  -1.6297   0.0000   0.0000   0.0000   0.2491
  -4.100  -0.4653   0.00903   0.00377   0.0026  0.7912  0.5957  -1.5794   0.0000   0.0000   0.0000   0.2494
  -4.000  -0.4541   0.00903   0.00375   0.0026  0.7888  0.6028  -1.5290   0.0000   0.0000   0.0000   0.2495
  -3.900  -0.4431   0.00903   0.00374   0.0026  0.7866  0.6087  -1.4791   0.0000   0.0000   0.0000   0.2498
  -3.800  -0.4321   0.00904   0.00374   0.0026  0.7846  0.6148  -1.4296   0.0000   0.0000   0.0000   0.2500
  -3.700  -0.4211   0.00905   0.00370   0.0026  0.7829  0.6204  -1.3804   0.0000   0.0000   0.0000   0.2503
  -3.600  -0.4101   0.00906   0.00371   0.0027  0.7813  0.6251  -1.3316   0.0000   0.0000   0.0000   0.2506
  -3.500  -0.3991   0.00909   0.00371   0.0027  0.7797  0.6314  -1.2833   0.0000   0.0000   0.0000   0.2509
  -3.400  -0.3880   0.00912   0.00375   0.0027  0.7776  0.6382  -1.2351   0.0000   0.0000   0.0000   0.2513
  -3.300  -0.3773   0.00919   0.00381   0.0028  0.7755  0.6470  -1.1878   0.0000   0.0000   0.0000   0.2518
  -3.200  -0.3665   0.00926   0.00393   0.0030  0.7736  0.6548  -1.1406   0.0000   0.0000   0.0000   0.2526
  -3.100  -0.3558   0.00935   0.00399   0.0032  0.7719  0.6630  -1.0944   0.0000   0.0000   0.0000   0.2534
  -3.000  -0.3449   0.00943   0.00409   0.0034  0.7703  0.6687  -1.0476   0.0000   0.0000   0.0000   0.2543
  -2.900  -0.3339   0.00949   0.00412   0.0035  0.7688  0.6739  -1.0019   0.0000   0.0000   0.0000   0.2549
  -2.800  -0.3228   0.00952   0.00412   0.0035  0.7671  0.6774  -0.9564   0.0000   0.0000   0.0000   0.2553
  -2.700  -0.3112   0.00952   0.00415   0.0034  0.7650  0.6798  -0.9107   0.0000   0.0000   0.0000   0.2556
  -2.600  -0.2998   0.00953   0.00417   0.0033  0.7630  0.6823  -0.8657   0.0000   0.0000   0.0000   0.2558
  -2.500  -0.2884   0.00954   0.00416   0.0033  0.7611  0.6848  -0.8213   0.0000   0.0000   0.0000   0.2560
  -2.400  -0.2771   0.00955   0.00412   0.0032  0.7594  0.6873  -0.7777   0.0000   0.0000   0.0000   0.2563
  -2.300  -0.2658   0.00955   0.00407   0.0031  0.7579  0.6897  -0.7348   0.0000   0.0000   0.0000   0.2564
  -2.200  -0.2543   0.00953   0.00405   0.0030  0.7566  0.6912  -0.6946   0.0000   0.0000   0.0000   0.2568
  -2.100  -0.2428   0.00953   0.00403   0.0030  0.7552  0.6926  -0.6569   0.0000   0.0000   0.0000   0.2570
  -2.000  -0.2312   0.00952   0.00403   0.0028  0.7533  0.6940  -0.6195   0.0000   0.0000   0.0000   0.2570
  -1.900  -0.2196   0.00951   0.00402   0.0027  0.7514  0.6954  -0.5826   0.0000   0.0000   0.0000   0.2570
  -1.800  -0.2080   0.00949   0.00400   0.0025  0.7496  0.6969  -0.5461   0.0000   0.0000   0.0000   0.2570
  -1.700  -0.1965   0.00948   0.00397   0.0024  0.7479  0.6985  -0.5338   0.0000   0.0000   0.0000   0.2571
  -1.600  -0.1850   0.00947   0.00393   0.0023  0.7464  0.7000  -0.5283   0.0000   0.0000   0.0000   0.2571
  -1.500  -0.1735   0.00946   0.00388   0.0021  0.7449  0.7016  -0.5227   0.0000   0.0000   0.0000   0.2572
  -1.400  -0.1621   0.00946   0.00383   0.0020  0.7436  0.7032  -0.5172   0.0000   0.0000   0.0000   0.2572
  -1.300  -0.1505   0.00945   0.00381   0.0019  0.7422  0.7043  -0.5117   0.0000   0.0000   0.0000   0.2574
  -1.200  -0.1389   0.00943   0.00382   0.0017  0.7404  0.7055  -0.5061   0.0000   0.0000   0.0000   0.2573
  -1.100  -0.1273   0.00942   0.00382   0.0016  0.7387  0.7068  -0.5006   0.0000   0.0000   0.0000   0.2573
  -1.000  -0.1157   0.00941   0.00381   0.0014  0.7371  0.7081  -0.4950   0.0000   0.0000   0.0000   0.2573
  -0.900  -0.1041   0.00941   0.00380   0.0013  0.7355  0.7095  -0.4896   0.0000   0.0000   0.0000   0.2573
  -0.800  -0.0925   0.00940   0.00379   0.0011  0.7341  0.7109  -0.4841   0.0000   0.0000   0.0000   0.2574
  -0.700  -0.0810   0.00940   0.00376   0.0010  0.7327  0.7124  -0.4787   0.0000   0.0000   0.0000   0.2575
  -0.600  -0.0694   0.00940   0.00373   0.0009  0.7314  0.7140  -0.4736   0.0000   0.0000   0.0000   0.2576
  -0.500  -0.0579   0.00940   0.00371   0.0007  0.7302  0.7157  -0.4685   0.0000   0.0000   0.0000   0.2577
  -0.400  -0.0463   0.00940   0.00370   0.0006  0.7286  0.7171  -0.4633   0.0000   0.0000   0.0000   0.2572
  -0.300  -0.0347   0.00938   0.00371   0.0004  0.7269  0.7183  -0.4579   0.0000   0.0000   0.0000   0.2570
  -0.200  -0.0232   0.00938   0.00372   0.0003  0.7252  0.7195  -0.4526   0.0000   0.0000   0.0000   0.2570
  -0.100  -0.0116   0.00937   0.00373   0.0001  0.7236  0.7208  -0.4473   0.0000   0.0000   0.0000   0.2570
   0.000   0.0000   0.00937   0.00373  -0.0000  0.7222  0.7222  -0.4420   0.0000   0.0000   0.0000   0.3433
   0.100   0.0116   0.00937   0.00373  -0.0001  0.7208  0.7237  -0.4473   0.0000   0.0000   0.0000   0.2570
   0.200   0.0232   0.00938   0.00372  -0.0003  0.7195  0.7252  -0.4526   0.0000   0.0000   0.0000   0.2570
   0.300   0.0347   0.00938   0.00371  -0.0004  0.7183  0.7269  -0.4579   0.0000   0.0000   0.0000   0.2570
   0.400   0.0463   0.00940   0.00370  -0.0006  0.7171  0.7286  -0.4633   0.0000   0.0000   0.0000   0.2572
   0.500   0.0579   0.00940   0.00371  -0.0007  0.7157  0.7302  -0.4685   0.0000   0.0000   0.0000   0.2577
   0.600   0.0694   0.00940   0.00373  -0.0009  0.7140  0.7314  -0.4736   0.0000   0.0000   0.0000   0.2576
   0.700   0.0810   0.00940   0.00376  -0.0010  0.7124  0.7327  -0.4787   0.0000   0.0000   0.0000   0.2575
   0.800   0.0925   0.00940   0.00379  -0.0011  0.7109  0.7341  -0.4841   0.0000   0.0000   0.0000   0.2574
   0.900   0.1041   0.00941   0.00380  -0.0013  0.7095  0.7355  -0.4896   0.0000   0.0000   0.0000   0.2573
   1.000   0.1157   0.00941   0.00381  -0.0014  0.7081  0.7371  -0.4950   0.0000   0.0000   0.0000   0.2573
   1.100   0.1273   0.00942   0.00382  -0.0016  0.7068  0.7387  -0.5006   0.0000   0.0000   0.0000   0.2573
   1.200   0.1389   0.00943   0.00382  -0.0017  0.7055  0.7404  -0.5061   0.0000   0.0000   0.0000   0.2573
   1.300   0.1505   0.00945   0.00381  -0.0019  0.7043  0.7422  -0.5117   0.0000   0.0000   0.0000   0.2574
   1.400   0.1621   0.00946   0.00383  -0.0020  0.7032  0.7436  -0.5172   0.0000   0.0000   0.0000   0.2572
   1.500   0.1735   0.00946   0.00388  -0.0021  0.7016  0.7449  -0.5227   0.0000   0.0000   0.0000   0.2572
   1.600   0.1850   0.00947   0.00393  -0.0023  0.7000  0.7464  -0.5283   0.0000   0.0000   0.0000   0.2571
   1.700   0.1965   0.00948   0.00397  -0.0024  0.6985  0.7479  -0.5338   0.0000   0.0000   0.0000   0.2571
   1.800   0.2080   0.00949   0.00400  -0.0025  0.6969  0.7496  -0.5461   0.0000   0.0000   0.0000   0.2570
   1.900   0.2196   0.00951   0.00402  -0.0027  0.6954  0.7514  -0.5826   0.0000   0.0000   0.0000   0.2570
   2.000   0.2312   0.00952   0.00403  -0.0028  0.6940  0.7533  -0.6195   0.0000   0.0000   0.0000   0.2570
   2.100   0.2428   0.00953   0.00403  -0.0030  0.6926  0.7552  -0.6569   0.0000   0.0000   0.0000   0.2570
   2.200   0.2543   0.00953   0.00405  -0.0030  0.6912  0.7566  -0.6946   0.0000   0.0000   0.0000   0.2568
   2.300   0.2658   0.00955   0.00407  -0.0031  0.6897  0.7579  -0.7348   0.0000   0.0000   0.0000   0.2564
   2.400   0.2771   0.00955   0.00412  -0.0032  0.6873  0.7594  -0.7777   0.0000   0.0000   0.0000   0.2563
   2.500   0.2884   0.00954   0.00416  -0.0033  0.6848  0.7611  -0.8213   0.0000   0.0000   0.0000   0.2560
   2.600   0.2998   0.00953   0.00417  -0.0033  0.6823  0.7630  -0.8657   0.0000   0.0000   0.0000   0.2558
   2.700   0.3112   0.00952   0.00415  -0.0034  0.6798  0.7650  -0.9107   0.0000   0.0000   0.0000   0.2556
   2.800   0.3228   0.00952   0.00412  -0.0035  0.6774  0.7671  -0.9564   0.0000   0.0000   0.0000   0.2553
   2.900   0.3339   0.00949   0.00412  -0.0035  0.6739  0.7688  -1.0019   0.0000   0.0000   0.0000   0.2549
   3.000   0.3449   0.00943   0.00409  -0.0034  0.6687  0.7703  -1.0476   0.0000   0.0000   0.0000   0.2543
   3.100   0.3558   0.00935   0.00399  -0.0032  0.6630  0.7719  -1.0944   0.0000   0.0000   0.0000   0.2534
   3.200   0.3665   0.00926   0.00393  -0.0030  0.6548  0.7736  -1.1406   0.0000   0.0000   0.0000   0.2526
   3.300   0.3773   0.00919   0.00381  -0.0028  0.6470  0.7755  -1.1878   0.0000   0.0000   0.0000   0.2518
   3.400   0.3880   0.00912   0.00375  -0.0027  0.6382  0.7776  -1.2351   0.0000   0.0000   0.0000   0.2513
   3.500   0.3991   0.00909   0.00371  -0.0027  0.6314  0.7797  -1.2833   0.0000   0.0000   0.0000   0.2509
   3.600   0.4101   0.00906   0.00371  -0.0027  0.6251  0.7813  -1.3316   0.0000   0.0000   0.0000   0.2506
   3.700   0.4211   0.00905   0.00370  -0.0026  0.6204  0.7829  -1.3804   0.0000   0.0000   0.0000   0.2503
   3.800   0.4321   0.00904   0.00374  -0.0026  0.6148  0.7846  -1.4296   0.0000   0.0000   0.0000   0.2500
   3.900   0.4431   0.00903   0.00374  -0.0026  0.6087  0.7866  -1.4791   0.0000   0.0000   0.0000   0.2498
   4.000   0.4541   0.00903   0.00375  -0.0026  0.6028  0.7888  -1.5290   0.0000   0.0000   0.0000   0.2495
   4.100   0.4653   0.00903   0.00377  -0.0026  0.5958  0.7912  -1.5794   0.0000   0.0000   0.0000   0.2494
   4.200   0.4762   0.00904   0.00377  -0.0026  0.5892  0.7931  -1.6297   0.0000   0.0000   0.0000   0.2491
   4.300   0.4870   0.00904   0.00381  -0.0025  0.5808  0.7948  -1.6801   0.0000   0.0000   0.0000   0.2488
   4.400   0.4977   0.00905   0.00383  -0.0024  0.5713  0.7967  -1.7304   0.0000   0.0000   0.0000   0.2485
   4.500   0.5081   0.00908   0.00385  -0.0023  0.5593  0.7988  -1.7864   0.0000   0.0000   0.0000   0.2481
   4.600   0.5185   0.00912   0.00388  -0.0022  0.5429  0.8011  -1.8435   0.0000   0.0000   0.0000   0.2477
   4.700   0.5284   0.00920   0.00389  -0.0020  0.5188  0.8035  -1.8996   0.0000   0.0000   0.0000   0.2472
   4.800   0.5366   0.00938   0.00392  -0.0016  0.4777  0.8054  -1.9516   0.0000   0.0000   0.0000   0.2462
   4.900   0.5413   0.00988   0.00409  -0.0007  0.4040  0.8074  -1.9937   0.0000   0.0000   0.0000   0.2444
   5.000   0.5442   0.01062   0.00443   0.0003  0.3232  0.8097  -2.0300   0.0000   0.0000   0.0000   0.2425
   5.100   0.5477   0.01133   0.00479   0.0011  0.2483  0.8123  -2.0671   0.0000   0.0000   0.0000   0.2409
   5.200   0.5517   0.01202   0.00513   0.0018  0.1796  0.8152  -2.1045   0.0000   0.0000   0.0000   0.2396
   5.300   0.5555   0.01267   0.00548   0.0026  0.1188  0.8173  -2.1406   0.0000   0.0000   0.0000   0.2381
   5.400   0.5604   0.01322   0.00581   0.0033  0.0797  0.8196  -2.1783   0.0000   0.0000   0.0000   0.2367
   5.600   0.5759   0.01384   0.00629   0.0041  0.0575  0.8249  -2.2678   0.0000   0.0000   0.0000   0.2353
   5.700   0.5848   0.01404   0.00649   0.0044  0.0534  0.8276  -2.3163   0.0000   0.0000   0.0000   0.2349
   5.800   0.5929   0.01426   0.00671   0.0048  0.0505  0.8297  -2.3647   0.0000   0.0000   0.0000   0.2343
   5.900   0.6014   0.01448   0.00694   0.0051  0.0484  0.8321  -2.4121   0.0000   0.0000   0.0000   0.2337
   6.000   0.6103   0.01465   0.00715   0.0054  0.0466  0.8348  -2.4624   0.0000   0.0000   0.0000   0.2333
   6.100   0.6192   0.01486   0.00735   0.0056  0.0450  0.8379  -2.5137   0.0000   0.0000   0.0000   0.2330
   6.200   0.6267   0.01510   0.00760   0.0061  0.0437  0.8400  -2.5609   0.0000   0.0000   0.0000   0.2322
   6.300   0.6338   0.01540   0.00791   0.0067  0.0425  0.8425  -2.6038   0.0000   0.0000   0.0000   0.2314
   6.400   0.6426   0.01556   0.00811   0.0070  0.0416  0.8453  -2.6544   0.0000   0.0000   0.0000   0.2310
   6.500   0.6514   0.01575   0.00831   0.0072  0.0405  0.8484  -2.7054   0.0000   0.0000   0.0000   0.2307
   6.600   0.6594   0.01594   0.00852   0.0076  0.0395  0.8507  -2.7560   0.0000   0.0000   0.0000   0.2301
   6.700   0.6673   0.01614   0.00874   0.0080  0.0386  0.8533  -2.8112   0.0000   0.0000   0.0000   0.2295
   6.800   0.6748   0.01638   0.00899   0.0085  0.0377  0.8564  -2.8704   0.0000   0.0000   0.0000   0.2289
   6.900   0.6808   0.01674   0.00935   0.0091  0.0369  0.8597  -2.9219   0.0000   0.0000   0.0000   0.2280
   7.000   0.6863   0.01710   0.00972   0.0099  0.0363  0.8625  -2.9695   0.0000   0.0000   0.0000   0.2269
   7.100   0.6942   0.01729   0.00995   0.0103  0.0359  0.8657  -3.0283   0.0000   0.0000   0.0000   0.2263
   7.200   0.7021   0.01751   0.01020   0.0107  0.0354  0.8693  -3.0869   0.0000   0.0000   0.0000   0.2258
   7.300   0.7090   0.01773   0.01046   0.0113  0.0350  0.8720  -3.1427   0.0000   0.0000   0.0000   0.2250
   7.400   0.7161   0.01797   0.01074   0.0118  0.0345  0.8754  -3.1991   0.0000   0.0000   0.0000   0.2243
   7.500   0.7234   0.01822   0.01101   0.0123  0.0341  0.8792  -3.2567   0.0000   0.0000   0.0000   0.2237
   7.600   0.7299   0.01846   0.01128   0.0130  0.0336  0.8821  -3.3121   0.0000   0.0000   0.0000   0.2228
   7.700   0.7364   0.01870   0.01154   0.0136  0.0332  0.8858  -3.3680   0.0000   0.0000   0.0000   0.2220
   7.800   0.7426   0.01894   0.01181   0.0143  0.0329  0.8895  -3.4238   0.0000   0.0000   0.0000   0.2212
   7.900   0.7483   0.01919   0.01207   0.0151  0.0325  0.8931  -3.4780   0.0000   0.0000   0.0000   0.2201
   8.000   0.7545   0.01946   0.01236   0.0157  0.0321  0.8974  -3.5343   0.0000   0.0000   0.0000   0.2194
   8.100   0.7600   0.01974   0.01266   0.0165  0.0318  0.9009  -3.5880   0.0000   0.0000   0.0000   0.2183
   8.200   0.7661   0.02008   0.01301   0.0172  0.0315  0.9053  -3.6427   0.0000   0.0000   0.0000   0.2175
   8.300   0.7718   0.02048   0.01342   0.0179  0.0311  0.9092  -3.6938   0.0000   0.0000   0.0000   0.2166
   8.400   0.7787   0.02105   0.01398   0.0185  0.0308  0.9133  -3.7422   0.0000   0.0000   0.0000   0.2160
   8.500   0.7864   0.02151   0.01446   0.0190  0.0305  0.9171  -3.7938   0.0000   0.0000   0.0000   0.2155
   8.600   0.7932   0.02172   0.01472   0.0197  0.0303  0.9221  -3.8503   0.0000   0.0000   0.0000   0.2148
   8.700   0.7995   0.02192   0.01499   0.0205  0.0301  0.9270  -3.9049   0.0000   0.0000   0.0000   0.2139
   8.800   0.8059   0.02215   0.01527   0.0212  0.0298  0.9325  -3.9600   0.0000   0.0000   0.0000   0.2131
   8.900   0.8122   0.02238   0.01555   0.0219  0.0294  0.9385  -4.0150   0.0000   0.0000   0.0000   0.2122
   9.000   0.8185   0.02262   0.01583   0.0227  0.0290  0.9450  -4.0702   0.0000   0.0000   0.0000   0.2114
   9.100   0.8252   0.02287   0.01613   0.0234  0.0287  0.9519  -4.1277   0.0000   0.0000   0.0000   0.2107
   9.200   0.8333   0.02315   0.01645   0.0237  0.0282  0.9590  -4.1904   0.0000   0.0000   0.0000   0.2105
   9.300   0.8433   0.02347   0.01680   0.0237  0.0278  0.9659  -4.2604   0.0000   0.0000   0.0000   0.2108
   9.400   0.8550   0.02386   0.01721   0.0232  0.0275  0.9725  -4.3349   0.0000   0.0000   0.0000   0.2115
   9.500   0.8677   0.02428   0.01766   0.0226  0.0271  0.9791  -4.4142   0.0000   0.0000   0.0000   0.2126
   9.600   0.8810   0.02473   0.01813   0.0219  0.0268  0.9870  -4.5086   0.0000   0.0000   0.0000   0.2137
   9.700   0.8930   0.02517   0.01859   0.0213  0.0265  1.0000  -4.5990   0.0000   0.0000   0.0000   0.2146
   9.800   0.9034   0.02563   0.01906   0.0211  0.0262  1.0000  -4.6834   0.0000   0.0000   0.0000   0.2150
   9.900   0.9145   0.02617   0.01960   0.0208  0.0260  1.0000  -4.7698   0.0000   0.0000   0.0000   0.2156
  10.000   0.9273   0.02688   0.02031   0.0202  0.0257  1.0000  -4.8586   0.0000   0.0000   0.0000   0.2163
  10.100   0.9434   0.02807   0.02153   0.0192  0.0253  1.0000  -4.9461   0.0000   0.0000   0.0000   0.2177
  10.200   0.9569   0.02950   0.02303   0.0186  0.0251  1.0000  -5.0081   0.0000   0.0000   0.0000   0.2186
  10.300   0.9640   0.02990   0.02350   0.0188  0.0250  1.0000  -5.0738   0.0000   0.0000   0.0000   0.2184
  10.400   0.9712   0.03037   0.02405   0.0191  0.0249  1.0000  -5.1374   0.0000   0.0000   0.0000   0.2182
  10.500   0.9784   0.03090   0.02467   0.0193  0.0248  1.0000  -5.1983   0.0000   0.0000   0.0000   0.2180
  10.600   0.9854   0.03149   0.02535   0.0195  0.0246  1.0000  -5.2560   0.0000   0.0000   0.0000   0.2178
  10.700   0.9920   0.03215   0.02609   0.0198  0.0245  1.0000  -5.3098   0.0000   0.0000   0.0000   0.2175
  10.800   0.9982   0.03286   0.02689   0.0202  0.0244  1.0000  -5.3594   0.0000   0.0000   0.0000   0.2171
  10.900   1.0041   0.03363   0.02776   0.0206  0.0242  1.0000  -5.4047   0.0000   0.0000   0.0000   0.2168
  11.000   1.0093   0.03446   0.02870   0.0210  0.0241  1.0000  -5.4448   0.0000   0.0000   0.0000   0.2163
  11.100   1.0137   0.03532   0.02966   0.0215  0.0240  1.0000  -5.4798   0.0000   0.0000   0.0000   0.2158
  11.200   1.0172   0.03618   0.03063   0.0222  0.0239  1.0000  -5.5109   0.0000   0.0000   0.0000   0.2151
  11.300   1.0197   0.03705   0.03161   0.0229  0.0237  1.0000  -5.5385   0.0000   0.0000   0.0000   0.2143
  11.400   1.0215   0.03793   0.03259   0.0236  0.0236  1.0000  -5.5634   0.0000   0.0000   0.0000   0.2135
  11.500   1.0227   0.03883   0.03358   0.0244  0.0234  1.0000  -5.5861   0.0000   0.0000   0.0000   0.2126
  11.600   1.0233   0.03974   0.03459   0.0252  0.0232  1.0000  -5.6072   0.0000   0.0000   0.0000   0.2117
  11.700   1.0235   0.04066   0.03561   0.0259  0.0230  1.0000  -5.6269   0.0000   0.0000   0.0000   0.2109
  11.800   1.0233   0.04162   0.03666   0.0267  0.0229  1.0000  -5.6450   0.0000   0.0000   0.0000   0.2100
  11.900   1.0226   0.04261   0.03774   0.0274  0.0227  1.0000  -5.6603   0.0000   0.0000   0.0000   0.2091
  12.000   1.0212   0.04366   0.03889   0.0281  0.0226  1.0000  -5.6707   0.0000   0.0000   0.0000   0.2082
  12.100   1.0189   0.04483   0.04015   0.0289  0.0226  1.0000  -5.6727   0.0000   0.0000   0.0000   0.2072
  12.200   1.0152   0.04617   0.04160   0.0296  0.0226  1.0000  -5.6604   0.0000   0.0000   0.0000   0.2062
  12.300   1.0101   0.04765   0.04321   0.0304  0.0226  1.0000  -5.6366   0.0000   0.0000   0.0000   0.2052
  12.400   1.0041   0.04923   0.04490   0.0311  0.0227  1.0000  -5.6064   0.0000   0.0000   0.0000   0.2041
  12.500   0.9973   0.05089   0.04668   0.0317  0.0228  1.0000  -5.5711   0.0000   0.0000   0.0000   0.2031
  12.600   0.9898   0.05264   0.04853   0.0322  0.0229  1.0000  -5.5323   0.0000   0.0000   0.0000   0.2021
  12.700   0.9819   0.05444   0.05044   0.0326  0.0230  1.0000  -5.4920   0.0000   0.0000   0.0000   0.2013
  12.800   0.9737   0.05628   0.05239   0.0329  0.0231  1.0000  -5.4513   0.0000   0.0000   0.0000   0.2005
  12.900   0.9652   0.05817   0.05438   0.0331  0.0232  1.0000  -5.4110   0.0000   0.0000   0.0000   0.1998
  13.000   0.9566   0.06011   0.05640   0.0332  0.0234  1.0000  -5.3711   0.0000   0.0000   0.0000   0.1992
  13.100   0.9478   0.06209   0.05847   0.0331  0.0235  1.0000  -5.3317   0.0000   0.0000   0.0000   0.1988
  13.200   0.9390   0.06413   0.06060   0.0329  0.0236  1.0000  -5.2926   0.0000   0.0000   0.0000   0.1984
  13.300   0.9301   0.06623   0.06277   0.0325  0.0237  1.0000  -5.2537   0.0000   0.0000   0.0000   0.1983
  13.400   0.9211   0.06838   0.06500   0.0320  0.0238  1.0000  -5.2149   0.0000   0.0000   0.0000   0.1982
  13.500   0.9120   0.07061   0.06729   0.0314  0.0240  1.0000  -5.1758   0.0000   0.0000   0.0000   0.1983
  13.600   0.9030   0.07292   0.06966   0.0307  0.0241  1.0000  -5.1364   0.0000   0.0000   0.0000   0.1986
  13.700   0.8938   0.07529   0.07209   0.0298  0.0242  1.0000  -5.0965   0.0000   0.0000   0.0000   0.1990
  13.800   0.8847   0.07774   0.07460   0.0288  0.0243  1.0000  -5.0561   0.0000   0.0000   0.0000   0.1995
  13.900   0.8758   0.08027   0.07719   0.0277  0.0244  1.0000  -5.0154   0.0000   0.0000   0.0000   0.2002
  14.000   0.8671   0.08287   0.07983   0.0265  0.0245  1.0000  -4.9755   0.0000   0.0000   0.0000   0.2010
  14.100   0.8593   0.08545   0.08245   0.0253  0.0246  1.0000  -4.9404   0.0000   0.0000   0.0000   0.2019
  18.000   0.7246   0.21048   0.20788  -0.0455  0.0235  1.0000  -2.0512   0.0000   0.0000   0.0000   0.2901
  18.100   0.7273   0.21213   0.20952  -0.0465  0.0230  1.0000  -2.0401   0.0000   0.0000   0.0000   0.2911
  18.200   0.7301   0.21367   0.21106  -0.0475  0.0227  1.0000  -2.0353   0.0000   0.0000   0.0000   0.2920
  18.300   0.7331   0.21515   0.21254  -0.0484  0.0224  1.0000  -2.0346   0.0000   0.0000   0.0000   0.2928
  18.400   0.7361   0.21657   0.21396  -0.0493  0.0221  1.0000  -2.0372   0.0000   0.0000   0.0000   0.2936
  18.500   0.7393   0.21795   0.21534  -0.0501  0.0218  1.0000  -2.0429   0.0000   0.0000   0.0000   0.2943
  18.600   0.7425   0.21928   0.21667  -0.0509  0.0216  1.0000  -2.0516   0.0000   0.0000   0.0000   0.2949
  18.700   0.7458   0.22056   0.21796  -0.0517  0.0214  1.0000  -2.0692   0.0000   0.0000   0.0000   0.2955
  18.800   0.7492   0.22180   0.21920  -0.0525  0.0212  1.0000  -2.0904   0.0000   0.0000   0.0000   0.2960
  18.900   0.7527   0.22300   0.22040  -0.0532  0.0210  1.0000  -2.1151   0.0000   0.0000   0.0000   0.2965
  19.000   0.7564   0.22415   0.22155  -0.0539  0.0209  1.0000  -2.1437   0.0000   0.0000   0.0000   0.2968
  19.100   0.7601   0.22526   0.22266  -0.0545  0.0208  1.0000  -2.1770   0.0000   0.0000   0.0000   0.2971
  19.200   0.7641   0.22633   0.22374  -0.0550  0.0206  1.0000  -2.2157   0.0000   0.0000   0.0000   0.2972
  19.300   0.7684   0.22737   0.22478  -0.0554  0.0205  1.0000  -2.2611   0.0000   0.0000   0.0000   0.2972
  19.400   0.7731   0.22840   0.22582  -0.0557  0.0204  1.0000  -2.3157   0.0000   0.0000   0.0000   0.2968
  19.500   0.7782   0.22946   0.22688  -0.0558  0.0203  1.0000  -2.3781   0.0000   0.0000   0.0000   0.2963
  19.600   0.7828   0.23082   0.22825  -0.0557  0.0202  1.0000  -2.4428   0.0000   0.0000   0.0000   0.2956
  19.700   0.7854   0.23292   0.23034  -0.0565  0.0201  1.0000  -2.4303   0.0000   0.0000   0.0000   0.2963
  19.800   0.7874   0.23480   0.23221  -0.0579  0.0201  1.0000  -2.3923   0.0000   0.0000   0.0000   0.2977
  19.900   0.7894   0.23665   0.23407  -0.0592  0.0200  1.0000  -2.3517   0.0000   0.0000   0.0000   0.2991
  20.000   0.7911   0.23851   0.23592  -0.0607  0.0200  1.0000  -2.3026   0.0000   0.0000   0.0000   0.3007
  20.100   0.7916   0.24044   0.23785  -0.0627  0.0199  1.0000  -2.2258   0.0000   0.0000   0.0000   0.3029
  20.200   0.7913   0.24273   0.24013  -0.0652  0.0197  1.0000  -2.1019   0.0000   0.0000   0.0000   0.3060
  20.300   0.7931   0.24502   0.24241  -0.0671  0.0191  1.0000  -2.0095   0.0000   0.0000   0.0000   0.3082
  20.400   0.7962   0.24664   0.24403  -0.0682  0.0187  1.0000  -1.9905   0.0000   0.0000   0.0000   0.3091
  20.500   0.7993   0.24811   0.24550  -0.0692  0.0184  1.0000  -1.9833   0.0000   0.0000   0.0000   0.3098
  20.600   0.8025   0.24955   0.24694  -0.0702  0.0181  1.0000  -1.9808   0.0000   0.0000   0.0000   0.3105
  20.700   0.8058   0.25095   0.24834  -0.0711  0.0179  1.0000  -1.9811   0.0000   0.0000   0.0000   0.3112
  20.800   0.8091   0.25231   0.24971  -0.0721  0.0176  1.0000  -1.9835   0.0000   0.0000   0.0000   0.3118
  20.900   0.8124   0.25364   0.25104  -0.0730  0.0174  1.0000  -1.9884   0.0000   0.0000   0.0000   0.3124
  21.000   0.8157   0.25494   0.25233  -0.0739  0.0172  1.0000  -1.9958   0.0000   0.0000   0.0000   0.3130
  21.100   0.8191   0.25620   0.25359  -0.0748  0.0170  1.0000  -2.0060   0.0000   0.0000   0.0000   0.3135
  21.200   0.8224   0.25742   0.25482  -0.0757  0.0168  1.0000  -2.0190   0.0000   0.0000   0.0000   0.3140
  21.300   0.8259   0.25860   0.25600  -0.0765  0.0166  1.0000  -2.0351   0.0000   0.0000   0.0000   0.3144
  21.400   0.8293   0.25975   0.25715  -0.0773  0.0165  1.0000  -2.0547   0.0000   0.0000   0.0000   0.3148
  21.500   0.8328   0.26087   0.25827  -0.0781  0.0163  1.0000  -2.0777   0.0000   0.0000   0.0000   0.3152
  21.600   0.8364   0.26198   0.25939  -0.0789  0.0162  1.0000  -2.1045   0.0000   0.0000   0.0000   0.3154
  21.700   0.8400   0.26305   0.26046  -0.0796  0.0161  1.0000  -2.1354   0.0000   0.0000   0.0000   0.3156
  21.800   0.8437   0.26410   0.26152  -0.0802  0.0160  1.0000  -2.1707   0.0000   0.0000   0.0000   0.3158
  21.900   0.8476   0.26517   0.26259  -0.0808  0.0159  1.0000  -2.2109   0.0000   0.0000   0.0000   0.3157
  22.000   0.8517   0.26630   0.26372  -0.0812  0.0158  1.0000  -2.2572   0.0000   0.0000   0.0000   0.3156
  22.100   0.8563   0.26756   0.26499  -0.0814  0.0157  1.0000  -2.3125   0.0000   0.0000   0.0000   0.3151
  22.200   0.8616   0.26943   0.26686  -0.0812  0.0156  1.0000  -2.3831   0.0000   0.0000   0.0000   0.3141
  22.300   0.8647   0.27132   0.26875  -0.0821  0.0156  1.0000  -2.3774   0.0000   0.0000   0.0000   0.3146
  22.400   0.8673   0.27283   0.27026  -0.0833  0.0155  1.0000  -2.3576   0.0000   0.0000   0.0000   0.3155
  22.500   0.8699   0.27430   0.27172  -0.0846  0.0155  1.0000  -2.3365   0.0000   0.0000   0.0000   0.3165
  22.600   0.8723   0.27575   0.27317  -0.0859  0.0155  1.0000  -2.3086   0.0000   0.0000   0.0000   0.3176
  22.700   0.8744   0.27718   0.27460  -0.0874  0.0155  1.0000  -2.2719   0.0000   0.0000   0.0000   0.3188
  22.800   0.8766   0.27863   0.27605  -0.0888  0.0155  1.0000  -2.2328   0.0000   0.0000   0.0000   0.3201
  22.900   0.8789   0.28010   0.27752  -0.0904  0.0154  1.0000  -2.1899   0.0000   0.0000   0.0000   0.3214
  23.000   0.8812   0.28164   0.27905  -0.0919  0.0154  1.0000  -2.1406   0.0000   0.0000   0.0000   0.3227
  23.100   0.8838   0.28329   0.28071  -0.0936  0.0152  1.0000  -2.0807   0.0000   0.0000   0.0000   0.3241
  23.200   0.8870   0.28506   0.28247  -0.0951  0.0150  1.0000  -2.0227   0.0000   0.0000   0.0000   0.3253
  23.300   0.8903   0.28662   0.28403  -0.0963  0.0146  1.0000  -1.9969   0.0000   0.0000   0.0000   0.3261
  23.400   0.8936   0.28805   0.28547  -0.0973  0.0143  1.0000  -1.9872   0.0000   0.0000   0.0000   0.3267
  23.500   0.8970   0.28938   0.28680  -0.0984  0.0141  1.0000  -1.9833   0.0000   0.0000   0.0000   0.3272
  23.600   0.9003   0.29073   0.28814  -0.0994  0.0138  1.0000  -1.9822   0.0000   0.0000   0.0000   0.3277
  23.700   0.9036   0.29204   0.28946  -0.1003  0.0136  1.0000  -1.9832   0.0000   0.0000   0.0000   0.3282
  23.800   0.9068   0.29332   0.29074  -0.1013  0.0134  1.0000  -1.9856   0.0000   0.0000   0.0000   0.3286
  23.900   0.9101   0.29458   0.29201  -0.1023  0.0132  1.0000  -1.9894   0.0000   0.0000   0.0000   0.3291
  24.000   0.9134   0.29583   0.29325  -0.1033  0.0131  1.0000  -1.9944   0.0000   0.0000   0.0000   0.3295
  24.100   0.9167   0.29705   0.29448  -0.1043  0.0129  1.0000  -2.0006   0.0000   0.0000   0.0000   0.3300
  24.200   0.9200   0.29825   0.29568  -0.1052  0.0128  1.0000  -2.0080   0.0000   0.0000   0.0000   0.3304
  24.300   0.9233   0.29943   0.29686  -0.1062  0.0126  1.0000  -2.0173   0.0000   0.0000   0.0000   0.3308
  24.400   0.9265   0.30059   0.29802  -0.1071  0.0125  1.0000  -2.0284   0.0000   0.0000   0.0000   0.3312
  24.500   0.9298   0.30172   0.29915  -0.1081  0.0124  1.0000  -2.0417   0.0000   0.0000   0.0000   0.3315
  24.600   0.9330   0.30282   0.30026  -0.1090  0.0123  1.0000  -2.0573   0.0000   0.0000   0.0000   0.3319
  24.700   0.9363   0.30395   0.30139  -0.1099  0.0122  1.0000  -2.0754   0.0000   0.0000   0.0000   0.3322
  24.800   0.9395   0.30502   0.30246  -0.1108  0.0121  1.0000  -2.0962   0.0000   0.0000   0.0000   0.3325
  24.900   0.9428   0.30607   0.30352  -0.1117  0.0120  1.0000  -2.1201   0.0000   0.0000   0.0000   0.3327
  25.000   0.9461   0.30711   0.30456  -0.1125  0.0119  1.0000  -2.1472   0.0000   0.0000   0.0000   0.3329
  25.100   0.9493   0.30817   0.30562  -0.1132  0.0118  1.0000  -2.1784   0.0000   0.0000   0.0000   0.3331
  25.200   0.9527   0.30925   0.30671  -0.1139  0.0117  1.0000  -2.2164   0.0000   0.0000   0.0000   0.3331
  25.300   0.9562   0.31043   0.30789  -0.1145  0.0117  1.0000  -2.2597   0.0000   0.0000   0.0000   0.3331
  25.400   0.9599   0.31182   0.30930  -0.1149  0.0116  1.0000  -2.3108   0.0000   0.0000   0.0000   0.3328
  25.500   0.9645   0.31405   0.31153  -0.1148  0.0115  1.0000  -2.3813   0.0000   0.0000   0.0000   0.3319
  25.600   0.9675   0.31572   0.31319  -0.1158  0.0115  1.0000  -2.3768   0.0000   0.0000   0.0000   0.3323
  25.700   0.9701   0.31692   0.31439  -0.1171  0.0115  1.0000  -2.3552   0.0000   0.0000   0.0000   0.3331
  25.800   0.9727   0.31813   0.31560  -0.1184  0.0115  1.0000  -2.3337   0.0000   0.0000   0.0000   0.3339
  25.900   0.9754   0.31939   0.31686  -0.1197  0.0115  1.0000  -2.3120   0.0000   0.0000   0.0000   0.3346
  26.000   0.9781   0.32059   0.31806  -0.1210  0.0115  1.0000  -2.2901   0.0000   0.0000   0.0000   0.3354
  26.100   0.9808   0.32180   0.31927  -0.1224  0.0114  1.0000  -2.2675   0.0000   0.0000   0.0000   0.3362
  26.200   0.9836   0.32302   0.32049  -0.1237  0.0114  1.0000  -2.2441   0.0000   0.0000   0.0000   0.3369
  26.300   0.9864   0.32425   0.32172  -0.1250  0.0114  1.0000  -2.2197   0.0000   0.0000   0.0000   0.3377
  26.400   0.9893   0.32550   0.32297  -0.1263  0.0114  1.0000  -2.1939   0.0000   0.0000   0.0000   0.3384
  26.500   0.9922   0.32678   0.32425  -0.1276  0.0113  1.0000  -2.1664   0.0000   0.0000   0.0000   0.3391
  26.600   0.9953   0.32812   0.32559  -0.1289  0.0113  1.0000  -2.1367   0.0000   0.0000   0.0000   0.3399
  26.700   0.9985   0.32947   0.32694  -0.1302  0.0112  1.0000  -2.1053   0.0000   0.0000   0.0000   0.3405
  26.800   1.0018   0.33088   0.32835  -0.1315  0.0111  1.0000  -2.0743   0.0000   0.0000   0.0000   0.3412
  26.900   1.0051   0.33227   0.32975  -0.1327  0.0109  1.0000  -2.0495   0.0000   0.0000   0.0000   0.3417
  27.000   1.0084   0.33361   0.33108  -0.1338  0.0107  1.0000  -2.0348   0.0000   0.0000   0.0000   0.3421
  27.100   1.0116   0.33489   0.33237  -0.1349  0.0105  1.0000  -2.0269   0.0000   0.0000   0.0000   0.3425
  27.200   1.0148   0.33606   0.33354  -0.1359  0.0104  1.0000  -2.0230   0.0000   0.0000   0.0000   0.3429
  27.300   1.0178   0.33730   0.33478  -0.1370  0.0102  1.0000  -2.0214   0.0000   0.0000   0.0000   0.3433
  27.400   1.0209   0.33850   0.33599  -0.1380  0.0100  1.0000  -2.0217   0.0000   0.0000   0.0000   0.3436
  27.500   1.0240   0.33967   0.33716  -0.1391  0.0098  1.0000  -2.0234   0.0000   0.0000   0.0000   0.3440
  27.600   1.0270   0.34082   0.33831  -0.1401  0.0096  1.0000  -2.0267   0.0000   0.0000   0.0000   0.3443
  27.700   1.0300   0.34195   0.33944  -0.1411  0.0095  1.0000  -2.0313   0.0000   0.0000   0.0000   0.3447
  27.800   1.0330   0.34305   0.34055  -0.1422  0.0093  1.0000  -2.0372   0.0000   0.0000   0.0000   0.3450
  27.900   1.0360   0.34414   0.34164  -0.1432  0.0092  1.0000  -2.0443   0.0000   0.0000   0.0000   0.3453
  28.000   1.0390   0.34522   0.34272  -0.1442  0.0090  1.0000  -2.0525   0.0000   0.0000   0.0000   0.3456
  28.100   1.0419   0.34628   0.34379  -0.1452  0.0089  1.0000  -2.0617   0.0000   0.0000   0.0000   0.3459
  28.200   1.0448   0.34734   0.34485  -0.1463  0.0088  1.0000  -2.0716   0.0000   0.0000   0.0000   0.3462
  28.300   1.0477   0.34836   0.34587  -0.1473  0.0087  1.0000  -2.0820   0.0000   0.0000   0.0000   0.3465
  28.400   1.0506   0.34936   0.34687  -0.1483  0.0086  1.0000  -2.0937   0.0000   0.0000   0.0000   0.3468
  28.500   1.0535   0.35036   0.34787  -0.1493  0.0086  1.0000  -2.1067   0.0000   0.0000   0.0000   0.3471
  28.600   1.0563   0.35134   0.34886  -0.1503  0.0085  1.0000  -2.1212   0.0000   0.0000   0.0000   0.3474
  28.700   1.0591   0.35240   0.34993  -0.1513  0.0084  1.0000  -2.1387   0.0000   0.0000   0.0000   0.3476
  28.800   1.0619   0.35338   0.35090  -0.1523  0.0084  1.0000  -2.1615   0.0000   0.0000   0.0000   0.3479
  28.900   1.0647   0.35435   0.35188  -0.1532  0.0083  1.0000  -2.1861   0.0000   0.0000   0.0000   0.3481
  29.000   1.0674   0.35532   0.35285  -0.1541  0.0083  1.0000  -2.2127   0.0000   0.0000   0.0000   0.3483
  29.100   1.0701   0.35632   0.35385  -0.1550  0.0082  1.0000  -2.2414   0.0000   0.0000   0.0000   0.3484
  29.200   1.0729   0.35736   0.35490  -0.1559  0.0082  1.0000  -2.2729   0.0000   0.0000   0.0000   0.3485
  29.300   1.0756   0.35850   0.35605  -0.1566  0.0081  1.0000  -2.3077   0.0000   0.0000   0.0000   0.3485
  29.400   1.0785   0.35987   0.35742  -0.1573  0.0081  1.0000  -2.3474   0.0000   0.0000   0.0000   0.3484
  29.500   1.0816   0.36188   0.35944  -0.1576  0.0080  1.0000  -2.3960   0.0000   0.0000   0.0000   0.3480
  29.800   0.6920   0.32984   0.32804  -0.1003  0.0081  1.0000  -1.2438   0.0000   0.0000   0.0000   0.3636
  29.900   0.6940   0.33152   0.32973  -0.1007  0.0081  1.0000  -1.2728   0.0000   0.0000   0.0000   0.3635


