xflr5 v6.61

 Calculated polar for: NACA 65(1)-212

 1 1 Reynolds number fixed          Mach number fixed         

 xtrf =   1.000 (top)        1.000 (bottom)
 Mach =   0.000     Re =     0.563 e 6     Ncrit =   9.000

  alpha     CL        CD       CDp       Cm    Top Xtr Bot Xtr   Cpmin    Chinge    XCp    
 ------- -------- --------- --------- -------- ------- ------- -------- --------- ---------
 -10.000  -0.7214   0.03916   0.03572  -0.0551  0.9988  0.0079  -5.7205   0.0000   0.0000   0.0000   0.1646
  -9.900  -0.7404   0.03631   0.03265  -0.0531  0.9960  0.0078  -5.9381   0.0000   0.0000   0.0000   0.1693
  -9.800  -0.7567   0.03268   0.02869  -0.0513  0.9920  0.0076  -6.1897   0.0000   0.0000   0.0000   0.1733
  -9.700  -0.7634   0.02986   0.02557  -0.0501  0.9882  0.0076  -6.3290   0.0000   0.0000   0.0000   0.1754
  -9.600  -0.7627   0.02793   0.02342  -0.0496  0.9850  0.0076  -6.3598   0.0000   0.0000   0.0000   0.1762
  -9.500  -0.7581   0.02652   0.02184  -0.0493  0.9822  0.0077  -6.3290   0.0000   0.0000   0.0000   0.1762
  -9.400  -0.7512   0.02542   0.02062  -0.0493  0.9797  0.0078  -6.2613   0.0000   0.0000   0.0000   0.1757
  -9.300  -0.7427   0.02456   0.01965  -0.0495  0.9774  0.0079  -6.1681   0.0000   0.0000   0.0000   0.1748
  -9.200  -0.7330   0.02389   0.01889  -0.0497  0.9753  0.0080  -6.0557   0.0000   0.0000   0.0000   0.1736
  -9.100  -0.7223   0.02337   0.01831  -0.0501  0.9734  0.0082  -5.9285   0.0000   0.0000   0.0000   0.1722
  -9.000  -0.7110   0.02300   0.01788  -0.0506  0.9714  0.0083  -5.7901   0.0000   0.0000   0.0000   0.1705
  -8.900  -0.6991   0.02275   0.01759  -0.0511  0.9694  0.0083  -5.6438   0.0000   0.0000   0.0000   0.1687
  -8.800  -0.6952   0.02036   0.01495  -0.0508  0.9666  0.0090  -5.6529   0.0000   0.0000   0.0000   0.1687
  -8.700  -0.6837   0.02004   0.01463  -0.0513  0.9643  0.0093  -5.5106   0.0000   0.0000   0.0000   0.1668
  -8.600  -0.6714   0.01993   0.01453  -0.0519  0.9619  0.0095  -5.3554   0.0000   0.0000   0.0000   0.1646
  -8.500  -0.6590   0.01989   0.01450  -0.0526  0.9591  0.0097  -5.1975   0.0000   0.0000   0.0000   0.1623
  -8.400  -0.6467   0.01988   0.01452  -0.0532  0.9557  0.0099  -5.0409   0.0000   0.0000   0.0000   0.1599
  -8.300  -0.6348   0.01991   0.01456  -0.0537  0.9514  0.0101  -4.8887   0.0000   0.0000   0.0000   0.1577
  -8.200  -0.6262   0.01992   0.01458  -0.0534  0.9489  0.0103  -4.7595   0.0000   0.0000   0.0000   0.1571
  -8.100  -0.6183   0.01992   0.01459  -0.0530  0.9469  0.0106  -4.6357   0.0000   0.0000   0.0000   0.1568
  -8.000  -0.6102   0.01994   0.01461  -0.0526  0.9445  0.0108  -4.5108   0.0000   0.0000   0.0000   0.1564
  -7.900  -0.6018   0.01998   0.01466  -0.0522  0.9418  0.0112  -4.3828   0.0000   0.0000   0.0000   0.1559
  -7.700  -0.5795   0.02200   0.01685  -0.0522  0.9358  0.0129  -3.8771   0.0000   0.0000   0.0000   0.1528
  -7.600  -0.5708   0.02205   0.01689  -0.0519  0.9323  0.0131  -3.7756   0.0000   0.0000   0.0000   0.1522
  -7.500  -0.5618   0.02216   0.01699  -0.0516  0.9287  0.0132  -3.6708   0.0000   0.0000   0.0000   0.1513
  -7.400  -0.5526   0.02235   0.01717  -0.0513  0.9249  0.0134  -3.5623   0.0000   0.0000   0.0000   0.1504
  -7.300  -0.5432   0.02268   0.01750  -0.0510  0.9211  0.0135  -3.4462   0.0000   0.0000   0.0000   0.1495
  -7.200  -0.5424   0.01979   0.01434  -0.0497  0.9165  0.0141  -3.5758   0.0000   0.0000   0.0000   0.1517
  -7.100  -0.5360   0.01869   0.01313  -0.0490  0.9120  0.0145  -3.5741   0.0000   0.0000   0.0000   0.1519
  -7.000  -0.5283   0.01801   0.01238  -0.0486  0.9070  0.0149  -3.5405   0.0000   0.0000   0.0000   0.1514
  -6.900  -0.5196   0.01753   0.01185  -0.0483  0.9014  0.0152  -3.4918   0.0000   0.0000   0.0000   0.1504
  -6.800  -0.5112   0.01713   0.01143  -0.0480  0.8993  0.0154  -3.4364   0.0000   0.0000   0.0000   0.1495
  -6.700  -0.5027   0.01680   0.01107  -0.0477  0.8978  0.0157  -3.3768   0.0000   0.0000   0.0000   0.1487
  -6.600  -0.4940   0.01650   0.01076  -0.0474  0.8959  0.0159  -3.3147   0.0000   0.0000   0.0000   0.1477
  -6.500  -0.4852   0.01624   0.01048  -0.0471  0.8938  0.0161  -3.2512   0.0000   0.0000   0.0000   0.1467
  -6.400  -0.4763   0.01599   0.01021  -0.0468  0.8914  0.0163  -3.1874   0.0000   0.0000   0.0000   0.1456
  -6.300  -0.4674   0.01575   0.00996  -0.0465  0.8888  0.0165  -3.1239   0.0000   0.0000   0.0000   0.1444
  -6.200  -0.4585   0.01552   0.00971  -0.0462  0.8861  0.0167  -3.0614   0.0000   0.0000   0.0000   0.1431
  -6.100  -0.4495   0.01529   0.00946  -0.0459  0.8833  0.0169  -3.0003   0.0000   0.0000   0.0000   0.1418
  -6.000  -0.4405   0.01506   0.00922  -0.0456  0.8803  0.0171  -2.9407   0.0000   0.0000   0.0000   0.1405
  -5.900  -0.4315   0.01483   0.00896  -0.0452  0.8772  0.0173  -2.8835   0.0000   0.0000   0.0000   0.1392
  -5.800  -0.4226   0.01459   0.00869  -0.0449  0.8741  0.0175  -2.8306   0.0000   0.0000   0.0000   0.1378
  -5.700  -0.4141   0.01422   0.00825  -0.0444  0.8708  0.0173  -2.8056   0.0000   0.0000   0.0000   0.1369
  -5.600  -0.4052   0.01403   0.00803  -0.0441  0.8675  0.0175  -2.7462   0.0000   0.0000   0.0000   0.1354
  -5.500  -0.3961   0.01385   0.00782  -0.0437  0.8638  0.0178  -2.6869   0.0000   0.0000   0.0000   0.1337
  -5.400  -0.3869   0.01368   0.00763  -0.0435  0.8597  0.0180  -2.6272   0.0000   0.0000   0.0000   0.1319
  -5.300  -0.3774   0.01353   0.00745  -0.0433  0.8551  0.0183  -2.5662   0.0000   0.0000   0.0000   0.1296
  -5.200  -0.3676   0.01339   0.00729  -0.0432  0.8504  0.0187  -2.5032   0.0000   0.0000   0.0000   0.1268
  -5.100  -0.3578   0.01324   0.00713  -0.0430  0.8493  0.0192  -2.4373   0.0000   0.0000   0.0000   0.1240
  -5.000  -0.3431   0.01440   0.00832  -0.0441  0.8481  0.0237  -2.1612   0.0000   0.0000   0.0000   0.1159
  -4.900  -0.3338   0.01397   0.00786  -0.0438  0.8466  0.0237  -2.1353   0.0000   0.0000   0.0000   0.1132
  -4.800  -0.3245   0.01358   0.00744  -0.0435  0.8448  0.0236  -2.1086   0.0000   0.0000   0.0000   0.1105
  -4.700  -0.3154   0.01321   0.00704  -0.0431  0.8429  0.0236  -2.0810   0.0000   0.0000   0.0000   0.1076
  -4.600  -0.3063   0.01287   0.00667  -0.0428  0.8407  0.0236  -2.0526   0.0000   0.0000   0.0000   0.1047
  -4.500  -0.2972   0.01255   0.00632  -0.0425  0.8385  0.0237  -2.0234   0.0000   0.0000   0.0000   0.1016
  -4.400  -0.2881   0.01225   0.00599  -0.0421  0.8361  0.0237  -1.9934   0.0000   0.0000   0.0000   0.0982
  -4.200  -0.0825   0.00000  -0.00227  -0.0185  0.5786  0.0287  -0.6304   0.0000   0.0000   0.0000   0.0613
  -4.100  -0.0753   0.00000  -0.00227  -0.0189  0.5718  0.0319  -0.6256   0.0000   0.0000   0.0000   0.0377
  -4.000  -0.0717   0.00000  -0.00227  -0.0189  0.5674  0.0362  -0.6209   0.0000   0.0000   0.0000   0.0269
  -3.900  -0.0680   0.00000  -0.00224  -0.0186  0.5645  0.0406  -0.6037   0.0000   0.0000   0.0000   0.0181
  -3.800  -0.0641   0.00000  -0.00223  -0.0183  0.5623  0.0444  -0.5790   0.0000   0.0000   0.0000   0.0089
  -3.700  -0.0603   0.00000  -0.00222  -0.0179  0.5603  0.0476  -0.5518   0.0000   0.0000   0.0000  -0.0008
  -3.600  -0.0564   0.00000  -0.00222  -0.0175  0.5584  0.0507  -0.5230   0.0000   0.0000   0.0000  -0.0119
  -3.500  -0.0542   0.00000  -0.00218  -0.0172  0.5553  0.0659  -0.5026   0.0000   0.0000   0.0000  -0.0166
  -3.400  -0.0465   0.00000  -0.00196  -0.0199  0.5423  0.1080  -0.4584   0.0000   0.0000   0.0000  -0.1199
  -3.300  -0.1819   0.00996   0.00311  -0.0396  0.8015  0.0344  -1.6806   0.0000   0.0000   0.0000   0.0260
  -3.200  -0.1713   0.00980   0.00295  -0.0396  0.7999  0.0416  -1.6508   0.0000   0.0000   0.0000   0.0127
  -3.100  -0.1606   0.00967   0.00285  -0.0396  0.7990  0.0468  -1.6031   0.0000   0.0000   0.0000  -0.0028
  -3.000  -0.1500   0.00952   0.00275  -0.0396  0.7979  0.0609  -1.5542   0.0000   0.0000   0.0000  -0.0205
  -2.900  -0.1411   0.00908   0.00259  -0.0396  0.7966  0.1203  -1.5071   0.0000   0.0000   0.0000  -0.0371
  -2.800  -0.1325   0.00854   0.00240  -0.0396  0.7951  0.2132  -1.4595   0.0000   0.0000   0.0000  -0.0554
  -2.700  -0.1244   0.00789   0.00220  -0.0396  0.7933  0.3257  -1.4119   0.0000   0.0000   0.0000  -0.0753
  -2.600  -0.1164   0.00721   0.00202  -0.0396  0.7914  0.4583  -1.3640   0.0000   0.0000   0.0000  -0.0971
  -2.500  -0.1071   0.00688   0.00200  -0.0395  0.7894  0.5380  -1.3108   0.0000   0.0000   0.0000  -0.1263
  -2.400  -0.0965   0.00676   0.00199  -0.0395  0.7872  0.5684  -1.2547   0.0000   0.0000   0.0000  -0.1666
  -2.300  -0.0857   0.00671   0.00200  -0.0395  0.7850  0.5908  -1.1980   0.0000   0.0000   0.0000  -0.2187
  -2.200  -0.0744   0.00670   0.00198  -0.0395  0.7828  0.5996  -1.1407   0.0000   0.0000   0.0000  -0.2901
  -2.100  -0.0637   0.00664   0.00198  -0.0395  0.7804  0.6157  -1.0853   0.0000   0.0000   0.0000  -0.3800
  -2.000  -0.0529   0.00660   0.00199  -0.0394  0.7781  0.6298  -1.0302   0.0000   0.0000   0.0000  -0.5069
  -1.900  -0.0418   0.00661   0.00201  -0.0394  0.7758  0.6424  -0.9750   0.0000   0.0000   0.0000  -0.7052
  -1.800  -0.0306   0.00664   0.00202  -0.0394  0.7735  0.6505  -0.9198   0.0000   0.0000   0.0000  -1.0557
  -1.700  -0.0202   0.00660   0.00206  -0.0393  0.7711  0.6674  -0.8674   0.0000   0.0000   0.0000  -1.7188
  -1.600  -0.0096   0.00661   0.00211  -0.0391  0.7686  0.6791  -0.8150   0.0000   0.0000   0.0000  -3.8639
  -1.500   0.0013   0.00665   0.00215  -0.0390  0.7660  0.6872  -0.7625   0.0000   0.0000   0.0000  30.1971
  -1.400   0.0125   0.00670   0.00218  -0.0390  0.7630  0.6920  -0.7104   0.0000   0.0000   0.0000   3.4085
  -1.300   0.0238   0.00674   0.00220  -0.0391  0.7598  0.6950  -0.6588   0.0000   0.0000   0.0000   1.9089
  -1.200   0.0352   0.00679   0.00222  -0.0392  0.7564  0.6968  -0.6078   0.0000   0.0000   0.0000   1.3730
  -1.100   0.0467   0.00685   0.00226  -0.0394  0.7527  0.6981  -0.5574   0.0000   0.0000   0.0000   1.0990
  -1.000   0.0582   0.00691   0.00230  -0.0395  0.7503  0.6995  -0.5077   0.0000   0.0000   0.0000   0.9332
  -0.900   0.0694   0.00685   0.00226  -0.0396  0.7496  0.7062  -0.4594   0.0000   0.0000   0.0000   0.8235
  -0.800   0.0804   0.00681   0.00226  -0.0396  0.7488  0.7131  -0.4155   0.0000   0.0000   0.0000   0.7446
  -0.700   0.0914   0.00680   0.00229  -0.0396  0.7478  0.7188  -0.4203   0.0000   0.0000   0.0000   0.6846
  -0.600   0.1024   0.00680   0.00232  -0.0396  0.7468  0.7235  -0.4250   0.0000   0.0000   0.0000   0.6373
  -0.500   0.1135   0.00681   0.00235  -0.0396  0.7456  0.7274  -0.4299   0.0000   0.0000   0.0000   0.5992
  -0.400   0.1247   0.00682   0.00238  -0.0396  0.7444  0.7306  -0.4347   0.0000   0.0000   0.0000   0.5679
  -0.300   0.1361   0.00683   0.00239  -0.0397  0.7430  0.7331  -0.4396   0.0000   0.0000   0.0000   0.5418
  -0.200   0.1474   0.00683   0.00240  -0.0398  0.7415  0.7352  -0.4447   0.0000   0.0000   0.0000   0.5198
  -0.100   0.1588   0.00684   0.00240  -0.0399  0.7399  0.7372  -0.4502   0.0000   0.0000   0.0000   0.5009
   0.000   0.1702   0.00684   0.00241  -0.0400  0.7381  0.7391  -0.4558   0.0000   0.0000   0.0000   0.4845
   0.100   0.1816   0.00685   0.00241  -0.0401  0.7362  0.7410  -0.4614   0.0000   0.0000   0.0000   0.4702
   0.200   0.1929   0.00685   0.00241  -0.0402  0.7343  0.7426  -0.4670   0.0000   0.0000   0.0000   0.4576
   0.300   0.2043   0.00686   0.00242  -0.0403  0.7322  0.7441  -0.4726   0.0000   0.0000   0.0000   0.4463
   0.400   0.2157   0.00686   0.00242  -0.0404  0.7302  0.7454  -0.4782   0.0000   0.0000   0.0000   0.4363
   0.500   0.2271   0.00687   0.00242  -0.0405  0.7281  0.7466  -0.4838   0.0000   0.0000   0.0000   0.4273
   0.600   0.2385   0.00689   0.00242  -0.0406  0.7261  0.7476  -0.4893   0.0000   0.0000   0.0000   0.4191
   0.700   0.2499   0.00690   0.00243  -0.0408  0.7242  0.7484  -0.4949   0.0000   0.0000   0.0000   0.4117
   0.800   0.2613   0.00692   0.00243  -0.0409  0.7222  0.7492  -0.5005   0.0000   0.0000   0.0000   0.4050
   0.900   0.2726   0.00691   0.00241  -0.0410  0.7200  0.7517  -0.5060   0.0000   0.0000   0.0000   0.3988
   1.000   0.2838   0.00689   0.00238  -0.0411  0.7169  0.7554  -0.5116   0.0000   0.0000   0.0000   0.3931
   1.100   0.2949   0.00689   0.00237  -0.0411  0.7127  0.7589  -0.5171   0.0000   0.0000   0.0000   0.3878
   1.200   0.3059   0.00692   0.00238  -0.0412  0.7071  0.7621  -0.5363   0.0000   0.0000   0.0000   0.3828
   1.300   0.3170   0.00699   0.00245  -0.0413  0.7006  0.7650  -0.5884   0.0000   0.0000   0.0000   0.3783
   1.400   0.3281   0.00694   0.00242  -0.0413  0.6992  0.7676  -0.6418   0.0000   0.0000   0.0000   0.3738
   1.500   0.3391   0.00690   0.00239  -0.0412  0.6971  0.7701  -0.6959   0.0000   0.0000   0.0000   0.3695
   1.600   0.3501   0.00685   0.00237  -0.0412  0.6939  0.7725  -0.7507   0.0000   0.0000   0.0000   0.3655
   1.700   0.3610   0.00682   0.00234  -0.0411  0.6897  0.7748  -0.8063   0.0000   0.0000   0.0000   0.3618
   1.800   0.3719   0.00679   0.00232  -0.0411  0.6846  0.7771  -0.8628   0.0000   0.0000   0.0000   0.3582
   1.900   0.3828   0.00678   0.00230  -0.0410  0.6787  0.7794  -0.9199   0.0000   0.0000   0.0000   0.3548
   2.000   0.3935   0.00678   0.00227  -0.0409  0.6714  0.7816  -0.9773   0.0000   0.0000   0.0000   0.3516
   2.100   0.4040   0.00682   0.00225  -0.0408  0.6623  0.7837  -1.0349   0.0000   0.0000   0.0000   0.3485
   2.200   0.4146   0.00689   0.00226  -0.0407  0.6509  0.7859  -1.0933   0.0000   0.0000   0.0000   0.3456
   2.300   0.4256   0.00686   0.00226  -0.0407  0.6463  0.7882  -1.1539   0.0000   0.0000   0.0000   0.3430
   2.400   0.4365   0.00685   0.00225  -0.0407  0.6382  0.7903  -1.2149   0.0000   0.0000   0.0000   0.3405
   2.500   0.4472   0.00688   0.00224  -0.0406  0.6266  0.7923  -1.2759   0.0000   0.0000   0.0000   0.3380
   2.600   0.4574   0.00694   0.00223  -0.0404  0.6136  0.7942  -1.3363   0.0000   0.0000   0.0000   0.3355
   2.700   0.4676   0.00703   0.00225  -0.0403  0.6001  0.7958  -1.3972   0.0000   0.0000   0.0000   0.3332
   2.800   0.4788   0.00704   0.00228  -0.0404  0.5951  0.7972  -1.4615   0.0000   0.0000   0.0000   0.3313
   2.900   0.4898   0.00707   0.00231  -0.0404  0.5872  0.7984  -1.5261   0.0000   0.0000   0.0000   0.3294
   3.000   0.5004   0.00714   0.00233  -0.0403  0.5732  0.7993  -1.5898   0.0000   0.0000   0.0000   0.3274
   3.100   0.5099   0.00722   0.00233  -0.0401  0.5541  0.8031  -1.6511   0.0000   0.0000   0.0000   0.3254
   3.200   0.5204   0.00726   0.00235  -0.0401  0.5414  0.8073  -1.7152   0.0000   0.0000   0.0000   0.3237
   3.300   0.5284   0.00745   0.00238  -0.0396  0.5020  0.8113  -1.7728   0.0000   0.0000   0.0000   0.3215
   3.400   0.5339   0.00787   0.00250  -0.0387  0.4309  0.8150  -1.8225   0.0000   0.0000   0.0000   0.3190
   3.500   0.5372   0.00850   0.00275  -0.0376  0.3439  0.8185  -1.8651   0.0000   0.0000   0.0000   0.3164
   3.600   0.5421   0.00900   0.00298  -0.0367  0.2769  0.8217  -1.9124   0.0000   0.0000   0.0000   0.3141
   3.700   0.5466   0.00953   0.00322  -0.0358  0.2117  0.8248  -1.9580   0.0000   0.0000   0.0000   0.3117
   3.800   0.5516   0.01001   0.00344  -0.0349  0.1515  0.8280  -2.0045   0.0000   0.0000   0.0000   0.3095
   3.900   0.5569   0.01046   0.00366  -0.0341  0.0974  0.8310  -2.0512   0.0000   0.0000   0.0000   0.3073
   4.000   0.5621   0.01090   0.00389  -0.0332  0.0605  0.8340  -2.0966   0.0000   0.0000   0.0000   0.3052
   4.100   0.5700   0.01113   0.00403  -0.0327  0.0433  0.8367  -2.1470   0.0000   0.0000   0.0000   0.3034
   4.200   0.5751   0.01163   0.00459  -0.0314  0.0237  0.8395  -2.0837   0.0000   0.0000   0.0000   0.3005
   4.300   0.5847   0.01172   0.00469  -0.0312  0.0233  0.8418  -2.1398   0.0000   0.0000   0.0000   0.2992
   4.400   0.5940   0.01184   0.00482  -0.0309  0.0227  0.8440  -2.1907   0.0000   0.0000   0.0000   0.2978
   4.500   0.6029   0.01198   0.00499  -0.0306  0.0221  0.8459  -2.2365   0.0000   0.0000   0.0000   0.2964
   4.600   0.6116   0.01215   0.00518  -0.0301  0.0215  0.8476  -2.2790   0.0000   0.0000   0.0000   0.2949
   4.700   0.6201   0.01233   0.00539  -0.0297  0.0210  0.8491  -2.3195   0.0000   0.0000   0.0000   0.2934
   4.800   0.6281   0.01250   0.00560  -0.0292  0.0206  0.8529  -2.3586   0.0000   0.0000   0.0000   0.2919
   4.900   0.6355   0.01266   0.00582  -0.0285  0.0203  0.8584  -2.3957   0.0000   0.0000   0.0000   0.2902
   5.000   0.6423   0.01285   0.00605  -0.0277  0.0201  0.8634  -2.4313   0.0000   0.0000   0.0000   0.2884
   5.100   0.6485   0.01304   0.00631  -0.0267  0.0199  0.8678  -2.4656   0.0000   0.0000   0.0000   0.2864
   5.200   0.6543   0.01325   0.00657  -0.0257  0.0198  0.8719  -2.4989   0.0000   0.0000   0.0000   0.2844
   5.300   0.6600   0.01347   0.00684  -0.0247  0.0197  0.8760  -2.5314   0.0000   0.0000   0.0000   0.2824
   5.400   0.6654   0.01371   0.00713  -0.0236  0.0196  0.8801  -2.5632   0.0000   0.0000   0.0000   0.2804
   5.500   0.6706   0.01396   0.00743  -0.0225  0.0195  0.8841  -2.5941   0.0000   0.0000   0.0000   0.2784
   5.600   0.6758   0.01423   0.00774  -0.0214  0.0195  0.8879  -2.6245   0.0000   0.0000   0.0000   0.2764
   5.700   0.6809   0.01451   0.00806  -0.0203  0.0195  0.8915  -2.6543   0.0000   0.0000   0.0000   0.2745
   5.800   0.6861   0.01481   0.00840  -0.0192  0.0195  0.8947  -2.6835   0.0000   0.0000   0.0000   0.2726
   5.900   0.6880   0.01552   0.00938  -0.0174  0.0197  0.8976  -2.6764   0.0000   0.0000   0.0000   0.2697
   6.000   0.7014   0.01502   0.00879  -0.0181  0.0172  0.8992  -2.8686   0.0000   0.0000   0.0000   0.2702
   6.100   0.7115   0.01488   0.00861  -0.0181  0.0160  0.9042  -2.9938   0.0000   0.0000   0.0000   0.2698
   6.200   0.7171   0.01492   0.00867  -0.0172  0.0155  0.9112  -3.0674   0.0000   0.0000   0.0000   0.2682
   6.300   0.7201   0.01505   0.00882  -0.0157  0.0153  0.9181  -3.1151   0.0000   0.0000   0.0000   0.2658
   6.400   0.7226   0.01518   0.00899  -0.0140  0.0151  0.9248  -3.1591   0.0000   0.0000   0.0000   0.2634
   6.500   0.7246   0.01532   0.00916  -0.0123  0.0150  0.9316  -3.2006   0.0000   0.0000   0.0000   0.2609
   6.600   0.7250   0.01544   0.00931  -0.0102  0.0149  0.9388  -3.2359   0.0000   0.0000   0.0000   0.2579
   6.700   0.7246   0.01558   0.00949  -0.0081  0.0148  0.9453  -3.2672   0.0000   0.0000   0.0000   0.2548
   6.800   0.7255   0.01574   0.00967  -0.0062  0.0147  0.9507  -3.3025   0.0000   0.0000   0.0000   0.2521
   6.900   0.7347   0.01603   0.00998  -0.0061  0.0145  0.9603  -3.3632   0.0000   0.0000   0.0000   0.2519
   7.000   0.7445   0.01634   0.01032  -0.0062  0.0144  0.9700  -3.4257   0.0000   0.0000   0.0000   0.2518
   7.100   0.7550   0.01667   0.01069  -0.0064  0.0142  0.9783  -3.4896   0.0000   0.0000   0.0000   0.2518
   7.200   0.7654   0.01702   0.01106  -0.0066  0.0141  0.9867  -3.5532   0.0000   0.0000   0.0000   0.2518
   7.300   0.7753   0.01736   0.01143  -0.0067  0.0139  0.9969  -3.6149   0.0000   0.0000   0.0000   0.2517
   7.400   0.7832   0.01770   0.01178  -0.0064  0.0138  1.0000  -3.6700   0.0000   0.0000   0.0000   0.2512
   7.500   0.7908   0.01804   0.01214  -0.0060  0.0137  1.0000  -3.7242   0.0000   0.0000   0.0000   0.2505
   7.600   0.7987   0.01841   0.01253  -0.0057  0.0136  1.0000  -3.7788   0.0000   0.0000   0.0000   0.2499
   7.700   0.8068   0.01880   0.01294  -0.0054  0.0135  1.0000  -3.8337   0.0000   0.0000   0.0000   0.2494
   7.800   0.8153   0.01921   0.01338  -0.0052  0.0133  1.0000  -3.8889   0.0000   0.0000   0.0000   0.2490
   7.900   0.8240   0.01966   0.01385  -0.0050  0.0132  1.0000  -3.9441   0.0000   0.0000   0.0000   0.2486
   8.000   0.8331   0.02015   0.01436  -0.0049  0.0131  1.0000  -3.9994   0.0000   0.0000   0.0000   0.2483
   8.100   0.8426   0.02068   0.01493  -0.0049  0.0129  1.0000  -4.0543   0.0000   0.0000   0.0000   0.2481
   8.200   0.8528   0.02128   0.01557  -0.0050  0.0128  1.0000  -4.1087   0.0000   0.0000   0.0000   0.2481
   8.300   0.8638   0.02199   0.01632  -0.0053  0.0127  1.0000  -4.1619   0.0000   0.0000   0.0000   0.2482
   8.400   0.8761   0.02285   0.01724  -0.0058  0.0125  1.0000  -4.2127   0.0000   0.0000   0.0000   0.2487
   8.500   0.8942   0.02590   0.02056  -0.0078  0.0118  1.0000  -4.1706   0.0000   0.0000   0.0000   0.2507
   8.600   0.8972   0.02537   0.02001  -0.0066  0.0112  1.0000  -4.3290   0.0000   0.0000   0.0000   0.2492
   8.700   0.9005   0.02506   0.01969  -0.0054  0.0110  1.0000  -4.4355   0.0000   0.0000   0.0000   0.2477
   8.800   0.9036   0.02501   0.01964  -0.0042  0.0109  1.0000  -4.5211   0.0000   0.0000   0.0000   0.2462
   8.900   0.9073   0.02506   0.01970  -0.0031  0.0107  1.0000  -4.6028   0.0000   0.0000   0.0000   0.2449
   9.000   0.9116   0.02518   0.01983  -0.0021  0.0106  1.0000  -4.6830   0.0000   0.0000   0.0000   0.2437
   9.100   0.9162   0.02533   0.02000  -0.0013  0.0105  1.0000  -4.7623   0.0000   0.0000   0.0000   0.2426
   9.200   0.9210   0.02552   0.02021  -0.0004  0.0103  1.0000  -4.8410   0.0000   0.0000   0.0000   0.2416
   9.300   0.9258   0.02573   0.02044   0.0004  0.0102  1.0000  -4.9193   0.0000   0.0000   0.0000   0.2406
   9.400   0.9305   0.02595   0.02068   0.0012  0.0100  1.0000  -4.9975   0.0000   0.0000   0.0000   0.2396
   9.500   0.9348   0.02619   0.02093   0.0020  0.0099  1.0000  -5.0739   0.0000   0.0000   0.0000   0.2386
   9.600   0.9388   0.02643   0.02119   0.0029  0.0098  1.0000  -5.1491   0.0000   0.0000   0.0000   0.2375
   9.700   0.9426   0.02667   0.02146   0.0038  0.0096  1.0000  -5.2246   0.0000   0.0000   0.0000   0.2365
   9.800   0.9464   0.02692   0.02172   0.0047  0.0095  1.0000  -5.3012   0.0000   0.0000   0.0000   0.2354
   9.900   0.9502   0.02716   0.02198   0.0056  0.0094  1.0000  -5.3794   0.0000   0.0000   0.0000   0.2344
  10.000   0.9540   0.02740   0.02224   0.0064  0.0092  1.0000  -5.4593   0.0000   0.0000   0.0000   0.2334
  10.100   0.9579   0.02764   0.02250   0.0072  0.0091  1.0000  -5.5408   0.0000   0.0000   0.0000   0.2324
  10.200   0.9616   0.02788   0.02276   0.0081  0.0090  1.0000  -5.6229   0.0000   0.0000   0.0000   0.2315
  10.300   0.9652   0.02812   0.02301   0.0089  0.0089  1.0000  -5.7058   0.0000   0.0000   0.0000   0.2305
  10.400   0.9682   0.02835   0.02326   0.0098  0.0087  1.0000  -5.7870   0.0000   0.0000   0.0000   0.2295
  10.500   0.9710   0.02859   0.02352   0.0107  0.0086  1.0000  -5.8683   0.0000   0.0000   0.0000   0.2284
  10.600   0.9739   0.02882   0.02376   0.0115  0.0085  1.0000  -5.9517   0.0000   0.0000   0.0000   0.2274
  10.700   0.9769   0.02904   0.02399   0.0124  0.0084  1.0000  -6.0378   0.0000   0.0000   0.0000   0.2265
  10.800   0.9800   0.02925   0.02421   0.0132  0.0083  1.0000  -6.1264   0.0000   0.0000   0.0000   0.2256
  10.900   0.9832   0.02946   0.02443   0.0140  0.0082  1.0000  -6.2169   0.0000   0.0000   0.0000   0.2247
  11.000   0.9864   0.02968   0.02465   0.0147  0.0082  1.0000  -6.3090   0.0000   0.0000   0.0000   0.2238
  11.100   0.9892   0.02990   0.02489   0.0155  0.0081  1.0000  -6.3998   0.0000   0.0000   0.0000   0.2229
  11.200   0.9915   0.03015   0.02514   0.0163  0.0080  1.0000  -6.4871   0.0000   0.0000   0.0000   0.2220
  11.300   0.9937   0.03041   0.02541   0.0171  0.0079  1.0000  -6.5749   0.0000   0.0000   0.0000   0.2210
  11.400   0.9962   0.03067   0.02567   0.0179  0.0078  1.0000  -6.6650   0.0000   0.0000   0.0000   0.2201
  11.500   0.9988   0.03094   0.02595   0.0186  0.0078  1.0000  -6.7568   0.0000   0.0000   0.0000   0.2193
  11.600   1.0015   0.03122   0.02624   0.0193  0.0077  1.0000  -6.8493   0.0000   0.0000   0.0000   0.2185
  11.700   1.0041   0.03153   0.02656   0.0200  0.0076  1.0000  -6.9409   0.0000   0.0000   0.0000   0.2177
  11.800   1.0064   0.03188   0.02692   0.0207  0.0075  1.0000  -7.0296   0.0000   0.0000   0.0000   0.2169
  11.900   1.0077   0.03230   0.02735   0.0214  0.0074  1.0000  -7.1083   0.0000   0.0000   0.0000   0.2160
  12.000   1.0083   0.03281   0.02788   0.0222  0.0073  1.0000  -7.1788   0.0000   0.0000   0.0000   0.2151
  12.100   1.0083   0.03343   0.02853   0.0230  0.0072  1.0000  -7.2393   0.0000   0.0000   0.0000   0.2142
  12.200   1.0066   0.03433   0.02949   0.0239  0.0071  1.0000  -7.2732   0.0000   0.0000   0.0000   0.2131
  12.300   0.9830   0.03801   0.03347   0.0261  0.0067  1.0000  -7.0163   0.0000   0.0000   0.0000   0.2101
  12.400   0.9852   0.03839   0.03388   0.0267  0.0066  1.0000  -7.1053   0.0000   0.0000   0.0000   0.2095
  12.500   0.9864   0.03884   0.03436   0.0272  0.0066  1.0000  -7.1852   0.0000   0.0000   0.0000   0.2087
  12.600   0.9871   0.03934   0.03489   0.0278  0.0066  1.0000  -7.2609   0.0000   0.0000   0.0000   0.2080
  12.700   0.9881   0.03986   0.03543   0.0284  0.0066  1.0000  -7.3381   0.0000   0.0000   0.0000   0.2073
  12.800   0.9892   0.04039   0.03600   0.0289  0.0065  1.0000  -7.4163   0.0000   0.0000   0.0000   0.2067
  12.900   0.9904   0.04096   0.03660   0.0293  0.0065  1.0000  -7.4939   0.0000   0.0000   0.0000   0.2061
  13.000   0.9913   0.04156   0.03724   0.0298  0.0064  1.0000  -7.5694   0.0000   0.0000   0.0000   0.2054
  13.100   0.9919   0.04221   0.03793   0.0302  0.0064  1.0000  -7.6409   0.0000   0.0000   0.0000   0.2048
  13.200   0.9910   0.04297   0.03873   0.0307  0.0063  1.0000  -7.6984   0.0000   0.0000   0.0000   0.2041
  13.500   0.9786   0.04649   0.04252   0.0322  0.0064  1.0000  -7.6725   0.0000   0.0000   0.0000   0.2017
  13.600   0.9766   0.04748   0.04357   0.0325  0.0064  1.0000  -7.7052   0.0000   0.0000   0.0000   0.2012
  13.700   0.9740   0.04853   0.04467   0.0328  0.0063  1.0000  -7.7363   0.0000   0.0000   0.0000   0.2006
  13.800   0.9703   0.04966   0.04586   0.0330  0.0063  1.0000  -7.7589   0.0000   0.0000   0.0000   0.2000
  13.900   0.9670   0.05080   0.04704   0.0332  0.0063  1.0000  -7.7854   0.0000   0.0000   0.0000   0.1995
  14.000   0.9641   0.05196   0.04826   0.0333  0.0062  1.0000  -7.8131   0.0000   0.0000   0.0000   0.1991
  14.100   0.9609   0.05318   0.04954   0.0334  0.0062  1.0000  -7.8381   0.0000   0.0000   0.0000   0.1987
  14.200   0.9565   0.05454   0.05096   0.0334  0.0062  1.0000  -7.8507   0.0000   0.0000   0.0000   0.1983
  14.300   0.9507   0.05607   0.05255   0.0333  0.0062  1.0000  -7.8477   0.0000   0.0000   0.0000   0.1980
  14.400   0.9455   0.05763   0.05416   0.0331  0.0061  1.0000  -7.8486   0.0000   0.0000   0.0000   0.1978
  14.500   0.9404   0.05925   0.05584   0.0329  0.0061  1.0000  -7.8471   0.0000   0.0000   0.0000   0.1976
  14.600   0.9344   0.06101   0.05766   0.0326  0.0061  1.0000  -7.8351   0.0000   0.0000   0.0000   0.1976
  14.700   0.9264   0.06303   0.05975   0.0320  0.0061  1.0000  -7.8006   0.0000   0.0000   0.0000   0.1976
  14.800   0.9192   0.06507   0.06186   0.0314  0.0060  1.0000  -7.7705   0.0000   0.0000   0.0000   0.1978
  14.900   0.9120   0.06721   0.06406   0.0307  0.0060  1.0000  -7.7363   0.0000   0.0000   0.0000   0.1981
  15.000   0.9027   0.06969   0.06660   0.0297  0.0060  1.0000  -7.6769   0.0000   0.0000   0.0000   0.1986
  15.100   0.8936   0.07227   0.06925   0.0286  0.0060  1.0000  -7.6144   0.0000   0.0000   0.0000   0.1993
  15.200   0.8844   0.07500   0.07206   0.0274  0.0060  1.0000  -7.5449   0.0000   0.0000   0.0000   0.2002
  15.300   0.8731   0.07822   0.07534   0.0257  0.0060  1.0000  -7.4470   0.0000   0.0000   0.0000   0.2015
  15.400   0.8623   0.08153   0.07873   0.0239  0.0060  1.0000  -7.3477   0.0000   0.0000   0.0000   0.2030
  15.500   0.8494   0.08547   0.08274   0.0216  0.0060  1.0000  -7.2203   0.0000   0.0000   0.0000   0.2052
  15.600   0.8364   0.08977   0.08704   0.0189  0.0059  1.0000  -7.1202   0.0000   0.0000   0.0000   0.2077
  15.700   0.8170   0.09587   0.09324   0.0151  0.0060  1.0000  -6.8440   0.0000   0.0000   0.0000   0.2118
  20.500   0.7100   0.23221   0.22972  -0.0447  0.0079  1.0000  -1.7091   0.0000   0.0000   0.0000   0.2913
  20.600   0.7125   0.23325   0.23076  -0.0453  0.0078  1.0000  -1.7277   0.0000   0.0000   0.0000   0.2917
  20.700   0.7151   0.23427   0.23178  -0.0459  0.0076  1.0000  -1.7489   0.0000   0.0000   0.0000   0.2921
  20.800   0.7177   0.23526   0.23276  -0.0464  0.0075  1.0000  -1.7729   0.0000   0.0000   0.0000   0.2925
  20.900   0.7203   0.23623   0.23373  -0.0470  0.0074  1.0000  -1.7997   0.0000   0.0000   0.0000   0.2928
  21.000   0.7231   0.23718   0.23469  -0.0475  0.0073  1.0000  -1.8293   0.0000   0.0000   0.0000   0.2931
  21.100   0.7259   0.23814   0.23565  -0.0480  0.0072  1.0000  -1.8621   0.0000   0.0000   0.0000   0.2934
  21.200   0.7288   0.23911   0.23661  -0.0485  0.0072  1.0000  -1.8985   0.0000   0.0000   0.0000   0.2936
  21.300   0.7319   0.24010   0.23760  -0.0490  0.0071  1.0000  -1.9392   0.0000   0.0000   0.0000   0.2938
  21.400   0.7354   0.24117   0.23867  -0.0495  0.0070  1.0000  -1.9862   0.0000   0.0000   0.0000   0.2939
  21.500   0.7360   0.24500   0.24249  -0.0500  0.0066  1.0000  -1.8749   0.0000   0.0000   0.0000   0.2946
  21.600   0.7377   0.24613   0.24362  -0.0507  0.0066  1.0000  -1.8610   0.0000   0.0000   0.0000   0.2951
  21.700   0.7395   0.24724   0.24473  -0.0513  0.0066  1.0000  -1.8471   0.0000   0.0000   0.0000   0.2957
  21.800   0.7412   0.24834   0.24583  -0.0519  0.0066  1.0000  -1.8342   0.0000   0.0000   0.0000   0.2962
  21.900   0.7430   0.24942   0.24691  -0.0525  0.0066  1.0000  -1.8222   0.0000   0.0000   0.0000   0.2967
  22.000   0.7448   0.25047   0.24795  -0.0532  0.0065  1.0000  -1.8086   0.0000   0.0000   0.0000   0.2972
  22.100   0.7462   0.25148   0.24896  -0.0538  0.0065  1.0000  -1.7874   0.0000   0.0000   0.0000   0.2979
  22.200   0.7473   0.25245   0.24993  -0.0546  0.0064  1.0000  -1.7451   0.0000   0.0000   0.0000   0.2986
  22.300   0.7490   0.25369   0.25117  -0.0553  0.0058  1.0000  -1.6663   0.0000   0.0000   0.0000   0.2993
  22.400   0.7515   0.25489   0.25237  -0.0558  0.0055  1.0000  -1.6609   0.0000   0.0000   0.0000   0.2997
  22.500   0.7538   0.25601   0.25349  -0.0564  0.0052  1.0000  -1.6682   0.0000   0.0000   0.0000   0.3001
  22.600   0.7562   0.25710   0.25458  -0.0570  0.0051  1.0000  -1.6807   0.0000   0.0000   0.0000   0.3005
  22.700   0.7585   0.25815   0.25563  -0.0576  0.0049  1.0000  -1.6969   0.0000   0.0000   0.0000   0.3008
  22.800   0.7609   0.25919   0.25667  -0.0582  0.0048  1.0000  -1.7160   0.0000   0.0000   0.0000   0.3012
  22.900   0.7633   0.26021   0.25769  -0.0588  0.0047  1.0000  -1.7376   0.0000   0.0000   0.0000   0.3015
  23.000   0.7657   0.26121   0.25869  -0.0594  0.0047  1.0000  -1.7617   0.0000   0.0000   0.0000   0.3019
  23.100   0.7681   0.26220   0.25968  -0.0600  0.0046  1.0000  -1.7879   0.0000   0.0000   0.0000   0.3022
  23.200   0.7705   0.26318   0.26066  -0.0606  0.0045  1.0000  -1.8164   0.0000   0.0000   0.0000   0.3025
  23.300   0.7729   0.26416   0.26164  -0.0612  0.0045  1.0000  -1.8473   0.0000   0.0000   0.0000   0.3028
  23.400   0.7754   0.26514   0.26262  -0.0618  0.0044  1.0000  -1.8807   0.0000   0.0000   0.0000   0.3031
  23.500   0.7779   0.26613   0.26360  -0.0623  0.0044  1.0000  -1.9175   0.0000   0.0000   0.0000   0.3034
  23.600   0.7806   0.26714   0.26461  -0.0629  0.0044  1.0000  -1.9589   0.0000   0.0000   0.0000   0.3036
  23.700   0.7835   0.26824   0.26572  -0.0634  0.0043  1.0000  -2.0094   0.0000   0.0000   0.0000   0.3037
  23.800   0.7861   0.27020   0.26766  -0.0639  0.0043  1.0000  -2.0078   0.0000   0.0000   0.0000   0.3038
  23.900   0.7881   0.27145   0.26897  -0.0645  0.0042  1.0000  -1.9978   0.0000   0.0000   0.0000   0.3042
  24.000   0.7900   0.27272   0.27024  -0.0651  0.0042  1.0000  -1.9825   0.0000   0.0000   0.0000   0.3046
  24.100   0.7920   0.27400   0.27151  -0.0657  0.0042  1.0000  -1.9676   0.0000   0.0000   0.0000   0.3050
  24.200   0.7939   0.27527   0.27279  -0.0663  0.0042  1.0000  -1.9524   0.0000   0.0000   0.0000   0.3054
  24.300   0.7955   0.27656   0.27408  -0.0669  0.0042  1.0000  -1.9285   0.0000   0.0000   0.0000   0.3059
  24.400   0.7973   0.27784   0.27536  -0.0675  0.0042  1.0000  -1.9058   0.0000   0.0000   0.0000   0.3063
  24.500   0.7990   0.27913   0.27665  -0.0681  0.0042  1.0000  -1.8847   0.0000   0.0000   0.0000   0.3067
  24.600   0.8008   0.28041   0.27793  -0.0687  0.0042  1.0000  -1.8650   0.0000   0.0000   0.0000   0.3071
  24.700   0.8026   0.28169   0.27921  -0.0694  0.0042  1.0000  -1.8465   0.0000   0.0000   0.0000   0.3075
  24.800   0.8045   0.28297   0.28049  -0.0700  0.0042  1.0000  -1.8291   0.0000   0.0000   0.0000   0.3079
  24.900   0.8063   0.28424   0.28176  -0.0706  0.0042  1.0000  -1.8128   0.0000   0.0000   0.0000   0.3083
  25.000   0.8082   0.28551   0.28303  -0.0712  0.0042  1.0000  -1.7974   0.0000   0.0000   0.0000   0.3087
  25.100   0.8101   0.28678   0.28430  -0.0718  0.0042  1.0000  -1.7829   0.0000   0.0000   0.0000   0.3090
  25.200   0.8120   0.28805   0.28557  -0.0724  0.0042  1.0000  -1.7692   0.0000   0.0000   0.0000   0.3094
  25.300   0.8139   0.28931   0.28684  -0.0730  0.0042  1.0000  -1.7562   0.0000   0.0000   0.0000   0.3098
  25.400   0.8159   0.29057   0.28810  -0.0736  0.0042  1.0000  -1.7439   0.0000   0.0000   0.0000   0.3101
  25.500   0.8178   0.29183   0.28936  -0.0742  0.0042  1.0000  -1.7323   0.0000   0.0000   0.0000   0.3104
  25.600   0.8198   0.29309   0.29062  -0.0747  0.0041  1.0000  -1.7213   0.0000   0.0000   0.0000   0.3108
  25.700   0.8217   0.29435   0.29188  -0.0753  0.0041  1.0000  -1.7108   0.0000   0.0000   0.0000   0.3111
  25.800   0.8237   0.29560   0.29313  -0.0759  0.0041  1.0000  -1.7009   0.0000   0.0000   0.0000   0.3114
  25.900   0.8256   0.29685   0.29439  -0.0765  0.0041  1.0000  -1.6914   0.0000   0.0000   0.0000   0.3117
  26.000   0.8276   0.29810   0.29564  -0.0771  0.0041  1.0000  -1.6825   0.0000   0.0000   0.0000   0.3120
  26.100   0.8295   0.29935   0.29689  -0.0777  0.0041  1.0000  -1.6740   0.0000   0.0000   0.0000   0.3124
  26.200   0.8315   0.30060   0.29813  -0.0783  0.0041  1.0000  -1.6659   0.0000   0.0000   0.0000   0.3127
  26.300   0.8334   0.30184   0.29938  -0.0789  0.0041  1.0000  -1.6582   0.0000   0.0000   0.0000   0.3130
  26.400   0.8354   0.30308   0.30062  -0.0795  0.0041  1.0000  -1.6509   0.0000   0.0000   0.0000   0.3132
  26.500   0.8373   0.30432   0.30186  -0.0801  0.0041  1.0000  -1.6440   0.0000   0.0000   0.0000   0.3135
  26.600   0.8393   0.30556   0.30310  -0.0807  0.0041  1.0000  -1.6374   0.0000   0.0000   0.0000   0.3138
  26.700   0.8412   0.30680   0.30434  -0.0812  0.0041  1.0000  -1.6311   0.0000   0.0000   0.0000   0.3141
  26.800   0.8431   0.30803   0.30558  -0.0818  0.0041  1.0000  -1.6252   0.0000   0.0000   0.0000   0.3144
  26.900   0.8451   0.30927   0.30681  -0.0824  0.0041  1.0000  -1.6195   0.0000   0.0000   0.0000   0.3147
  27.000   0.8470   0.31050   0.30805  -0.0830  0.0041  1.0000  -1.6141   0.0000   0.0000   0.0000   0.3149
  27.100   0.8489   0.31173   0.30928  -0.0836  0.0041  1.0000  -1.6090   0.0000   0.0000   0.0000   0.3152
  27.200   0.8508   0.31295   0.31050  -0.0842  0.0041  1.0000  -1.6041   0.0000   0.0000   0.0000   0.3155
  27.300   0.8527   0.31418   0.31173  -0.0848  0.0040  1.0000  -1.5995   0.0000   0.0000   0.0000   0.3158
  27.400   0.8546   0.31540   0.31296  -0.0854  0.0040  1.0000  -1.5951   0.0000   0.0000   0.0000   0.3160
  27.500   0.8565   0.31662   0.31418  -0.0859  0.0040  1.0000  -1.5908   0.0000   0.0000   0.0000   0.3163
  27.600   0.8583   0.31785   0.31540  -0.0865  0.0040  1.0000  -1.5868   0.0000   0.0000   0.0000   0.3165
  27.700   0.8602   0.31906   0.31662  -0.0871  0.0040  1.0000  -1.5830   0.0000   0.0000   0.0000   0.3168
  27.800   0.8621   0.32028   0.31784  -0.0877  0.0040  1.0000  -1.5794   0.0000   0.0000   0.0000   0.3171
  27.900   0.8639   0.32150   0.31906  -0.0883  0.0040  1.0000  -1.5759   0.0000   0.0000   0.0000   0.3173
  28.000   0.8657   0.32271   0.32027  -0.0889  0.0040  1.0000  -1.5726   0.0000   0.0000   0.0000   0.3176
  28.100   0.8676   0.32392   0.32149  -0.0895  0.0040  1.0000  -1.5695   0.0000   0.0000   0.0000   0.3178
  28.200   0.8694   0.32513   0.32270  -0.0901  0.0040  1.0000  -1.5665   0.0000   0.0000   0.0000   0.3181
  28.300   0.8712   0.32634   0.32391  -0.0907  0.0040  1.0000  -1.5636   0.0000   0.0000   0.0000   0.3183
  28.400   0.8730   0.32754   0.32512  -0.0913  0.0040  1.0000  -1.5609   0.0000   0.0000   0.0000   0.3186
  28.500   0.8748   0.32875   0.32632  -0.0918  0.0040  1.0000  -1.5584   0.0000   0.0000   0.0000   0.3188
  28.600   0.8765   0.32995   0.32753  -0.0924  0.0040  1.0000  -1.5559   0.0000   0.0000   0.0000   0.3190
  28.700   0.8783   0.33115   0.32873  -0.0930  0.0040  1.0000  -1.5536   0.0000   0.0000   0.0000   0.3193
  28.800   0.8800   0.33235   0.32993  -0.0936  0.0040  1.0000  -1.5513   0.0000   0.0000   0.0000   0.3195
  28.900   0.8818   0.33355   0.33114  -0.0942  0.0040  1.0000  -1.5492   0.0000   0.0000   0.0000   0.3198
  29.000   0.8835   0.33475   0.33233  -0.0948  0.0040  1.0000  -1.5472   0.0000   0.0000   0.0000   0.3200
  29.100   0.8852   0.33594   0.33353  -0.0954  0.0040  1.0000  -1.5452   0.0000   0.0000   0.0000   0.3202
  29.200   0.8869   0.33714   0.33473  -0.0960  0.0040  1.0000  -1.5434   0.0000   0.0000   0.0000   0.3205
  29.300   0.8886   0.33833   0.33592  -0.0966  0.0040  1.0000  -1.5416   0.0000   0.0000   0.0000   0.3207
  29.400   0.8903   0.33952   0.33711  -0.0972  0.0039  1.0000  -1.5399   0.0000   0.0000   0.0000   0.3209
  29.500   0.8920   0.34071   0.33830  -0.0978  0.0039  1.0000  -1.5383   0.0000   0.0000   0.0000   0.3212
  29.600   0.8936   0.34189   0.33949  -0.0984  0.0039  1.0000  -1.5368   0.0000   0.0000   0.0000   0.3214
  29.700   0.8953   0.34308   0.34068  -0.0989  0.0039  1.0000  -1.5353   0.0000   0.0000   0.0000   0.3216
  29.800   0.8969   0.34426   0.34187  -0.0995  0.0039  1.0000  -1.5339   0.0000   0.0000   0.0000   0.3218
  29.900   0.8985   0.34544   0.34305  -0.1001  0.0039  1.0000  -1.5326   0.0000   0.0000   0.0000   0.3220
  30.000   0.9002   0.34662   0.34423  -0.1007  0.0039  1.0000  -1.5313   0.0000   0.0000   0.0000   0.3223


