xflr5 v6.61

 Calculated polar for: NACA 65-210

 1 1 Reynolds number fixed          Mach number fixed         

 xtrf =   1.000 (top)        1.000 (bottom)
 Mach =   0.000     Re =     0.130 e 6     Ncrit =   9.000

  alpha     CL        CD       CDp       Cm    Top Xtr Bot Xtr   Cpmin    Chinge    XCp    
 ------- -------- --------- --------- -------- ------- ------- -------- --------- ---------
 -10.000  -0.4354   0.09622   0.09149  -0.0436  1.0000  0.0543  -1.6667   0.0000   0.0000   0.0000   0.1430
  -9.900  -0.4329   0.09498   0.09026  -0.0430  1.0000  0.0550  -1.6345   0.0000   0.0000   0.0000   0.1440
  -9.800  -0.4310   0.09377   0.08908  -0.0425  1.0000  0.0557  -1.6097   0.0000   0.0000   0.0000   0.1447
  -9.700  -0.4295   0.09257   0.08786  -0.0422  1.0000  0.0564  -1.5898   0.0000   0.0000   0.0000   0.1452
  -9.600  -0.4287   0.09135   0.08666  -0.0421  1.0000  0.0570  -1.5773   0.0000   0.0000   0.0000   0.1454
  -9.500  -0.4285   0.09010   0.08542  -0.0421  1.0000  0.0576  -1.5699   0.0000   0.0000   0.0000   0.1454
  -9.400  -0.4288   0.08882   0.08417  -0.0422  1.0000  0.0582  -1.5666   0.0000   0.0000   0.0000   0.1454
  -9.300  -0.4296   0.08752   0.08288  -0.0424  1.0000  0.0588  -1.5667   0.0000   0.0000   0.0000   0.1452
  -9.200  -0.4307   0.08618   0.08157  -0.0426  1.0000  0.0594  -1.5696   0.0000   0.0000   0.0000   0.1450
  -9.100  -0.4321   0.08482   0.08022  -0.0429  1.0000  0.0599  -1.5753   0.0000   0.0000   0.0000   0.1447
  -9.000  -0.4340   0.08341   0.07884  -0.0433  1.0000  0.0604  -1.5836   0.0000   0.0000   0.0000   0.1443
  -8.900  -0.4363   0.08197   0.07742  -0.0438  1.0000  0.0609  -1.5945   0.0000   0.0000   0.0000   0.1439
  -8.800  -0.4391   0.08049   0.07596  -0.0444  1.0000  0.0613  -1.6085   0.0000   0.0000   0.0000   0.1434
  -8.700  -0.4425   0.07894   0.07444  -0.0450  1.0000  0.0617  -1.6259   0.0000   0.0000   0.0000   0.1427
  -8.600  -0.4468   0.07732   0.07284  -0.0459  1.0000  0.0620  -1.6478   0.0000   0.0000   0.0000   0.1420
  -8.500  -0.4521   0.07565   0.07118  -0.0469  1.0000  0.0622  -1.6747   0.0000   0.0000   0.0000   0.1412
  -8.400  -0.4583   0.07408   0.06963  -0.0476  1.0000  0.0623  -1.7018   0.0000   0.0000   0.0000   0.1410
  -8.300  -0.4652   0.07267   0.06823  -0.0481  1.0000  0.0624  -1.7279   0.0000   0.0000   0.0000   0.1417
  -8.200  -0.4729   0.07140   0.06697  -0.0482  1.0000  0.0624  -1.7532   0.0000   0.0000   0.0000   0.1433
  -8.100  -0.4815   0.07029   0.06587  -0.0479  1.0000  0.0624  -1.7775   0.0000   0.0000   0.0000   0.1459
  -8.000  -0.4908   0.06935   0.06494  -0.0472  1.0000  0.0623  -1.8006   0.0000   0.0000   0.0000   0.1494
  -7.900  -0.5007   0.06857   0.06417  -0.0460  1.0000  0.0622  -1.8223   0.0000   0.0000   0.0000   0.1538
  -7.700  -0.5191   0.06712   0.06276  -0.0432  1.0000  0.0623  -1.8581   0.0000   0.0000   0.0000   0.1628
  -7.600  -0.5265   0.06624   0.06187  -0.0420  1.0000  0.0625  -1.8720   0.0000   0.0000   0.0000   0.1663
  -7.500  -0.5337   0.06539   0.06102  -0.0407  1.0000  0.0627  -1.8845   0.0000   0.0000   0.0000   0.1698
  -7.400  -0.5405   0.06456   0.06018  -0.0394  1.0000  0.0630  -1.8957   0.0000   0.0000   0.0000   0.1733
  -7.300  -0.5470   0.06373   0.05934  -0.0381  1.0000  0.0633  -1.9056   0.0000   0.0000   0.0000   0.1766
  -7.200  -0.5531   0.06290   0.05849  -0.0368  1.0000  0.0636  -1.9143   0.0000   0.0000   0.0000   0.1799
  -7.100  -0.5588   0.06206   0.05764  -0.0354  1.0000  0.0640  -1.9219   0.0000   0.0000   0.0000   0.1830
  -6.700  -0.5776   0.05863   0.05406  -0.0302  1.0000  0.0663  -1.9438   0.0000   0.0000   0.0000   0.1944
  -6.600  -0.5812   0.05776   0.05316  -0.0289  1.0000  0.0670  -1.9475   0.0000   0.0000   0.0000   0.1969
  -6.500  -0.5844   0.05690   0.05225  -0.0277  1.0000  0.0679  -1.9508   0.0000   0.0000   0.0000   0.1993
  -6.400  -0.5870   0.05607   0.05135  -0.0265  1.0000  0.0689  -1.9539   0.0000   0.0000   0.0000   0.2016
  -6.300  -0.5890   0.05530   0.05051  -0.0254  1.0000  0.0701  -1.9572   0.0000   0.0000   0.0000   0.2038
  -6.200  -0.5901   0.05483   0.04993  -0.0242  1.0000  0.0718  -1.9619   0.0000   0.0000   0.0000   0.2060
  -6.100  -0.5863   0.05911   0.05385  -0.0218  1.0000  0.0758  -1.9322   0.0000   0.0000   0.0000   0.2098
  -6.000  -0.5860   0.05867   0.05332  -0.0206  1.0000  0.0760  -1.9235   0.0000   0.0000   0.0000   0.2119
  -5.900  -0.5969   0.05380   0.04840  -0.0203  1.0000  0.0774  -1.9952   0.0000   0.0000   0.0000   0.2130
  -5.800  -0.6004   0.05078   0.04537  -0.0198  1.0000  0.0788  -2.0030   0.0000   0.0000   0.0000   0.2141
  -5.700  -0.5980   0.04899   0.04368  -0.0192  1.0000  0.0801  -1.9679   0.0000   0.0000   0.0000   0.2151
  -5.600  -0.5952   0.04779   0.04255  -0.0184  1.0000  0.0815  -1.9290   0.0000   0.0000   0.0000   0.2163
  -5.000  -0.5380   0.03637   0.02991  -0.0176  0.9918  0.0452  -2.1131   0.0000   0.0000   0.0000   0.2143
  -4.900  -0.5279   0.03418   0.02752  -0.0178  0.9895  0.0421  -2.1310   0.0000   0.0000   0.0000   0.2134
  -4.800  -0.5165   0.03221   0.02530  -0.0178  0.9871  0.0397  -2.1497   0.0000   0.0000   0.0000   0.2126
  -4.700  -0.5045   0.03038   0.02320  -0.0177  0.9847  0.0385  -2.1596   0.0000   0.0000   0.0000   0.2120
  -4.600  -0.4921   0.02870   0.02126  -0.0176  0.9823  0.0394  -2.1389   0.0000   0.0000   0.0000   0.2114
  -4.500  -0.4825   0.02825   0.02068  -0.0184  0.9793  0.0675  -1.9174   0.0000   0.0000   0.0000   0.2091
  -4.400  -0.4698   0.02720   0.01948  -0.0187  0.9770  0.0658  -1.8584   0.0000   0.0000   0.0000   0.2073
  -4.300  -0.4567   0.02618   0.01828  -0.0190  0.9749  0.0636  -1.8624   0.0000   0.0000   0.0000   0.2057
  -4.200  -0.4432   0.02526   0.01718  -0.0192  0.9727  0.0616  -1.8672   0.0000   0.0000   0.0000   0.2038
  -4.100  -0.4294   0.02446   0.01623  -0.0195  0.9707  0.0600  -1.8679   0.0000   0.0000   0.0000   0.2016
  -4.000  -0.4152   0.02378   0.01541  -0.0199  0.9686  0.0588  -1.8621   0.0000   0.0000   0.0000   0.1991
  -3.900  -0.4009   0.02319   0.01471  -0.0204  0.9667  0.0579  -1.8514   0.0000   0.0000   0.0000   0.1961
  -3.800  -0.3864   0.02266   0.01408  -0.0210  0.9647  0.0573  -1.8363   0.0000   0.0000   0.0000   0.1927
  -3.700  -0.3717   0.02217   0.01352  -0.0216  0.9629  0.0570  -1.8180   0.0000   0.0000   0.0000   0.1889
  -3.600  -0.3569   0.02170   0.01300  -0.0223  0.9611  0.0570  -1.7978   0.0000   0.0000   0.0000   0.1845
  -3.500  -0.3420   0.02125   0.01252  -0.0231  0.9593  0.0572  -1.7762   0.0000   0.0000   0.0000   0.1795
  -3.400  -0.3269   0.02082   0.01208  -0.0239  0.9577  0.0577  -1.7537   0.0000   0.0000   0.0000   0.1739
  -3.300  -0.3118   0.02043   0.01168  -0.0248  0.9561  0.0585  -1.7305   0.0000   0.0000   0.0000   0.1676
  -3.200  -0.2965   0.02008   0.01133  -0.0257  0.9545  0.0596  -1.7064   0.0000   0.0000   0.0000   0.1603
  -3.100  -0.2812   0.01979   0.01103  -0.0267  0.9530  0.0612  -1.6817   0.0000   0.0000   0.0000   0.1521
  -3.000  -0.2658   0.01957   0.01081  -0.0277  0.9514  0.0634  -1.6572   0.0000   0.0000   0.0000   0.1427
  -2.900  -0.2537   0.01941   0.01065  -0.0281  0.9495  0.0666  -1.6323   0.0000   0.0000   0.0000   0.1360
  -2.800  -0.2505   0.01910   0.01033  -0.0267  0.9466  0.0694  -1.6162   0.0000   0.0000   0.0000   0.1403
  -2.700  -0.2455   0.01886   0.01007  -0.0257  0.9434  0.0727  -1.5985   0.0000   0.0000   0.0000   0.1425
  -2.600  -0.2388   0.01868   0.00985  -0.0249  0.9403  0.0757  -1.5796   0.0000   0.0000   0.0000   0.1426
  -2.500  -0.2321   0.01823   0.00938  -0.0242  0.9372  0.0822  -1.5811   0.0000   0.0000   0.0000   0.1427
  -2.400  -0.2239   0.01790   0.00908  -0.0239  0.9343  0.0909  -1.5694   0.0000   0.0000   0.0000   0.1405
  -2.300  -0.2147   0.01750   0.00872  -0.0235  0.9315  0.1199  -1.5780   0.0000   0.0000   0.0000   0.1376
  -2.200  -0.2205   0.01528   0.00870  -0.0215  0.9283  0.5603  -1.5937   0.0000   0.0000   0.0000   0.1497
  -2.100  -0.2225   0.01530   0.00938  -0.0173  0.9248  0.7207  -1.5975   0.0000   0.0000   0.0000   0.1696
  -2.000  -0.2184   0.01560   0.00979  -0.0148  0.9218  0.7655  -1.5704   0.0000   0.0000   0.0000   0.1799
  -1.900  -0.2124   0.01593   0.01014  -0.0128  0.9191  0.7943  -1.5313   0.0000   0.0000   0.0000   0.1872
  -1.800  -0.2061   0.01625   0.01050  -0.0108  0.9164  0.8134  -1.4876   0.0000   0.0000   0.0000   0.1952
  -1.700  -0.1985   0.01663   0.01089  -0.0090  0.9139  0.8306  -1.4385   0.0000   0.0000   0.0000   0.2022
  -1.600  -0.1889   0.01696   0.01118  -0.0080  0.9115  0.8463  -1.3843   0.0000   0.0000   0.0000   0.2054
  -1.500  -0.1769   0.01724   0.01144  -0.0072  0.9095  0.8583  -1.3227   0.0000   0.0000   0.0000   0.2069
  -1.400  -0.1611   0.01773   0.01191  -0.0069  0.9078  0.8694  -1.2498   0.0000   0.0000   0.0000   0.2046
  -1.300  -0.1414   0.01852   0.01268  -0.0069  0.9064  0.8865  -1.1647   0.0000   0.0000   0.0000   0.1984
  -1.200  -0.1266   0.01907   0.01319  -0.0068  0.9047  0.8987  -1.0961   0.0000   0.0000   0.0000   0.1939
  -1.100  -0.0998   0.01930   0.01337  -0.0094  0.9041  0.9048  -0.9982   0.0000   0.0000   0.0000   0.1530
  -1.000  -0.0785   0.01934   0.01335  -0.0116  0.9031  0.9063  -0.9183   0.0000   0.0000   0.0000   0.0991
  -0.900  -0.0573   0.01941   0.01337  -0.0138  0.9021  0.9077  -0.8398   0.0000   0.0000   0.0000   0.0052
  -0.800  -0.0358   0.01952   0.01344  -0.0160  0.9012  0.9093  -0.7620   0.0000   0.0000   0.0000  -0.2030
  -0.700  -0.0153   0.01965   0.01353  -0.0181  0.9001  0.9111  -0.6877   0.0000   0.0000   0.0000  -0.9471
  -0.600  -0.0074   0.01964   0.01351  -0.0178  0.8975  0.9144  -0.6448   0.0000   0.0000   0.0000  -2.1916
  -0.500   0.0027   0.01966   0.01352  -0.0179  0.8948  0.9175  -0.5973   0.0000   0.0000   0.0000   6.8515
  -0.400   0.0133   0.01970   0.01354  -0.0182  0.8920  0.9207  -0.5494   0.0000   0.0000   0.0000   1.6232
  -0.300   0.0240   0.01973   0.01357  -0.0185  0.8891  0.9239  -0.5020   0.0000   0.0000   0.0000   1.0240
  -0.200   0.0345   0.01977   0.01359  -0.0188  0.8863  0.9271  -0.4559   0.0000   0.0000   0.0000   0.7960
  -0.100   0.0451   0.01979   0.01361  -0.0191  0.8836  0.9304  -0.4101   0.0000   0.0000   0.0000   0.6736
   0.000   0.0558   0.01982   0.01363  -0.0194  0.8809  0.9337  -0.3647   0.0000   0.0000   0.0000   0.5973
   0.100   0.0664   0.01986   0.01365  -0.0196  0.8784  0.9371  -0.3202   0.0000   0.0000   0.0000   0.5455
   0.200   0.0770   0.01989   0.01368  -0.0199  0.8759  0.9404  -0.3179   0.0000   0.0000   0.0000   0.5078
   0.300   0.0876   0.01992   0.01371  -0.0201  0.8735  0.9436  -0.3222   0.0000   0.0000   0.0000   0.4789
   0.400   0.0987   0.01995   0.01373  -0.0204  0.8711  0.9465  -0.3274   0.0000   0.0000   0.0000   0.4556
   0.500   0.1099   0.01998   0.01375  -0.0206  0.8686  0.9491  -0.3330   0.0000   0.0000   0.0000   0.4365
   0.600   0.1278   0.01990   0.01367  -0.0222  0.8669  0.9510  -0.3417   0.0000   0.0000   0.0000   0.4225
   0.700   0.1499   0.01979   0.01357  -0.0246  0.8656  0.9525  -0.3523   0.0000   0.0000   0.0000   0.4128
   0.800   0.1728   0.01969   0.01348  -0.0271  0.8645  0.9540  -0.3637   0.0000   0.0000   0.0000   0.4057
   0.900   0.1958   0.01961   0.01339  -0.0296  0.8634  0.9554  -0.3758   0.0000   0.0000   0.0000   0.4002
   1.000   0.2187   0.01954   0.01332  -0.0322  0.8625  0.9570  -0.3878   0.0000   0.0000   0.0000   0.3959
   1.100   0.2411   0.01948   0.01328  -0.0347  0.8616  0.9586  -0.4610   0.0000   0.0000   0.0000   0.3925
   1.200   0.2632   0.01943   0.01324  -0.0371  0.8608  0.9602  -0.5387   0.0000   0.0000   0.0000   0.3896
   1.300   0.2851   0.01938   0.01321  -0.0395  0.8599  0.9619  -0.6177   0.0000   0.0000   0.0000   0.3871
   1.400   0.3066   0.01932   0.01317  -0.0418  0.8591  0.9635  -0.6978   0.0000   0.0000   0.0000   0.3848
   1.500   0.3276   0.01927   0.01313  -0.0440  0.8582  0.9651  -0.7783   0.0000   0.0000   0.0000   0.3828
   1.600   0.3482   0.01920   0.01310  -0.0461  0.8573  0.9668  -0.8593   0.0000   0.0000   0.0000   0.3808
   1.700   0.3688   0.01911   0.01304  -0.0481  0.8562  0.9685  -0.9425   0.0000   0.0000   0.0000   0.3789
   1.800   0.3898   0.01902   0.01298  -0.0502  0.8550  0.9702  -1.0283   0.0000   0.0000   0.0000   0.3772
   1.900   0.4107   0.01894   0.01293  -0.0523  0.8535  0.9718  -1.1156   0.0000   0.0000   0.0000   0.3756
   2.000   0.4311   0.01890   0.01294  -0.0542  0.8518  0.9735  -1.2028   0.0000   0.0000   0.0000   0.3740
   2.100   0.4462   0.01894   0.01303  -0.0553  0.8492  0.9763  -1.2756   0.0000   0.0000   0.0000   0.3722
   2.200   0.4535   0.01899   0.01311  -0.0552  0.8453  0.9807  -1.3256   0.0000   0.0000   0.0000   0.3698
   2.300   0.4623   0.01905   0.01322  -0.0553  0.8412  0.9847  -1.3802   0.0000   0.0000   0.0000   0.3676
   2.400   0.4749   0.01894   0.01316  -0.0558  0.8364  0.9879  -1.4480   0.0000   0.0000   0.0000   0.3655
   2.500   0.5005   0.01797   0.01224  -0.0573  0.8271  0.9886  -1.5614   0.0000   0.0000   0.0000   0.3625
   2.600   0.5397   0.01574   0.01001  -0.0591  0.8116  0.9867  -1.7271   0.0000   0.0000   0.0000   0.3574
   2.700   0.5612   0.01493   0.00918  -0.0595  0.8012  0.9878  -1.8307   0.0000   0.0000   0.0000   0.3540
   2.800   0.5704   0.01453   0.00883  -0.0587  0.7887  0.9913  -1.8930   0.0000   0.0000   0.0000   0.3508
   2.900   0.5832   0.01377   0.00807  -0.0578  0.7696  0.9938  -1.9686   0.0000   0.0000   0.0000   0.3469
   3.000   0.5981   0.01307   0.00725  -0.0570  0.7490  0.9955  -2.0489   0.0000   0.0000   0.0000   0.3430
   3.100   0.6073   0.01276   0.00700  -0.0562  0.7256  0.9982  -2.1054   0.0000   0.0000   0.0000   0.3402
   3.200   0.6172   0.01234   0.00643  -0.0548  0.6836  1.0000  -2.1576   0.0000   0.0000   0.0000   0.3364
   3.300   0.6161   0.01218   0.00601  -0.0518  0.6211  1.0000  -2.1722   0.0000   0.0000   0.0000   0.3315
   3.400   0.6088   0.01251   0.00559  -0.0478  0.4794  1.0000  -2.1671   0.0000   0.0000   0.0000   0.3258
   3.500   0.5982   0.01338   0.00565  -0.0442  0.3401  1.0000  -2.1593   0.0000   0.0000   0.0000   0.3211
   3.600   0.5880   0.01441   0.00594  -0.0410  0.2038  1.0000  -2.1514   0.0000   0.0000   0.0000   0.3170
   3.700   0.5803   0.01531   0.00627  -0.0382  0.1128  1.0000  -2.1328   0.0000   0.0000   0.0000   0.3130
   3.800   0.5794   0.01573   0.00661  -0.0362  0.0879  1.0000  -2.1158   0.0000   0.0000   0.0000   0.3094
   3.900   0.5784   0.01612   0.00688  -0.0342  0.0786  1.0000  -2.1165   0.0000   0.0000   0.0000   0.3061
   4.000   0.5781   0.01643   0.00720  -0.0323  0.0724  1.0000  -2.1142   0.0000   0.0000   0.0000   0.3027
   4.100   0.5798   0.01660   0.00740  -0.0307  0.0683  1.0000  -2.1270   0.0000   0.0000   0.0000   0.2998
   4.200   0.5810   0.01681   0.00761  -0.0291  0.0646  1.0000  -2.1394   0.0000   0.0000   0.0000   0.2968
   4.300   0.5820   0.01703   0.00785  -0.0274  0.0617  1.0000  -2.1510   0.0000   0.0000   0.0000   0.2937
   4.400   0.5831   0.01729   0.00812  -0.0257  0.0595  1.0000  -2.1607   0.0000   0.0000   0.0000   0.2906
   4.500   0.5845   0.01757   0.00841  -0.0241  0.0576  1.0000  -2.1705   0.0000   0.0000   0.0000   0.2876
   4.600   0.5861   0.01791   0.00874  -0.0225  0.0559  1.0000  -2.1796   0.0000   0.0000   0.0000   0.2847
   4.700   0.5885   0.01830   0.00914  -0.0210  0.0544  1.0000  -2.1878   0.0000   0.0000   0.0000   0.2820
   4.800   0.5920   0.01877   0.00961  -0.0197  0.0530  1.0000  -2.1948   0.0000   0.0000   0.0000   0.2795
   4.900   0.5969   0.01934   0.01019  -0.0187  0.0518  1.0000  -2.2011   0.0000   0.0000   0.0000   0.2774
   5.000   0.6035   0.02002   0.01087  -0.0179  0.0509  1.0000  -2.2074   0.0000   0.0000   0.0000   0.2758
   5.100   0.6120   0.02080   0.01167  -0.0174  0.0501  1.0000  -2.2145   0.0000   0.0000   0.0000   0.2745
   5.200   0.6221   0.02169   0.01259  -0.0172  0.0496  1.0000  -2.2230   0.0000   0.0000   0.0000   0.2737
   5.300   0.6332   0.02263   0.01355  -0.0172  0.0492  1.0000  -2.2337   0.0000   0.0000   0.0000   0.2731
   5.400   0.6445   0.02354   0.01450  -0.0172  0.0491  1.0000  -2.2473   0.0000   0.0000   0.0000   0.2725
   5.500   0.6556   0.02440   0.01541  -0.0171  0.0490  1.0000  -2.2640   0.0000   0.0000   0.0000   0.2719
   5.600   0.6664   0.02520   0.01625  -0.0170  0.0491  1.0000  -2.2839   0.0000   0.0000   0.0000   0.2713
   5.700   0.6769   0.02592   0.01703  -0.0169  0.0493  1.0000  -2.3068   0.0000   0.0000   0.0000   0.2706
   5.800   0.6873   0.02658   0.01773  -0.0167  0.0495  1.0000  -2.3322   0.0000   0.0000   0.0000   0.2699
   5.900   0.6975   0.02718   0.01838  -0.0165  0.0498  1.0000  -2.3598   0.0000   0.0000   0.0000   0.2692
   6.000   0.7076   0.02773   0.01897  -0.0163  0.0501  1.0000  -2.3890   0.0000   0.0000   0.0000   0.2685
   6.100   0.7177   0.02823   0.01953  -0.0161  0.0505  1.0000  -2.4190   0.0000   0.0000   0.0000   0.2678
   6.200   0.7277   0.02871   0.02007  -0.0158  0.0511  1.0000  -2.4489   0.0000   0.0000   0.0000   0.2670
   6.400   0.7414   0.03067   0.02291  -0.0133  0.0375  1.0000  -2.5884   0.0000   0.0000   0.0000   0.2632
   6.500   0.7491   0.03179   0.02414  -0.0126  0.0353  1.0000  -2.6416   0.0000   0.0000   0.0000   0.2620
   6.600   0.7564   0.03293   0.02541  -0.0119  0.0342  1.0000  -2.6824   0.0000   0.0000   0.0000   0.2608
   6.700   0.7634   0.03413   0.02674  -0.0111  0.0337  1.0000  -2.7105   0.0000   0.0000   0.0000   0.2596
   6.800   0.7698   0.03538   0.02815  -0.0103  0.0337  1.0000  -2.7265   0.0000   0.0000   0.0000   0.2583
   6.900   0.7756   0.03671   0.02964  -0.0093  0.0339  1.0000  -2.7317   0.0000   0.0000   0.0000   0.2569
   7.000   0.7806   0.03812   0.03123  -0.0083  0.0345  1.0000  -2.7266   0.0000   0.0000   0.0000   0.2555
   7.100   0.7850   0.03964   0.03292  -0.0072  0.0354  1.0000  -2.7121   0.0000   0.0000   0.0000   0.2540
   7.200   0.7887   0.04122   0.03468  -0.0061  0.0366  1.0000  -2.6933   0.0000   0.0000   0.0000   0.2524
   8.900   0.7572   0.06845   0.06368   0.0146  0.0701  1.0000  -2.2743   0.0000   0.0000   0.0000   0.2246
   9.000   0.7486   0.06908   0.06436   0.0163  0.0698  1.0000  -2.2608   0.0000   0.0000   0.0000   0.2221
   9.100   0.7397   0.06988   0.06519   0.0177  0.0696  1.0000  -2.2451   0.0000   0.0000   0.0000   0.2198
   9.200   0.7310   0.07078   0.06612   0.0189  0.0695  1.0000  -2.2283   0.0000   0.0000   0.0000   0.2177
   9.300   0.7224   0.07178   0.06715   0.0199  0.0694  1.0000  -2.2104   0.0000   0.0000   0.0000   0.2160
   9.400   0.7139   0.07287   0.06827   0.0206  0.0693  1.0000  -2.1913   0.0000   0.0000   0.0000   0.2146
   9.500   0.7055   0.07405   0.06948   0.0211  0.0693  1.0000  -2.1710   0.0000   0.0000   0.0000   0.2134
   9.600   0.6972   0.07533   0.07078   0.0214  0.0693  1.0000  -2.1496   0.0000   0.0000   0.0000   0.2125
   9.700   0.6892   0.07670   0.07217   0.0215  0.0693  1.0000  -2.1271   0.0000   0.0000   0.0000   0.2119
   9.800   0.6814   0.07813   0.07361   0.0215  0.0693  1.0000  -2.1039   0.0000   0.0000   0.0000   0.2115
  10.500   0.6310   0.09082   0.08635   0.0153  0.0686  1.0000  -1.8856   0.0000   0.0000   0.0000   0.2181
  10.600   0.6256   0.09322   0.08874   0.0137  0.0684  1.0000  -1.8462   0.0000   0.0000   0.0000   0.2204
  10.700   0.6209   0.09551   0.09101   0.0122  0.0681  1.0000  -1.8097   0.0000   0.0000   0.0000   0.2226
  10.800   0.6169   0.09768   0.09316   0.0108  0.0677  1.0000  -1.7768   0.0000   0.0000   0.0000   0.2246
  10.900   0.6135   0.09975   0.09522   0.0095  0.0671  1.0000  -1.7474   0.0000   0.0000   0.0000   0.2265
  11.000   0.6105   0.10176   0.09721   0.0083  0.0665  1.0000  -1.7210   0.0000   0.0000   0.0000   0.2283
  11.100   0.6080   0.10371   0.09915   0.0072  0.0658  1.0000  -1.6976   0.0000   0.0000   0.0000   0.2299
  11.200   0.6059   0.10562   0.10104   0.0062  0.0651  1.0000  -1.6768   0.0000   0.0000   0.0000   0.2315
  11.300   0.6042   0.10750   0.10290   0.0052  0.0643  1.0000  -1.6586   0.0000   0.0000   0.0000   0.2330
  11.400   0.6028   0.10933   0.10472   0.0043  0.0635  1.0000  -1.6430   0.0000   0.0000   0.0000   0.2344
  11.500   0.6018   0.11114   0.10651   0.0034  0.0626  1.0000  -1.6299   0.0000   0.0000   0.0000   0.2358
  11.600   0.6011   0.11291   0.10827   0.0026  0.0618  1.0000  -1.6194   0.0000   0.0000   0.0000   0.2371
  11.700   0.6008   0.11464   0.10999   0.0018  0.0609  1.0000  -1.6113   0.0000   0.0000   0.0000   0.2383
  11.800   0.6007   0.11634   0.11168   0.0011  0.0600  1.0000  -1.6059   0.0000   0.0000   0.0000   0.2394
  11.900   0.6011   0.11801   0.11334   0.0004  0.0591  1.0000  -1.6033   0.0000   0.0000   0.0000   0.2405
  12.000   0.6018   0.11964   0.11496  -0.0002  0.0582  1.0000  -1.6039   0.0000   0.0000   0.0000   0.2414
  12.100   0.6029   0.12123   0.11654  -0.0008  0.0574  1.0000  -1.6079   0.0000   0.0000   0.0000   0.2423
  12.200   0.6044   0.12278   0.11809  -0.0013  0.0565  1.0000  -1.6159   0.0000   0.0000   0.0000   0.2431
  12.300   0.6065   0.12429   0.11959  -0.0017  0.0556  1.0000  -1.6287   0.0000   0.0000   0.0000   0.2437
  12.500   0.6114   0.12757   0.12287  -0.0025  0.0541  1.0000  -1.6611   0.0000   0.0000   0.0000   0.2447
  12.600   0.6168   0.12891   0.12422  -0.0024  0.0531  1.0000  -1.7061   0.0000   0.0000   0.0000   0.2444
  12.700   0.6228   0.13038   0.12569  -0.0022  0.0521  1.0000  -1.7566   0.0000   0.0000   0.0000   0.2439
  12.800   0.6297   0.13237   0.12769  -0.0018  0.0510  1.0000  -1.8149   0.0000   0.0000   0.0000   0.2432
  12.900   0.6294   0.13576   0.13108  -0.0025  0.0501  1.0000  -1.8019   0.0000   0.0000   0.0000   0.2443
  13.500   0.6264   0.15103   0.14623  -0.0089  0.0488  1.0000  -1.6380   0.0000   0.0000   0.0000   0.2540
  13.600   0.6275   0.15276   0.14794  -0.0097  0.0488  1.0000  -1.6269   0.0000   0.0000   0.0000   0.2553
  13.700   0.6286   0.15446   0.14964  -0.0106  0.0488  1.0000  -1.6162   0.0000   0.0000   0.0000   0.2565
  13.800   0.6297   0.15613   0.15131  -0.0114  0.0487  1.0000  -1.6057   0.0000   0.0000   0.0000   0.2577
  13.900   0.6309   0.15778   0.15295  -0.0123  0.0487  1.0000  -1.5956   0.0000   0.0000   0.0000   0.2589
  14.000   0.6321   0.15939   0.15455  -0.0131  0.0486  1.0000  -1.5857   0.0000   0.0000   0.0000   0.2601
  14.100   0.6333   0.16098   0.15613  -0.0139  0.0485  1.0000  -1.5760   0.0000   0.0000   0.0000   0.2613
  14.200   0.6346   0.16252   0.15766  -0.0147  0.0485  1.0000  -1.5665   0.0000   0.0000   0.0000   0.2624
  14.300   0.6358   0.16401   0.15915  -0.0156  0.0484  1.0000  -1.5572   0.0000   0.0000   0.0000   0.2636
  14.400   0.6371   0.16546   0.16059  -0.0164  0.0483  1.0000  -1.5480   0.0000   0.0000   0.0000   0.2648
  14.500   0.6384   0.16683   0.16196  -0.0172  0.0481  1.0000  -1.5388   0.0000   0.0000   0.0000   0.2659
  14.600   0.6397   0.16813   0.16325  -0.0180  0.0480  1.0000  -1.5295   0.0000   0.0000   0.0000   0.2670
  14.700   0.6408   0.16933   0.16444  -0.0189  0.0477  1.0000  -1.5192   0.0000   0.0000   0.0000   0.2682
  14.800   0.6411   0.17044   0.16554  -0.0199  0.0475  1.0000  -1.5027   0.0000   0.0000   0.0000   0.2696
  14.900   0.6414   0.17148   0.16657  -0.0208  0.0471  1.0000  -1.4854   0.0000   0.0000   0.0000   0.2710
  15.000   0.6414   0.17248   0.16756  -0.0218  0.0467  1.0000  -1.4661   0.0000   0.0000   0.0000   0.2725
  15.100   0.6415   0.17351   0.16858  -0.0228  0.0462  1.0000  -1.4468   0.0000   0.0000   0.0000   0.2739
  15.200   0.6417   0.17459   0.16965  -0.0238  0.0457  1.0000  -1.4284   0.0000   0.0000   0.0000   0.2753
  15.300   0.6420   0.17572   0.17077  -0.0247  0.0451  1.0000  -1.4121   0.0000   0.0000   0.0000   0.2766
  15.400   0.6429   0.17695   0.17199  -0.0256  0.0445  1.0000  -1.3986   0.0000   0.0000   0.0000   0.2778
  15.500   0.6440   0.17826   0.17330  -0.0264  0.0439  1.0000  -1.3874   0.0000   0.0000   0.0000   0.2789
  15.600   0.6455   0.17962   0.17465  -0.0272  0.0434  1.0000  -1.3783   0.0000   0.0000   0.0000   0.2800
  15.700   0.6471   0.18102   0.17605  -0.0280  0.0428  1.0000  -1.3708   0.0000   0.0000   0.0000   0.2810
  15.800   0.6489   0.18244   0.17746  -0.0288  0.0422  1.0000  -1.3645   0.0000   0.0000   0.0000   0.2819
  15.900   0.6508   0.18387   0.17889  -0.0295  0.0417  1.0000  -1.3592   0.0000   0.0000   0.0000   0.2828
  16.000   0.6527   0.18531   0.18033  -0.0302  0.0411  1.0000  -1.3548   0.0000   0.0000   0.0000   0.2837
  16.100   0.6548   0.18676   0.18177  -0.0310  0.0406  1.0000  -1.3510   0.0000   0.0000   0.0000   0.2845
  16.200   0.6569   0.18821   0.18322  -0.0317  0.0401  1.0000  -1.3479   0.0000   0.0000   0.0000   0.2853
  16.300   0.6590   0.18966   0.18466  -0.0324  0.0396  1.0000  -1.3453   0.0000   0.0000   0.0000   0.2861
  16.400   0.6612   0.19110   0.18610  -0.0331  0.0391  1.0000  -1.3431   0.0000   0.0000   0.0000   0.2869
  16.500   0.6634   0.19255   0.18754  -0.0338  0.0386  1.0000  -1.3415   0.0000   0.0000   0.0000   0.2877
  16.600   0.6657   0.19399   0.18898  -0.0344  0.0381  1.0000  -1.3402   0.0000   0.0000   0.0000   0.2884
  16.700   0.6680   0.19542   0.19041  -0.0351  0.0376  1.0000  -1.3394   0.0000   0.0000   0.0000   0.2891
  16.800   0.6703   0.19685   0.19184  -0.0358  0.0371  1.0000  -1.3390   0.0000   0.0000   0.0000   0.2898
  16.900   0.6726   0.19828   0.19326  -0.0364  0.0366  1.0000  -1.3390   0.0000   0.0000   0.0000   0.2905
  17.000   0.6750   0.19970   0.19468  -0.0371  0.0362  1.0000  -1.3394   0.0000   0.0000   0.0000   0.2912
  17.100   0.6774   0.20111   0.19609  -0.0378  0.0357  1.0000  -1.3403   0.0000   0.0000   0.0000   0.2918
  17.200   0.6798   0.20252   0.19750  -0.0384  0.0353  1.0000  -1.3415   0.0000   0.0000   0.0000   0.2925
  17.300   0.6823   0.20393   0.19890  -0.0390  0.0348  1.0000  -1.3431   0.0000   0.0000   0.0000   0.2931
  17.400   0.6848   0.20533   0.20030  -0.0397  0.0344  1.0000  -1.3452   0.0000   0.0000   0.0000   0.2937
  17.500   0.6873   0.20672   0.20169  -0.0403  0.0339  1.0000  -1.3477   0.0000   0.0000   0.0000   0.2943
  17.600   0.6898   0.20811   0.20308  -0.0410  0.0335  1.0000  -1.3506   0.0000   0.0000   0.0000   0.2949
  17.700   0.6923   0.20950   0.20446  -0.0416  0.0331  1.0000  -1.3539   0.0000   0.0000   0.0000   0.2954
  17.800   0.6949   0.21088   0.20584  -0.0422  0.0327  1.0000  -1.3578   0.0000   0.0000   0.0000   0.2960
  17.900   0.6975   0.21226   0.20722  -0.0428  0.0323  1.0000  -1.3621   0.0000   0.0000   0.0000   0.2965
  18.000   0.7001   0.21364   0.20860  -0.0434  0.0319  1.0000  -1.3669   0.0000   0.0000   0.0000   0.2970
  18.100   0.7028   0.21501   0.20997  -0.0440  0.0315  1.0000  -1.3722   0.0000   0.0000   0.0000   0.2975
  18.200   0.7055   0.21639   0.21135  -0.0446  0.0311  1.0000  -1.3782   0.0000   0.0000   0.0000   0.2980
  18.300   0.7082   0.21777   0.21272  -0.0452  0.0308  1.0000  -1.3847   0.0000   0.0000   0.0000   0.2985
  18.400   0.7109   0.21921   0.21420  -0.0458  0.0304  1.0000  -1.3935   0.0000   0.0000   0.0000   0.2989
  18.500   0.7137   0.22061   0.21560  -0.0464  0.0300  1.0000  -1.4019   0.0000   0.0000   0.0000   0.2993
  18.600   0.7166   0.22202   0.21701  -0.0469  0.0296  1.0000  -1.4111   0.0000   0.0000   0.0000   0.2997
  18.700   0.7195   0.22344   0.21842  -0.0475  0.0293  1.0000  -1.4210   0.0000   0.0000   0.0000   0.3001
  18.800   0.7224   0.22487   0.21985  -0.0480  0.0289  1.0000  -1.4320   0.0000   0.0000   0.0000   0.3005
  18.900   0.7255   0.22633   0.22131  -0.0486  0.0286  1.0000  -1.4441   0.0000   0.0000   0.0000   0.3008
  19.000   0.7287   0.22782   0.22280  -0.0491  0.0283  1.0000  -1.4576   0.0000   0.0000   0.0000   0.3011
  19.100   0.7320   0.22936   0.22434  -0.0496  0.0279  1.0000  -1.4725   0.0000   0.0000   0.0000   0.3014
  19.200   0.7354   0.23097   0.22595  -0.0501  0.0276  1.0000  -1.4895   0.0000   0.0000   0.0000   0.3016
  19.300   0.7391   0.23267   0.22765  -0.0506  0.0273  1.0000  -1.5086   0.0000   0.0000   0.0000   0.3017
  19.400   0.7430   0.23452   0.22950  -0.0510  0.0270  1.0000  -1.5304   0.0000   0.0000   0.0000   0.3018
  19.500   0.7474   0.23660   0.23158  -0.0514  0.0266  1.0000  -1.5553   0.0000   0.0000   0.0000   0.3019
  19.600   0.7524   0.23908   0.23407  -0.0518  0.0262  1.0000  -1.5843   0.0000   0.0000   0.0000   0.3018
  19.700   0.7584   0.24235   0.23735  -0.0521  0.0258  1.0000  -1.6187   0.0000   0.0000   0.0000   0.3016
  19.800   0.7654   0.24693   0.24195  -0.0525  0.0253  1.0000  -1.6510   0.0000   0.0000   0.0000   0.3014
  19.900   0.7682   0.25097   0.24598  -0.0533  0.0249  1.0000  -1.6372   0.0000   0.0000   0.0000   0.3021
  20.000   0.7689   0.25965   0.25467  -0.0549  0.0241  1.0000  -1.5335   0.0000   0.0000   0.0000   0.3041
  20.300   0.7608   0.27103   0.26739  -0.1089  0.0238  1.0000  -1.0241   0.0000   0.0000   0.0000   0.3797
  20.400   0.7632   0.27305   0.26941  -0.1096  0.0238  1.0000  -1.0236   0.0000   0.0000   0.0000   0.3801
  20.500   0.7655   0.27500   0.27136  -0.1104  0.0237  1.0000  -1.0229   0.0000   0.0000   0.0000   0.3805
  20.600   0.7678   0.27687   0.27322  -0.1112  0.0236  1.0000  -1.0220   0.0000   0.0000   0.0000   0.3809
  20.700   0.7699   0.27863   0.27498  -0.1120  0.0235  1.0000  -1.0203   0.0000   0.0000   0.0000   0.3813
  20.800   0.7716   0.28024   0.27659  -0.1128  0.0234  1.0000  -1.0160   0.0000   0.0000   0.0000   0.3819
  20.900   0.7732   0.28171   0.27806  -0.1137  0.0232  1.0000  -1.0099   0.0000   0.0000   0.0000   0.3825
  21.000   0.7747   0.28307   0.27942  -0.1146  0.0231  1.0000  -1.0031   0.0000   0.0000   0.0000   0.3832
  21.100   0.7763   0.28433   0.28068  -0.1155  0.0229  1.0000  -0.9956   0.0000   0.0000   0.0000   0.3840
  21.200   0.7779   0.28553   0.28189  -0.1165  0.0226  1.0000  -0.9872   0.0000   0.0000   0.0000   0.3847
  21.300   0.7796   0.28676   0.28312  -0.1175  0.0223  1.0000  -0.9784   0.0000   0.0000   0.0000   0.3854
  21.400   0.7815   0.28812   0.28448  -0.1184  0.0219  1.0000  -0.9698   0.0000   0.0000   0.0000   0.3861
  21.500   0.7837   0.28969   0.28604  -0.1193  0.0215  1.0000  -0.9623   0.0000   0.0000   0.0000   0.3866
  21.600   0.7861   0.29146   0.28782  -0.1201  0.0211  1.0000  -0.9566   0.0000   0.0000   0.0000   0.3871
  21.700   0.7886   0.29342   0.28978  -0.1209  0.0207  1.0000  -0.9528   0.0000   0.0000   0.0000   0.3874
  21.800   0.7912   0.29551   0.29187  -0.1217  0.0203  1.0000  -0.9506   0.0000   0.0000   0.0000   0.3877
  21.900   0.7939   0.29768   0.29405  -0.1224  0.0199  1.0000  -0.9497   0.0000   0.0000   0.0000   0.3879
  22.000   0.7966   0.29991   0.29628  -0.1231  0.0196  1.0000  -0.9499   0.0000   0.0000   0.0000   0.3880
  22.100   0.7993   0.30218   0.29855  -0.1237  0.0192  1.0000  -0.9509   0.0000   0.0000   0.0000   0.3881
  22.200   0.8020   0.30448   0.30084  -0.1244  0.0188  1.0000  -0.9526   0.0000   0.0000   0.0000   0.3883
  22.300   0.8047   0.30678   0.30315  -0.1250  0.0185  1.0000  -0.9549   0.0000   0.0000   0.0000   0.3884
  22.400   0.8073   0.30910   0.30547  -0.1257  0.0182  1.0000  -0.9576   0.0000   0.0000   0.0000   0.3884
  22.500   0.8100   0.31142   0.30779  -0.1263  0.0178  1.0000  -0.9608   0.0000   0.0000   0.0000   0.3885
  22.600   0.8126   0.31374   0.31011  -0.1269  0.0175  1.0000  -0.9644   0.0000   0.0000   0.0000   0.3886
  22.700   0.8152   0.31606   0.31243  -0.1276  0.0172  1.0000  -0.9683   0.0000   0.0000   0.0000   0.3886
  22.800   0.8178   0.31838   0.31474  -0.1282  0.0169  1.0000  -0.9727   0.0000   0.0000   0.0000   0.3887
  22.900   0.8204   0.32069   0.31705  -0.1288  0.0167  1.0000  -0.9773   0.0000   0.0000   0.0000   0.3887
  23.000   0.8230   0.32299   0.31936  -0.1294  0.0164  1.0000  -0.9823   0.0000   0.0000   0.0000   0.3888
  23.100   0.8256   0.32529   0.32166  -0.1300  0.0161  1.0000  -0.9877   0.0000   0.0000   0.0000   0.3888
  23.200   0.8281   0.32759   0.32395  -0.1306  0.0159  1.0000  -0.9934   0.0000   0.0000   0.0000   0.3889
  23.300   0.8306   0.32988   0.32633  -0.1312  0.0157  1.0000  -0.9986   0.0000   0.0000   0.0000   0.3889
  23.400   0.8331   0.33217   0.32863  -0.1317  0.0155  1.0000  -1.0043   0.0000   0.0000   0.0000   0.3889
  23.500   0.8356   0.33445   0.33091  -0.1323  0.0153  1.0000  -1.0108   0.0000   0.0000   0.0000   0.3889
  23.600   0.8381   0.33672   0.33318  -0.1329  0.0150  1.0000  -1.0179   0.0000   0.0000   0.0000   0.3889
  23.700   0.8406   0.33899   0.33544  -0.1335  0.0148  1.0000  -1.0255   0.0000   0.0000   0.0000   0.3889
  23.800   0.8430   0.34125   0.33770  -0.1340  0.0146  1.0000  -1.0336   0.0000   0.0000   0.0000   0.3889
  23.900   0.8454   0.34350   0.33996  -0.1346  0.0144  1.0000  -1.0423   0.0000   0.0000   0.0000   0.3889
  24.000   0.8479   0.34576   0.34221  -0.1351  0.0142  1.0000  -1.0516   0.0000   0.0000   0.0000   0.3889
  24.100   0.8503   0.34801   0.34446  -0.1357  0.0140  1.0000  -1.0616   0.0000   0.0000   0.0000   0.3888
  24.200   0.8527   0.35026   0.34671  -0.1362  0.0139  1.0000  -1.0724   0.0000   0.0000   0.0000   0.3888
  24.300   0.8552   0.35252   0.34897  -0.1367  0.0137  1.0000  -1.0840   0.0000   0.0000   0.0000   0.3887
  24.400   0.8576   0.35478   0.35124  -0.1372  0.0135  1.0000  -1.0966   0.0000   0.0000   0.0000   0.3886
  24.500   0.8600   0.35706   0.35352  -0.1377  0.0133  1.0000  -1.1102   0.0000   0.0000   0.0000   0.3885
  24.600   0.8625   0.35937   0.35582  -0.1382  0.0132  1.0000  -1.1250   0.0000   0.0000   0.0000   0.3883
  24.700   0.8650   0.36171   0.35816  -0.1386  0.0130  1.0000  -1.1413   0.0000   0.0000   0.0000   0.3882
  24.800   0.8676   0.36411   0.36055  -0.1390  0.0129  1.0000  -1.1592   0.0000   0.0000   0.0000   0.3879
  24.900   0.8703   0.36659   0.36304  -0.1393  0.0127  1.0000  -1.1791   0.0000   0.0000   0.0000   0.3876
  25.000   0.8732   0.36921   0.36565  -0.1396  0.0126  1.0000  -1.2014   0.0000   0.0000   0.0000   0.3872
  25.100   0.8763   0.37206   0.36850  -0.1399  0.0124  1.0000  -1.2269   0.0000   0.0000   0.0000   0.3866
  25.200   0.8799   0.37540   0.37183  -0.1400  0.0123  1.0000  -1.2574   0.0000   0.0000   0.0000   0.3859
  25.300   0.8853   0.38044   0.37688  -0.1397  0.0120  1.0000  -1.2986   0.0000   0.0000   0.0000   0.3844
  28.100   0.9301   0.34476   0.33985  -0.1063  0.0111  1.0000  -1.5685   0.0000   0.0000   0.0000   0.3324
  28.200   0.9315   0.34515   0.34024  -0.1069  0.0110  1.0000  -1.5586   0.0000   0.0000   0.0000   0.3327
  28.300   0.9329   0.34566   0.34075  -0.1076  0.0109  1.0000  -1.5491   0.0000   0.0000   0.0000   0.3331
  28.400   0.9344   0.34629   0.34139  -0.1083  0.0108  1.0000  -1.5402   0.0000   0.0000   0.0000   0.3334
  28.500   0.9360   0.34704   0.34214  -0.1089  0.0107  1.0000  -1.5322   0.0000   0.0000   0.0000   0.3337
  28.600   0.9377   0.34790   0.34300  -0.1096  0.0106  1.0000  -1.5253   0.0000   0.0000   0.0000   0.3339
  28.700   0.9394   0.34884   0.34396  -0.1103  0.0105  1.0000  -1.5194   0.0000   0.0000   0.0000   0.3342
  28.800   0.9412   0.34986   0.34498  -0.1109  0.0103  1.0000  -1.5145   0.0000   0.0000   0.0000   0.3345
  28.900   0.9430   0.35094   0.34606  -0.1115  0.0102  1.0000  -1.5104   0.0000   0.0000   0.0000   0.3347
  29.000   0.9447   0.35205   0.34718  -0.1122  0.0101  1.0000  -1.5071   0.0000   0.0000   0.0000   0.3349
  29.100   0.9465   0.35319   0.34832  -0.1128  0.0100  1.0000  -1.5044   0.0000   0.0000   0.0000   0.3352
  29.200   0.9482   0.35435   0.34949  -0.1135  0.0099  1.0000  -1.5023   0.0000   0.0000   0.0000   0.3354
  29.300   0.9500   0.35552   0.35067  -0.1141  0.0098  1.0000  -1.5008   0.0000   0.0000   0.0000   0.3356
  29.400   0.9517   0.35671   0.35187  -0.1147  0.0097  1.0000  -1.4996   0.0000   0.0000   0.0000   0.3358
  29.500   0.9534   0.35791   0.35307  -0.1153  0.0096  1.0000  -1.4988   0.0000   0.0000   0.0000   0.3361
  29.600   0.9551   0.35911   0.35428  -0.1160  0.0095  1.0000  -1.4983   0.0000   0.0000   0.0000   0.3363
  29.700   0.9568   0.36031   0.35548  -0.1166  0.0094  1.0000  -1.4981   0.0000   0.0000   0.0000   0.3365
  29.800   0.9585   0.36152   0.35670  -0.1172  0.0094  1.0000  -1.4982   0.0000   0.0000   0.0000   0.3367
  29.900   0.9601   0.36273   0.35791  -0.1179  0.0093  1.0000  -1.4984   0.0000   0.0000   0.0000   0.3369
  30.000   0.9618   0.36394   0.35913  -0.1185  0.0092  1.0000  -1.4989   0.0000   0.0000   0.0000   0.3371


