xflr5 v6.61

 Calculated polar for: NACA65-012

 1 1 Reynolds number fixed          Mach number fixed         

 xtrf =   1.000 (top)        1.000 (bottom)
 Mach =   0.000     Re =     0.400 e 6     Ncrit =   9.000

  alpha     CL        CD       CDp       Cm    Top Xtr Bot Xtr   Cpmin    Chinge    XCp    
 ------- -------- --------- --------- -------- ------- ------- -------- --------- ---------
  -8.900  -0.8715   0.03436   0.02917  -0.0136  1.0000  0.0233  -4.7942   0.0000   0.0000   0.0000   0.2263
  -8.800  -0.8622   0.03338   0.02806  -0.0131  1.0000  0.0222  -4.7923   0.0000   0.0000   0.0000   0.2267
  -8.700  -0.8566   0.03178   0.02634  -0.0127  1.0000  0.0220  -4.7789   0.0000   0.0000   0.0000   0.2272
  -8.600  -0.8505   0.03039   0.02481  -0.0123  1.0000  0.0219  -4.7625   0.0000   0.0000   0.0000   0.2277
  -8.500  -0.8437   0.02915   0.02343  -0.0118  1.0000  0.0219  -4.7406   0.0000   0.0000   0.0000   0.2282
  -8.400  -0.8365   0.02806   0.02220  -0.0114  1.0000  0.0219  -4.7101   0.0000   0.0000   0.0000   0.2286
  -8.300  -0.8287   0.02712   0.02112  -0.0110  1.0000  0.0220  -4.6700   0.0000   0.0000   0.0000   0.2290
  -8.200  -0.8206   0.02633   0.02021  -0.0107  1.0000  0.0222  -4.6202   0.0000   0.0000   0.0000   0.2294
  -8.100  -0.8124   0.02570   0.01945  -0.0103  1.0000  0.0223  -4.5613   0.0000   0.0000   0.0000   0.2298
  -8.000  -0.8045   0.02523   0.01888  -0.0099  1.0000  0.0225  -4.4952   0.0000   0.0000   0.0000   0.2302
  -7.900  -0.7973   0.02461   0.01815  -0.0094  1.0000  0.0226  -4.4363   0.0000   0.0000   0.0000   0.2308
  -7.800  -0.7894   0.02328   0.01674  -0.0091  1.0000  0.0228  -4.3945   0.0000   0.0000   0.0000   0.2312
  -7.700  -0.7807   0.02233   0.01575  -0.0089  0.9993  0.0231  -4.3282   0.0000   0.0000   0.0000   0.2314
  -7.500  -0.7536   0.02097   0.01435  -0.0105  0.9932  0.0238  -4.1264   0.0000   0.0000   0.0000   0.2290
  -7.400  -0.7399   0.02046   0.01382  -0.0113  0.9902  0.0241  -4.0374   0.0000   0.0000   0.0000   0.2278
  -7.200  -0.7122   0.01967   0.01300  -0.0129  0.9841  0.0253  -3.8471   0.0000   0.0000   0.0000   0.2251
  -7.100  -0.6985   0.01931   0.01260  -0.0135  0.9808  0.0260  -3.7583   0.0000   0.0000   0.0000   0.2239
  -7.000  -0.6851   0.01896   0.01218  -0.0142  0.9775  0.0267  -3.6764   0.0000   0.0000   0.0000   0.2227
  -6.900  -0.6718   0.01862   0.01178  -0.0147  0.9742  0.0272  -3.5976   0.0000   0.0000   0.0000   0.2215
  -6.800  -0.6592   0.01831   0.01141  -0.0151  0.9703  0.0275  -3.5208   0.0000   0.0000   0.0000   0.2206
  -6.700  -0.6476   0.01790   0.01094  -0.0152  0.9662  0.0278  -3.4505   0.0000   0.0000   0.0000   0.2200
  -6.600  -0.6380   0.01712   0.01018  -0.0152  0.9620  0.0283  -3.3941   0.0000   0.0000   0.0000   0.2198
  -6.500  -0.6288   0.01668   0.00975  -0.0149  0.9574  0.0288  -3.3234   0.0000   0.0000   0.0000   0.2199
  -6.400  -0.6202   0.01637   0.00944  -0.0146  0.9525  0.0292  -3.2514   0.0000   0.0000   0.0000   0.2203
  -6.300  -0.6121   0.01612   0.00917  -0.0140  0.9473  0.0297  -3.1808   0.0000   0.0000   0.0000   0.2209
  -6.200  -0.6042   0.01588   0.00892  -0.0135  0.9423  0.0302  -3.1117   0.0000   0.0000   0.0000   0.2216
  -6.100  -0.5965   0.01565   0.00867  -0.0129  0.9379  0.0307  -3.0443   0.0000   0.0000   0.0000   0.2224
  -6.000  -0.5886   0.01543   0.00842  -0.0123  0.9331  0.0312  -2.9772   0.0000   0.0000   0.0000   0.2232
  -5.900  -0.5806   0.01521   0.00817  -0.0117  0.9289  0.0317  -2.9105   0.0000   0.0000   0.0000   0.2240
  -5.800  -0.5726   0.01500   0.00793  -0.0111  0.9248  0.0323  -2.8439   0.0000   0.0000   0.0000   0.2248
  -5.700  -0.5641   0.01483   0.00773  -0.0106  0.9208  0.0329  -2.7745   0.0000   0.0000   0.0000   0.2254
  -5.600  -0.5558   0.01463   0.00750  -0.0101  0.9169  0.0335  -2.7067   0.0000   0.0000   0.0000   0.2261
  -5.500  -0.5492   0.01421   0.00709  -0.0095  0.9130  0.0345  -2.6473   0.0000   0.0000   0.0000   0.2272
  -5.400  -0.5410   0.01399   0.00685  -0.0090  0.9091  0.0354  -2.5759   0.0000   0.0000   0.0000   0.2279
  -5.300  -0.5325   0.01381   0.00665  -0.0085  0.9058  0.0364  -2.5051   0.0000   0.0000   0.0000   0.2285
  -5.200  -0.5235   0.01362   0.00645  -0.0082  0.9019  0.0374  -2.4401   0.0000   0.0000   0.0000   0.2290
  -5.100  -0.5149   0.01344   0.00624  -0.0077  0.8988  0.0383  -2.3862   0.0000   0.0000   0.0000   0.2297
  -5.000  -0.5054   0.01329   0.00605  -0.0075  0.8952  0.0391  -2.3300   0.0000   0.0000   0.0000   0.2300
  -4.900  -0.4973   0.01298   0.00574  -0.0070  0.8917  0.0403  -2.2802   0.0000   0.0000   0.0000   0.2308
  -4.800  -0.4888   0.01277   0.00552  -0.0066  0.8890  0.0417  -2.2243   0.0000   0.0000   0.0000   0.2315
  -4.700  -0.4791   0.01260   0.00534  -0.0064  0.8853  0.0433  -2.1652   0.0000   0.0000   0.0000   0.2316
  -4.600  -0.4695   0.01245   0.00516  -0.0061  0.8823  0.0451  -2.1080   0.0000   0.0000   0.0000   0.2320
  -4.500  -0.4607   0.01224   0.00494  -0.0057  0.8797  0.0474  -2.0541   0.0000   0.0000   0.0000   0.2326
  -4.400  -0.4509   0.01205   0.00476  -0.0056  0.8764  0.0505  -1.9959   0.0000   0.0000   0.0000   0.2328
  -4.300  -0.4414   0.01186   0.00458  -0.0053  0.8733  0.0552  -1.9401   0.0000   0.0000   0.0000   0.2331
  -4.200  -0.4324   0.01163   0.00438  -0.0050  0.8707  0.0639  -1.8863   0.0000   0.0000   0.0000   0.2337
  -4.100  -0.4247   0.01117   0.00411  -0.0046  0.8675  0.0985  -1.8392   0.0000   0.0000   0.0000   0.2344
  -4.000  -0.4207   0.01022   0.00372  -0.0040  0.8640  0.2171  -1.8018   0.0000   0.0000   0.0000   0.2359
  -3.900  -0.4174   0.00926   0.00334  -0.0032  0.8610  0.3497  -1.7630   0.0000   0.0000   0.0000   0.2377
  -3.800  -0.4135   0.00845   0.00309  -0.0024  0.8579  0.4773  -1.7201   0.0000   0.0000   0.0000   0.2398
  -3.700  -0.4055   0.00816   0.00306  -0.0019  0.8547  0.5417  -1.6637   0.0000   0.0000   0.0000   0.2410
  -3.600  -0.3960   0.00806   0.00304  -0.0016  0.8520  0.5724  -1.6028   0.0000   0.0000   0.0000   0.2418
  -3.500  -0.3859   0.00802   0.00301  -0.0013  0.8498  0.5922  -1.5492   0.0000   0.0000   0.0000   0.2424
  -3.400  -0.3753   0.00798   0.00300  -0.0012  0.8471  0.6071  -1.4946   0.0000   0.0000   0.0000   0.2427
  -3.300  -0.3647   0.00796   0.00299  -0.0011  0.8443  0.6200  -1.4399   0.0000   0.0000   0.0000   0.2429
  -3.200  -0.3542   0.00794   0.00298  -0.0009  0.8418  0.6308  -1.3858   0.0000   0.0000   0.0000   0.2434
  -3.100  -0.3437   0.00793   0.00296  -0.0007  0.8397  0.6402  -1.3319   0.0000   0.0000   0.0000   0.2438
  -3.000  -0.3328   0.00794   0.00294  -0.0007  0.8373  0.6491  -1.2778   0.0000   0.0000   0.0000   0.2440
  -2.900  -0.3219   0.00792   0.00295  -0.0006  0.8344  0.6560  -1.2241   0.0000   0.0000   0.0000   0.2442
  -2.800  -0.3110   0.00793   0.00292  -0.0005  0.8318  0.6636  -1.1707   0.0000   0.0000   0.0000   0.2444
  -2.700  -0.3005   0.00794   0.00294  -0.0003  0.8296  0.6719  -1.1185   0.0000   0.0000   0.0000   0.2451
  -2.600  -0.2901   0.00797   0.00297  -0.0000  0.8277  0.6825  -1.0671   0.0000   0.0000   0.0000   0.2460
  -2.500  -0.2796   0.00802   0.00305   0.0002  0.8248  0.6945  -1.0158   0.0000   0.0000   0.0000   0.2469
  -2.400  -0.2693   0.00809   0.00313   0.0005  0.8222  0.7060  -0.9652   0.0000   0.0000   0.0000   0.2481
  -2.300  -0.2589   0.00815   0.00320   0.0008  0.8199  0.7148  -0.9151   0.0000   0.0000   0.0000   0.2493
  -2.200  -0.2483   0.00819   0.00324   0.0010  0.8179  0.7207  -0.8654   0.0000   0.0000   0.0000   0.2504
  -2.100  -0.2375   0.00822   0.00326   0.0012  0.8160  0.7255  -0.8161   0.0000   0.0000   0.0000   0.2513
  -2.000  -0.2262   0.00823   0.00325   0.0011  0.8133  0.7295  -0.7669   0.0000   0.0000   0.0000   0.2513
  -1.900  -0.2150   0.00822   0.00323   0.0011  0.8108  0.7321  -0.7246   0.0000   0.0000   0.0000   0.2515
  -1.800  -0.2039   0.00822   0.00322   0.0011  0.8085  0.7345  -0.6828   0.0000   0.0000   0.0000   0.2520
  -1.700  -0.1928   0.00821   0.00320   0.0011  0.8065  0.7369  -0.6416   0.0000   0.0000   0.0000   0.2525
  -1.600  -0.1816   0.00822   0.00317   0.0011  0.8047  0.7393  -0.6008   0.0000   0.0000   0.0000   0.2529
  -1.500  -0.1701   0.00821   0.00314   0.0010  0.8020  0.7417  -0.5601   0.0000   0.0000   0.0000   0.2525
  -1.400  -0.1587   0.00820   0.00311   0.0009  0.7996  0.7438  -0.5200   0.0000   0.0000   0.0000   0.2522
  -1.300  -0.1474   0.00818   0.00309   0.0009  0.7974  0.7454  -0.4805   0.0000   0.0000   0.0000   0.2525
  -1.200  -0.1362   0.00817   0.00308   0.0008  0.7955  0.7471  -0.4415   0.0000   0.0000   0.0000   0.2528
  -1.100  -0.1250   0.00817   0.00306   0.0008  0.7937  0.7490  -0.4031   0.0000   0.0000   0.0000   0.2533
  -1.000  -0.1136   0.00816   0.00304   0.0007  0.7916  0.7510  -0.3937   0.0000   0.0000   0.0000   0.2532
  -0.900  -0.1021   0.00816   0.00303   0.0006  0.7891  0.7531  -0.3886   0.0000   0.0000   0.0000   0.2528
  -0.800  -0.0907   0.00815   0.00300   0.0005  0.7868  0.7554  -0.3835   0.0000   0.0000   0.0000   0.2522
  -0.700  -0.0794   0.00814   0.00298   0.0004  0.7847  0.7571  -0.3784   0.0000   0.0000   0.0000   0.2524
  -0.600  -0.0682   0.00813   0.00297   0.0004  0.7829  0.7588  -0.3734   0.0000   0.0000   0.0000   0.2532
  -0.500  -0.0569   0.00814   0.00296   0.0004  0.7813  0.7606  -0.3685   0.0000   0.0000   0.0000   0.2542
  -0.400  -0.0455   0.00813   0.00297   0.0003  0.7790  0.7626  -0.3635   0.0000   0.0000   0.0000   0.2538
  -0.300  -0.0340   0.00813   0.00297   0.0002  0.7767  0.7647  -0.3585   0.0000   0.0000   0.0000   0.2528
  -0.200  -0.0226   0.00813   0.00296   0.0001  0.7745  0.7670  -0.3536   0.0000   0.0000   0.0000   0.2510
  -0.100  -0.0112   0.00813   0.00294   0.0000  0.7725  0.7691  -0.3487   0.0000   0.0000   0.0000   0.2474
   0.000   0.0000   0.00812   0.00294  -0.0000  0.7707  0.7707  -0.3437   0.0000   0.0000   0.0000   0.3131
   0.100   0.0112   0.00813   0.00294  -0.0000  0.7691  0.7725  -0.3487   0.0000   0.0000   0.0000   0.2474
   0.200   0.0226   0.00813   0.00296  -0.0001  0.7670  0.7745  -0.3536   0.0000   0.0000   0.0000   0.2510
   0.300   0.0340   0.00813   0.00297  -0.0002  0.7647  0.7767  -0.3585   0.0000   0.0000   0.0000   0.2528
   0.400   0.0455   0.00813   0.00297  -0.0003  0.7626  0.7790  -0.3635   0.0000   0.0000   0.0000   0.2538
   0.500   0.0569   0.00814   0.00296  -0.0004  0.7606  0.7813  -0.3685   0.0000   0.0000   0.0000   0.2542
   0.600   0.0682   0.00813   0.00297  -0.0004  0.7588  0.7829  -0.3734   0.0000   0.0000   0.0000   0.2532
   0.700   0.0794   0.00814   0.00298  -0.0004  0.7571  0.7847  -0.3784   0.0000   0.0000   0.0000   0.2524
   0.800   0.0907   0.00815   0.00300  -0.0005  0.7554  0.7868  -0.3835   0.0000   0.0000   0.0000   0.2522
   0.900   0.1021   0.00816   0.00303  -0.0006  0.7531  0.7891  -0.3886   0.0000   0.0000   0.0000   0.2528
   1.000   0.1136   0.00816   0.00304  -0.0007  0.7510  0.7916  -0.3937   0.0000   0.0000   0.0000   0.2532
   1.100   0.1250   0.00817   0.00306  -0.0008  0.7490  0.7937  -0.4031   0.0000   0.0000   0.0000   0.2533
   1.200   0.1362   0.00817   0.00308  -0.0008  0.7471  0.7955  -0.4415   0.0000   0.0000   0.0000   0.2528
   1.300   0.1474   0.00818   0.00309  -0.0009  0.7454  0.7974  -0.4805   0.0000   0.0000   0.0000   0.2525
   1.400   0.1587   0.00820   0.00311  -0.0009  0.7438  0.7996  -0.5200   0.0000   0.0000   0.0000   0.2522
   1.500   0.1701   0.00821   0.00314  -0.0010  0.7417  0.8020  -0.5601   0.0000   0.0000   0.0000   0.2525
   1.600   0.1816   0.00822   0.00317  -0.0011  0.7393  0.8047  -0.6008   0.0000   0.0000   0.0000   0.2529
   1.700   0.1928   0.00821   0.00320  -0.0011  0.7369  0.8065  -0.6416   0.0000   0.0000   0.0000   0.2525
   1.800   0.2039   0.00822   0.00322  -0.0011  0.7345  0.8085  -0.6828   0.0000   0.0000   0.0000   0.2520
   1.900   0.2150   0.00822   0.00323  -0.0011  0.7321  0.8108  -0.7246   0.0000   0.0000   0.0000   0.2515
   2.000   0.2262   0.00823   0.00325  -0.0011  0.7295  0.8133  -0.7669   0.0000   0.0000   0.0000   0.2513
   2.100   0.2375   0.00822   0.00326  -0.0012  0.7255  0.8160  -0.8161   0.0000   0.0000   0.0000   0.2513
   2.200   0.2483   0.00819   0.00324  -0.0010  0.7207  0.8179  -0.8654   0.0000   0.0000   0.0000   0.2504
   2.300   0.2589   0.00815   0.00320  -0.0008  0.7148  0.8199  -0.9151   0.0000   0.0000   0.0000   0.2493
   2.400   0.2693   0.00809   0.00313  -0.0005  0.7060  0.8222  -0.9652   0.0000   0.0000   0.0000   0.2481
   2.500   0.2796   0.00802   0.00305  -0.0002  0.6945  0.8248  -1.0158   0.0000   0.0000   0.0000   0.2469
   2.600   0.2901   0.00797   0.00297   0.0000  0.6825  0.8277  -1.0671   0.0000   0.0000   0.0000   0.2460
   2.700   0.3005   0.00794   0.00294   0.0003  0.6719  0.8296  -1.1185   0.0000   0.0000   0.0000   0.2451
   2.800   0.3110   0.00793   0.00292   0.0005  0.6636  0.8318  -1.1707   0.0000   0.0000   0.0000   0.2444
   2.900   0.3219   0.00792   0.00295   0.0006  0.6560  0.8344  -1.2241   0.0000   0.0000   0.0000   0.2442
   3.000   0.3328   0.00794   0.00294   0.0007  0.6491  0.8373  -1.2778   0.0000   0.0000   0.0000   0.2440
   3.100   0.3437   0.00793   0.00296   0.0007  0.6402  0.8397  -1.3320   0.0000   0.0000   0.0000   0.2438
   3.200   0.3542   0.00794   0.00298   0.0009  0.6308  0.8418  -1.3858   0.0000   0.0000   0.0000   0.2434
   3.300   0.3647   0.00796   0.00299   0.0011  0.6200  0.8443  -1.4399   0.0000   0.0000   0.0000   0.2429
   3.400   0.3753   0.00798   0.00300   0.0012  0.6071  0.8471  -1.4946   0.0000   0.0000   0.0000   0.2427
   3.500   0.3859   0.00802   0.00301   0.0013  0.5922  0.8498  -1.5492   0.0000   0.0000   0.0000   0.2424
   3.600   0.3960   0.00806   0.00304   0.0016  0.5724  0.8520  -1.6028   0.0000   0.0000   0.0000   0.2418
   3.700   0.4055   0.00816   0.00306   0.0019  0.5417  0.8547  -1.6637   0.0000   0.0000   0.0000   0.2410
   3.800   0.4135   0.00845   0.00309   0.0024  0.4773  0.8579  -1.7201   0.0000   0.0000   0.0000   0.2398
   3.900   0.4174   0.00926   0.00334   0.0032  0.3496  0.8610  -1.7630   0.0000   0.0000   0.0000   0.2377
   4.000   0.4207   0.01022   0.00372   0.0040  0.2171  0.8640  -1.8018   0.0000   0.0000   0.0000   0.2359
   4.100   0.4247   0.01117   0.00411   0.0046  0.0984  0.8675  -1.8392   0.0000   0.0000   0.0000   0.2344
   4.200   0.4324   0.01163   0.00438   0.0050  0.0639  0.8707  -1.8863   0.0000   0.0000   0.0000   0.2337
   4.300   0.4414   0.01186   0.00458   0.0053  0.0552  0.8733  -1.9401   0.0000   0.0000   0.0000   0.2331
   4.400   0.4509   0.01205   0.00476   0.0056  0.0505  0.8764  -1.9959   0.0000   0.0000   0.0000   0.2328
   4.500   0.4607   0.01223   0.00494   0.0057  0.0474  0.8797  -2.0541   0.0000   0.0000   0.0000   0.2326
   4.600   0.4695   0.01245   0.00516   0.0061  0.0451  0.8823  -2.1080   0.0000   0.0000   0.0000   0.2320
   4.700   0.4791   0.01260   0.00534   0.0064  0.0433  0.8853  -2.1652   0.0000   0.0000   0.0000   0.2316
   4.800   0.4888   0.01277   0.00552   0.0066  0.0417  0.8890  -2.2243   0.0000   0.0000   0.0000   0.2315
   4.900   0.4974   0.01298   0.00574   0.0070  0.0403  0.8917  -2.2802   0.0000   0.0000   0.0000   0.2308
   5.000   0.5055   0.01329   0.00605   0.0075  0.0391  0.8952  -2.3300   0.0000   0.0000   0.0000   0.2300
   5.100   0.5149   0.01344   0.00624   0.0077  0.0383  0.8988  -2.3862   0.0000   0.0000   0.0000   0.2297
   5.200   0.5236   0.01362   0.00645   0.0082  0.0374  0.9019  -2.4402   0.0000   0.0000   0.0000   0.2290
   5.300   0.5325   0.01381   0.00665   0.0085  0.0364  0.9058  -2.5052   0.0000   0.0000   0.0000   0.2285
   5.400   0.5410   0.01399   0.00685   0.0090  0.0354  0.9091  -2.5760   0.0000   0.0000   0.0000   0.2279
   5.500   0.5492   0.01421   0.00709   0.0095  0.0345  0.9130  -2.6474   0.0000   0.0000   0.0000   0.2272
   5.600   0.5558   0.01463   0.00750   0.0101  0.0335  0.9169  -2.7067   0.0000   0.0000   0.0000   0.2261
   5.700   0.5641   0.01483   0.00773   0.0106  0.0328  0.9208  -2.7746   0.0000   0.0000   0.0000   0.2254
   5.800   0.5726   0.01500   0.00793   0.0111  0.0323  0.9248  -2.8440   0.0000   0.0000   0.0000   0.2248
   5.900   0.5807   0.01521   0.00817   0.0117  0.0317  0.9289  -2.9106   0.0000   0.0000   0.0000   0.2240
   6.000   0.5886   0.01543   0.00842   0.0123  0.0312  0.9331  -2.9773   0.0000   0.0000   0.0000   0.2232
   6.100   0.5965   0.01565   0.00867   0.0128  0.0306  0.9379  -3.0444   0.0000   0.0000   0.0000   0.2224
   6.200   0.6042   0.01588   0.00892   0.0135  0.0302  0.9424  -3.1118   0.0000   0.0000   0.0000   0.2216
   6.300   0.6121   0.01612   0.00917   0.0140  0.0297  0.9473  -3.1809   0.0000   0.0000   0.0000   0.2209
   6.400   0.6203   0.01637   0.00944   0.0145  0.0292  0.9525  -3.2515   0.0000   0.0000   0.0000   0.2203
   6.500   0.6288   0.01668   0.00975   0.0149  0.0288  0.9575  -3.3236   0.0000   0.0000   0.0000   0.2199
   6.600   0.6380   0.01712   0.01018   0.0151  0.0283  0.9620  -3.3942   0.0000   0.0000   0.0000   0.2199
   6.700   0.6477   0.01791   0.01094   0.0152  0.0278  0.9662  -3.4506   0.0000   0.0000   0.0000   0.2200
   6.800   0.6593   0.01831   0.01141   0.0151  0.0275  0.9704  -3.5209   0.0000   0.0000   0.0000   0.2206
   6.900   0.6719   0.01862   0.01178   0.0147  0.0272  0.9742  -3.5978   0.0000   0.0000   0.0000   0.2215
   7.000   0.6851   0.01896   0.01218   0.0141  0.0267  0.9775  -3.6766   0.0000   0.0000   0.0000   0.2227
   7.100   0.6986   0.01931   0.01260   0.0135  0.0260  0.9808  -3.7585   0.0000   0.0000   0.0000   0.2239
   7.200   0.7122   0.01967   0.01300   0.0128  0.0253  0.9841  -3.8473   0.0000   0.0000   0.0000   0.2252
   7.400   0.7399   0.02046   0.01382   0.0113  0.0241  0.9902  -4.0376   0.0000   0.0000   0.0000   0.2278
   7.500   0.7537   0.02097   0.01435   0.0105  0.0238  0.9932  -4.1266   0.0000   0.0000   0.0000   0.2291
   7.600   0.7673   0.02155   0.01495   0.0097  0.0234  0.9962  -4.2264   0.0000   0.0000   0.0000   0.2303
   7.700   0.7808   0.02233   0.01575   0.0089  0.0231  0.9993  -4.3284   0.0000   0.0000   0.0000   0.2314
   7.800   0.7894   0.02327   0.01674   0.0091  0.0228  1.0000  -4.3945   0.0000   0.0000   0.0000   0.2312
   7.900   0.7973   0.02461   0.01815   0.0094  0.0226  1.0000  -4.4363   0.0000   0.0000   0.0000   0.2308
   8.000   0.8046   0.02523   0.01887   0.0099  0.0225  1.0000  -4.4953   0.0000   0.0000   0.0000   0.2302
   8.100   0.8125   0.02570   0.01945   0.0103  0.0223  1.0000  -4.5614   0.0000   0.0000   0.0000   0.2298
   8.200   0.8207   0.02633   0.02021   0.0107  0.0222  1.0000  -4.6203   0.0000   0.0000   0.0000   0.2294
   8.300   0.8288   0.02712   0.02112   0.0110  0.0220  1.0000  -4.6701   0.0000   0.0000   0.0000   0.2290
   8.400   0.8365   0.02806   0.02220   0.0114  0.0219  1.0000  -4.7102   0.0000   0.0000   0.0000   0.2286
   8.500   0.8438   0.02915   0.02343   0.0118  0.0219  1.0000  -4.7406   0.0000   0.0000   0.0000   0.2282
   8.600   0.8505   0.03039   0.02482   0.0123  0.0219  1.0000  -4.7626   0.0000   0.0000   0.0000   0.2277
   8.700   0.8567   0.03178   0.02634   0.0127  0.0220  1.0000  -4.7789   0.0000   0.0000   0.0000   0.2272
   8.800   0.8623   0.03339   0.02806   0.0131  0.0222  1.0000  -4.7924   0.0000   0.0000   0.0000   0.2268
  13.300   0.6754   0.14347   0.14095  -0.0196  0.0244  1.0000  -2.3403   0.0000   0.0000   0.0000   0.2666
  13.400   0.6768   0.14511   0.14259  -0.0203  0.0241  1.0000  -2.3487   0.0000   0.0000   0.0000   0.2675
  13.500   0.6786   0.14664   0.14412  -0.0210  0.0239  1.0000  -2.3638   0.0000   0.0000   0.0000   0.2683
  13.600   0.6806   0.14807   0.14555  -0.0216  0.0237  1.0000  -2.3860   0.0000   0.0000   0.0000   0.2690
  13.700   0.6830   0.14940   0.14688  -0.0221  0.0235  1.0000  -2.4157   0.0000   0.0000   0.0000   0.2694
  13.800   0.6856   0.15064   0.14812  -0.0225  0.0233  1.0000  -2.4533   0.0000   0.0000   0.0000   0.2698
  13.900   0.6885   0.15176   0.14924  -0.0227  0.0231  1.0000  -2.4991   0.0000   0.0000   0.0000   0.2699
  14.000   0.6916   0.15280   0.15029  -0.0229  0.0230  1.0000  -2.5520   0.0000   0.0000   0.0000   0.2699
  14.100   0.6947   0.15381   0.15130  -0.0230  0.0229  1.0000  -2.6110   0.0000   0.0000   0.0000   0.2697
  14.200   0.6975   0.15484   0.15233  -0.0228  0.0227  1.0000  -2.6774   0.0000   0.0000   0.0000   0.2691
  14.300   0.6975   0.15704   0.15452  -0.0231  0.0226  1.0000  -2.6771   0.0000   0.0000   0.0000   0.2694
  14.400   0.6981   0.15936   0.15684  -0.0244  0.0225  1.0000  -2.6339   0.0000   0.0000   0.0000   0.2712
  14.500   0.6980   0.16190   0.15937  -0.0259  0.0225  1.0000  -2.5716   0.0000   0.0000   0.0000   0.2733
  14.600   0.6979   0.16446   0.16192  -0.0275  0.0225  1.0000  -2.5043   0.0000   0.0000   0.0000   0.2755
  14.700   0.6978   0.16710   0.16456  -0.0292  0.0224  1.0000  -2.4257   0.0000   0.0000   0.0000   0.2779
  14.800   0.6959   0.17043   0.16787  -0.0318  0.0221  1.0000  -2.2821   0.0000   0.0000   0.0000   0.2817
  14.900   0.6941   0.17345   0.17089  -0.0342  0.0216  1.0000  -2.1535   0.0000   0.0000   0.0000   0.2853
  15.000   0.6954   0.17547   0.17290  -0.0355  0.0212  1.0000  -2.1187   0.0000   0.0000   0.0000   0.2869
  15.100   0.6972   0.17728   0.17471  -0.0365  0.0208  1.0000  -2.1027   0.0000   0.0000   0.0000   0.2881
  15.200   0.6992   0.17901   0.17643  -0.0374  0.0205  1.0000  -2.0939   0.0000   0.0000   0.0000   0.2891
  15.300   0.7014   0.18068   0.17810  -0.0383  0.0202  1.0000  -2.0894   0.0000   0.0000   0.0000   0.2901
  15.400   0.7037   0.18230   0.17972  -0.0391  0.0200  1.0000  -2.0882   0.0000   0.0000   0.0000   0.2910
  15.500   0.7062   0.18389   0.18131  -0.0400  0.0198  1.0000  -2.0896   0.0000   0.0000   0.0000   0.2919
  15.600   0.7087   0.18544   0.18286  -0.0408  0.0196  1.0000  -2.0936   0.0000   0.0000   0.0000   0.2927
  15.700   0.7113   0.18695   0.18438  -0.0416  0.0194  1.0000  -2.1001   0.0000   0.0000   0.0000   0.2935
  15.800   0.7140   0.18843   0.18586  -0.0424  0.0192  1.0000  -2.1090   0.0000   0.0000   0.0000   0.2943
  15.900   0.7167   0.18987   0.18730  -0.0431  0.0190  1.0000  -2.1207   0.0000   0.0000   0.0000   0.2950
  16.000   0.7196   0.19128   0.18870  -0.0438  0.0189  1.0000  -2.1352   0.0000   0.0000   0.0000   0.2956
  16.100   0.7226   0.19266   0.19008  -0.0445  0.0187  1.0000  -2.1542   0.0000   0.0000   0.0000   0.2961
  16.200   0.7257   0.19395   0.19138  -0.0451  0.0186  1.0000  -2.1798   0.0000   0.0000   0.0000   0.2966
  16.300   0.7291   0.19519   0.19261  -0.0456  0.0184  1.0000  -2.2137   0.0000   0.0000   0.0000   0.2968
  16.400   0.7329   0.19634   0.19378  -0.0460  0.0183  1.0000  -2.2596   0.0000   0.0000   0.0000   0.2968
  16.500   0.7374   0.19741   0.19485  -0.0461  0.0182  1.0000  -2.3246   0.0000   0.0000   0.0000   0.2964
  16.600   0.7427   0.19843   0.19588  -0.0458  0.0180  1.0000  -2.4122   0.0000   0.0000   0.0000   0.2955
  16.700   0.5172   0.17050   0.16826  -0.0264  0.0201  1.0000  -1.4172   0.0000   0.0000   0.0000   0.2904
  16.800   0.5189   0.17169   0.16945  -0.0271  0.0199  1.0000  -1.4160   0.0000   0.0000   0.0000   0.2914
  16.900   0.5206   0.17286   0.17062  -0.0277  0.0196  1.0000  -1.4166   0.0000   0.0000   0.0000   0.2924
  17.000   0.5224   0.17401   0.17177  -0.0283  0.0194  1.0000  -1.4188   0.0000   0.0000   0.0000   0.2933
  17.100   0.5242   0.17515   0.17291  -0.0289  0.0192  1.0000  -1.4228   0.0000   0.0000   0.0000   0.2941
  17.200   0.5262   0.17625   0.17402  -0.0295  0.0190  1.0000  -1.4299   0.0000   0.0000   0.0000   0.2950
  17.300   0.5283   0.17733   0.17510  -0.0300  0.0189  1.0000  -1.4412   0.0000   0.0000   0.0000   0.2957
  17.400   0.5306   0.17837   0.17615  -0.0305  0.0187  1.0000  -1.4578   0.0000   0.0000   0.0000   0.2963
  17.500   0.5331   0.17939   0.17717  -0.0310  0.0185  1.0000  -1.4816   0.0000   0.0000   0.0000   0.2968
  17.600   0.5361   0.18037   0.17815  -0.0314  0.0183  1.0000  -1.5153   0.0000   0.0000   0.0000   0.2970
  17.700   0.5398   0.18132   0.17911  -0.0316  0.0182  1.0000  -1.5653   0.0000   0.0000   0.0000   0.2968
  17.800   0.5461   0.18242   0.18022  -0.0312  0.0180  1.0000  -1.6581   0.0000   0.0000   0.0000   0.2953
  17.900   0.5507   0.18429   0.18209  -0.0311  0.0178  1.0000  -1.7029   0.0000   0.0000   0.0000   0.2945
  18.000   0.5510   0.18565   0.18345  -0.0321  0.0178  1.0000  -1.6648   0.0000   0.0000   0.0000   0.2961
  18.100   0.5513   0.18696   0.18476  -0.0330  0.0178  1.0000  -1.6272   0.0000   0.0000   0.0000   0.2977
  18.200   0.5514   0.18827   0.18607  -0.0339  0.0177  1.0000  -1.5855   0.0000   0.0000   0.0000   0.2994
  18.300   0.5509   0.18955   0.18735  -0.0350  0.0177  1.0000  -1.5331   0.0000   0.0000   0.0000   0.3014
  18.400   0.5503   0.19085   0.18865  -0.0362  0.0176  1.0000  -1.4755   0.0000   0.0000   0.0000   0.3035
  18.500   0.5498   0.19222   0.19002  -0.0373  0.0175  1.0000  -1.4089   0.0000   0.0000   0.0000   0.3057
  18.600   0.5498   0.19370   0.19150  -0.0385  0.0173  1.0000  -1.3375   0.0000   0.0000   0.0000   0.3079
  18.700   0.5510   0.19513   0.19293  -0.0394  0.0169  1.0000  -1.2967   0.0000   0.0000   0.0000   0.3092
  18.800   0.5527   0.19644   0.19424  -0.0401  0.0165  1.0000  -1.2790   0.0000   0.0000   0.0000   0.3103
  18.900   0.5544   0.19769   0.19550  -0.0407  0.0162  1.0000  -1.2741   0.0000   0.0000   0.0000   0.3112
  19.000   0.5563   0.19895   0.19676  -0.0414  0.0159  1.0000  -1.2724   0.0000   0.0000   0.0000   0.3120
  19.100   0.5582   0.20018   0.19800  -0.0421  0.0156  1.0000  -1.2728   0.0000   0.0000   0.0000   0.3128
  19.200   0.5601   0.20140   0.19922  -0.0427  0.0154  1.0000  -1.2750   0.0000   0.0000   0.0000   0.3136
  19.300   0.5620   0.20260   0.20042  -0.0433  0.0152  1.0000  -1.2789   0.0000   0.0000   0.0000   0.3144
  19.400   0.5640   0.20379   0.20162  -0.0440  0.0150  1.0000  -1.2843   0.0000   0.0000   0.0000   0.3151
  19.500   0.5660   0.20497   0.20280  -0.0446  0.0148  1.0000  -1.2915   0.0000   0.0000   0.0000   0.3158
  19.600   0.5681   0.20613   0.20396  -0.0452  0.0146  1.0000  -1.3005   0.0000   0.0000   0.0000   0.3165
  19.700   0.5701   0.20729   0.20512  -0.0458  0.0144  1.0000  -1.3115   0.0000   0.0000   0.0000   0.3171
  19.800   0.5723   0.20842   0.20626  -0.0464  0.0143  1.0000  -1.3247   0.0000   0.0000   0.0000   0.3177
  19.900   0.5745   0.20955   0.20739  -0.0469  0.0142  1.0000  -1.3406   0.0000   0.0000   0.0000   0.3183
  20.000   0.5767   0.21070   0.20854  -0.0475  0.0141  1.0000  -1.3595   0.0000   0.0000   0.0000   0.3188
  20.100   0.5791   0.21183   0.20968  -0.0480  0.0140  1.0000  -1.3823   0.0000   0.0000   0.0000   0.3192
  20.200   0.5817   0.21298   0.21083  -0.0484  0.0139  1.0000  -1.4104   0.0000   0.0000   0.0000   0.3194
  20.300   0.5847   0.21418   0.21204  -0.0488  0.0138  1.0000  -1.4463   0.0000   0.0000   0.0000   0.3194
  20.400   0.5885   0.21558   0.21344  -0.0489  0.0137  1.0000  -1.4973   0.0000   0.0000   0.0000   0.3189
  20.900   0.8679   0.26563   0.26305  -0.0889  0.0121  1.0000  -1.9363   0.0000   0.0000   0.0000   0.3301
  21.000   0.8713   0.26700   0.26442  -0.0898  0.0119  1.0000  -1.9359   0.0000   0.0000   0.0000   0.3306
  21.100   0.8747   0.26836   0.26578  -0.0908  0.0117  1.0000  -1.9379   0.0000   0.0000   0.0000   0.3311
  21.200   0.8781   0.26969   0.26712  -0.0917  0.0114  1.0000  -1.9418   0.0000   0.0000   0.0000   0.3316
  21.300   0.8814   0.27102   0.26845  -0.0926  0.0113  1.0000  -1.9470   0.0000   0.0000   0.0000   0.3321
  21.400   0.8848   0.27233   0.26976  -0.0936  0.0111  1.0000  -1.9528   0.0000   0.0000   0.0000   0.3326
  21.500   0.8881   0.27363   0.27106  -0.0945  0.0110  1.0000  -1.9589   0.0000   0.0000   0.0000   0.3330
  21.600   0.8915   0.27491   0.27235  -0.0954  0.0108  1.0000  -1.9662   0.0000   0.0000   0.0000   0.3335
  21.700   0.8948   0.27618   0.27362  -0.0963  0.0107  1.0000  -1.9751   0.0000   0.0000   0.0000   0.3339
  21.800   0.8982   0.27743   0.27487  -0.0972  0.0106  1.0000  -1.9856   0.0000   0.0000   0.0000   0.3343
  21.900   0.9015   0.27867   0.27611  -0.0981  0.0105  1.0000  -1.9980   0.0000   0.0000   0.0000   0.3347
  22.000   0.9048   0.27989   0.27733  -0.0990  0.0104  1.0000  -2.0126   0.0000   0.0000   0.0000   0.3351
  22.100   0.9082   0.28109   0.27854  -0.0999  0.0103  1.0000  -2.0296   0.0000   0.0000   0.0000   0.3354
  22.200   0.9115   0.28228   0.27973  -0.1007  0.0102  1.0000  -2.0495   0.0000   0.0000   0.0000   0.3358
  22.300   0.9148   0.28350   0.28096  -0.1015  0.0101  1.0000  -2.0726   0.0000   0.0000   0.0000   0.3360
  22.400   0.9181   0.28470   0.28216  -0.1023  0.0101  1.0000  -2.0998   0.0000   0.0000   0.0000   0.3363
  22.500   0.9214   0.28592   0.28339  -0.1030  0.0100  1.0000  -2.1318   0.0000   0.0000   0.0000   0.3364
  22.600   0.9248   0.28723   0.28470  -0.1036  0.0099  1.0000  -2.1743   0.0000   0.0000   0.0000   0.3364
  22.700   0.9285   0.28877   0.28624  -0.1039  0.0099  1.0000  -2.2290   0.0000   0.0000   0.0000   0.3361
  25.900   1.0323   0.33121   0.32873  -0.1380  0.0072  1.0000  -2.0382   0.0000   0.0000   0.0000   0.3514
  26.000   1.0353   0.33233   0.32985  -0.1390  0.0071  1.0000  -2.0492   0.0000   0.0000   0.0000   0.3518
  26.100   1.0384   0.33344   0.33096  -0.1400  0.0071  1.0000  -2.0617   0.0000   0.0000   0.0000   0.3521
  26.200   1.0414   0.33454   0.33206  -0.1409  0.0070  1.0000  -2.0758   0.0000   0.0000   0.0000   0.3524
  26.300   1.0444   0.33563   0.33316  -0.1419  0.0069  1.0000  -2.0917   0.0000   0.0000   0.0000   0.3527
  26.400   1.0473   0.33679   0.33432  -0.1429  0.0069  1.0000  -2.1097   0.0000   0.0000   0.0000   0.3530
  26.500   1.0502   0.33788   0.33542  -0.1438  0.0068  1.0000  -2.1301   0.0000   0.0000   0.0000   0.3532
  26.600   1.0531   0.33898   0.33652  -0.1447  0.0068  1.0000  -2.1534   0.0000   0.0000   0.0000   0.3534
  26.700   1.0559   0.34011   0.33765  -0.1456  0.0067  1.0000  -2.1800   0.0000   0.0000   0.0000   0.3536
  26.800   1.0587   0.34131   0.33886  -0.1464  0.0067  1.0000  -2.2105   0.0000   0.0000   0.0000   0.3537
  26.900   1.0616   0.34266   0.34022  -0.1471  0.0066  1.0000  -2.2465   0.0000   0.0000   0.0000   0.3537
  27.000   1.0646   0.34451   0.34207  -0.1475  0.0066  1.0000  -2.2919   0.0000   0.0000   0.0000   0.3535
  29.400   0.7297   0.34139   0.33960  -0.1096  0.0064  1.0000  -1.1389   0.0000   0.0000   0.0000   0.3724
  29.500   0.7310   0.34291   0.34113  -0.1103  0.0064  1.0000  -1.1283   0.0000   0.0000   0.0000   0.3729
  29.600   0.7323   0.34442   0.34264  -0.1110  0.0064  1.0000  -1.1163   0.0000   0.0000   0.0000   0.3734
  29.700   0.7336   0.34594   0.34417  -0.1117  0.0063  1.0000  -1.1036   0.0000   0.0000   0.0000   0.3739
  29.800   0.7349   0.34747   0.34570  -0.1123  0.0062  1.0000  -1.0912   0.0000   0.0000   0.0000   0.3744
  29.900   0.7363   0.34901   0.34724  -0.1130  0.0061  1.0000  -1.0806   0.0000   0.0000   0.0000   0.3748
  30.000   0.7376   0.35053   0.34877  -0.1136  0.0060  1.0000  -1.0728   0.0000   0.0000   0.0000   0.3752


