xflr5 v6.61

 Calculated polar for: NACA M19 AIRFOIL

 1 1 Reynolds number fixed          Mach number fixed         

 xtrf =   1.000 (top)        1.000 (bottom)
 Mach =   0.000     Re =     0.500 e 6     Ncrit =   9.000

  alpha     CL        CD       CDp       Cm    Top Xtr Bot Xtr   Cpmin    Chinge    XCp    
 ------- -------- --------- --------- -------- ------- ------- -------- --------- ---------
  -2.400   0.1208   0.03326   0.02566  -0.0463  0.0461  0.0280  -1.1078   0.0000   0.0000   0.0000   0.6382
  -2.300   0.1306   0.03231   0.02479  -0.0465  0.0472  0.0284  -1.0764   0.0000   0.0000   0.0000   0.6107
  -2.200   0.1412   0.03163   0.02421  -0.0468  0.0482  0.0284  -1.0636   0.0000   0.0000   0.0000   0.5857
  -2.100   0.1523   0.03099   0.02360  -0.0471  0.0488  0.0281  -1.0652   0.0000   0.0000   0.0000   0.5628
  -2.000   0.1635   0.03041   0.02302  -0.0473  0.0494  0.0279  -1.0654   0.0000   0.0000   0.0000   0.5430
  -1.900   0.1745   0.02988   0.02248  -0.0476  0.0504  0.0276  -1.0632   0.0000   0.0000   0.0000   0.5257
  -1.800   0.1859   0.02909   0.02178  -0.0477  0.1451  0.0274  -1.0580   0.0000   0.0000   0.0000   0.5094
  -1.700   0.1971   0.03360   0.02655  -0.0472  0.1766  0.0251  -0.7988   0.0000   0.0000   0.0000   0.4919
  -1.600   0.2076   0.03289   0.02585  -0.0475  0.1854  0.0251  -0.7853   0.0000   0.0000   0.0000   0.4809
  -1.500   0.2180   0.03222   0.02518  -0.0477  0.1937  0.0251  -0.7718   0.0000   0.0000   0.0000   0.4710
  -1.400   0.2285   0.03153   0.02451  -0.0480  0.2083  0.0251  -0.7582   0.0000   0.0000   0.0000   0.4617
  -1.300   0.2403   0.03028   0.02362  -0.0481  0.2875  0.0251  -0.7435   0.0000   0.0000   0.0000   0.4516
  -1.200   0.2507   0.02969   0.02300  -0.0483  0.2882  0.0251  -0.7301   0.0000   0.0000   0.0000   0.4441
  -1.100   0.2612   0.02911   0.02239  -0.0486  0.2887  0.0251  -0.7176   0.0000   0.0000   0.0000   0.4372
  -1.000   0.2717   0.02855   0.02179  -0.0488  0.2892  0.0251  -0.7253   0.0000   0.0000   0.0000   0.4308
  -0.900   0.2822   0.02799   0.02121  -0.0490  0.2899  0.0251  -0.7332   0.0000   0.0000   0.0000   0.4248
  -0.800   0.2928   0.02744   0.02062  -0.0492  0.2923  0.0251  -0.7412   0.0000   0.0000   0.0000   0.4192
  -0.700   0.3034   0.02689   0.02005  -0.0495  0.2944  0.0250  -0.7492   0.0000   0.0000   0.0000   0.4139
  -0.600   0.3140   0.02636   0.01949  -0.0497  0.2963  0.0250  -0.7571   0.0000   0.0000   0.0000   0.4089
  -0.500   0.3247   0.02584   0.01894  -0.0499  0.2980  0.0250  -0.7651   0.0000   0.0000   0.0000   0.4043
   0.300   0.4102   0.02207   0.01494  -0.0513  0.3223  0.0250  -0.8284   0.0000   0.0000   0.0000   0.3751
   0.400   0.4209   0.02165   0.01448  -0.0515  0.3240  0.0250  -0.8364   0.0000   0.0000   0.0000   0.3722
   0.500   0.4317   0.02124   0.01404  -0.0516  0.3255  0.0250  -0.8445   0.0000   0.0000   0.0000   0.3694
   0.600   0.4424   0.02083   0.01360  -0.0518  0.3268  0.0250  -0.8525   0.0000   0.0000   0.0000   0.3667
   0.700   0.4532   0.02044   0.01318  -0.0519  0.3280  0.0250  -0.8606   0.0000   0.0000   0.0000   0.3642
   0.800   0.4640   0.02006   0.01276  -0.0521  0.3291  0.0250  -0.8687   0.0000   0.0000   0.0000   0.3618
   0.900   0.4748   0.01968   0.01236  -0.0522  0.3303  0.0250  -0.8768   0.0000   0.0000   0.0000   0.3594
   1.000   0.4856   0.01932   0.01196  -0.0524  0.3316  0.0250  -0.8850   0.0000   0.0000   0.0000   0.3572
   1.100   0.4964   0.01897   0.01158  -0.0525  0.3331  0.0250  -0.8949   0.0000   0.0000   0.0000   0.3550
   1.200   0.5072   0.01862   0.01120  -0.0526  0.3349  0.0250  -0.9059   0.0000   0.0000   0.0000   0.3529
   1.300   0.5181   0.01827   0.01084  -0.0528  0.3370  0.0250  -0.9170   0.0000   0.0000   0.0000   0.3509
   1.400   0.5290   0.01794   0.01048  -0.0529  0.3396  0.0250  -0.9282   0.0000   0.0000   0.0000   0.3490
   1.500   0.5417   0.01722   0.01020  -0.0530  0.3905  0.0250  -0.9398   0.0000   0.0000   0.0000   0.3469
   1.600   0.5527   0.01690   0.00988  -0.0532  0.3939  0.0250  -0.9509   0.0000   0.0000   0.0000   0.3451
   1.700   0.5636   0.01659   0.00956  -0.0533  0.3961  0.0251  -0.9621   0.0000   0.0000   0.0000   0.3434
   1.800   0.5745   0.01631   0.00925  -0.0534  0.3976  0.0251  -0.9732   0.0000   0.0000   0.0000   0.3417
   1.900   0.5854   0.01603   0.00896  -0.0536  0.3986  0.0251  -0.9844   0.0000   0.0000   0.0000   0.3401
   2.000   0.5963   0.01577   0.00867  -0.0537  0.3995  0.0251  -0.9956   0.0000   0.0000   0.0000   0.3386
   2.100   0.6072   0.01550   0.00839  -0.0538  0.4040  0.0251  -1.0069   0.0000   0.0000   0.0000   0.3371
   2.200   0.6182   0.01523   0.00812  -0.0540  0.4133  0.0251  -1.0184   0.0000   0.0000   0.0000   0.3356
   2.700   0.6739   0.01222   0.00497  -0.0544  0.4418  0.0296  -1.0733   0.0000   0.0000   0.0000   0.3286
   2.800   0.6848   0.01207   0.00486  -0.0545  0.4453  0.0301  -1.0848   0.0000   0.0000   0.0000   0.3275
   2.900   0.6955   0.01196   0.00474  -0.0547  0.4456  0.0306  -1.0962   0.0000   0.0000   0.0000   0.3264
   3.000   0.7061   0.01188   0.00463  -0.0548  0.4419  0.0311  -1.1077   0.0000   0.0000   0.0000   0.3253
   3.100   0.7165   0.01181   0.00452  -0.0550  0.4361  0.0316  -1.1191   0.0000   0.0000   0.0000   0.3243
   3.200   0.7270   0.01176   0.00443  -0.0551  0.4296  0.0322  -1.1304   0.0000   0.0000   0.0000   0.3232
   3.300   0.7375   0.01171   0.00434  -0.0552  0.4226  0.0328  -1.1417   0.0000   0.0000   0.0000   0.3222
   3.400   0.7480   0.01168   0.00428  -0.0554  0.4152  0.0334  -1.1528   0.0000   0.0000   0.0000   0.3213
   3.500   0.7585   0.01168   0.00426  -0.0555  0.4076  0.0342  -1.1635   0.0000   0.0000   0.0000   0.3203
   3.600   0.7689   0.01173   0.00430  -0.0557  0.4001  0.0349  -1.1737   0.0000   0.0000   0.0000   0.3194
   4.300   0.8432   0.01131   0.00394  -0.0566  0.3991  0.0428  -1.2561   0.0000   0.0000   0.0000   0.3134
   4.400   0.8538   0.01124   0.00387  -0.0567  0.3988  0.0443  -1.2684   0.0000   0.0000   0.0000   0.3126
   4.500   0.8644   0.01109   0.00370  -0.0568  0.3979  0.0460  -1.2824   0.0000   0.0000   0.0000   0.3117
   4.600   0.8750   0.01099   0.00358  -0.0569  0.3949  0.0477  -1.2963   0.0000   0.0000   0.0000   0.3109
   4.700   0.8854   0.01101   0.00355  -0.0570  0.3893  0.0492  -1.3094   0.0000   0.0000   0.0000   0.3102
   5.200   0.9337   0.01119   0.00321  -0.0572  0.3067  0.0661  -1.3686   0.0000   0.0000   0.0000   0.3065
   5.300   0.9438   0.01127   0.00324  -0.0573  0.2938  0.0687  -1.3808   0.0000   0.0000   0.0000   0.3058
   5.400   0.9536   0.01141   0.00328  -0.0573  0.2814  0.0709  -1.3934   0.0000   0.0000   0.0000   0.3051
   5.500   0.9587   0.01252   0.00380  -0.0573  0.1909  0.0723  -1.4050   0.0000   0.0000   0.0000   0.3046
   5.600   0.9661   0.01321   0.00413  -0.0573  0.1490  0.0735  -1.4005   0.0000   0.0000   0.0000   0.3040
   5.700   0.9723   0.01416   0.00480  -0.0572  0.0936  0.0742  -1.4115   0.0000   0.0000   0.0000   0.3035
   5.800   0.9787   0.01504   0.00537  -0.0571  0.0237  0.0747  -1.4264   0.0000   0.0000   0.0000   0.3028
   5.900   0.9885   0.01531   0.00559  -0.0569  0.0173  0.0750  -1.4425   0.0000   0.0000   0.0000   0.3019
   6.000   0.9990   0.01542   0.00579  -0.0568  0.0161  0.0757  -1.5027   0.0000   0.0000   0.0000   0.3011
   6.100   1.0094   0.01554   0.00599  -0.0566  0.0161  0.0765  -1.6004   0.0000   0.0000   0.0000   0.3002
   6.200   1.0196   0.01572   0.00623  -0.0565  0.0166  0.0772  -1.6918   0.0000   0.0000   0.0000   0.2994
   6.300   1.0296   0.01594   0.00652  -0.0563  0.0175  0.0779  -1.7774   0.0000   0.0000   0.0000   0.2985
   6.400   1.0398   0.01618   0.00681  -0.0561  0.0191  0.0777  -1.8458   0.0000   0.0000   0.0000   0.2976
   6.500   1.0506   0.01642   0.00711  -0.0556  0.0217  0.0764  -1.8885   0.0000   0.0000   0.0000   0.2965
   6.600   1.0602   0.01700   0.00807  -0.0548  0.0251  0.0754  -1.8870   0.0000   0.0000   0.0000   0.2951
   6.700   1.0713   0.01706   0.00808  -0.0546  0.0289  0.0746  -1.9751   0.0000   0.0000   0.0000   0.2942
   6.800   1.0809   0.01739   0.00848  -0.0543  0.0348  0.0739  -2.0442   0.0000   0.0000   0.0000   0.2933
   9.000   1.2132   0.04070   0.03399  -0.0413  0.0124  1.0000  -3.2676   0.0000   0.0000   0.0000   0.2739
   9.100   1.2181   0.04194   0.03532  -0.0406  0.0123  1.0000  -3.3119   0.0000   0.0000   0.0000   0.2731
   9.200   1.2226   0.04321   0.03667  -0.0399  0.0123  1.0000  -3.3538   0.0000   0.0000   0.0000   0.2723
   9.300   1.2265   0.04449   0.03804  -0.0392  0.0123  1.0000  -3.3933   0.0000   0.0000   0.0000   0.2714
   9.400   1.2298   0.04579   0.03942  -0.0385  0.0122  1.0000  -3.4304   0.0000   0.0000   0.0000   0.2706
   9.500   1.2326   0.04709   0.04081  -0.0377  0.0122  1.0000  -3.4650   0.0000   0.0000   0.0000   0.2697
   9.600   1.2349   0.04841   0.04221  -0.0369  0.0122  1.0000  -3.4972   0.0000   0.0000   0.0000   0.2689
   9.700   1.2365   0.04973   0.04362  -0.0361  0.0122  1.0000  -3.5268   0.0000   0.0000   0.0000   0.2681
   9.800   1.2375   0.05105   0.04502  -0.0353  0.0122  1.0000  -3.5538   0.0000   0.0000   0.0000   0.2672
   9.900   1.2379   0.05237   0.04643  -0.0344  0.0121  1.0000  -3.5783   0.0000   0.0000   0.0000   0.2664
  10.000   1.2376   0.05368   0.04783  -0.0336  0.0121  1.0000  -3.6002   0.0000   0.0000   0.0000   0.2655
  10.100   1.2367   0.05499   0.04921  -0.0327  0.0121  1.0000  -3.6194   0.0000   0.0000   0.0000   0.2647
  10.200   1.2349   0.05628   0.05058  -0.0318  0.0121  1.0000  -3.6357   0.0000   0.0000   0.0000   0.2638
  10.300   1.2319   0.05748   0.05186  -0.0307  0.0121  1.0000  -3.6478   0.0000   0.0000   0.0000   0.2629
  10.400   1.2277   0.05864   0.05308  -0.0296  0.0121  1.0000  -3.6562   0.0000   0.0000   0.0000   0.2619
  10.500   1.2230   0.05979   0.05430  -0.0285  0.0120  1.0000  -3.6621   0.0000   0.0000   0.0000   0.2610
  10.600   1.2181   0.06102   0.05559  -0.0277  0.0120  1.0000  -3.6664   0.0000   0.0000   0.0000   0.2602
  10.700   1.2134   0.06231   0.05695  -0.0270  0.0120  1.0000  -3.6707   0.0000   0.0000   0.0000   0.2595
  10.800   1.2088   0.06366   0.05836  -0.0264  0.0120  1.0000  -3.6746   0.0000   0.0000   0.0000   0.2590
  10.900   1.2031   0.06501   0.05978  -0.0259  0.0120  1.0000  -3.6742   0.0000   0.0000   0.0000   0.2585
  11.000   1.1970   0.06639   0.06122  -0.0255  0.0120  1.0000  -3.6718   0.0000   0.0000   0.0000   0.2581
  11.100   1.1915   0.06784   0.06273  -0.0251  0.0120  1.0000  -3.6704   0.0000   0.0000   0.0000   0.2577
  11.200   1.1861   0.06935   0.06431  -0.0249  0.0120  1.0000  -3.6691   0.0000   0.0000   0.0000   0.2575
  11.300   1.1808   0.07092   0.06594  -0.0247  0.0120  1.0000  -3.6669   0.0000   0.0000   0.0000   0.2572
  11.400   1.1749   0.07254   0.06763  -0.0247  0.0120  1.0000  -3.6620   0.0000   0.0000   0.0000   0.2571
  11.500   1.1678   0.07425   0.06940  -0.0249  0.0120  1.0000  -3.6522   0.0000   0.0000   0.0000   0.2572
  11.600   1.1614   0.07599   0.07120  -0.0250  0.0120  1.0000  -3.6440   0.0000   0.0000   0.0000   0.2574
  11.700   1.1555   0.07776   0.07303  -0.0252  0.0120  1.0000  -3.6365   0.0000   0.0000   0.0000   0.2575
  11.800   1.1496   0.07956   0.07488  -0.0255  0.0120  1.0000  -3.6287   0.0000   0.0000   0.0000   0.2576
  11.900   1.1435   0.08136   0.07675  -0.0257  0.0120  1.0000  -3.6195   0.0000   0.0000   0.0000   0.2578
  12.000   1.1368   0.08315   0.07860  -0.0260  0.0120  1.0000  -3.6081   0.0000   0.0000   0.0000   0.2580
  12.100   1.1283   0.08510   0.08060  -0.0266  0.0120  1.0000  -3.5886   0.0000   0.0000   0.0000   0.2585
  12.200   1.1206   0.08712   0.08268  -0.0273  0.0120  1.0000  -3.5707   0.0000   0.0000   0.0000   0.2591
  12.300   1.1139   0.08916   0.08477  -0.0279  0.0120  1.0000  -3.5559   0.0000   0.0000   0.0000   0.2597
  12.400   1.1077   0.09122   0.08688  -0.0285  0.0120  1.0000  -3.5418   0.0000   0.0000   0.0000   0.2602
  12.500   1.1016   0.09332   0.08904  -0.0292  0.0120  1.0000  -3.5272   0.0000   0.0000   0.0000   0.2608
  12.600   1.0955   0.09547   0.09124  -0.0300  0.0120  1.0000  -3.5114   0.0000   0.0000   0.0000   0.2615
  12.700   1.0892   0.09767   0.09350  -0.0308  0.0120  1.0000  -3.4939   0.0000   0.0000   0.0000   0.2622
  12.800   1.0819   0.10002   0.09591  -0.0319  0.0120  1.0000  -3.4706   0.0000   0.0000   0.0000   0.2633
  12.900   1.0731   0.10258   0.09852  -0.0334  0.0120  1.0000  -3.4401   0.0000   0.0000   0.0000   0.2647
  13.000   1.0663   0.10501   0.10100  -0.0346  0.0120  1.0000  -3.4162   0.0000   0.0000   0.0000   0.2659
  13.100   1.0604   0.10740   0.10343  -0.0357  0.0120  1.0000  -3.3948   0.0000   0.0000   0.0000   0.2670
  13.200   1.0549   0.10981   0.10589  -0.0368  0.0120  1.0000  -3.3738   0.0000   0.0000   0.0000   0.2681
  13.300   1.0495   0.11225   0.10838  -0.0380  0.0120  1.0000  -3.3519   0.0000   0.0000   0.0000   0.2692
  13.400   1.0441   0.11475   0.11093  -0.0393  0.0120  1.0000  -3.3283   0.0000   0.0000   0.0000   0.2705
  13.500   1.0386   0.11734   0.11357  -0.0406  0.0120  1.0000  -3.3025   0.0000   0.0000   0.0000   0.2719
  13.600   1.0322   0.12015   0.11643  -0.0423  0.0120  1.0000  -3.2698   0.0000   0.0000   0.0000   0.2736
  13.700   1.0242   0.12331   0.11963  -0.0445  0.0120  1.0000  -3.2269   0.0000   0.0000   0.0000   0.2759
  13.800   1.0188   0.12617   0.12254  -0.0462  0.0120  1.0000  -3.1948   0.0000   0.0000   0.0000   0.2777
  13.900   1.0144   0.12891   0.12532  -0.0477  0.0120  1.0000  -3.1661   0.0000   0.0000   0.0000   0.2792
  14.000   1.0105   0.13162   0.12806  -0.0491  0.0120  1.0000  -3.1377   0.0000   0.0000   0.0000   0.2807
  14.100   1.0067   0.13432   0.13081  -0.0506  0.0120  1.0000  -3.1083   0.0000   0.0000   0.0000   0.2823
  14.200   1.0029   0.13707   0.13359  -0.0521  0.0120  1.0000  -3.0768   0.0000   0.0000   0.0000   0.2838
  14.300   0.9992   0.13978   0.13634  -0.0537  0.0120  1.0000  -3.0429   0.0000   0.0000   0.0000   0.2855
  14.400   0.9955   0.14257   0.13917  -0.0553  0.0120  1.0000  -3.0056   0.0000   0.0000   0.0000   0.2873
  14.500   0.9903   0.14588   0.14253  -0.0576  0.0120  1.0000  -2.9527   0.0000   0.0000   0.0000   0.2898
  14.600   0.9860   0.14914   0.14582  -0.0597  0.0120  1.0000  -2.9019   0.0000   0.0000   0.0000   0.2921
  14.700   0.9832   0.15206   0.14877  -0.0614  0.0120  1.0000  -2.8599   0.0000   0.0000   0.0000   0.2939
  14.800   0.9811   0.15489   0.15162  -0.0629  0.0120  1.0000  -2.8201   0.0000   0.0000   0.0000   0.2955
  14.900   0.9793   0.15772   0.15447  -0.0644  0.0120  1.0000  -2.7798   0.0000   0.0000   0.0000   0.2970
  15.000   0.9778   0.16059   0.15736  -0.0658  0.0120  1.0000  -2.7380   0.0000   0.0000   0.0000   0.2985
  15.100   0.9766   0.16356   0.16036  -0.0673  0.0120  1.0000  -2.6939   0.0000   0.0000   0.0000   0.3001
  15.200   0.9753   0.16684   0.16367  -0.0689  0.0120  1.0000  -2.6407   0.0000   0.0000   0.0000   0.3018
  15.300   0.9744   0.17023   0.16707  -0.0705  0.0120  1.0000  -2.5839   0.0000   0.0000   0.0000   0.3035
  15.400   0.9741   0.17347   0.17032  -0.0719  0.0119  1.0000  -2.5313   0.0000   0.0000   0.0000   0.3049
  15.500   0.9741   0.17647   0.17333  -0.0732  0.0119  1.0000  -2.4865   0.0000   0.0000   0.0000   0.3061
  15.600   0.9743   0.17933   0.17619  -0.0743  0.0119  1.0000  -2.4474   0.0000   0.0000   0.0000   0.3072
  15.700   0.9745   0.18208   0.17895  -0.0755  0.0119  1.0000  -2.4119   0.0000   0.0000   0.0000   0.3083
  15.800   0.9749   0.18476   0.18163  -0.0766  0.0119  1.0000  -2.3793   0.0000   0.0000   0.0000   0.3093
  15.900   0.9753   0.18739   0.18426  -0.0776  0.0119  1.0000  -2.3490   0.0000   0.0000   0.0000   0.3102
  16.000   0.9758   0.19011   0.18697  -0.0786  0.0119  0.9696  -2.3210   0.0000   0.0000   0.0000   0.3111
  16.400   0.9783   0.20117   0.19668  -0.0827  0.0118  0.1128  -2.2172   0.0000   0.0000   0.0000   0.3147
  16.500   0.9792   0.20362   0.19911  -0.0836  0.0118  0.0786  -2.1953   0.0000   0.0000   0.0000   0.3154
  16.600   0.9800   0.20606   0.20154  -0.0845  0.0118  0.0634  -2.1743   0.0000   0.0000   0.0000   0.3162
  16.700   0.9810   0.20847   0.20395  -0.0854  0.0118  0.0560  -2.1542   0.0000   0.0000   0.0000   0.3169
  16.800   0.9820   0.21087   0.20636  -0.0863  0.0118  0.0518  -2.1349   0.0000   0.0000   0.0000   0.3176
  16.900   0.9830   0.21326   0.20874  -0.0872  0.0117  0.0501  -2.1169   0.0000   0.0000   0.0000   0.3183
  17.000   0.9840   0.21564   0.21112  -0.0880  0.0117  0.0500  -2.0996   0.0000   0.0000   0.0000   0.3189
  17.100   0.9851   0.21800   0.21348  -0.0889  0.0117  0.0499  -2.0829   0.0000   0.0000   0.0000   0.3195
  17.200   0.9862   0.22036   0.21583  -0.0897  0.0117  0.0498  -2.0669   0.0000   0.0000   0.0000   0.3202
  17.300   0.9874   0.22271   0.21817  -0.0905  0.0117  0.0498  -2.0514   0.0000   0.0000   0.0000   0.3208
  17.400   0.9885   0.22505   0.22051  -0.0914  0.0117  0.0497  -2.0365   0.0000   0.0000   0.0000   0.3213
  17.500   0.9897   0.22738   0.22284  -0.0922  0.0116  0.0496  -2.0220   0.0000   0.0000   0.0000   0.3219
  17.600   0.9909   0.22972   0.22518  -0.0930  0.0116  0.0496  -2.0079   0.0000   0.0000   0.0000   0.3225
  17.700   0.9921   0.23207   0.22752  -0.0938  0.0116  0.0495  -1.9931   0.0000   0.0000   0.0000   0.3230
  17.800   0.9933   0.23441   0.22986  -0.0946  0.0116  0.0495  -1.9789   0.0000   0.0000   0.0000   0.3236
  17.900   0.9945   0.23674   0.23220  -0.0953  0.0116  0.0495  -1.9651   0.0000   0.0000   0.0000   0.3241
  18.000   0.9957   0.23908   0.23453  -0.0961  0.0115  0.0494  -1.9518   0.0000   0.0000   0.0000   0.3246
  18.100   0.9969   0.24140   0.23685  -0.0969  0.0115  0.0494  -1.9388   0.0000   0.0000   0.0000   0.3252
  18.200   0.9981   0.24373   0.23918  -0.0976  0.0115  0.0494  -1.9263   0.0000   0.0000   0.0000   0.3257
  18.300   0.9994   0.24605   0.24150  -0.0984  0.0115  0.0494  -1.9141   0.0000   0.0000   0.0000   0.3261
  18.400   1.0006   0.24836   0.24382  -0.0991  0.0115  0.0494  -1.9023   0.0000   0.0000   0.0000   0.3266
  18.500   1.0018   0.25068   0.24614  -0.0998  0.0114  0.0494  -1.8908   0.0000   0.0000   0.0000   0.3271
  18.600   1.0030   0.25299   0.24846  -0.1006  0.0114  0.0494  -1.8796   0.0000   0.0000   0.0000   0.3275
  18.700   1.0043   0.25530   0.25078  -0.1013  0.0114  0.0495  -1.8687   0.0000   0.0000   0.0000   0.3280
  18.800   1.0055   0.25760   0.25309  -0.1020  0.0114  0.0495  -1.8581   0.0000   0.0000   0.0000   0.3284
  18.900   1.0067   0.25991   0.25541  -0.1027  0.0114  0.0495  -1.8477   0.0000   0.0000   0.0000   0.3288
  19.000   1.0079   0.26221   0.25772  -0.1034  0.0113  0.0496  -1.8376   0.0000   0.0000   0.0000   0.3292
  19.100   1.0090   0.26451   0.26003  -0.1040  0.0113  0.0497  -1.8277   0.0000   0.0000   0.0000   0.3296
  19.200   1.0102   0.26681   0.26235  -0.1047  0.0113  0.0497  -1.8179   0.0000   0.0000   0.0000   0.3300
  19.300   1.0112   0.26911   0.26467  -0.1054  0.0113  0.0498  -1.8076   0.0000   0.0000   0.0000   0.3304
  19.400   1.0123   0.27142   0.26699  -0.1061  0.0113  0.0499  -1.7974   0.0000   0.0000   0.0000   0.3308
  19.500   1.0133   0.27372   0.26932  -0.1067  0.0112  0.0500  -1.7872   0.0000   0.0000   0.0000   0.3312
  19.600   1.0143   0.27603   0.27163  -0.1074  0.0112  0.0529  -1.7773   0.0000   0.0000   0.0000   0.3316
  19.700   1.0153   0.27833   0.27393  -0.1080  0.0112  0.0631  -1.7676   0.0000   0.0000   0.0000   0.3320
  19.800   1.0163   0.28063   0.27626  -0.1087  0.0112  0.1082  -1.7582   0.0000   0.0000   0.0000   0.3324
  19.900   1.0175   0.28292   0.27868  -0.1094  0.0112  0.2904  -1.7491   0.0000   0.0000   0.0000   0.3328


