xflr5 v6.61

 Calculated polar for: NACA 2412

 1 1 Reynolds number fixed          Mach number fixed         

 xtrf =   1.000 (top)        1.000 (bottom)
 Mach =   0.000     Re =     0.450 e 6     Ncrit =   9.000

  alpha     CL        CD       CDp       Cm    Top Xtr Bot Xtr   Cpmin    Chinge    XCp    
 ------- -------- --------- --------- -------- ------- ------- -------- --------- ---------
 -10.000  -0.8718   0.02351   0.01788  -0.0376  1.0000  0.0126  -5.7690   0.0000   0.0000   0.0000   0.1962
  -9.900  -0.8697   0.02271   0.01701  -0.0364  1.0000  0.0126  -5.7364   0.0000   0.0000   0.0000   0.1976
  -9.800  -0.8684   0.02177   0.01594  -0.0351  1.0000  0.0128  -5.7120   0.0000   0.0000   0.0000   0.1992
  -9.700  -0.8665   0.02092   0.01497  -0.0338  1.0000  0.0130  -5.6809   0.0000   0.0000   0.0000   0.2007
  -9.600  -0.8640   0.02018   0.01412  -0.0326  1.0000  0.0132  -5.6434   0.0000   0.0000   0.0000   0.2021
  -9.500  -0.8610   0.01953   0.01338  -0.0314  1.0000  0.0134  -5.5993   0.0000   0.0000   0.0000   0.2035
  -9.400  -0.8573   0.01898   0.01274  -0.0303  1.0000  0.0138  -5.5491   0.0000   0.0000   0.0000   0.2047
  -9.300  -0.8529   0.01850   0.01219  -0.0293  1.0000  0.0141  -5.4926   0.0000   0.0000   0.0000   0.2058
  -9.200  -0.8477   0.01810   0.01173  -0.0285  1.0000  0.0146  -5.4292   0.0000   0.0000   0.0000   0.2067
  -9.100  -0.8417   0.01776   0.01137  -0.0277  1.0000  0.0151  -5.3584   0.0000   0.0000   0.0000   0.2075
  -9.000  -0.8322   0.01748   0.01108  -0.0277  0.9997  0.0158  -5.2668   0.0000   0.0000   0.0000   0.2073
  -8.900  -0.8207   0.01730   0.01094  -0.0280  0.9993  0.0166  -5.1578   0.0000   0.0000   0.0000   0.2065
  -8.800  -0.8088   0.01724   0.01095  -0.0284  0.9988  0.0174  -5.0390   0.0000   0.0000   0.0000   0.2056
  -8.700  -0.7963   0.01730   0.01108  -0.0289  0.9983  0.0182  -4.9119   0.0000   0.0000   0.0000   0.2046
  -8.600  -0.7836   0.01745   0.01130  -0.0295  0.9978  0.0192  -4.7785   0.0000   0.0000   0.0000   0.2034
  -8.500  -0.7705   0.01769   0.01162  -0.0300  0.9972  0.0204  -4.6391   0.0000   0.0000   0.0000   0.2021
  -8.400  -0.7566   0.01814   0.01218  -0.0307  0.9966  0.0218  -4.4806   0.0000   0.0000   0.0000   0.2006
  -8.300  -0.7259   0.02545   0.02031  -0.0345  0.9960  0.0375  -3.5764   0.0000   0.0000   0.0000   0.1942
  -8.200  -0.7155   0.02492   0.01972  -0.0348  0.9952  0.0378  -3.5331   0.0000   0.0000   0.0000   0.1932
  -8.100  -0.7050   0.02439   0.01913  -0.0350  0.9943  0.0380  -3.4909   0.0000   0.0000   0.0000   0.1922
  -8.000  -0.6944   0.02385   0.01853  -0.0353  0.9933  0.0383  -3.4495   0.0000   0.0000   0.0000   0.1911
  -7.900  -0.6834   0.02331   0.01793  -0.0356  0.9923  0.0385  -3.4081   0.0000   0.0000   0.0000   0.1899
  -7.800  -0.6720   0.02276   0.01732  -0.0360  0.9911  0.0387  -3.3668   0.0000   0.0000   0.0000   0.1885
  -7.700  -0.6603   0.02222   0.01672  -0.0364  0.9898  0.0389  -3.3256   0.0000   0.0000   0.0000   0.1869
  -7.600  -0.6483   0.02168   0.01611  -0.0369  0.9883  0.0390  -3.2842   0.0000   0.0000   0.0000   0.1852
  -7.500  -0.6358   0.02114   0.01551  -0.0375  0.9868  0.0392  -3.2425   0.0000   0.0000   0.0000   0.1833
  -7.400  -0.6229   0.02060   0.01491  -0.0381  0.9850  0.0393  -3.2006   0.0000   0.0000   0.0000   0.1811
  -7.300  -0.6098   0.02007   0.01431  -0.0387  0.9833  0.0394  -3.1586   0.0000   0.0000   0.0000   0.1788
  -7.200  -0.5966   0.01956   0.01374  -0.0394  0.9814  0.0395  -3.1165   0.0000   0.0000   0.0000   0.1763
  -7.100  -0.5832   0.01919   0.01333  -0.0401  0.9797  0.0399  -3.0662   0.0000   0.0000   0.0000   0.1736
  -7.000  -0.5696   0.01893   0.01305  -0.0408  0.9779  0.0405  -3.0091   0.0000   0.0000   0.0000   0.1708
  -6.900  -0.5559   0.01871   0.01281  -0.0415  0.9762  0.0412  -2.9501   0.0000   0.0000   0.0000   0.1677
  -6.800  -0.5423   0.01849   0.01258  -0.0423  0.9745  0.0419  -2.8922   0.0000   0.0000   0.0000   0.1645
  -6.700  -0.5291   0.01822   0.01229  -0.0429  0.9730  0.0425  -2.8390   0.0000   0.0000   0.0000   0.1614
  -6.600  -0.5163   0.01788   0.01191  -0.0434  0.9717  0.0429  -2.7930   0.0000   0.0000   0.0000   0.1584
  -6.500  -0.5037   0.01741   0.01138  -0.0439  0.9703  0.0428  -2.7567   0.0000   0.0000   0.0000   0.1553
  -6.400  -0.4910   0.01689   0.01079  -0.0444  0.9690  0.0426  -2.7254   0.0000   0.0000   0.0000   0.1522
  -6.300  -0.4782   0.01640   0.01025  -0.0449  0.9678  0.0423  -2.6925   0.0000   0.0000   0.0000   0.1487
  -6.200  -0.4652   0.01595   0.00974  -0.0454  0.9665  0.0421  -2.6583   0.0000   0.0000   0.0000   0.1450
  -6.100  -0.4521   0.01552   0.00926  -0.0459  0.9653  0.0419  -2.6231   0.0000   0.0000   0.0000   0.1409
  -6.000  -0.4388   0.01512   0.00881  -0.0465  0.9641  0.0417  -2.5869   0.0000   0.0000   0.0000   0.1365
  -5.900  -0.4253   0.01475   0.00839  -0.0471  0.9629  0.0415  -2.5497   0.0000   0.0000   0.0000   0.1317
  -5.800  -0.4116   0.01441   0.00800  -0.0477  0.9618  0.0413  -2.5117   0.0000   0.0000   0.0000   0.1265
  -5.700  -0.3979   0.01408   0.00763  -0.0484  0.9606  0.0412  -2.4728   0.0000   0.0000   0.0000   0.1208
  -5.600  -0.3839   0.01378   0.00729  -0.0491  0.9594  0.0410  -2.4332   0.0000   0.0000   0.0000   0.1145
  -5.500  -0.3698   0.01350   0.00697  -0.0498  0.9583  0.0409  -2.3929   0.0000   0.0000   0.0000   0.1076
  -5.400  -0.3557   0.01324   0.00667  -0.0506  0.9571  0.0408  -2.3519   0.0000   0.0000   0.0000   0.1001
  -5.300  -0.3414   0.01300   0.00640  -0.0513  0.9558  0.0407  -2.3104   0.0000   0.0000   0.0000   0.0918
  -5.200  -0.3271   0.01278   0.00615  -0.0521  0.9544  0.0406  -2.2685   0.0000   0.0000   0.0000   0.0828
  -5.100  -0.3129   0.01259   0.00593  -0.0529  0.9528  0.0405  -2.2264   0.0000   0.0000   0.0000   0.0731
  -5.000  -0.2988   0.01244   0.00575  -0.0536  0.9506  0.0405  -2.1844   0.0000   0.0000   0.0000   0.0626
  -4.900  -0.2879   0.01225   0.00554  -0.0536  0.9490  0.0405  -2.1474   0.0000   0.0000   0.0000   0.0557
  -4.800  -0.2777   0.01206   0.00532  -0.0534  0.9474  0.0406  -2.1114   0.0000   0.0000   0.0000   0.0496
  -4.700  -0.2673   0.01187   0.00512  -0.0532  0.9453  0.0406  -2.0748   0.0000   0.0000   0.0000   0.0427
  -4.600  -0.2565   0.01170   0.00492  -0.0531  0.9428  0.0407  -2.0372   0.0000   0.0000   0.0000   0.0347
  -4.500  -0.2453   0.01153   0.00472  -0.0531  0.9400  0.0408  -1.9988   0.0000   0.0000   0.0000   0.0252
  -4.400  -0.2337   0.01137   0.00454  -0.0532  0.9371  0.0410  -1.9595   0.0000   0.0000   0.0000   0.0139
  -4.300  -0.2218   0.01122   0.00436  -0.0533  0.9340  0.0412  -1.9197   0.0000   0.0000   0.0000   0.0008
  -4.200  -0.2097   0.01107   0.00418  -0.0535  0.9310  0.0415  -1.8797   0.0000   0.0000   0.0000  -0.0141
  -4.100  -0.1976   0.01094   0.00403  -0.0537  0.9282  0.0419  -1.8399   0.0000   0.0000   0.0000  -0.0310
  -4.000  -0.1855   0.01081   0.00388  -0.0539  0.9255  0.0424  -1.8005   0.0000   0.0000   0.0000  -0.0499
  -3.900  -0.1732   0.01068   0.00374  -0.0541  0.9229  0.0432  -1.7616   0.0000   0.0000   0.0000  -0.0722
  -3.800  -0.1605   0.01056   0.00359  -0.0545  0.9203  0.0444  -1.7233   0.0000   0.0000   0.0000  -0.0991
  -3.700  -0.1478   0.01042   0.00345  -0.0548  0.9177  0.0468  -1.6877   0.0000   0.0000   0.0000  -0.1310
  -3.600  -0.1358   0.01012   0.00327  -0.0550  0.9148  0.0675  -1.6606   0.0000   0.0000   0.0000  -0.1660
  -3.500  -0.1244   0.00975   0.00313  -0.0553  0.9117  0.0985  -1.6235   0.0000   0.0000   0.0000  -0.2059
  -3.400  -0.1118   0.00963   0.00305  -0.0557  0.9084  0.1146  -1.5797   0.0000   0.0000   0.0000  -0.2605
  -3.200  -0.0870   0.00938   0.00293  -0.0565  0.8999  0.1393  -1.4901   0.0000   0.0000   0.0000  -0.4138
  -3.100  -0.0771   0.00931   0.00289  -0.0563  0.8987  0.1458  -1.4498   0.0000   0.0000   0.0000  -0.4959
  -3.000  -0.0671   0.00925   0.00285  -0.0561  0.8972  0.1527  -1.4096   0.0000   0.0000   0.0000  -0.6027
  -2.900  -0.0574   0.00914   0.00280  -0.0558  0.8953  0.1672  -1.3702   0.0000   0.0000   0.0000  -0.7418
  -2.800  -0.0478   0.00903   0.00276  -0.0556  0.8930  0.1799  -1.3308   0.0000   0.0000   0.0000  -0.9371
  -2.700  -0.0378   0.00895   0.00273  -0.0554  0.8903  0.1899  -1.2911   0.0000   0.0000   0.0000  -1.2431
  -2.600  -0.0277   0.00889   0.00269  -0.0553  0.8873  0.1970  -1.2514   0.0000   0.0000   0.0000  -1.7816
  -2.500  -0.0175   0.00883   0.00266  -0.0551  0.8838  0.2054  -1.2118   0.0000   0.0000   0.0000  -2.9550
  -2.400  -0.0075   0.00872   0.00262  -0.0549  0.8799  0.2189  -1.1730   0.0000   0.0000   0.0000  -7.1554
  -2.300   0.0027   0.00861   0.00257  -0.0548  0.8756  0.2306  -1.1339   0.0000   0.0000   0.0000  20.9675
  -2.200   0.0132   0.00853   0.00252  -0.0547  0.8706  0.2400  -1.0945   0.0000   0.0000   0.0000   4.4522
  -2.100   0.0240   0.00846   0.00247  -0.0547  0.8646  0.2471  -1.0549   0.0000   0.0000   0.0000   2.5580
  -2.000   0.0350   0.00839   0.00241  -0.0546  0.8576  0.2555  -1.0154   0.0000   0.0000   0.0000   1.8329
  -1.900   0.0457   0.00825   0.00235  -0.0545  0.8493  0.2683  -0.9766   0.0000   0.0000   0.0000   1.4593
  -1.800   0.0565   0.00814   0.00228  -0.0545  0.8395  0.2794  -0.9380   0.0000   0.0000   0.0000   1.2261
  -1.700   0.0673   0.00808   0.00221  -0.0544  0.8270  0.2884  -0.8996   0.0000   0.0000   0.0000   1.0670
  -1.600   0.0787   0.00805   0.00216  -0.0544  0.8119  0.2952  -0.8607   0.0000   0.0000   0.0000   0.9491
  -1.500   0.0902   0.00804   0.00214  -0.0546  0.7996  0.3001  -0.8220   0.0000   0.0000   0.0000   0.8606
  -1.400   0.1002   0.00799   0.00211  -0.0543  0.7970  0.3119  -0.7861   0.0000   0.0000   0.0000   0.7968
  -1.300   0.1102   0.00794   0.00207  -0.0541  0.7929  0.3264  -0.7507   0.0000   0.0000   0.0000   0.7447
  -1.200   0.1202   0.00786   0.00204  -0.0539  0.7868  0.3410  -0.7156   0.0000   0.0000   0.0000   0.7014
  -1.100   0.1303   0.00779   0.00200  -0.0537  0.7782  0.3553  -0.6806   0.0000   0.0000   0.0000   0.6646
  -1.000   0.1404   0.00772   0.00196  -0.0535  0.7669  0.3693  -0.6457   0.0000   0.0000   0.0000   0.6328
  -0.900   0.1507   0.00768   0.00191  -0.0532  0.7528  0.3823  -0.6110   0.0000   0.0000   0.0000   0.6050
  -0.800   0.1609   0.00768   0.00185  -0.0530  0.7362  0.3936  -0.5768   0.0000   0.0000   0.0000   0.5808
  -0.700   0.1709   0.00769   0.00181  -0.0528  0.7159  0.4097  -0.5433   0.0000   0.0000   0.0000   0.5597
  -0.600   0.1808   0.00761   0.00179  -0.0526  0.6995  0.4424  -0.5149   0.0000   0.0000   0.0000   0.5416
  -0.500   0.1906   0.00750   0.00180  -0.0524  0.6956  0.4707  -0.5225   0.0000   0.0000   0.0000   0.5253
  -0.400   0.2008   0.00744   0.00180  -0.0523  0.6900  0.4918  -0.5306   0.0000   0.0000   0.0000   0.5105
  -0.300   0.2110   0.00739   0.00180  -0.0521  0.6831  0.5158  -0.5398   0.0000   0.0000   0.0000   0.4970
  -0.200   0.2203   0.00726   0.00180  -0.0518  0.6758  0.5518  -0.5485   0.0000   0.0000   0.0000   0.4849
  -0.100   0.2301   0.00719   0.00181  -0.0516  0.6681  0.5807  -0.5575   0.0000   0.0000   0.0000   0.4736
   0.000   0.2404   0.00718   0.00181  -0.0514  0.6593  0.5973  -0.5667   0.0000   0.0000   0.0000   0.4632
   0.100   0.2497   0.00714   0.00182  -0.0511  0.6495  0.6279  -0.5755   0.0000   0.0000   0.0000   0.4536
   0.200   0.2584   0.00707   0.00183  -0.0505  0.6384  0.6596  -0.5839   0.0000   0.0000   0.0000   0.4445
   0.300   0.2676   0.00708   0.00184  -0.0501  0.6250  0.6825  -0.5941   0.0000   0.0000   0.0000   0.4361
   0.400   0.2773   0.00710   0.00186  -0.0498  0.6097  0.6987  -0.6048   0.0000   0.0000   0.0000   0.4284
   0.500   0.2867   0.00699   0.00192  -0.0494  0.6094  0.7400  -0.6153   0.0000   0.0000   0.0000   0.4209
   0.600   0.2965   0.00696   0.00195  -0.0491  0.5998  0.7624  -0.6261   0.0000   0.0000   0.0000   0.4141
   0.700   0.3069   0.00695   0.00198  -0.0489  0.5973  0.7815  -0.6374   0.0000   0.0000   0.0000   0.4078
   0.800   0.3176   0.00694   0.00200  -0.0488  0.5944  0.7988  -0.6488   0.0000   0.0000   0.0000   0.4020
   0.900   0.3272   0.00689   0.00206  -0.0484  0.5915  0.8368  -0.6597   0.0000   0.0000   0.0000   0.3960
   1.000   0.3376   0.00688   0.00211  -0.0481  0.5877  0.8716  -0.6711   0.0000   0.0000   0.0000   0.3905
   1.100   0.3482   0.00691   0.00214  -0.0479  0.5828  0.8932  -0.6825   0.0000   0.0000   0.0000   0.3855
   1.200   0.3617   0.00695   0.00219  -0.0483  0.5762  0.9120  -0.6959   0.0000   0.0000   0.0000   0.3814
   1.300   0.3782   0.00702   0.00225  -0.0493  0.5678  0.9341  -0.7113   0.0000   0.0000   0.0000   0.3782
   1.400   0.3893   0.00711   0.00229  -0.0492  0.5596  0.9492  -0.7232   0.0000   0.0000   0.0000   0.3741
   1.500   0.4122   0.00720   0.00232  -0.0518  0.5495  0.9624  -0.7448   0.0000   0.0000   0.0000   0.3732
   1.600   0.4340   0.00729   0.00236  -0.0541  0.5405  0.9734  -0.7847   0.0000   0.0000   0.0000   0.3722
   1.700   0.4535   0.00739   0.00238  -0.0560  0.5295  0.9820  -0.8338   0.0000   0.0000   0.0000   0.3708
   1.800   0.4713   0.00748   0.00241  -0.0575  0.5164  0.9885  -0.8809   0.0000   0.0000   0.0000   0.3693
   1.900   0.4880   0.00755   0.00244  -0.0587  0.5035  0.9929  -0.9267   0.0000   0.0000   0.0000   0.3676
   2.000   0.5043   0.00759   0.00246  -0.0599  0.4985  0.9960  -0.9724   0.0000   0.0000   0.0000   0.3660
   2.100   0.5200   0.00763   0.00249  -0.0610  0.4957  0.9982  -1.0176   0.0000   0.0000   0.0000   0.3643
   2.200   0.5350   0.00767   0.00251  -0.0619  0.4921  0.9998  -1.0622   0.0000   0.0000   0.0000   0.3627
   2.300   0.5455   0.00769   0.00252  -0.0619  0.4881  1.0000  -1.0994   0.0000   0.0000   0.0000   0.3603
   2.400   0.5551   0.00773   0.00253  -0.0617  0.4832  1.0000  -1.1354   0.0000   0.0000   0.0000   0.3579
   2.500   0.5646   0.00777   0.00254  -0.0614  0.4769  1.0000  -1.1715   0.0000   0.0000   0.0000   0.3556
   2.600   0.5739   0.00783   0.00255  -0.0612  0.4691  1.0000  -1.2076   0.0000   0.0000   0.0000   0.3533
   2.700   0.5830   0.00790   0.00257  -0.0609  0.4600  1.0000  -1.2436   0.0000   0.0000   0.0000   0.3510
   2.800   0.5919   0.00799   0.00260  -0.0605  0.4503  1.0000  -1.2795   0.0000   0.0000   0.0000   0.3487
   2.900   0.6007   0.00809   0.00263  -0.0602  0.4405  1.0000  -1.3153   0.0000   0.0000   0.0000   0.3465
   3.000   0.6094   0.00817   0.00266  -0.0598  0.4307  1.0000  -1.3514   0.0000   0.0000   0.0000   0.3444
   3.100   0.6183   0.00826   0.00269  -0.0594  0.4201  1.0000  -1.3879   0.0000   0.0000   0.0000   0.3423
   3.200   0.6274   0.00833   0.00273  -0.0591  0.4096  1.0000  -1.4252   0.0000   0.0000   0.0000   0.3403
   3.300   0.6368   0.00838   0.00277  -0.0588  0.4008  1.0000  -1.4632   0.0000   0.0000   0.0000   0.3384
   3.400   0.6466   0.00842   0.00280  -0.0586  0.3985  1.0000  -1.5022   0.0000   0.0000   0.0000   0.3366
   3.500   0.6564   0.00846   0.00284  -0.0584  0.3965  1.0000  -1.5416   0.0000   0.0000   0.0000   0.3349
   3.600   0.6661   0.00850   0.00287  -0.0582  0.3941  1.0000  -1.5811   0.0000   0.0000   0.0000   0.3332
   3.700   0.6758   0.00855   0.00291  -0.0580  0.3911  1.0000  -1.6209   0.0000   0.0000   0.0000   0.3315
   3.800   0.6854   0.00860   0.00295  -0.0577  0.3868  1.0000  -1.6607   0.0000   0.0000   0.0000   0.3299
   3.900   0.6947   0.00867   0.00299  -0.0575  0.3805  1.0000  -1.7003   0.0000   0.0000   0.0000   0.3282
   4.000   0.7037   0.00877   0.00303  -0.0571  0.3706  1.0000  -1.7395   0.0000   0.0000   0.0000   0.3266
   4.100   0.7120   0.00891   0.00308  -0.0566  0.3570  1.0000  -1.7777   0.0000   0.0000   0.0000   0.3249
   4.200   0.7199   0.00907   0.00315  -0.0561  0.3422  1.0000  -1.8150   0.0000   0.0000   0.0000   0.3232
   4.300   0.7276   0.00924   0.00322  -0.0555  0.3260  1.0000  -1.8523   0.0000   0.0000   0.0000   0.3215
   4.400   0.7359   0.00937   0.00329  -0.0551  0.3075  1.0000  -1.8907   0.0000   0.0000   0.0000   0.3199
   4.500   0.7449   0.00947   0.00335  -0.0547  0.2968  1.0000  -1.9309   0.0000   0.0000   0.0000   0.3184
   4.600   0.7537   0.00958   0.00341  -0.0543  0.2884  1.0000  -1.9707   0.0000   0.0000   0.0000   0.3169
   4.700   0.7616   0.00975   0.00349  -0.0538  0.2764  1.0000  -2.0092   0.0000   0.0000   0.0000   0.3154
   4.800   0.7684   0.01000   0.00358  -0.0531  0.2611  1.0000  -2.0453   0.0000   0.0000   0.0000   0.3138
   4.900   0.7758   0.01023   0.00370  -0.0525  0.2461  1.0000  -2.0825   0.0000   0.0000   0.0000   0.3122
   5.000   0.7835   0.01042   0.00382  -0.0520  0.2321  1.0000  -2.1206   0.0000   0.0000   0.0000   0.3108
   5.100   0.7903   0.01070   0.00395  -0.0513  0.2148  1.0000  -2.1566   0.0000   0.0000   0.0000   0.3093
   5.200   0.7983   0.01092   0.00406  -0.0508  0.1971  1.0000  -2.1951   0.0000   0.0000   0.0000   0.3079
   5.300   0.8066   0.01111   0.00419  -0.0504  0.1824  1.0000  -2.2338   0.0000   0.0000   0.0000   0.3067
   5.400   0.8130   0.01148   0.00437  -0.0497  0.1559  1.0000  -2.2680   0.0000   0.0000   0.0000   0.3052
   5.500   0.8205   0.01177   0.00454  -0.0492  0.1318  1.0000  -2.3028   0.0000   0.0000   0.0000   0.3039
   5.600   0.8232   0.01251   0.00491  -0.0480  0.0818  1.0000  -2.3243   0.0000   0.0000   0.0000   0.3022
   5.700   0.8275   0.01314   0.00531  -0.0469  0.0493  1.0000  -2.3351   0.0000   0.0000   0.0000   0.3004
   5.800   0.8366   0.01331   0.00547  -0.0465  0.0467  1.0000  -2.3657   0.0000   0.0000   0.0000   0.2993
   5.900   0.8458   0.01347   0.00563  -0.0462  0.0453  1.0000  -2.3996   0.0000   0.0000   0.0000   0.2982
   6.000   0.8551   0.01361   0.00579  -0.0459  0.0444  1.0000  -2.4349   0.0000   0.0000   0.0000   0.2971
   6.100   0.8643   0.01376   0.00596  -0.0456  0.0437  1.0000  -2.4710   0.0000   0.0000   0.0000   0.2961
   6.200   0.8736   0.01392   0.00613  -0.0453  0.0432  1.0000  -2.5075   0.0000   0.0000   0.0000   0.2951
   6.300   0.8828   0.01408   0.00631  -0.0450  0.0428  1.0000  -2.5442   0.0000   0.0000   0.0000   0.2941
   6.400   0.8919   0.01425   0.00650  -0.0447  0.0425  1.0000  -2.5812   0.0000   0.0000   0.0000   0.2931
   6.500   0.9010   0.01442   0.00669  -0.0444  0.0422  1.0000  -2.6182   0.0000   0.0000   0.0000   0.2921
   6.600   0.9101   0.01459   0.00689  -0.0440  0.0420  1.0000  -2.6552   0.0000   0.0000   0.0000   0.2912
   6.700   0.9190   0.01477   0.00709  -0.0437  0.0419  1.0000  -2.6921   0.0000   0.0000   0.0000   0.2902
   6.800   0.9279   0.01496   0.00730  -0.0433  0.0417  1.0000  -2.7289   0.0000   0.0000   0.0000   0.2893
   6.900   0.9367   0.01515   0.00752  -0.0430  0.0416  1.0000  -2.7654   0.0000   0.0000   0.0000   0.2883
   7.000   0.9455   0.01536   0.00774  -0.0426  0.0415  1.0000  -2.8017   0.0000   0.0000   0.0000   0.2874
   7.100   0.9541   0.01557   0.00798  -0.0422  0.0415  1.0000  -2.8376   0.0000   0.0000   0.0000   0.2864
   7.200   0.9625   0.01579   0.00823  -0.0418  0.0414  1.0000  -2.8732   0.0000   0.0000   0.0000   0.2855
   7.300   0.9709   0.01602   0.00848  -0.0414  0.0413  1.0000  -2.9090   0.0000   0.0000   0.0000   0.2846
   7.400   0.9795   0.01623   0.00871  -0.0410  0.0411  1.0000  -2.9481   0.0000   0.0000   0.0000   0.2837
   7.500   0.9881   0.01643   0.00892  -0.0406  0.0407  1.0000  -2.9903   0.0000   0.0000   0.0000   0.2828
   7.600   0.9968   0.01662   0.00911  -0.0403  0.0401  1.0000  -3.0348   0.0000   0.0000   0.0000   0.2820
   7.700   1.0055   0.01680   0.00930  -0.0400  0.0395  1.0000  -3.0807   0.0000   0.0000   0.0000   0.2812
   7.800   1.0141   0.01699   0.00949  -0.0397  0.0389  1.0000  -3.1271   0.0000   0.0000   0.0000   0.2805
   7.900   1.0227   0.01719   0.00969  -0.0393  0.0382  1.0000  -3.1731   0.0000   0.0000   0.0000   0.2797
   8.000   1.0311   0.01739   0.00990  -0.0390  0.0377  1.0000  -3.2182   0.0000   0.0000   0.0000   0.2789
   8.100   1.0393   0.01761   0.01013  -0.0386  0.0373  1.0000  -3.2613   0.0000   0.0000   0.0000   0.2781
   8.200   1.0474   0.01785   0.01039  -0.0382  0.0371  1.0000  -3.3019   0.0000   0.0000   0.0000   0.2773
   8.300   1.0553   0.01810   0.01066  -0.0377  0.0369  1.0000  -3.3417   0.0000   0.0000   0.0000   0.2764
   8.400   1.0631   0.01836   0.01094  -0.0372  0.0367  1.0000  -3.3816   0.0000   0.0000   0.0000   0.2756
   8.500   1.0708   0.01862   0.01122  -0.0368  0.0365  1.0000  -3.4215   0.0000   0.0000   0.0000   0.2748
   8.600   1.0784   0.01888   0.01150  -0.0363  0.0363  1.0000  -3.4615   0.0000   0.0000   0.0000   0.2739
   8.700   1.0832   0.01940   0.01235  -0.0354  0.0303  1.0000  -3.5530   0.0000   0.0000   0.0000   0.2729
   8.800   1.0801   0.02070   0.01381  -0.0332  0.0264  1.0000  -3.5608   0.0000   0.0000   0.0000   0.2708
   8.900   1.1066   0.01910   0.01190  -0.0362  0.0234  1.0000  -3.8916   0.0000   0.0000   0.0000   0.2726
   9.000   1.1195   0.01888   0.01158  -0.0367  0.0219  1.0000  -4.0264   0.0000   0.0000   0.0000   0.2725
   9.100   1.1297   0.01890   0.01156  -0.0367  0.0207  1.0000  -4.1271   0.0000   0.0000   0.0000   0.2721
   9.200   1.1390   0.01899   0.01161  -0.0366  0.0196  1.0000  -4.2182   0.0000   0.0000   0.0000   0.2716
   9.300   1.1476   0.01914   0.01170  -0.0364  0.0186  1.0000  -4.3030   0.0000   0.0000   0.0000   0.2710
   9.400   1.1557   0.01933   0.01184  -0.0361  0.0177  1.0000  -4.3831   0.0000   0.0000   0.0000   0.2703
   9.500   1.1634   0.01956   0.01202  -0.0357  0.0169  1.0000  -4.4586   0.0000   0.0000   0.0000   0.2696
   9.600   1.1706   0.01981   0.01225  -0.0352  0.0162  1.0000  -4.5291   0.0000   0.0000   0.0000   0.2689
   9.700   1.1775   0.02009   0.01251  -0.0346  0.0155  1.0000  -4.5952   0.0000   0.0000   0.0000   0.2681
   9.800   1.1840   0.02040   0.01283  -0.0340  0.0149  1.0000  -4.6576   0.0000   0.0000   0.0000   0.2673
   9.900   1.1896   0.02072   0.01318  -0.0333  0.0143  1.0000  -4.7158   0.0000   0.0000   0.0000   0.2663
  10.000   1.1944   0.02108   0.01357  -0.0323  0.0139  1.0000  -4.7699   0.0000   0.0000   0.0000   0.2653
  10.100   1.1985   0.02148   0.01401  -0.0313  0.0135  1.0000  -4.8213   0.0000   0.0000   0.0000   0.2642
  10.200   1.2021   0.02191   0.01449  -0.0303  0.0132  1.0000  -4.8698   0.0000   0.0000   0.0000   0.2631
  10.300   1.2051   0.02240   0.01503  -0.0291  0.0129  1.0000  -4.9153   0.0000   0.0000   0.0000   0.2619
  10.400   1.2077   0.02293   0.01562  -0.0280  0.0127  1.0000  -4.9576   0.0000   0.0000   0.0000   0.2608
  10.500   1.2107   0.02344   0.01615  -0.0269  0.0125  1.0000  -5.0012   0.0000   0.0000   0.0000   0.2597
  10.600   1.2144   0.02389   0.01664  -0.0260  0.0125  1.0000  -5.0479   0.0000   0.0000   0.0000   0.2587
  10.700   1.2171   0.02436   0.01716  -0.0249  0.0125  1.0000  -5.0912   0.0000   0.0000   0.0000   0.2576
  10.800   1.2193   0.02485   0.01769  -0.0238  0.0125  1.0000  -5.1327   0.0000   0.0000   0.0000   0.2565
  10.900   1.2216   0.02537   0.01825  -0.0227  0.0124  1.0000  -5.1741   0.0000   0.0000   0.0000   0.2554
  11.000   1.2239   0.02590   0.01884  -0.0217  0.0124  1.0000  -5.2158   0.0000   0.0000   0.0000   0.2544
  11.100   1.2262   0.02647   0.01945  -0.0208  0.0124  1.0000  -5.2573   0.0000   0.0000   0.0000   0.2534
  11.200   1.2285   0.02706   0.02009  -0.0198  0.0124  1.0000  -5.2984   0.0000   0.0000   0.0000   0.2524
  11.300   1.2299   0.02771   0.02079  -0.0188  0.0124  1.0000  -5.3361   0.0000   0.0000   0.0000   0.2514
  11.400   1.2310   0.02839   0.02152  -0.0179  0.0123  1.0000  -5.3724   0.0000   0.0000   0.0000   0.2505
  11.500   1.2324   0.02909   0.02227  -0.0170  0.0123  1.0000  -5.4098   0.0000   0.0000   0.0000   0.2495
  11.600   1.2340   0.02980   0.02303  -0.0161  0.0123  1.0000  -5.4477   0.0000   0.0000   0.0000   0.2487
  11.700   1.2357   0.03053   0.02382  -0.0153  0.0123  1.0000  -5.4856   0.0000   0.0000   0.0000   0.2478
  11.800   1.2373   0.03128   0.02462  -0.0145  0.0123  1.0000  -5.5230   0.0000   0.0000   0.0000   0.2470
  11.900   1.2599   0.02996   0.02322  -0.0160  0.0123  1.0000  -5.5896   0.0000   0.0000   0.0000   0.2478
  12.000   1.2617   0.03067   0.02399  -0.0152  0.0123  1.0000  -5.6285   0.0000   0.0000   0.0000   0.2469
  12.100   1.2632   0.03142   0.02480  -0.0144  0.0123  1.0000  -5.6662   0.0000   0.0000   0.0000   0.2461
  12.200   1.2642   0.03222   0.02566  -0.0136  0.0123  1.0000  -5.7026   0.0000   0.0000   0.0000   0.2453
  12.300   1.2649   0.03307   0.02657  -0.0129  0.0123  1.0000  -5.7374   0.0000   0.0000   0.0000   0.2445
  12.400   1.2651   0.03395   0.02751  -0.0121  0.0123  1.0000  -5.7700   0.0000   0.0000   0.0000   0.2437
  12.500   1.2643   0.03488   0.02851  -0.0113  0.0123  1.0000  -5.7984   0.0000   0.0000   0.0000   0.2429
  12.600   1.2618   0.03595   0.02965  -0.0105  0.0123  1.0000  -5.8194   0.0000   0.0000   0.0000   0.2421
  12.700   1.2600   0.03704   0.03080  -0.0098  0.0122  1.0000  -5.8422   0.0000   0.0000   0.0000   0.2414
  12.800   1.2587   0.03813   0.03196  -0.0092  0.0122  1.0000  -5.8670   0.0000   0.0000   0.0000   0.2407
  12.900   1.2575   0.03925   0.03315  -0.0086  0.0122  1.0000  -5.8919   0.0000   0.0000   0.0000   0.2400
  13.000   1.2563   0.04041   0.03439  -0.0080  0.0122  1.0000  -5.9159   0.0000   0.0000   0.0000   0.2394
  13.100   1.2548   0.04162   0.03567  -0.0075  0.0122  1.0000  -5.9382   0.0000   0.0000   0.0000   0.2387
  13.200   1.2530   0.04289   0.03702  -0.0070  0.0122  1.0000  -5.9585   0.0000   0.0000   0.0000   0.2381
  13.300   1.2508   0.04423   0.03843  -0.0065  0.0122  1.0000  -5.9761   0.0000   0.0000   0.0000   0.2376
  13.400   1.2475   0.04569   0.03997  -0.0062  0.0122  1.0000  -5.9883   0.0000   0.0000   0.0000   0.2371
  13.500   1.2426   0.04736   0.04172  -0.0061  0.0122  1.0000  -5.9921   0.0000   0.0000   0.0000   0.2369
  13.600   1.2386   0.04897   0.04341  -0.0059  0.0122  1.0000  -5.9992   0.0000   0.0000   0.0000   0.2365
  13.700   1.2348   0.05057   0.04509  -0.0058  0.0122  1.0000  -6.0068   0.0000   0.0000   0.0000   0.2362
  13.800   1.2310   0.05220   0.04680  -0.0056  0.0122  1.0000  -6.0130   0.0000   0.0000   0.0000   0.2359
  13.900   1.2267   0.05388   0.04856  -0.0055  0.0122  1.0000  -6.0168   0.0000   0.0000   0.0000   0.2356
  14.000   1.2220   0.05564   0.05040  -0.0055  0.0123  1.0000  -6.0175   0.0000   0.0000   0.0000   0.2354
  14.100   1.2168   0.05748   0.05232  -0.0056  0.0123  1.0000  -6.0146   0.0000   0.0000   0.0000   0.2353
  14.200   1.2093   0.05968   0.05460  -0.0062  0.0123  1.0000  -5.9994   0.0000   0.0000   0.0000   0.2356
  14.300   1.2022   0.06186   0.05686  -0.0067  0.0123  1.0000  -5.9852   0.0000   0.0000   0.0000   0.2358
  14.400   1.1957   0.06388   0.05896  -0.0071  0.0123  1.0000  -5.9734   0.0000   0.0000   0.0000   0.2359
  14.500   1.1892   0.06591   0.06106  -0.0074  0.0123  1.0000  -5.9609   0.0000   0.0000   0.0000   0.2361
  14.600   1.1826   0.06804   0.06327  -0.0079  0.0123  1.0000  -5.9462   0.0000   0.0000   0.0000   0.2363
  14.700   1.1755   0.07030   0.06561  -0.0085  0.0123  1.0000  -5.9282   0.0000   0.0000   0.0000   0.2366
  14.800   1.1673   0.07291   0.06830  -0.0096  0.0123  1.0000  -5.9018   0.0000   0.0000   0.0000   0.2373
  14.900   1.1580   0.07586   0.07132  -0.0110  0.0123  1.0000  -5.8668   0.0000   0.0000   0.0000   0.2384
  15.000   1.1504   0.07846   0.07400  -0.0120  0.0123  1.0000  -5.8411   0.0000   0.0000   0.0000   0.2391
  15.100   1.1433   0.08104   0.07665  -0.0130  0.0123  1.0000  -5.8162   0.0000   0.0000   0.0000   0.2398
  15.200   1.1361   0.08369   0.07937  -0.0140  0.0123  1.0000  -5.7893   0.0000   0.0000   0.0000   0.2406
  15.300   1.1286   0.08645   0.08220  -0.0152  0.0123  1.0000  -5.7589   0.0000   0.0000   0.0000   0.2414
  15.400   1.1205   0.08936   0.08519  -0.0165  0.0123  1.0000  -5.7236   0.0000   0.0000   0.0000   0.2425
  15.500   1.1100   0.09298   0.08889  -0.0187  0.0123  1.0000  -5.6703   0.0000   0.0000   0.0000   0.2444
  15.600   1.1012   0.09635   0.09232  -0.0206  0.0123  1.0000  -5.6242   0.0000   0.0000   0.0000   0.2460
  15.700   1.0934   0.09938   0.09542  -0.0220  0.0124  1.0000  -5.5844   0.0000   0.0000   0.0000   0.2473
  15.800   1.0858   0.10237   0.09848  -0.0234  0.0124  1.0000  -5.5440   0.0000   0.0000   0.0000   0.2485
  15.900   1.0781   0.10540   0.10158  -0.0249  0.0124  1.0000  -5.5006   0.0000   0.0000   0.0000   0.2499
  16.000   1.0702   0.10858   0.10482  -0.0265  0.0124  1.0000  -5.4524   0.0000   0.0000   0.0000   0.2514
  16.100   1.0617   0.11200   0.10831  -0.0284  0.0124  1.0000  -5.3972   0.0000   0.0000   0.0000   0.2532
  16.200   1.0516   0.11610   0.11248  -0.0309  0.0124  1.0000  -5.3236   0.0000   0.0000   0.0000   0.2557
  16.300   1.0422   0.11996   0.11639  -0.0332  0.0124  1.0000  -5.2529   0.0000   0.0000   0.0000   0.2580
  16.400   1.0327   0.12387   0.12037  -0.0354  0.0124  1.0000  -5.1773   0.0000   0.0000   0.0000   0.2604
  16.500   1.0220   0.12838   0.12494  -0.0381  0.0124  1.0000  -5.0836   0.0000   0.0000   0.0000   0.2633
  16.600   1.0120   0.13254   0.12916  -0.0405  0.0124  1.0000  -4.9939   0.0000   0.0000   0.0000   0.2659
  16.700   1.0011   0.13704   0.13371  -0.0431  0.0124  1.0000  -4.8886   0.0000   0.0000   0.0000   0.2689
  16.800   0.9888   0.14200   0.13872  -0.0459  0.0124  1.0000  -4.7624   0.0000   0.0000   0.0000   0.2723
  16.900   0.9775   0.14661   0.14338  -0.0485  0.0125  1.0000  -4.6382   0.0000   0.0000   0.0000   0.2755
  17.000   0.9623   0.15229   0.14912  -0.0517  0.0125  1.0000  -4.4559   0.0000   0.0000   0.0000   0.2797
  19.400   0.8540   0.25572   0.25270  -0.0856  0.0248  1.0000  -1.6094   0.0000   0.0000   0.0000   0.3273
  19.500   0.8557   0.25764   0.25461  -0.0863  0.0248  1.0000  -1.6059   0.0000   0.0000   0.0000   0.3278
  19.600   0.8575   0.25952   0.25650  -0.0870  0.0247  1.0000  -1.6032   0.0000   0.0000   0.0000   0.3282
  19.700   0.8593   0.26137   0.25835  -0.0877  0.0247  1.0000  -1.6016   0.0000   0.0000   0.0000   0.3287
  19.800   0.8612   0.26318   0.26015  -0.0884  0.0246  1.0000  -1.6011   0.0000   0.0000   0.0000   0.3291
  19.900   0.8632   0.26492   0.26189  -0.0891  0.0246  1.0000  -1.6022   0.0000   0.0000   0.0000   0.3296
  20.000   0.8653   0.26657   0.26354  -0.0898  0.0245  1.0000  -1.6053   0.0000   0.0000   0.0000   0.3300
  20.100   0.8676   0.26808   0.26504  -0.0905  0.0243  1.0000  -1.6117   0.0000   0.0000   0.0000   0.3303
  20.200   0.8704   0.26932   0.26629  -0.0912  0.0241  1.0000  -1.6241   0.0000   0.0000   0.0000   0.3306
  20.300   0.8742   0.27000   0.26697  -0.0920  0.0237  1.0000  -1.6497   0.0000   0.0000   0.0000   0.3308
  20.400   0.8797   0.26986   0.26683  -0.0930  0.0226  1.0000  -1.6879   0.0000   0.0000   0.0000   0.3311
  20.500   0.8842   0.27072   0.26768  -0.0943  0.0208  1.0000  -1.6987   0.0000   0.0000   0.0000   0.3319
  20.600   0.8870   0.27226   0.26921  -0.0952  0.0193  1.0000  -1.7106   0.0000   0.0000   0.0000   0.3324
  20.700   0.8893   0.27374   0.27070  -0.0959  0.0181  1.0000  -1.7316   0.0000   0.0000   0.0000   0.3326
  20.800   0.8917   0.27512   0.27207  -0.0964  0.0173  1.0000  -1.7598   0.0000   0.0000   0.0000   0.3328
  20.900   0.8941   0.27637   0.27331  -0.0969  0.0166  1.0000  -1.7944   0.0000   0.0000   0.0000   0.3328
  21.000   0.8965   0.27752   0.27446  -0.0974  0.0160  1.0000  -1.8343   0.0000   0.0000   0.0000   0.3328
  21.100   0.8991   0.27857   0.27551  -0.0978  0.0155  1.0000  -1.8791   0.0000   0.0000   0.0000   0.3327
  21.200   0.9018   0.27954   0.27648  -0.0981  0.0151  1.0000  -1.9285   0.0000   0.0000   0.0000   0.3325
  21.300   0.9046   0.28044   0.27737  -0.0984  0.0148  1.0000  -1.9825   0.0000   0.0000   0.0000   0.3322
  21.400   0.9075   0.28126   0.27819  -0.0986  0.0145  1.0000  -2.0408   0.0000   0.0000   0.0000   0.3318
  21.500   0.9105   0.28203   0.27896  -0.0988  0.0142  1.0000  -2.1038   0.0000   0.0000   0.0000   0.3313
  21.600   0.9141   0.28247   0.27948  -0.0989  0.0140  1.0000  -2.1730   0.0000   0.0000   0.0000   0.3307
  21.700   0.9161   0.28372   0.28073  -0.0992  0.0138  1.0000  -2.2142   0.0000   0.0000   0.0000   0.3305
  21.800   0.9172   0.28528   0.28229  -0.0995  0.0134  1.0000  -2.2485   0.0000   0.0000   0.0000   0.3305


