xflr5 v6.61

 Calculated polar for: NACA 4408

 1 1 Reynolds number fixed          Mach number fixed         

 xtrf =   1.000 (top)        1.000 (bottom)
 Mach =   0.000     Re =     0.300 e 6     Ncrit =   9.000

  alpha     CL        CD       CDp       Cm    Top Xtr Bot Xtr   Cpmin    Chinge    XCp    
 ------- -------- --------- --------- -------- ------- ------- -------- --------- ---------
 -10.000  -0.3743   0.11331   0.11019  -0.0264  1.0001  0.0202  -1.6130   0.0000   0.0000   0.0000   0.1729
  -9.900  -0.3722   0.11214   0.10903  -0.0268  1.0001  0.0207  -1.6075   0.0000   0.0000   0.0000   0.1715
  -9.800  -0.3701   0.11096   0.10786  -0.0272  1.0001  0.0214  -1.6056   0.0000   0.0000   0.0000   0.1701
  -9.700  -0.3681   0.10975   0.10665  -0.0277  1.0001  0.0222  -1.6082   0.0000   0.0000   0.0000   0.1685
  -9.600  -0.3662   0.10851   0.10543  -0.0282  1.0001  0.0232  -1.6169   0.0000   0.0000   0.0000   0.1668
  -9.500  -0.3644   0.10728   0.10421  -0.0289  1.0001  0.0245  -1.6378   0.0000   0.0000   0.0000   0.1646
  -9.400  -0.3632   0.10639   0.10332  -0.0304  1.0001  0.0262  -1.6988   0.0000   0.0000   0.0000   0.1602
  -9.300  -0.3632   0.10585   0.10281  -0.0322  1.0001  0.0269  -1.7643   0.0000   0.0000   0.0000   0.1553
  -9.200  -0.3614   0.10506   0.10203  -0.0331  1.0001  0.0273  -1.7968   0.0000   0.0000   0.0000   0.1523
  -9.100  -0.3599   0.10405   0.10104  -0.0338  1.0001  0.0274  -1.8208   0.0000   0.0000   0.0000   0.1502
  -9.000  -0.3588   0.10295   0.09995  -0.0343  1.0001  0.0275  -1.8408   0.0000   0.0000   0.0000   0.1485
  -8.900  -0.3580   0.10181   0.09882  -0.0348  1.0001  0.0276  -1.8574   0.0000   0.0000   0.0000   0.1471
  -8.800  -0.3574   0.10067   0.09770  -0.0351  1.0001  0.0276  -1.8710   0.0000   0.0000   0.0000   0.1461
  -8.700  -0.3572   0.09955   0.09659  -0.0354  1.0001  0.0276  -1.8820   0.0000   0.0000   0.0000   0.1454
  -8.600  -0.3573   0.09846   0.09552  -0.0355  1.0001  0.0277  -1.8913   0.0000   0.0000   0.0000   0.1452
  -8.500  -0.3579   0.09740   0.09448  -0.0355  1.0001  0.0277  -1.8995   0.0000   0.0000   0.0000   0.1454
  -8.400  -0.3589   0.09638   0.09349  -0.0354  1.0001  0.0277  -1.9072   0.0000   0.0000   0.0000   0.1460
  -8.300  -0.3604   0.09542   0.09254  -0.0352  1.0001  0.0277  -1.9147   0.0000   0.0000   0.0000   0.1472
  -8.200  -0.3627   0.09453   0.09167  -0.0348  1.0001  0.0277  -1.9226   0.0000   0.0000   0.0000   0.1490
  -8.100  -0.3658   0.09372   0.09089  -0.0342  1.0001  0.0277  -1.9312   0.0000   0.0000   0.0000   0.1517
  -8.000  -0.3699   0.09301   0.09020  -0.0334  1.0001  0.0277  -1.9407   0.0000   0.0000   0.0000   0.1551
  -7.400  -0.3997   0.08628   0.08365  -0.0303  1.0001  0.0281  -2.0977   0.0000   0.0000   0.0000   0.1704
  -7.300  -0.4091   0.08380   0.08120  -0.0301  1.0001  0.0285  -2.1724   0.0000   0.0000   0.0000   0.1726
  -7.200  -0.4144   0.08221   0.07963  -0.0298  1.0001  0.0288  -2.1913   0.0000   0.0000   0.0000   0.1746
  -7.100  -0.4170   0.08125   0.07868  -0.0287  1.0001  0.0292  -2.1544   0.0000   0.0000   0.0000   0.1778
  -7.000  -0.4166   0.08099   0.07844  -0.0267  1.0001  0.0298  -2.0554   0.0000   0.0000   0.0000   0.1826
  -6.900  -0.4154   0.08087   0.07832  -0.0249  1.0001  0.0305  -1.9573   0.0000   0.0000   0.0000   0.1869
  -6.800  -0.4111   0.08038   0.07784  -0.0243  0.9998  0.0313  -1.8687   0.0000   0.0000   0.0000   0.1877
  -6.700  -0.4008   0.07916   0.07661  -0.0261  0.9987  0.0324  -1.7897   0.0000   0.0000   0.0000   0.1817
  -6.600  -0.3898   0.07749   0.07493  -0.0289  0.9973  0.0334  -1.7404   0.0000   0.0000   0.0000   0.1727
  -6.500  -0.3780   0.07555   0.07298  -0.0323  0.9957  0.0342  -1.7060   0.0000   0.0000   0.0000   0.1613
  -6.400  -0.3650   0.07339   0.07081  -0.0363  0.9942  0.0350  -1.6797   0.0000   0.0000   0.0000   0.1474
  -6.300  -0.3525   0.07122   0.06861  -0.0401  0.9922  0.0357  -1.6584   0.0000   0.0000   0.0000   0.1330
  -6.200  -0.3389   0.06893   0.06630  -0.0443  0.9902  0.0365  -1.6397   0.0000   0.0000   0.0000   0.1160
  -6.100  -0.3234   0.06647   0.06381  -0.0490  0.9885  0.0375  -1.6252   0.0000   0.0000   0.0000   0.0950
  -6.000  -0.3047   0.06373   0.06103  -0.0548  0.9870  0.0389  -1.6531   0.0000   0.0000   0.0000   0.0664
  -5.900  -0.2784   0.06137   0.05857  -0.0623  0.9843  0.0411  -1.7142   0.0000   0.0000   0.0000   0.0224
  -5.800  -0.2601   0.05940   0.05652  -0.0664  0.9820  0.0415  -1.7312   0.0000   0.0000   0.0000  -0.0095
  -5.700  -0.2432   0.05706   0.05411  -0.0702  0.9802  0.0417  -1.7503   0.0000   0.0000   0.0000  -0.0431
  -5.600  -0.2267   0.05459   0.05155  -0.0739  0.9787  0.0418  -1.7712   0.0000   0.0000   0.0000  -0.0805
  -5.500  -0.2103   0.05208   0.04895  -0.0773  0.9774  0.0418  -1.7927   0.0000   0.0000   0.0000  -0.1228
  -5.300  -0.1889   0.04229   0.03885  -0.0856  0.9731  0.0431  -1.9946   0.0000   0.0000   0.0000  -0.2090
  -5.200  -0.1786   0.03992   0.03643  -0.0874  0.9707  0.0439  -1.9855   0.0000   0.0000   0.0000  -0.2457
  -5.000  -0.1524   0.03716   0.03358  -0.0904  0.9676  0.0450  -1.9088   0.0000   0.0000   0.0000  -0.3496
  -4.600  -0.0862   0.02257   0.01756  -0.0985  0.9639  0.0264  -2.5275   0.0000   0.0000   0.0000  -0.9074
  -4.500  -0.0707   0.02066   0.01535  -0.0998  0.9633  0.0261  -2.5670   0.0000   0.0000   0.0000  -1.1801
  -4.400  -0.0550   0.01922   0.01366  -0.1010  0.9628  0.0260  -2.5862   0.0000   0.0000   0.0000  -1.6072
  -4.300  -0.0444   0.01822   0.01239  -0.1009  0.9601  0.0263  -2.6179   0.0000   0.0000   0.0000  -2.0507
  -4.200  -0.0323   0.01738   0.01138  -0.1010  0.9577  0.0267  -2.6151   0.0000   0.0000   0.0000  -2.9121
  -4.100  -0.0185   0.01678   0.01065  -0.1015  0.9560  0.0273  -2.5939   0.0000   0.0000   0.0000  -5.2988
  -4.000  -0.0045   0.01481   0.00838  -0.1022  0.9552  0.0309  -2.6950   0.0000   0.0000   0.0000  -22.9053
  -3.900   0.0101   0.01471   0.00832  -0.1030  0.9538  0.0344  -2.6118   0.0000   0.0000   0.0000  10.5441
  -3.800   0.0251   0.01456   0.00814  -0.1038  0.9525  0.0372  -2.5307   0.0000   0.0000   0.0000   4.4206
  -3.700   0.0401   0.01434   0.00787  -0.1045  0.9514  0.0392  -2.4485   0.0000   0.0000   0.0000   2.8809
  -3.600   0.0551   0.01412   0.00761  -0.1053  0.9503  0.0405  -2.3631   0.0000   0.0000   0.0000   2.1801
  -3.500   0.0703   0.01424   0.00771  -0.1060  0.9492  0.0418  -2.2524   0.0000   0.0000   0.0000   1.7736
  -3.400   0.0844   0.01318   0.00657  -0.1068  0.9484  0.0459  -2.2053   0.0000   0.0000   0.0000   1.5276
  -3.300   0.0992   0.01288   0.00627  -0.1076  0.9474  0.0483  -2.1193   0.0000   0.0000   0.0000   1.3443
  -3.200   0.1140   0.01258   0.00595  -0.1083  0.9464  0.0507  -2.0397   0.0000   0.0000   0.0000   1.2078
  -3.100   0.1228   0.01240   0.00576  -0.1077  0.9424  0.0532  -1.9794   0.0000   0.0000   0.0000   1.1343
  -3.000   0.1342   0.01222   0.00556  -0.1076  0.9393  0.0562  -1.9093   0.0000   0.0000   0.0000   1.0584
  -2.900   0.1468   0.01211   0.00541  -0.1078  0.9369  0.0584  -1.8293   0.0000   0.0000   0.0000   0.9900
  -2.800   0.1596   0.01158   0.00487  -0.1082  0.9348  0.0636  -1.7667   0.0000   0.0000   0.0000   0.9326
  -2.700   0.1729   0.01136   0.00468  -0.1086  0.9329  0.0686  -1.6838   0.0000   0.0000   0.0000   0.8824
  -2.600   0.1864   0.01119   0.00451  -0.1090  0.9311  0.0740  -1.5994   0.0000   0.0000   0.0000   0.8384
  -2.500   0.2002   0.01108   0.00437  -0.1094  0.9294  0.0783  -1.5139   0.0000   0.0000   0.0000   0.7999
  -2.400   0.2136   0.01072   0.00408  -0.1098  0.9277  0.0904  -1.4379   0.0000   0.0000   0.0000   0.7672
  -2.300   0.2231   0.01065   0.00401  -0.1094  0.9235  0.0981  -1.3664   0.0000   0.0000   0.0000   0.7432
  -2.200   0.2333   0.01046   0.00388  -0.1092  0.9194  0.1107  -1.2957   0.0000   0.0000   0.0000   0.7205
  -2.100   0.2448   0.01035   0.00379  -0.1092  0.9159  0.1227  -1.2176   0.0000   0.0000   0.0000   0.6982
  -2.000   0.2568   0.01014   0.00366  -0.1093  0.9128  0.1398  -1.1408   0.0000   0.0000   0.0000   0.6777
  -1.900   0.2690   0.00999   0.00354  -0.1094  0.9100  0.1554  -1.0620   0.0000   0.0000   0.0000   0.6585
  -1.800   0.2813   0.00982   0.00338  -0.1096  0.9075  0.1753  -1.0264   0.0000   0.0000   0.0000   0.6411
  -1.700   0.2933   0.00968   0.00330  -0.1097  0.9048  0.1949  -0.9752   0.0000   0.0000   0.0000   0.6254
  -1.600   0.3028   0.00960   0.00327  -0.1093  0.9001  0.2130  -0.9297   0.0000   0.0000   0.0000   0.6123
  -1.500   0.3132   0.00948   0.00323  -0.1092  0.8959  0.2365  -0.8822   0.0000   0.0000   0.0000   0.5997
  -1.400   0.3242   0.00934   0.00317  -0.1091  0.8920  0.2617  -0.8341   0.0000   0.0000   0.0000   0.5875
  -1.300   0.3354   0.00920   0.00310  -0.1091  0.8885  0.2886  -0.7858   0.0000   0.0000   0.0000   0.5760
  -1.200   0.3470   0.00905   0.00302  -0.1091  0.8853  0.3186  -0.7373   0.0000   0.0000   0.0000   0.5651
  -1.100   0.3587   0.00889   0.00295  -0.1092  0.8823  0.3547  -0.6890   0.0000   0.0000   0.0000   0.5549
  -1.000   0.3687   0.00869   0.00293  -0.1090  0.8780  0.4069  -0.6451   0.0000   0.0000   0.0000   0.5461
  -0.900   0.3776   0.00831   0.00295  -0.1087  0.8731  0.5292  -0.6039   0.0000   0.0000   0.0000   0.5381
  -0.800   0.3842   0.00778   0.00298  -0.1076  0.8684  0.7043  -0.5675   0.0000   0.0000   0.0000   0.5304
  -0.700   0.3988   0.00717   0.00291  -0.1076  0.8651  0.9999  -0.5713   0.0000   0.0000   0.0000   0.5198
  -0.600   0.4102   0.00716   0.00283  -0.1075  0.8609  0.9999  -0.5788   0.0000   0.0000   0.0000   0.5120
  -0.500   0.4217   0.00715   0.00275  -0.1074  0.8568  0.9999  -0.5864   0.0000   0.0000   0.0000   0.5045
  -0.400   0.4325   0.00715   0.00271  -0.1072  0.8520  0.9999  -0.5936   0.0000   0.0000   0.0000   0.4977
  -0.300   0.4427   0.00716   0.00269  -0.1070  0.8462  0.9999  -0.6009   0.0000   0.0000   0.0000   0.4913
  -0.200   0.4533   0.00717   0.00265  -0.1068  0.8404  0.9999  -0.6088   0.0000   0.0000   0.0000   0.4851
  -0.100   0.4643   0.00717   0.00259  -0.1066  0.8350  0.9999  -0.6168   0.0000   0.0000   0.0000   0.4791
   0.000   0.4755   0.00717   0.00253  -0.1065  0.8300  0.9999  -0.6251   0.0000   0.0000   0.0000   0.4733
   0.100   0.4867   0.00719   0.00249  -0.1064  0.8252  0.9999  -0.6333   0.0000   0.0000   0.0000   0.4679
   0.200   0.4971   0.00721   0.00250  -0.1062  0.8194  0.9999  -0.6410   0.0000   0.0000   0.0000   0.4628
   0.300   0.5077   0.00723   0.00249  -0.1060  0.8135  0.9999  -0.6488   0.0000   0.0000   0.0000   0.4579
   0.400   0.5185   0.00724   0.00246  -0.1059  0.8077  0.9999  -0.6568   0.0000   0.0000   0.0000   0.4532
   0.500   0.5295   0.00726   0.00243  -0.1057  0.8022  0.9999  -0.6650   0.0000   0.0000   0.0000   0.4486
   0.600   0.5406   0.00730   0.00240  -0.1056  0.7969  0.9999  -0.6732   0.0000   0.0000   0.0000   0.4442
   0.700   0.5513   0.00733   0.00241  -0.1055  0.7912  0.9999  -0.6811   0.0000   0.0000   0.0000   0.4401
   0.800   0.5618   0.00735   0.00241  -0.1053  0.7847  0.9999  -0.6890   0.0000   0.0000   0.0000   0.4361
   0.900   0.5725   0.00738   0.00241  -0.1051  0.7780  0.9999  -0.6979   0.0000   0.0000   0.0000   0.4322
   1.000   0.5833   0.00741   0.00242  -0.1050  0.7714  0.9999  -0.7068   0.0000   0.0000   0.0000   0.4285
   1.100   0.5941   0.00746   0.00239  -0.1048  0.7650  0.9999  -0.7158   0.0000   0.0000   0.0000   0.4248
   1.200   0.6048   0.00750   0.00241  -0.1047  0.7587  0.9999  -0.7246   0.0000   0.0000   0.0000   0.4214
   1.300   0.6153   0.00753   0.00242  -0.1045  0.7517  0.9999  -0.7334   0.0000   0.0000   0.0000   0.4181
   1.400   0.6260   0.00757   0.00243  -0.1043  0.7447  0.9999  -0.7422   0.0000   0.0000   0.0000   0.4149
   1.500   0.6367   0.00762   0.00243  -0.1042  0.7381  0.9999  -0.7512   0.0000   0.0000   0.0000   0.4117
   1.600   0.6474   0.00768   0.00243  -0.1040  0.7316  0.9999  -0.7601   0.0000   0.0000   0.0000   0.4087
   1.700   0.6581   0.00774   0.00245  -0.1039  0.7255  0.9999  -0.7697   0.0000   0.0000   0.0000   0.4058
   1.800   0.6688   0.00778   0.00249  -0.1038  0.7190  0.9999  -0.7795   0.0000   0.0000   0.0000   0.4030
   1.900   0.6793   0.00782   0.00251  -0.1036  0.7119  0.9999  -0.7894   0.0000   0.0000   0.0000   0.4003
   2.000   0.6899   0.00788   0.00252  -0.1035  0.7047  0.9999  -0.7993   0.0000   0.0000   0.0000   0.3976
   2.100   0.7005   0.00796   0.00254  -0.1033  0.6976  0.9999  -0.8092   0.0000   0.0000   0.0000   0.3950
   2.200   0.7111   0.00804   0.00257  -0.1031  0.6908  0.9999  -0.8191   0.0000   0.0000   0.0000   0.3925
   2.300   0.7217   0.00808   0.00262  -0.1030  0.6844  0.9999  -0.8297   0.0000   0.0000   0.0000   0.3902
   2.400   0.7323   0.00813   0.00266  -0.1029  0.6776  0.9999  -0.8407   0.0000   0.0000   0.0000   0.3878
   2.500   0.7428   0.00820   0.00269  -0.1027  0.6710  0.9999  -0.8518   0.0000   0.0000   0.0000   0.3855
   2.600   0.7534   0.00828   0.00273  -0.1026  0.6644  0.9999  -0.8629   0.0000   0.0000   0.0000   0.3833
   2.700   0.7638   0.00839   0.00277  -0.1024  0.6575  0.9999  -0.8747   0.0000   0.0000   0.0000   0.3811
   2.800   0.7745   0.00845   0.00283  -0.1023  0.6519  0.9999  -0.9039   0.0000   0.0000   0.0000   0.3791
   2.900   0.7852   0.00850   0.00289  -0.1022  0.6459  0.9999  -0.9354   0.0000   0.0000   0.0000   0.3770
   3.000   0.7957   0.00856   0.00294  -0.1021  0.6395  0.9999  -0.9790   0.0000   0.0000   0.0000   0.3751
   3.100   0.8062   0.00864   0.00299  -0.1019  0.6331  0.9999  -1.0323   0.0000   0.0000   0.0000   0.3731
   3.200   0.8166   0.00873   0.00304  -0.1017  0.6268  0.9999  -1.0862   0.0000   0.0000   0.0000   0.3712
   3.300   0.8270   0.00885   0.00311  -0.1016  0.6203  0.9999  -1.1407   0.0000   0.0000   0.0000   0.3693
   3.400   0.8377   0.00892   0.00319  -0.1015  0.6152  0.9999  -1.1964   0.0000   0.0000   0.0000   0.3676
   3.500   0.8484   0.00897   0.00326  -0.1014  0.6101  0.9999  -1.2528   0.0000   0.0000   0.0000   0.3659
   3.600   0.8589   0.00903   0.00332  -0.1013  0.6044  0.9999  -1.3097   0.0000   0.0000   0.0000   0.3641
   3.700   0.8694   0.00911   0.00351  -0.1011  0.5982  0.9999  -1.3431   0.0000   0.0000   0.0000   0.3624
   3.800   0.8798   0.00921   0.00358  -0.1009  0.5923  0.9999  -1.3970   0.0000   0.0000   0.0000   0.3608
   3.900   0.8900   0.00932   0.00365  -0.1007  0.5860  0.9999  -1.4527   0.0000   0.0000   0.0000   0.3592
   4.000   0.9003   0.00946   0.00374  -0.1006  0.5788  0.9999  -1.5098   0.0000   0.0000   0.0000   0.3576
   4.100   0.9106   0.00947   0.00380  -0.1004  0.5723  0.9999  -1.5683   0.0000   0.0000   0.0000   0.3560
   4.200   0.9206   0.00953   0.00385  -0.1001  0.5625  0.9999  -1.6269   0.0000   0.0000   0.0000   0.3544
   4.300   0.9300   0.00964   0.00388  -0.0997  0.5510  0.9999  -1.6980   0.0000   0.0000   0.0000   0.3528
   4.400   0.9393   0.00979   0.00395  -0.0994  0.5390  0.9999  -1.7818   0.0000   0.0000   0.0000   0.3512
   4.500   0.9495   0.00982   0.00401  -0.0991  0.5302  0.9999  -1.8699   0.0000   0.0000   0.0000   0.3498
   4.600   0.9594   0.00990   0.00408  -0.0989  0.5209  0.9999  -1.9582   0.0000   0.0000   0.0000   0.3483
   4.700   0.9690   0.01003   0.00415  -0.0986  0.5110  0.9999  -2.0462   0.0000   0.0000   0.0000   0.3469
   4.800   0.9783   0.01019   0.00424  -0.0982  0.5003  0.9999  -2.1344   0.0000   0.0000   0.0000   0.3454
   4.900   0.9887   0.01023   0.00432  -0.0981  0.4927  0.9999  -2.2278   0.0000   0.0000   0.0000   0.3441
   5.000   0.9986   0.01032   0.00441  -0.0978  0.4828  0.9999  -2.3206   0.0000   0.0000   0.0000   0.3428
   5.100   1.0079   0.01046   0.00449  -0.0975  0.4711  0.9999  -2.4118   0.0000   0.0000   0.0000   0.3414
   5.200   1.0171   0.01062   0.00459  -0.0971  0.4594  0.9999  -2.5037   0.0000   0.0000   0.0000   0.3401
   5.300   1.0271   0.01069   0.00469  -0.0969  0.4485  0.9999  -2.6004   0.0000   0.0000   0.0000   0.3388
   5.400   1.0364   0.01084   0.00479  -0.0966  0.4353  0.9999  -2.6946   0.0000   0.0000   0.0000   0.3376
   5.500   1.0450   0.01104   0.00491  -0.0961  0.4219  0.9999  -2.7867   0.0000   0.0000   0.0000   0.3363
   5.600   1.0552   0.01112   0.00501  -0.0960  0.4094  0.9999  -2.8866   0.0000   0.0000   0.0000   0.3351
   5.700   1.0637   0.01132   0.00514  -0.0955  0.3899  0.9999  -2.9798   0.0000   0.0000   0.0000   0.3338
   5.800   1.0723   0.01153   0.00527  -0.0951  0.3685  0.9999  -3.0739   0.0000   0.0000   0.0000   0.3326
   5.900   1.0795   0.01185   0.00544  -0.0945  0.3387  0.9999  -3.1615   0.0000   0.0000   0.0000   0.3313
   6.000   1.0858   0.01228   0.00565  -0.0937  0.2998  0.9999  -3.2452   0.0000   0.0000   0.0000   0.3300
   6.100   1.0907   0.01287   0.00596  -0.0928  0.2487  0.9999  -3.3214   0.0000   0.0000   0.0000   0.3287
   6.200   1.0939   0.01368   0.00639  -0.0918  0.1881  0.9999  -3.3882   0.0000   0.0000   0.0000   0.3273
   6.300   1.0964   0.01462   0.00693  -0.0906  0.1259  0.9999  -3.4484   0.0000   0.0000   0.0000   0.3260
   6.400   1.1009   0.01534   0.00752  -0.0897  0.0891  0.9999  -3.4953   0.0000   0.0000   0.0000   0.3247
   6.500   1.1062   0.01597   0.00798  -0.0889  0.0649  0.9999  -3.5582   0.0000   0.0000   0.0000   0.3235
   6.600   1.1115   0.01662   0.00849  -0.0880  0.0500  0.9999  -3.6161   0.0000   0.0000   0.0000   0.3222
   6.700   1.1200   0.01688   0.00878  -0.0876  0.0446  0.9999  -3.7038   0.0000   0.0000   0.0000   0.3211
   6.800   1.1263   0.01738   0.00922  -0.0868  0.0385  0.9999  -3.7701   0.0000   0.0000   0.0000   0.3199
   6.900   1.1312   0.01804   0.00994  -0.0857  0.0339  0.9999  -3.8086   0.0000   0.0000   0.0000   0.3184
   7.000   1.1397   0.01828   0.01021  -0.0853  0.0324  0.9999  -3.8936   0.0000   0.0000   0.0000   0.3174
   7.100   1.1477   0.01858   0.01054  -0.0848  0.0307  0.9999  -3.9729   0.0000   0.0000   0.0000   0.3163
   7.200   1.1553   0.01890   0.01090  -0.0842  0.0289  0.9999  -4.0503   0.0000   0.0000   0.0000   0.3152
   7.300   1.1627   0.01924   0.01125  -0.0836  0.0272  0.9999  -4.1274   0.0000   0.0000   0.0000   0.3141
   7.400   1.1691   0.01968   0.01169  -0.0829  0.0251  0.9999  -4.1921   0.0000   0.0000   0.0000   0.3130
   7.500   1.1679   0.02089   0.01298  -0.0809  0.0220  0.9999  -4.1561   0.0000   0.0000   0.0000   0.3112
   7.600   1.1728   0.02150   0.01363  -0.0798  0.0209  0.9999  -4.1811   0.0000   0.0000   0.0000   0.3099
   7.700   1.1801   0.02183   0.01400  -0.0792  0.0200  0.9999  -4.2368   0.0000   0.0000   0.0000   0.3088
   7.800   1.1861   0.02231   0.01453  -0.0783  0.0193  0.9999  -4.2769   0.0000   0.0000   0.0000   0.3076
   7.900   1.1915   0.02288   0.01514  -0.0774  0.0187  0.9999  -4.3119   0.0000   0.0000   0.0000   0.3064
   8.000   1.1966   0.02349   0.01580  -0.0764  0.0182  0.9999  -4.3460   0.0000   0.0000   0.0000   0.3052
   8.100   1.2018   0.02412   0.01649  -0.0754  0.0178  0.9999  -4.3808   0.0000   0.0000   0.0000   0.3039
   8.200   1.2071   0.02479   0.01721  -0.0744  0.0176  0.9999  -4.4160   0.0000   0.0000   0.0000   0.3027
   8.300   1.2127   0.02549   0.01797  -0.0735  0.0174  0.9999  -4.4516   0.0000   0.0000   0.0000   0.3016
   8.400   1.2185   0.02622   0.01876  -0.0727  0.0172  0.9999  -4.4875   0.0000   0.0000   0.0000   0.3005
   8.500   1.2248   0.02701   0.01960  -0.0719  0.0171  0.9999  -4.5232   0.0000   0.0000   0.0000   0.2994
   8.600   1.2316   0.02784   0.02051  -0.0711  0.0171  0.9999  -4.5579   0.0000   0.0000   0.0000   0.2983
   8.700   1.2388   0.02874   0.02148  -0.0705  0.0170  0.9999  -4.5913   0.0000   0.0000   0.0000   0.2973
   8.800   1.2464   0.02971   0.02253  -0.0699  0.0171  0.9999  -4.6226   0.0000   0.0000   0.0000   0.2964
   8.900   1.2542   0.03077   0.02368  -0.0693  0.0172  0.9999  -4.6512   0.0000   0.0000   0.0000   0.2955
   9.000   1.2622   0.03191   0.02492  -0.0688  0.0173  0.9999  -4.6764   0.0000   0.0000   0.0000   0.2946
   9.100   1.2702   0.03314   0.02625  -0.0683  0.0175  0.9999  -4.6978   0.0000   0.0000   0.0000   0.2937
   9.200   1.2777   0.03445   0.02768  -0.0677  0.0177  0.9999  -4.7149   0.0000   0.0000   0.0000   0.2928
   9.300   1.2846   0.03584   0.02920  -0.0670  0.0180  0.9999  -4.7272   0.0000   0.0000   0.0000   0.2919
   9.400   1.2906   0.03731   0.03080  -0.0663  0.0182  0.9999  -4.7347   0.0000   0.0000   0.0000   0.2909
   9.500   1.2956   0.03884   0.03248  -0.0655  0.0186  0.9999  -4.7374   0.0000   0.0000   0.0000   0.2900
   9.600   1.2995   0.04046   0.03424  -0.0645  0.0189  0.9999  -4.7351   0.0000   0.0000   0.0000   0.2890
   9.700   1.3022   0.04216   0.03609  -0.0635  0.0192  0.9999  -4.7272   0.0000   0.0000   0.0000   0.2880
   9.800   1.3035   0.04399   0.03807  -0.0623  0.0196  0.9999  -4.7121   0.0000   0.0000   0.0000   0.2869
   9.900   1.3026   0.04625   0.04058  -0.0610  0.0201  0.9999  -4.6814   0.0000   0.0000   0.0000   0.2858
  10.000   1.2976   0.04943   0.04396  -0.0594  0.0207  0.9999  -4.5967   0.0000   0.0000   0.0000   0.2847
  14.700   0.9852   0.17487   0.17212  -0.0882  0.0342  0.9999  -2.3586   0.0000   0.0000   0.0000   0.3238
  14.800   0.9853   0.17722   0.17447  -0.0894  0.0342  0.9999  -2.3301   0.0000   0.0000   0.0000   0.3250
  14.900   0.9855   0.17952   0.17676  -0.0906  0.0342  0.9999  -2.3035   0.0000   0.0000   0.0000   0.3261
  15.000   0.9859   0.18177   0.17901  -0.0918  0.0341  0.9999  -2.2784   0.0000   0.0000   0.0000   0.3272
  15.100   0.9865   0.18398   0.18122  -0.0930  0.0341  0.9999  -2.2549   0.0000   0.0000   0.0000   0.3282
  15.200   0.9872   0.18614   0.18337  -0.0942  0.0340  0.9999  -2.2328   0.0000   0.0000   0.0000   0.3292
  15.300   0.9882   0.18825   0.18548  -0.0954  0.0340  0.9999  -2.2121   0.0000   0.0000   0.0000   0.3302
  15.400   0.9894   0.19029   0.18751  -0.0966  0.0338  0.9999  -2.1930   0.0000   0.0000   0.0000   0.3312
  15.500   0.9910   0.19221   0.18944  -0.0978  0.0336  0.9999  -2.1756   0.0000   0.0000   0.0000   0.3322
  15.600   0.9935   0.19399   0.19121  -0.0993  0.0331  0.9999  -2.1723   0.0000   0.0000   0.0000   0.3333
  15.700   0.9950   0.19619   0.19341  -0.1011  0.0323  0.9999  -2.1452   0.0000   0.0000   0.0000   0.3349
  15.800   0.9960   0.19846   0.19568  -0.1026  0.0316  0.9999  -2.1220   0.0000   0.0000   0.0000   0.3362
  15.900   0.9968   0.20069   0.19790  -0.1039  0.0310  0.9999  -2.1048   0.0000   0.0000   0.0000   0.3373
  16.000   0.9976   0.20283   0.20004  -0.1050  0.0305  0.9999  -2.0941   0.0000   0.0000   0.0000   0.3383
  16.100   0.9986   0.20491   0.20212  -0.1061  0.0300  0.9999  -2.0873   0.0000   0.0000   0.0000   0.3392
  16.200   0.9995   0.20694   0.20415  -0.1071  0.0296  0.9999  -2.0839   0.0000   0.0000   0.0000   0.3400
  16.300   1.0006   0.20893   0.20613  -0.1081  0.0291  0.9999  -2.0834   0.0000   0.0000   0.0000   0.3407
  16.400   1.0017   0.21085   0.20806  -0.1090  0.0286  0.9999  -2.0863   0.0000   0.0000   0.0000   0.3414
  16.500   1.0029   0.21272   0.20993  -0.1099  0.0280  0.9999  -2.0934   0.0000   0.0000   0.0000   0.3420
  16.600   1.0043   0.21451   0.21172  -0.1107  0.0274  0.9999  -2.1054   0.0000   0.0000   0.0000   0.3425
  16.700   1.0059   0.21621   0.21341  -0.1115  0.0268  0.9999  -2.1241   0.0000   0.0000   0.0000   0.3429
  16.800   1.0077   0.21775   0.21496  -0.1121  0.0261  0.9999  -2.1521   0.0000   0.0000   0.0000   0.3432
  16.900   1.0099   0.21909   0.21630  -0.1126  0.0254  0.9999  -2.1944   0.0000   0.0000   0.0000   0.3433
  17.000   1.0128   0.22005   0.21727  -0.1128  0.0247  0.9999  -2.2614   0.0000   0.0000   0.0000   0.3429
  17.100   1.0169   0.22035   0.21758  -0.1124  0.0238  0.9999  -2.3736   0.0000   0.0000   0.0000   0.3419
  17.200   1.0212   0.22032   0.21756  -0.1118  0.0231  0.9999  -2.5099   0.0000   0.0000   0.0000   0.3405
  17.300   1.0242   0.22086   0.21811  -0.1113  0.0226  0.9999  -2.6177   0.0000   0.0000   0.0000   0.3394
  18.000   1.0204   0.24118   0.23844  -0.1178  0.0213  0.9999  -2.3762   0.0000   0.0000   0.0000   0.3454
  18.300   1.0244   0.24776   0.24501  -0.1206  0.0212  0.9999  -2.3120   0.0000   0.0000   0.0000   0.3473
  18.400   1.0259   0.24989   0.24714  -0.1215  0.0211  0.9999  -2.2862   0.0000   0.0000   0.0000   0.3479
  18.500   1.0275   0.25194   0.24919  -0.1226  0.0209  0.9999  -2.2575   0.0000   0.0000   0.0000   0.3486
  18.600   1.0297   0.25374   0.25099  -0.1238  0.0206  0.9999  -2.2283   0.0000   0.0000   0.0000   0.3494
  18.700   1.0312   0.25571   0.25295  -0.1261  0.0197  0.9999  -2.1573   0.0000   0.0000   0.0000   0.3514
  18.800   1.0327   0.25814   0.25538  -0.1278  0.0181  0.9999  -2.0967   0.0000   0.0000   0.0000   0.3528
  18.900   1.0342   0.26028   0.25752  -0.1288  0.0170  0.9999  -2.0761   0.0000   0.0000   0.0000   0.3534
  19.000   1.0357   0.26227   0.25951  -0.1295  0.0161  0.9999  -2.0689   0.0000   0.0000   0.0000   0.3537
  19.100   1.0372   0.26417   0.26141  -0.1302  0.0154  0.9999  -2.0692   0.0000   0.0000   0.0000   0.3540
  19.200   1.0387   0.26601   0.26325  -0.1308  0.0149  0.9999  -2.0750   0.0000   0.0000   0.0000   0.3543
  19.300   1.0402   0.26779   0.26504  -0.1314  0.0144  0.9999  -2.0854   0.0000   0.0000   0.0000   0.3545
  19.400   1.0418   0.26953   0.26678  -0.1319  0.0140  0.9999  -2.0998   0.0000   0.0000   0.0000   0.3546
  19.500   1.0434   0.27123   0.26848  -0.1324  0.0137  0.9999  -2.1181   0.0000   0.0000   0.0000   0.3547
  19.600   1.0450   0.27289   0.27014  -0.1329  0.0134  0.9999  -2.1403   0.0000   0.0000   0.0000   0.3547
  19.700   1.0466   0.27450   0.27176  -0.1332  0.0131  0.9999  -2.1668   0.0000   0.0000   0.0000   0.3547
  19.800   1.0483   0.27608   0.27334  -0.1336  0.0129  0.9999  -2.1977   0.0000   0.0000   0.0000   0.3546
  19.900   1.0501   0.27763   0.27489  -0.1338  0.0127  0.9999  -2.2331   0.0000   0.0000   0.0000   0.3545
  20.000   1.0519   0.27916   0.27643  -0.1340  0.0125  0.9999  -2.2735   0.0000   0.0000   0.0000   0.3542
  20.100   1.0537   0.28075   0.27803  -0.1340  0.0123  0.9999  -2.3157   0.0000   0.0000   0.0000   0.3538
  20.200   1.0547   0.28272   0.28000  -0.1343  0.0121  0.9999  -2.3375   0.0000   0.0000   0.0000   0.3537
  20.300   1.0540   0.28551   0.28279  -0.1347  0.0118  0.9999  -2.3179   0.0000   0.0000   0.0000   0.3540
  20.400   1.0474   0.29214   0.28937  -0.1353  0.0114  0.9999  -2.1181   0.0000   0.0000   0.0000   0.3554
  20.500   1.0482   0.29444   0.29168  -0.1359  0.0114  0.9999  -2.1016   0.0000   0.0000   0.0000   0.3558
  20.600   1.0490   0.29674   0.29398  -0.1365  0.0114  0.9999  -2.0857   0.0000   0.0000   0.0000   0.3561
  20.700   1.0497   0.29902   0.29626  -0.1371  0.0114  0.9999  -2.0705   0.0000   0.0000   0.0000   0.3564
  20.800   1.0504   0.30130   0.29855  -0.1377  0.0114  0.9999  -2.0557   0.0000   0.0000   0.0000   0.3567
  20.900   1.0511   0.30358   0.30082  -0.1383  0.0114  0.9999  -2.0414   0.0000   0.0000   0.0000   0.3571
  21.000   1.0517   0.30584   0.30309  -0.1388  0.0114  0.9999  -2.0275   0.0000   0.0000   0.0000   0.3574
  21.100   1.0523   0.30810   0.30535  -0.1394  0.0114  0.9999  -2.0140   0.0000   0.0000   0.0000   0.3577
  21.200   1.0528   0.31035   0.30760  -0.1399  0.0114  0.9999  -2.0007   0.0000   0.0000   0.0000   0.3580
  21.300   1.0532   0.31259   0.30985  -0.1405  0.0114  0.9999  -1.9877   0.0000   0.0000   0.0000   0.3582
  21.400   1.0536   0.31482   0.31208  -0.1410  0.0113  0.9999  -1.9749   0.0000   0.0000   0.0000   0.3585
  21.500   1.0539   0.31704   0.31430  -0.1415  0.0113  0.9999  -1.9624   0.0000   0.0000   0.0000   0.3588
  21.600   1.0541   0.31925   0.31651  -0.1420  0.0113  0.9999  -1.9500   0.0000   0.0000   0.0000   0.3591
  21.700   1.0542   0.32145   0.31872  -0.1424  0.0113  0.9999  -1.9377   0.0000   0.0000   0.0000   0.3594
  21.800   1.0543   0.32364   0.32090  -0.1429  0.0113  0.9999  -1.9256   0.0000   0.0000   0.0000   0.3596
  21.900   1.0542   0.32580   0.32308  -0.1433  0.0113  0.9999  -1.9135   0.0000   0.0000   0.0000   0.3599
  22.000   1.0541   0.32796   0.32523  -0.1438  0.0113  0.9999  -1.9014   0.0000   0.0000   0.0000   0.3602
  22.100   1.0538   0.33009   0.32737  -0.1442  0.0113  0.9999  -1.8893   0.0000   0.0000   0.0000   0.3604
  22.200   1.0534   0.33220   0.32949  -0.1445  0.0113  0.9999  -1.8772   0.0000   0.0000   0.0000   0.3607
  22.300   1.0529   0.33429   0.33158  -0.1449  0.0113  0.9999  -1.8651   0.0000   0.0000   0.0000   0.3609
  22.400   1.0522   0.33636   0.33365  -0.1452  0.0113  0.9999  -1.8529   0.0000   0.0000   0.0000   0.3612
  22.500   1.0514   0.33839   0.33569  -0.1455  0.0113  0.9999  -1.8405   0.0000   0.0000   0.0000   0.3614
  22.600   1.0503   0.34039   0.33769  -0.1458  0.0113  0.9999  -1.8279   0.0000   0.0000   0.0000   0.3617
  22.700   1.0490   0.34234   0.33964  -0.1460  0.0113  0.9999  -1.8149   0.0000   0.0000   0.0000   0.3619
  22.800   1.0475   0.34424   0.34155  -0.1462  0.0113  0.9999  -1.8015   0.0000   0.0000   0.0000   0.3621
  22.900   1.0456   0.34608   0.34340  -0.1463  0.0112  0.9999  -1.7878   0.0000   0.0000   0.0000   0.3624
  23.000   1.0434   0.34784   0.34517  -0.1464  0.0112  0.9999  -1.7734   0.0000   0.0000   0.0000   0.3626
  23.100   1.0407   0.34951   0.34684  -0.1464  0.0112  0.9999  -1.7583   0.0000   0.0000   0.0000   0.3628
  23.200   1.0374   0.35104   0.34837  -0.1462  0.0112  0.9999  -1.7421   0.0000   0.0000   0.0000   0.3630
  23.300   1.0331   0.35236   0.34971  -0.1459  0.0112  0.9999  -1.7241   0.0000   0.0000   0.0000   0.3632
  23.400   0.9420   0.33248   0.32991  -0.1305  0.0113  0.9999  -1.5336   0.0000   0.0000   0.0000   0.3618
  23.500   0.9346   0.33181   0.32925  -0.1296  0.0112  0.9999  -1.5098   0.0000   0.0000   0.0000   0.3619
  23.600   0.9283   0.33137   0.32882  -0.1289  0.0112  0.9999  -1.4883   0.0000   0.0000   0.0000   0.3620
  23.700   0.9228   0.33109   0.32855  -0.1284  0.0112  0.9999  -1.4684   0.0000   0.0000   0.0000   0.3622
  23.800   0.9179   0.33092   0.32839  -0.1279  0.0112  0.9999  -1.4498   0.0000   0.0000   0.0000   0.3624
  23.900   0.9134   0.33083   0.32831  -0.1275  0.0112  0.9999  -1.4323   0.0000   0.0000   0.0000   0.3625
  24.000   0.9093   0.33081   0.32829  -0.1272  0.0112  0.9999  -1.4156   0.0000   0.0000   0.0000   0.3627
  24.100   0.9056   0.33084   0.32834  -0.1269  0.0112  0.9999  -1.3997   0.0000   0.0000   0.0000   0.3629
  24.200   0.9020   0.33091   0.32842  -0.1267  0.0112  0.9999  -1.3844   0.0000   0.0000   0.0000   0.3631
  24.300   0.8987   0.33102   0.32854  -0.1265  0.0112  0.9999  -1.3694   0.0000   0.0000   0.0000   0.3634
  24.400   0.8956   0.33116   0.32868  -0.1264  0.0112  0.9999  -1.3546   0.0000   0.0000   0.0000   0.3636
  24.500   0.8926   0.33132   0.32885  -0.1262  0.0111  0.9999  -1.3403   0.0000   0.0000   0.0000   0.3638
  24.600   0.8899   0.33151   0.32904  -0.1262  0.0111  0.9999  -1.3265   0.0000   0.0000   0.0000   0.3641
  24.700   0.8872   0.33172   0.32926  -0.1261  0.0111  0.9999  -1.3116   0.0000   0.0000   0.0000   0.3643
  24.800   0.8846   0.33196   0.32951  -0.1261  0.0111  0.9999  -1.2965   0.0000   0.0000   0.0000   0.3646
  24.900   0.8822   0.33222   0.32977  -0.1261  0.0111  0.9999  -1.2819   0.0000   0.0000   0.0000   0.3649
  25.000   0.8799   0.33250   0.33006  -0.1261  0.0111  0.9999  -1.2675   0.0000   0.0000   0.0000   0.3652
  25.100   0.8777   0.33281   0.33037  -0.1262  0.0110  0.9999  -1.2534   0.0000   0.0000   0.0000   0.3655
  25.200   0.8757   0.33313   0.33071  -0.1263  0.0110  0.9999  -1.2396   0.0000   0.0000   0.0000   0.3658
  25.300   0.8737   0.33348   0.33106  -0.1264  0.0110  0.9999  -1.2259   0.0000   0.0000   0.0000   0.3661
  25.400   0.8720   0.33385   0.33144  -0.1265  0.0109  0.9999  -1.2125   0.0000   0.0000   0.0000   0.3664
  25.500   0.8703   0.33424   0.33183  -0.1266  0.0109  0.9999  -1.1991   0.0000   0.0000   0.0000   0.3667
  25.600   0.8687   0.33466   0.33226  -0.1268  0.0109  0.9999  -1.1858   0.0000   0.0000   0.0000   0.3670
  25.700   0.8673   0.33511   0.33271  -0.1270  0.0108  0.9999  -1.1725   0.0000   0.0000   0.0000   0.3674
  25.800   0.8660   0.33558   0.33319  -0.1272  0.0108  0.9999  -1.1591   0.0000   0.0000   0.0000   0.3677
  25.900   0.8648   0.33609   0.33370  -0.1274  0.0107  0.9999  -1.1456   0.0000   0.0000   0.0000   0.3680
  26.000   0.8638   0.33663   0.33425  -0.1277  0.0106  0.9999  -1.1319   0.0000   0.0000   0.0000   0.3683
  26.100   0.8629   0.33720   0.33482  -0.1279  0.0105  0.9999  -1.1181   0.0000   0.0000   0.0000   0.3686
  26.200   0.8620   0.33777   0.33541  -0.1281  0.0103  0.9999  -1.1046   0.0000   0.0000   0.0000   0.3689
  26.300   0.8611   0.33834   0.33601  -0.1284  0.0102  0.9999  -1.0931   0.0000   0.0000   0.0000   0.3691
  26.400   0.8601   0.33888   0.33656  -0.1285  0.0100  0.9999  -1.0823   0.0000   0.0000   0.0000   0.3694
  26.500   0.8592   0.33940   0.33710  -0.1287  0.0099  0.9999  -1.0718   0.0000   0.0000   0.0000   0.3696
  26.600   0.8582   0.33991   0.33761  -0.1289  0.0097  0.9999  -1.0622   0.0000   0.0000   0.0000   0.3698
  26.700   0.8571   0.34040   0.33810  -0.1290  0.0095  0.9999  -1.0535   0.0000   0.0000   0.0000   0.3700
  26.800   0.8561   0.34087   0.33858  -0.1291  0.0094  0.9999  -1.0454   0.0000   0.0000   0.0000   0.3702
  26.900   0.8551   0.34134   0.33906  -0.1293  0.0092  0.9999  -1.0380   0.0000   0.0000   0.0000   0.3704
  27.000   0.8540   0.34180   0.33953  -0.1294  0.0091  0.9999  -1.0311   0.0000   0.0000   0.0000   0.3706
  27.100   0.8530   0.34226   0.33999  -0.1296  0.0089  0.9999  -1.0247   0.0000   0.0000   0.0000   0.3707
  27.200   0.8520   0.34272   0.34045  -0.1297  0.0088  0.9999  -1.0186   0.0000   0.0000   0.0000   0.3709
  27.300   0.8510   0.34317   0.34092  -0.1298  0.0087  0.9999  -1.0129   0.0000   0.0000   0.0000   0.3711
  27.400   0.8500   0.34363   0.34138  -0.1300  0.0085  0.9999  -1.0075   0.0000   0.0000   0.0000   0.3713
  27.500   0.8491   0.34409   0.34184  -0.1302  0.0084  0.9999  -1.0025   0.0000   0.0000   0.0000   0.3715
  27.600   0.8482   0.34454   0.34231  -0.1303  0.0083  0.9999  -0.9979   0.0000   0.0000   0.0000   0.3717
  27.700   0.8473   0.34500   0.34278  -0.1305  0.0082  0.9999  -0.9934   0.0000   0.0000   0.0000   0.3718
  27.800   0.8464   0.34546   0.34324  -0.1306  0.0080  0.9999  -0.9892   0.0000   0.0000   0.0000   0.3720
  27.900   0.8455   0.34592   0.34371  -0.1308  0.0079  0.9999  -0.9852   0.0000   0.0000   0.0000   0.3722
  28.000   0.8447   0.34639   0.34418  -0.1310  0.0078  0.9999  -0.9813   0.0000   0.0000   0.0000   0.3724
  28.100   0.8439   0.34685   0.34465  -0.1312  0.0077  0.9999  -0.9776   0.0000   0.0000   0.0000   0.3726
  28.200   0.8431   0.34732   0.34512  -0.1314  0.0076  0.9999  -0.9742   0.0000   0.0000   0.0000   0.3728
  28.300   0.8423   0.34779   0.34560  -0.1315  0.0075  0.9999  -0.9711   0.0000   0.0000   0.0000   0.3729
  28.400   0.8415   0.34825   0.34608  -0.1317  0.0074  0.9999  -0.9681   0.0000   0.0000   0.0000   0.3731
  28.500   0.8408   0.34873   0.34655  -0.1319  0.0073  0.9999  -0.9652   0.0000   0.0000   0.0000   0.3733
  28.600   0.8401   0.34920   0.34703  -0.1321  0.0072  0.9999  -0.9625   0.0000   0.0000   0.0000   0.3735
  28.700   0.8394   0.34967   0.34751  -0.1323  0.0072  0.9999  -0.9600   0.0000   0.0000   0.0000   0.3737
  28.800   0.8387   0.35015   0.34799  -0.1325  0.0071  0.9999  -0.9575   0.0000   0.0000   0.0000   0.3739
  28.900   0.8380   0.35062   0.34848  -0.1328  0.0070  0.9999  -0.9553   0.0000   0.0000   0.0000   0.3740
  29.000   0.8373   0.35110   0.34896  -0.1330  0.0069  0.9999  -0.9531   0.0000   0.0000   0.0000   0.3742
  29.100   0.8366   0.35158   0.34945  -0.1332  0.0068  0.9999  -0.9511   0.0000   0.0000   0.0000   0.3744
  29.200   0.8360   0.35206   0.34993  -0.1334  0.0068  0.9999  -0.9492   0.0000   0.0000   0.0000   0.3746
  29.300   0.8354   0.35254   0.35042  -0.1336  0.0067  0.9999  -0.9475   0.0000   0.0000   0.0000   0.3748
  29.400   0.8347   0.35302   0.35091  -0.1339  0.0066  0.9999  -0.9459   0.0000   0.0000   0.0000   0.3750
  29.500   0.8341   0.35350   0.35139  -0.1341  0.0066  0.9999  -0.9444   0.0000   0.0000   0.0000   0.3752
  29.600   0.8335   0.35398   0.35188  -0.1343  0.0065  0.9999  -0.9430   0.0000   0.0000   0.0000   0.3753
  29.700   0.8329   0.35446   0.35237  -0.1346  0.0064  0.9999  -0.9418   0.0000   0.0000   0.0000   0.3755
  29.800   0.8324   0.35495   0.35286  -0.1348  0.0064  0.9999  -0.9407   0.0000   0.0000   0.0000   0.3757
  29.900   0.8318   0.35543   0.35336  -0.1350  0.0063  0.9999  -0.9397   0.0000   0.0000   0.0000   0.3759
  30.000   0.8312   0.35592   0.35385  -0.1353  0.0062  0.9999  -0.9388   0.0000   0.0000   0.0000   0.3761


