xflr5 v6.61

 Calculated polar for: NACA 0015

 1 1 Reynolds number fixed          Mach number fixed         

 xtrf =   1.000 (top)        1.000 (bottom)
 Mach =   0.000     Re =     0.400 e 6     Ncrit =   9.000

  alpha     CL        CD       CDp       Cm    Top Xtr Bot Xtr   Cpmin    Chinge    XCp    
 ------- -------- --------- --------- -------- ------- ------- -------- --------- ---------
 -10.000  -1.0069   0.02078   0.01384  -0.0121  1.0000  0.0323  -4.1085   0.0000   0.0000   0.0000   0.2249
  -9.900  -1.0024   0.02052   0.01355  -0.0111  1.0000  0.0325  -4.0747   0.0000   0.0000   0.0000   0.2260
  -9.800  -0.9980   0.02026   0.01327  -0.0100  1.0000  0.0327  -4.0410   0.0000   0.0000   0.0000   0.2272
  -9.700  -0.9937   0.02002   0.01300  -0.0089  1.0000  0.0330  -4.0075   0.0000   0.0000   0.0000   0.2284
  -9.600  -0.9894   0.01978   0.01274  -0.0078  1.0000  0.0332  -3.9740   0.0000   0.0000   0.0000   0.2296
  -9.500  -0.9850   0.01954   0.01249  -0.0067  1.0000  0.0335  -3.9404   0.0000   0.0000   0.0000   0.2308
  -9.400  -0.9805   0.01932   0.01224  -0.0056  1.0000  0.0337  -3.9065   0.0000   0.0000   0.0000   0.2321
  -9.300  -0.9760   0.01909   0.01199  -0.0045  1.0000  0.0340  -3.8724   0.0000   0.0000   0.0000   0.2333
  -9.200  -0.9713   0.01888   0.01176  -0.0034  1.0000  0.0343  -3.8382   0.0000   0.0000   0.0000   0.2345
  -9.100  -0.9667   0.01867   0.01153  -0.0023  1.0000  0.0346  -3.8038   0.0000   0.0000   0.0000   0.2358
  -9.000  -0.9620   0.01846   0.01130  -0.0012  1.0000  0.0349  -3.7694   0.0000   0.0000   0.0000   0.2370
  -8.900  -0.9572   0.01826   0.01108  -0.0002  1.0000  0.0353  -3.7348   0.0000   0.0000   0.0000   0.2383
  -8.800  -0.9523   0.01806   0.01087   0.0009  1.0000  0.0356  -3.6999   0.0000   0.0000   0.0000   0.2395
  -8.700  -0.9474   0.01787   0.01066   0.0020  1.0000  0.0361  -3.6647   0.0000   0.0000   0.0000   0.2408
  -8.600  -0.9423   0.01769   0.01046   0.0030  1.0000  0.0365  -3.6290   0.0000   0.0000   0.0000   0.2420
  -8.500  -0.9371   0.01751   0.01027   0.0040  1.0000  0.0370  -3.5931   0.0000   0.0000   0.0000   0.2433
  -8.400  -0.9319   0.01733   0.01008   0.0051  1.0000  0.0375  -3.5567   0.0000   0.0000   0.0000   0.2445
  -8.300  -0.9267   0.01716   0.00990   0.0061  1.0000  0.0381  -3.5199   0.0000   0.0000   0.0000   0.2457
  -8.200  -0.9215   0.01700   0.00973   0.0071  1.0000  0.0387  -3.4825   0.0000   0.0000   0.0000   0.2470
  -8.100  -0.9163   0.01684   0.00958   0.0081  1.0000  0.0397  -3.4413   0.0000   0.0000   0.0000   0.2482
  -8.000  -0.9107   0.01673   0.00952   0.0089  1.0000  0.0414  -3.3892   0.0000   0.0000   0.0000   0.2493
  -7.900  -0.9038   0.01670   0.00922   0.0096  1.0000  0.0432  -3.2968   0.0000   0.0000   0.0000   0.2503
  -7.800  -0.8992   0.01653   0.00903   0.0107  1.0000  0.0434  -3.2677   0.0000   0.0000   0.0000   0.2517
  -7.700  -0.8946   0.01636   0.00884   0.0118  1.0000  0.0437  -3.2386   0.0000   0.0000   0.0000   0.2531
  -7.600  -0.8897   0.01620   0.00865   0.0129  1.0000  0.0440  -3.2089   0.0000   0.0000   0.0000   0.2545
  -7.500  -0.8845   0.01604   0.00846   0.0139  1.0000  0.0444  -3.1788   0.0000   0.0000   0.0000   0.2558
  -7.400  -0.8789   0.01588   0.00827   0.0148  1.0000  0.0448  -3.1480   0.0000   0.0000   0.0000   0.2571
  -7.300  -0.8729   0.01571   0.00809   0.0157  1.0000  0.0454  -3.1168   0.0000   0.0000   0.0000   0.2584
  -7.200  -0.8662   0.01555   0.00790   0.0164  1.0000  0.0461  -3.0844   0.0000   0.0000   0.0000   0.2594
  -7.100  -0.8542   0.01534   0.00767   0.0161  0.9993  0.0472  -3.0427   0.0000   0.0000   0.0000   0.2595
  -7.000  -0.8418   0.01514   0.00745   0.0158  0.9985  0.0488  -3.0007   0.0000   0.0000   0.0000   0.2594
  -6.900  -0.8319   0.01455   0.00704   0.0157  0.9975  0.0692  -2.9848   0.0000   0.0000   0.0000   0.2597
  -6.800  -0.8219   0.01399   0.00671   0.0155  0.9962  0.0895  -2.9472   0.0000   0.0000   0.0000   0.2597
  -6.700  -0.8091   0.01374   0.00655   0.0149  0.9948  0.0998  -2.8979   0.0000   0.0000   0.0000   0.2594
  -6.600  -0.7955   0.01355   0.00641   0.0142  0.9933  0.1144  -2.8464   0.0000   0.0000   0.0000   0.2590
  -6.500  -0.7825   0.01330   0.00627   0.0136  0.9916  0.1260  -2.7949   0.0000   0.0000   0.0000   0.2585
  -6.400  -0.7692   0.01310   0.00614   0.0129  0.9898  0.1348  -2.7420   0.0000   0.0000   0.0000   0.2581
  -6.300  -0.7556   0.01295   0.00603   0.0123  0.9879  0.1415  -2.6886   0.0000   0.0000   0.0000   0.2576
  -6.200  -0.7421   0.01284   0.00593   0.0117  0.9861  0.1461  -2.6354   0.0000   0.0000   0.0000   0.2571
  -6.100  -0.7288   0.01275   0.00585   0.0111  0.9844  0.1492  -2.5827   0.0000   0.0000   0.0000   0.2567
  -6.000  -0.7154   0.01265   0.00575   0.0105  0.9826  0.1562  -2.5304   0.0000   0.0000   0.0000   0.2562
  -5.900  -0.7023   0.01250   0.00566   0.0099  0.9807  0.1667  -2.4790   0.0000   0.0000   0.0000   0.2558
  -5.800  -0.6894   0.01232   0.00557   0.0093  0.9788  0.1763  -2.4279   0.0000   0.0000   0.0000   0.2553
  -5.700  -0.6761   0.01216   0.00547   0.0087  0.9768  0.1853  -2.3763   0.0000   0.0000   0.0000   0.2547
  -5.600  -0.6623   0.01205   0.00539   0.0080  0.9749  0.1921  -2.3239   0.0000   0.0000   0.0000   0.2540
  -5.500  -0.6482   0.01196   0.00531   0.0073  0.9730  0.1970  -2.2711   0.0000   0.0000   0.0000   0.2531
  -5.400  -0.6338   0.01188   0.00524   0.0065  0.9712  0.2012  -2.2181   0.0000   0.0000   0.0000   0.2522
  -5.300  -0.6197   0.01174   0.00515   0.0057  0.9694  0.2123  -2.1663   0.0000   0.0000   0.0000   0.2513
  -5.200  -0.6058   0.01156   0.00507   0.0050  0.9675  0.2227  -2.1153   0.0000   0.0000   0.0000   0.2503
  -5.100  -0.5917   0.01140   0.00499   0.0041  0.9657  0.2319  -2.0639   0.0000   0.0000   0.0000   0.2492
  -5.000  -0.5770   0.01128   0.00491   0.0033  0.9640  0.2398  -2.0118   0.0000   0.0000   0.0000   0.2479
  -4.900  -0.5619   0.01118   0.00484   0.0023  0.9624  0.2460  -1.9592   0.0000   0.0000   0.0000   0.2464
  -4.800  -0.5461   0.01110   0.00477   0.0012  0.9608  0.2510  -1.9058   0.0000   0.0000   0.0000   0.2446
  -4.700  -0.5307   0.01092   0.00467   0.0002  0.9590  0.2630  -1.8537   0.0000   0.0000   0.0000   0.2427
  -4.600  -0.5150   0.01073   0.00461  -0.0010  0.9572  0.2741  -1.8011   0.0000   0.0000   0.0000   0.2406
  -4.500  -0.4986   0.01058   0.00455  -0.0022  0.9553  0.2837  -1.7476   0.0000   0.0000   0.0000   0.2380
  -4.400  -0.4818   0.01047   0.00449  -0.0035  0.9530  0.2915  -1.6940   0.0000   0.0000   0.0000   0.2353
  -4.300  -0.4652   0.01041   0.00446  -0.0047  0.9502  0.2970  -1.6411   0.0000   0.0000   0.0000   0.2324
  -4.200  -0.4548   0.01032   0.00437  -0.0045  0.9479  0.3001  -1.6000   0.0000   0.0000   0.0000   0.2326
  -4.100  -0.4447   0.01020   0.00428  -0.0043  0.9452  0.3106  -1.5602   0.0000   0.0000   0.0000   0.2331
  -4.000  -0.4345   0.01009   0.00419  -0.0041  0.9422  0.3235  -1.5204   0.0000   0.0000   0.0000   0.2333
  -3.900  -0.4240   0.00996   0.00411  -0.0040  0.9389  0.3362  -1.4803   0.0000   0.0000   0.0000   0.2334
  -3.800  -0.4132   0.00982   0.00404  -0.0039  0.9355  0.3477  -1.4398   0.0000   0.0000   0.0000   0.2333
  -3.700  -0.4018   0.00968   0.00398  -0.0040  0.9322  0.3583  -1.3987   0.0000   0.0000   0.0000   0.2329
  -3.600  -0.3900   0.00956   0.00391  -0.0042  0.9289  0.3681  -1.3570   0.0000   0.0000   0.0000   0.2323
  -3.500  -0.3779   0.00945   0.00385  -0.0044  0.9256  0.3765  -1.3152   0.0000   0.0000   0.0000   0.2315
  -3.400  -0.3654   0.00936   0.00379  -0.0046  0.9224  0.3835  -1.2730   0.0000   0.0000   0.0000   0.2304
  -3.300  -0.3522   0.00927   0.00372  -0.0050  0.9193  0.3890  -1.2300   0.0000   0.0000   0.0000   0.2288
  -3.200  -0.3388   0.00920   0.00365  -0.0055  0.9161  0.3934  -1.1869   0.0000   0.0000   0.0000   0.2269
  -3.100  -0.3252   0.00913   0.00358  -0.0060  0.9128  0.3969  -1.1440   0.0000   0.0000   0.0000   0.2247
  -3.000  -0.3115   0.00906   0.00352  -0.0065  0.9093  0.3995  -1.1013   0.0000   0.0000   0.0000   0.2223
  -2.900  -0.2982   0.00898   0.00345  -0.0069  0.9051  0.4103  -1.0599   0.0000   0.0000   0.0000   0.2199
  -2.800  -0.2858   0.00889   0.00341  -0.0072  0.8999  0.4274  -1.0205   0.0000   0.0000   0.0000   0.2180
  -2.700  -0.2778   0.00878   0.00338  -0.0066  0.8979  0.4426  -0.9882   0.0000   0.0000   0.0000   0.2196
  -2.600  -0.2696   0.00866   0.00335  -0.0059  0.8951  0.4564  -0.9559   0.0000   0.0000   0.0000   0.2213
  -2.500  -0.2609   0.00856   0.00333  -0.0054  0.8916  0.4688  -0.9230   0.0000   0.0000   0.0000   0.2227
  -2.400  -0.2518   0.00849   0.00331  -0.0049  0.8871  0.4792  -0.8991   0.0000   0.0000   0.0000   0.2239
  -2.300  -0.2422   0.00843   0.00328  -0.0045  0.8819  0.4872  -0.8792   0.0000   0.0000   0.0000   0.2247
  -2.200  -0.2320   0.00838   0.00325  -0.0043  0.8759  0.4929  -0.8612   0.0000   0.0000   0.0000   0.2250
  -2.100  -0.2213   0.00834   0.00320  -0.0041  0.8695  0.4969  -0.8440   0.0000   0.0000   0.0000   0.2249
  -2.000  -0.2102   0.00831   0.00316  -0.0040  0.8630  0.4996  -0.8264   0.0000   0.0000   0.0000   0.2243
  -1.900  -0.1992   0.00823   0.00311  -0.0039  0.8563  0.5120  -0.8092   0.0000   0.0000   0.0000   0.2236
  -1.800  -0.1888   0.00814   0.00307  -0.0037  0.8492  0.5291  -0.7925   0.0000   0.0000   0.0000   0.2237
  -1.700  -0.1788   0.00803   0.00303  -0.0034  0.8415  0.5445  -0.7761   0.0000   0.0000   0.0000   0.2243
  -1.600  -0.1686   0.00794   0.00300  -0.0031  0.8329  0.5586  -0.7595   0.0000   0.0000   0.0000   0.2249
  -1.500  -0.1581   0.00788   0.00299  -0.0029  0.8224  0.5718  -0.7427   0.0000   0.0000   0.0000   0.2249
  -1.400  -0.1468   0.00785   0.00298  -0.0029  0.8102  0.5830  -0.7255   0.0000   0.0000   0.0000   0.2236
  -1.300  -0.1354   0.00785   0.00300  -0.0030  0.7997  0.5913  -0.7081   0.0000   0.0000   0.0000   0.2214
  -1.200  -0.1254   0.00782   0.00299  -0.0027  0.7975  0.5965  -0.6920   0.0000   0.0000   0.0000   0.2221
  -1.100  -0.1152   0.00781   0.00297  -0.0024  0.7945  0.5995  -0.6758   0.0000   0.0000   0.0000   0.2226
  -1.000  -0.1049   0.00775   0.00295  -0.0022  0.7905  0.6132  -0.6597   0.0000   0.0000   0.0000   0.2225
  -0.900  -0.0951   0.00767   0.00295  -0.0019  0.7856  0.6306  -0.6441   0.0000   0.0000   0.0000   0.2240
  -0.800  -0.0855   0.00760   0.00295  -0.0015  0.7800  0.6450  -0.6285   0.0000   0.0000   0.0000   0.2265
  -0.700  -0.0754   0.00755   0.00295  -0.0011  0.7736  0.6569  -0.6138   0.0000   0.0000   0.0000   0.2285
  -0.600  -0.0649   0.00751   0.00295  -0.0009  0.7664  0.6673  -0.5998   0.0000   0.0000   0.0000   0.2299
  -0.500  -0.0542   0.00750   0.00294  -0.0007  0.7584  0.6763  -0.5858   0.0000   0.0000   0.0000   0.2310
  -0.400  -0.0435   0.00749   0.00292  -0.0005  0.7492  0.6837  -0.5718   0.0000   0.0000   0.0000   0.2325
  -0.300  -0.0328   0.00750   0.00290  -0.0003  0.7384  0.6894  -0.5579   0.0000   0.0000   0.0000   0.2353
  -0.200  -0.0222   0.00754   0.00287  -0.0001  0.7249  0.6938  -0.5456   0.0000   0.0000   0.0000   0.2400
  -0.100  -0.0111   0.00758   0.00286  -0.0000  0.7097  0.6970  -0.5345   0.0000   0.0000   0.0000   0.2411
   0.000  -0.0000   0.00762   0.00287   0.0000  0.6994  0.6994  -0.5235   0.0000   0.0000   0.0000   0.4609
   0.100   0.0111   0.00758   0.00286   0.0000  0.6970  0.7096  -0.5345   0.0000   0.0000   0.0000   0.2411
   0.200   0.0222   0.00754   0.00287   0.0001  0.6938  0.7249  -0.5456   0.0000   0.0000   0.0000   0.2400
   0.300   0.0328   0.00750   0.00290   0.0003  0.6894  0.7384  -0.5579   0.0000   0.0000   0.0000   0.2353
   0.400   0.0435   0.00749   0.00292   0.0005  0.6837  0.7492  -0.5718   0.0000   0.0000   0.0000   0.2325
   0.500   0.0542   0.00750   0.00294   0.0007  0.6763  0.7584  -0.5858   0.0000   0.0000   0.0000   0.2310
   0.600   0.0649   0.00751   0.00295   0.0009  0.6673  0.7664  -0.5998   0.0000   0.0000   0.0000   0.2299
   0.700   0.0754   0.00755   0.00295   0.0011  0.6569  0.7736  -0.6138   0.0000   0.0000   0.0000   0.2285
   0.800   0.0855   0.00760   0.00295   0.0015  0.6450  0.7800  -0.6285   0.0000   0.0000   0.0000   0.2265
   0.900   0.0951   0.00767   0.00295   0.0019  0.6306  0.7856  -0.6441   0.0000   0.0000   0.0000   0.2240
   1.000   0.1049   0.00775   0.00295   0.0022  0.6132  0.7905  -0.6597   0.0000   0.0000   0.0000   0.2225
   1.100   0.1152   0.00781   0.00297   0.0024  0.5995  0.7945  -0.6758   0.0000   0.0000   0.0000   0.2226
   1.200   0.1254   0.00782   0.00299   0.0027  0.5965  0.7975  -0.6920   0.0000   0.0000   0.0000   0.2221
   1.300   0.1354   0.00785   0.00300   0.0030  0.5913  0.7997  -0.7081   0.0000   0.0000   0.0000   0.2214
   1.400   0.1468   0.00785   0.00298   0.0029  0.5830  0.8102  -0.7255   0.0000   0.0000   0.0000   0.2236
   1.500   0.1581   0.00788   0.00298   0.0029  0.5718  0.8224  -0.7427   0.0000   0.0000   0.0000   0.2249
   1.600   0.1686   0.00794   0.00300   0.0031  0.5586  0.8329  -0.7595   0.0000   0.0000   0.0000   0.2249
   1.700   0.1788   0.00803   0.00303   0.0034  0.5445  0.8415  -0.7761   0.0000   0.0000   0.0000   0.2243
   1.800   0.1888   0.00814   0.00307   0.0037  0.5291  0.8492  -0.7925   0.0000   0.0000   0.0000   0.2237
   1.900   0.1992   0.00823   0.00311   0.0039  0.5120  0.8564  -0.8092   0.0000   0.0000   0.0000   0.2236
   2.000   0.2102   0.00831   0.00316   0.0040  0.4996  0.8630  -0.8264   0.0000   0.0000   0.0000   0.2243
   2.100   0.2213   0.00834   0.00320   0.0041  0.4969  0.8695  -0.8440   0.0000   0.0000   0.0000   0.2249
   2.200   0.2320   0.00838   0.00325   0.0043  0.4929  0.8759  -0.8612   0.0000   0.0000   0.0000   0.2250
   2.300   0.2422   0.00843   0.00328   0.0045  0.4872  0.8819  -0.8792   0.0000   0.0000   0.0000   0.2247
   2.400   0.2518   0.00849   0.00331   0.0049  0.4792  0.8871  -0.8991   0.0000   0.0000   0.0000   0.2239
   2.500   0.2609   0.00856   0.00333   0.0054  0.4688  0.8916  -0.9230   0.0000   0.0000   0.0000   0.2227
   2.600   0.2696   0.00866   0.00335   0.0059  0.4564  0.8951  -0.9559   0.0000   0.0000   0.0000   0.2213
   2.700   0.2778   0.00878   0.00337   0.0066  0.4426  0.8979  -0.9882   0.0000   0.0000   0.0000   0.2196
   2.800   0.2858   0.00889   0.00341   0.0072  0.4274  0.8999  -1.0205   0.0000   0.0000   0.0000   0.2180
   2.900   0.2982   0.00898   0.00345   0.0069  0.4103  0.9051  -1.0599   0.0000   0.0000   0.0000   0.2199
   3.000   0.3115   0.00906   0.00352   0.0065  0.3995  0.9093  -1.1014   0.0000   0.0000   0.0000   0.2223
   3.100   0.3252   0.00912   0.00358   0.0060  0.3969  0.9128  -1.1440   0.0000   0.0000   0.0000   0.2247
   3.200   0.3388   0.00919   0.00365   0.0055  0.3934  0.9161  -1.1870   0.0000   0.0000   0.0000   0.2269
   3.300   0.3522   0.00927   0.00372   0.0050  0.3890  0.9193  -1.2300   0.0000   0.0000   0.0000   0.2288
   3.400   0.3654   0.00936   0.00378   0.0046  0.3835  0.9224  -1.2730   0.0000   0.0000   0.0000   0.2304
   3.500   0.3779   0.00945   0.00385   0.0044  0.3765  0.9256  -1.3152   0.0000   0.0000   0.0000   0.2315
   3.600   0.3900   0.00956   0.00391   0.0042  0.3681  0.9289  -1.3570   0.0000   0.0000   0.0000   0.2323
   3.700   0.4018   0.00968   0.00397   0.0040  0.3583  0.9322  -1.3987   0.0000   0.0000   0.0000   0.2329
   3.800   0.4132   0.00981   0.00404   0.0039  0.3477  0.9356  -1.4398   0.0000   0.0000   0.0000   0.2333
   3.900   0.4240   0.00996   0.00411   0.0040  0.3362  0.9389  -1.4803   0.0000   0.0000   0.0000   0.2334
   4.000   0.4345   0.01009   0.00419   0.0041  0.3235  0.9422  -1.5204   0.0000   0.0000   0.0000   0.2333
   4.100   0.4447   0.01020   0.00428   0.0043  0.3106  0.9452  -1.5602   0.0000   0.0000   0.0000   0.2331
   4.200   0.4547   0.01031   0.00437   0.0045  0.3001  0.9479  -1.5999   0.0000   0.0000   0.0000   0.2326
   4.300   0.4653   0.01041   0.00446   0.0047  0.2970  0.9502  -1.6412   0.0000   0.0000   0.0000   0.2324
   4.400   0.4819   0.01047   0.00449   0.0035  0.2915  0.9530  -1.6941   0.0000   0.0000   0.0000   0.2353
   4.500   0.4987   0.01057   0.00454   0.0022  0.2837  0.9553  -1.7478   0.0000   0.0000   0.0000   0.2381
   4.600   0.5151   0.01072   0.00461   0.0009  0.2740  0.9572  -1.8013   0.0000   0.0000   0.0000   0.2406
   4.700   0.5308   0.01091   0.00467  -0.0002  0.2630  0.9591  -1.8539   0.0000   0.0000   0.0000   0.2427
   4.800   0.5462   0.01110   0.00477  -0.0013  0.2510  0.9609  -1.9059   0.0000   0.0000   0.0000   0.2446
   4.900   0.5619   0.01118   0.00484  -0.0023  0.2460  0.9625  -1.9594   0.0000   0.0000   0.0000   0.2464
   5.000   0.5771   0.01128   0.00491  -0.0033  0.2398  0.9641  -2.0120   0.0000   0.0000   0.0000   0.2479
   5.100   0.5918   0.01140   0.00498  -0.0042  0.2319  0.9658  -2.0641   0.0000   0.0000   0.0000   0.2492
   5.200   0.6059   0.01156   0.00507  -0.0050  0.2227  0.9676  -2.1155   0.0000   0.0000   0.0000   0.2503
   5.300   0.6198   0.01174   0.00515  -0.0057  0.2123  0.9694  -2.1665   0.0000   0.0000   0.0000   0.2513
   5.400   0.6339   0.01188   0.00523  -0.0065  0.2012  0.9713  -2.2183   0.0000   0.0000   0.0000   0.2523
   5.500   0.6483   0.01196   0.00531  -0.0073  0.1970  0.9731  -2.2713   0.0000   0.0000   0.0000   0.2532
   5.600   0.6624   0.01205   0.00538  -0.0080  0.1921  0.9750  -2.3241   0.0000   0.0000   0.0000   0.2540
   5.700   0.6762   0.01216   0.00547  -0.0087  0.1852  0.9769  -2.3765   0.0000   0.0000   0.0000   0.2547
   5.800   0.6895   0.01231   0.00556  -0.0094  0.1763  0.9789  -2.4281   0.0000   0.0000   0.0000   0.2553
   5.900   0.7024   0.01249   0.00565  -0.0100  0.1666  0.9808  -2.4792   0.0000   0.0000   0.0000   0.2558
   6.000   0.7155   0.01264   0.00575  -0.0105  0.1562  0.9827  -2.5306   0.0000   0.0000   0.0000   0.2563
   6.100   0.7289   0.01274   0.00584  -0.0111  0.1492  0.9845  -2.5829   0.0000   0.0000   0.0000   0.2567
   6.200   0.7422   0.01283   0.00592  -0.0117  0.1461  0.9863  -2.6357   0.0000   0.0000   0.0000   0.2572
   6.300   0.7557   0.01295   0.00602  -0.0123  0.1414  0.9880  -2.6889   0.0000   0.0000   0.0000   0.2576
   6.400   0.7693   0.01309   0.00613  -0.0130  0.1348  0.9899  -2.7423   0.0000   0.0000   0.0000   0.2581
   6.500   0.7826   0.01329   0.00626  -0.0136  0.1259  0.9917  -2.7951   0.0000   0.0000   0.0000   0.2586
   6.600   0.7957   0.01354   0.00641  -0.0143  0.1143  0.9934  -2.8467   0.0000   0.0000   0.0000   0.2590
   6.700   0.8092   0.01373   0.00654  -0.0149  0.0998  0.9949  -2.8982   0.0000   0.0000   0.0000   0.2594
   6.800   0.8220   0.01398   0.00671  -0.0155  0.0894  0.9963  -2.9474   0.0000   0.0000   0.0000   0.2597
   6.900   0.8321   0.01455   0.00703  -0.0158  0.0691  0.9976  -2.9851   0.0000   0.0000   0.0000   0.2597
   7.000   0.8420   0.01514   0.00744  -0.0158  0.0488  0.9986  -3.0011   0.0000   0.0000   0.0000   0.2594
   7.100   0.8544   0.01533   0.00766  -0.0162  0.0472  0.9994  -3.0430   0.0000   0.0000   0.0000   0.2595
   7.200   0.8662   0.01554   0.00789  -0.0164  0.0461  1.0000  -3.0845   0.0000   0.0000   0.0000   0.2595
   7.300   0.8725   0.01570   0.00807  -0.0156  0.0454  1.0000  -3.1159   0.0000   0.0000   0.0000   0.2583
   7.400   0.8784   0.01586   0.00826  -0.0147  0.0448  1.0000  -3.1471   0.0000   0.0000   0.0000   0.2570
   7.500   0.8840   0.01602   0.00844  -0.0138  0.0444  1.0000  -3.1778   0.0000   0.0000   0.0000   0.2558
   7.600   0.8892   0.01619   0.00863  -0.0128  0.0440  1.0000  -3.2080   0.0000   0.0000   0.0000   0.2544
   7.700   0.8941   0.01635   0.00882  -0.0117  0.0437  1.0000  -3.2376   0.0000   0.0000   0.0000   0.2530
   7.800   0.8988   0.01652   0.00901  -0.0106  0.0434  1.0000  -3.2668   0.0000   0.0000   0.0000   0.2516
   7.900   0.9033   0.01669   0.00921  -0.0095  0.0432  1.0000  -3.2959   0.0000   0.0000   0.0000   0.2502
   8.000   0.9102   0.01672   0.00951  -0.0088  0.0415  1.0000  -3.3875   0.0000   0.0000   0.0000   0.2493
   8.100   0.9159   0.01683   0.00957  -0.0080  0.0397  1.0000  -3.4402   0.0000   0.0000   0.0000   0.2482
   8.200   0.9212   0.01698   0.00972  -0.0070  0.0387  1.0000  -3.4817   0.0000   0.0000   0.0000   0.2469
   8.300   0.9264   0.01715   0.00989  -0.0060  0.0381  1.0000  -3.5192   0.0000   0.0000   0.0000   0.2457
   8.400   0.9317   0.01732   0.01007  -0.0050  0.0375  1.0000  -3.5561   0.0000   0.0000   0.0000   0.2444
   8.500   0.9369   0.01750   0.01026  -0.0040  0.0370  1.0000  -3.5925   0.0000   0.0000   0.0000   0.2432
   8.600   0.9421   0.01768   0.01045  -0.0030  0.0365  1.0000  -3.6285   0.0000   0.0000   0.0000   0.2420
   8.700   0.9472   0.01786   0.01065  -0.0019  0.0361  1.0000  -3.6642   0.0000   0.0000   0.0000   0.2407
   8.800   0.9522   0.01805   0.01086  -0.0009  0.0357  1.0000  -3.6996   0.0000   0.0000   0.0000   0.2395
   8.900   0.9571   0.01825   0.01107   0.0002  0.0353  1.0000  -3.7345   0.0000   0.0000   0.0000   0.2382
   9.000   0.9619   0.01845   0.01129   0.0013  0.0349  1.0000  -3.7692   0.0000   0.0000   0.0000   0.2370
   9.100   0.9666   0.01865   0.01151   0.0023  0.0346  1.0000  -3.8038   0.0000   0.0000   0.0000   0.2358
   9.200   0.9714   0.01887   0.01175   0.0034  0.0343  1.0000  -3.8382   0.0000   0.0000   0.0000   0.2345
   9.300   0.9760   0.01908   0.01198   0.0045  0.0340  1.0000  -3.8725   0.0000   0.0000   0.0000   0.2333
   9.400   0.9806   0.01931   0.01223   0.0056  0.0337  1.0000  -3.9067   0.0000   0.0000   0.0000   0.2321
   9.500   0.9852   0.01953   0.01248   0.0067  0.0335  1.0000  -3.9408   0.0000   0.0000   0.0000   0.2309
   9.600   0.9896   0.01977   0.01273   0.0078  0.0332  1.0000  -3.9745   0.0000   0.0000   0.0000   0.2297
   9.700   0.9940   0.02001   0.01299   0.0089  0.0330  1.0000  -4.0082   0.0000   0.0000   0.0000   0.2284
   9.800   0.9984   0.02026   0.01326   0.0099  0.0327  1.0000  -4.0420   0.0000   0.0000   0.0000   0.2273
   9.900   1.0029   0.02051   0.01354   0.0110  0.0325  1.0000  -4.0759   0.0000   0.0000   0.0000   0.2261
  10.000   1.0075   0.02078   0.01383   0.0120  0.0323  1.0000  -4.1101   0.0000   0.0000   0.0000   0.2250
  10.100   1.0121   0.02105   0.01413   0.0130  0.0321  1.0000  -4.1443   0.0000   0.0000   0.0000   0.2240
  10.200   1.0167   0.02134   0.01444   0.0140  0.0319  1.0000  -4.1784   0.0000   0.0000   0.0000   0.2229
  10.300   1.0208   0.02163   0.01475   0.0150  0.0317  1.0000  -4.2112   0.0000   0.0000   0.0000   0.2218
  10.400   1.0245   0.02192   0.01507   0.0161  0.0316  1.0000  -4.2432   0.0000   0.0000   0.0000   0.2206
  10.500   1.0282   0.02222   0.01540   0.0172  0.0314  1.0000  -4.2752   0.0000   0.0000   0.0000   0.2195
  10.600   1.0320   0.02254   0.01574   0.0182  0.0312  1.0000  -4.3075   0.0000   0.0000   0.0000   0.2184
  10.700   1.0361   0.02287   0.01610   0.0192  0.0310  1.0000  -4.3401   0.0000   0.0000   0.0000   0.2174
  10.800   1.0402   0.02322   0.01648   0.0201  0.0309  1.0000  -4.3730   0.0000   0.0000   0.0000   0.2164
  10.900   1.0444   0.02358   0.01687   0.0210  0.0307  1.0000  -4.4060   0.0000   0.0000   0.0000   0.2155
  11.000   1.0485   0.02396   0.01727   0.0218  0.0306  1.0000  -4.4386   0.0000   0.0000   0.0000   0.2146
  11.100   1.0524   0.02435   0.01770   0.0227  0.0304  1.0000  -4.4704   0.0000   0.0000   0.0000   0.2137
  11.200   1.0560   0.02476   0.01814   0.0236  0.0302  1.0000  -4.5016   0.0000   0.0000   0.0000   0.2128
  11.300   1.0595   0.02518   0.01859   0.0244  0.0301  1.0000  -4.5323   0.0000   0.0000   0.0000   0.2119
  11.400   1.0629   0.02561   0.01905   0.0252  0.0300  1.0000  -4.5628   0.0000   0.0000   0.0000   0.2111
  11.500   1.0664   0.02605   0.01953   0.0260  0.0298  1.0000  -4.5933   0.0000   0.0000   0.0000   0.2102
  11.600   1.0699   0.02652   0.02002   0.0268  0.0297  1.0000  -4.6237   0.0000   0.0000   0.0000   0.2094
  11.700   1.0781   0.02665   0.02028   0.0271  0.0319  1.0000  -4.6512   0.0000   0.0000   0.0000   0.2092
  11.800   1.0815   0.02712   0.02079   0.0278  0.0321  1.0000  -4.6792   0.0000   0.0000   0.0000   0.2084
  11.900   1.0846   0.02762   0.02133   0.0285  0.0321  1.0000  -4.7075   0.0000   0.0000   0.0000   0.2077
  12.000   1.0880   0.02812   0.02187   0.0292  0.0320  1.0000  -4.7368   0.0000   0.0000   0.0000   0.2070
  12.100   1.0915   0.02864   0.02242   0.0298  0.0320  1.0000  -4.7669   0.0000   0.0000   0.0000   0.2063
  12.200   1.0951   0.02916   0.02298   0.0303  0.0319  1.0000  -4.7974   0.0000   0.0000   0.0000   0.2057
  12.300   1.0987   0.02969   0.02355   0.0309  0.0318  1.0000  -4.8280   0.0000   0.0000   0.0000   0.2052
  12.400   1.1023   0.03024   0.02413   0.0314  0.0317  1.0000  -4.8586   0.0000   0.0000   0.0000   0.2046
  12.500   1.1058   0.03081   0.02473   0.0319  0.0315  1.0000  -4.8889   0.0000   0.0000   0.0000   0.2041
  12.600   1.1091   0.03139   0.02536   0.0324  0.0314  1.0000  -4.9188   0.0000   0.0000   0.0000   0.2035
  12.700   1.1122   0.03200   0.02600   0.0329  0.0313  1.0000  -4.9480   0.0000   0.0000   0.0000   0.2030
  12.800   1.1152   0.03263   0.02667   0.0333  0.0311  1.0000  -4.9765   0.0000   0.0000   0.0000   0.2025
  12.900   1.1178   0.03328   0.02736   0.0338  0.0310  1.0000  -5.0039   0.0000   0.0000   0.0000   0.2020
  13.000   1.1191   0.03403   0.02816   0.0342  0.0309  1.0000  -5.0273   0.0000   0.0000   0.0000   0.2014
  13.100   1.1200   0.03483   0.02900   0.0346  0.0308  1.0000  -5.0488   0.0000   0.0000   0.0000   0.2009
  13.200   1.1213   0.03562   0.02983   0.0349  0.0306  1.0000  -5.0714   0.0000   0.0000   0.0000   0.2004
  13.300   1.1225   0.03639   0.03064   0.0353  0.0305  1.0000  -5.0938   0.0000   0.0000   0.0000   0.1999
  13.400   1.1237   0.03717   0.03147   0.0357  0.0304  1.0000  -5.1160   0.0000   0.0000   0.0000   0.1994
  13.500   1.1249   0.03798   0.03233   0.0360  0.0303  1.0000  -5.1377   0.0000   0.0000   0.0000   0.1990
  13.600   1.1259   0.03883   0.03322   0.0363  0.0301  1.0000  -5.1586   0.0000   0.0000   0.0000   0.1985
  13.700   1.1267   0.03971   0.03415   0.0365  0.0300  1.0000  -5.1786   0.0000   0.0000   0.0000   0.1981
  13.800   1.1272   0.04065   0.03513   0.0367  0.0299  1.0000  -5.1972   0.0000   0.0000   0.0000   0.1978
  13.900   1.1265   0.04173   0.03627   0.0368  0.0297  1.0000  -5.2110   0.0000   0.0000   0.0000   0.1974
  14.000   1.1246   0.04297   0.03756   0.0368  0.0296  1.0000  -5.2202   0.0000   0.0000   0.0000   0.1972
  14.100   1.1235   0.04414   0.03879   0.0368  0.0295  1.0000  -5.2320   0.0000   0.0000   0.0000   0.1969
  14.200   1.1228   0.04530   0.04000   0.0368  0.0294  1.0000  -5.2446   0.0000   0.0000   0.0000   0.1967
  14.300   1.1221   0.04648   0.04123   0.0367  0.0293  1.0000  -5.2567   0.0000   0.0000   0.0000   0.1965
  14.400   1.1211   0.04770   0.04250   0.0367  0.0292  1.0000  -5.2676   0.0000   0.0000   0.0000   0.1963
  14.500   1.1198   0.04897   0.04383   0.0365  0.0290  1.0000  -5.2767   0.0000   0.0000   0.0000   0.1961
  14.600   1.1179   0.05032   0.04524   0.0364  0.0289  1.0000  -5.2834   0.0000   0.0000   0.0000   0.1960
  14.700   1.1142   0.05194   0.04692   0.0359  0.0289  1.0000  -5.2822   0.0000   0.0000   0.0000   0.1960
  14.800   1.1091   0.05378   0.04881   0.0353  0.0288  1.0000  -5.2751   0.0000   0.0000   0.0000   0.1962
  14.900   1.1056   0.05542   0.05051   0.0348  0.0287  1.0000  -5.2735   0.0000   0.0000   0.0000   0.1962
  15.000   1.1023   0.05702   0.05217   0.0344  0.0286  1.0000  -5.2726   0.0000   0.0000   0.0000   0.1963
  15.100   1.0989   0.05865   0.05386   0.0339  0.0285  1.0000  -5.2704   0.0000   0.0000   0.0000   0.1963
  15.200   1.0950   0.06035   0.05562   0.0334  0.0284  1.0000  -5.2659   0.0000   0.0000   0.0000   0.1964
  15.300   1.0905   0.06216   0.05749   0.0328  0.0284  1.0000  -5.2580   0.0000   0.0000   0.0000   0.1966
  15.400   1.0836   0.06439   0.05980   0.0318  0.0283  1.0000  -5.2392   0.0000   0.0000   0.0000   0.1971
  15.500   1.0748   0.06698   0.06245   0.0304  0.0283  1.0000  -5.2115   0.0000   0.0000   0.0000   0.1978
  15.600   1.0688   0.06905   0.06458   0.0296  0.0283  1.0000  -5.1950   0.0000   0.0000   0.0000   0.1982
  15.700   1.0632   0.07105   0.06664   0.0288  0.0282  1.0000  -5.1798   0.0000   0.0000   0.0000   0.1985
  15.800   1.0574   0.07311   0.06876   0.0279  0.0282  1.0000  -5.1633   0.0000   0.0000   0.0000   0.1989
  15.900   1.0514   0.07532   0.07103   0.0270  0.0281  1.0000  -5.1440   0.0000   0.0000   0.0000   0.1994
  16.000   1.0445   0.07774   0.07351   0.0258  0.0281  1.0000  -5.1197   0.0000   0.0000   0.0000   0.2001
  16.100   1.0328   0.08120   0.07705   0.0237  0.0282  1.0000  -5.0702   0.0000   0.0000   0.0000   0.2015
  16.200   1.0229   0.08440   0.08032   0.0219  0.0282  1.0000  -5.0276   0.0000   0.0000   0.0000   0.2028
  16.300   1.0162   0.08702   0.08300   0.0206  0.0282  1.0000  -4.9991   0.0000   0.0000   0.0000   0.2037
  16.400   1.0098   0.08956   0.08559   0.0193  0.0281  1.0000  -4.9719   0.0000   0.0000   0.0000   0.2045
  16.500   1.0033   0.09213   0.08822   0.0181  0.0281  1.0000  -4.9427   0.0000   0.0000   0.0000   0.2054
  16.600   0.9963   0.09485   0.09099   0.0167  0.0281  1.0000  -4.9092   0.0000   0.0000   0.0000   0.2064
  16.700   0.9884   0.09785   0.09405   0.0151  0.0281  1.0000  -4.8686   0.0000   0.0000   0.0000   0.2076
  16.800   0.9763   0.10187   0.09815   0.0127  0.0282  1.0000  -4.8013   0.0000   0.0000   0.0000   0.2097
  16.900   0.9629   0.10624   0.10260   0.0101  0.0283  1.0000  -4.7220   0.0000   0.0000   0.0000   0.2120
  17.000   0.9500   0.11049   0.10692   0.0076  0.0284  1.0000  -4.6423   0.0000   0.0000   0.0000   0.2142
  17.100   0.9274   0.11710   0.11364   0.0037  0.0288  1.0000  -4.4905   0.0000   0.0000   0.0000   0.2182
  17.700   0.7487   0.16886   0.16562  -0.0228  0.0268  1.0000  -2.8208   0.0000   0.0000   0.0000   0.2533
  17.800   0.7423   0.17236   0.16912  -0.0244  0.0264  1.0000  -2.7208   0.0000   0.0000   0.0000   0.2557
  17.900   0.7313   0.17724   0.17400  -0.0265  0.0259  1.0000  -2.5600   0.0000   0.0000   0.0000   0.2592
  18.000   0.7108   0.18537   0.18210  -0.0298  0.0249  1.0000  -2.2748   0.0000   0.0000   0.0000   0.2651
  18.100   0.7172   0.18542   0.18215  -0.0302  0.0247  1.0000  -2.3420   0.0000   0.0000   0.0000   0.2650
  18.200   0.7231   0.18568   0.18240  -0.0306  0.0246  1.0000  -2.4005   0.0000   0.0000   0.0000   0.2650
  18.300   0.7286   0.18604   0.18276  -0.0310  0.0244  1.0000  -2.4545   0.0000   0.0000   0.0000   0.2650
  18.400   0.7339   0.18647   0.18319  -0.0314  0.0243  1.0000  -2.5056   0.0000   0.0000   0.0000   0.2650
  18.500   0.7513   0.18457   0.18141  -0.0302  0.0282  1.0000  -2.5607   0.0000   0.0000   0.0000   0.2622
  18.600   0.7537   0.18568   0.18253  -0.0308  0.0278  1.0000  -2.5732   0.0000   0.0000   0.0000   0.2627
  18.700   0.7554   0.18697   0.18381  -0.0315  0.0274  1.0000  -2.5794   0.0000   0.0000   0.0000   0.2633
  18.800   0.7527   0.18947   0.18631  -0.0326  0.0266  1.0000  -2.5343   0.0000   0.0000   0.0000   0.2648
  19.400   0.7564   0.20061   0.19740  -0.0385  0.0237  1.0000  -2.5098   0.0000   0.0000   0.0000   0.2715
  19.500   0.7612   0.20121   0.19799  -0.0390  0.0234  1.0000  -2.5618   0.0000   0.0000   0.0000   0.2716
  19.600   0.7659   0.20182   0.19860  -0.0395  0.0231  1.0000  -2.6140   0.0000   0.0000   0.0000   0.2716
  19.700   0.7706   0.20245   0.19923  -0.0400  0.0228  1.0000  -2.6656   0.0000   0.0000   0.0000   0.2717
  19.800   0.7751   0.20313   0.19990  -0.0405  0.0225  1.0000  -2.7162   0.0000   0.0000   0.0000   0.2718
  19.900   0.7795   0.20386   0.20063  -0.0410  0.0221  1.0000  -2.7649   0.0000   0.0000   0.0000   0.2720
  20.000   0.7838   0.20466   0.20143  -0.0416  0.0216  1.0000  -2.8110   0.0000   0.0000   0.0000   0.2721
  20.100   0.7877   0.20556   0.20233  -0.0421  0.0210  1.0000  -2.8537   0.0000   0.0000   0.0000   0.2724
  20.200   0.7914   0.20657   0.20334  -0.0427  0.0204  1.0000  -2.8918   0.0000   0.0000   0.0000   0.2727
  20.300   0.7947   0.20772   0.20448  -0.0434  0.0197  1.0000  -2.9246   0.0000   0.0000   0.0000   0.2731
  20.400   0.7976   0.20898   0.20574  -0.0441  0.0190  1.0000  -2.9522   0.0000   0.0000   0.0000   0.2735
  20.500   0.8003   0.21033   0.20708  -0.0448  0.0182  1.0000  -2.9759   0.0000   0.0000   0.0000   0.2741
  20.600   0.8028   0.21173   0.20849  -0.0456  0.0174  1.0000  -2.9967   0.0000   0.0000   0.0000   0.2746
  20.700   0.8055   0.21305   0.20980  -0.0463  0.0168  1.0000  -3.0212   0.0000   0.0000   0.0000   0.2751
  20.800   0.8085   0.21423   0.21098  -0.0470  0.0163  1.0000  -3.0510   0.0000   0.0000   0.0000   0.2755
  20.900   0.8116   0.21532   0.21207  -0.0476  0.0159  1.0000  -3.0853   0.0000   0.0000   0.0000   0.2758
  21.000   0.8149   0.21636   0.21310  -0.0482  0.0156  1.0000  -3.1224   0.0000   0.0000   0.0000   0.2761
  21.100   0.8182   0.21737   0.21411  -0.0489  0.0153  1.0000  -3.1655   0.0000   0.0000   0.0000   0.2764
  21.200   0.8215   0.21839   0.21512  -0.0495  0.0151  1.0000  -3.2097   0.0000   0.0000   0.0000   0.2767
  21.300   0.8246   0.21945   0.21618  -0.0501  0.0148  1.0000  -3.2523   0.0000   0.0000   0.0000   0.2770
  21.400   0.8275   0.22061   0.21734  -0.0508  0.0146  1.0000  -3.2913   0.0000   0.0000   0.0000   0.2773
  21.500   0.8298   0.22198   0.21871  -0.0516  0.0144  1.0000  -3.3225   0.0000   0.0000   0.0000   0.2779
  21.600   0.8312   0.22374   0.22046  -0.0524  0.0142  1.0000  -3.3389   0.0000   0.0000   0.0000   0.2786
  21.700   0.8308   0.22616   0.22288  -0.0535  0.0139  1.0000  -3.3285   0.0000   0.0000   0.0000   0.2798
  21.800   0.8251   0.23079   0.22751  -0.0550  0.0136  1.0000  -3.2217   0.0000   0.0000   0.0000   0.2821
  21.900   0.7468   0.27862   0.27542  -0.0593  0.0248  1.0000  -1.5077   0.0000   0.0000   0.0000   0.2987
  22.000   0.7484   0.28085   0.27765  -0.0599  0.0249  1.0000  -1.5016   0.0000   0.0000   0.0000   0.2992
  22.100   0.7501   0.28308   0.27988  -0.0605  0.0249  1.0000  -1.4956   0.0000   0.0000   0.0000   0.2998
  22.200   0.7517   0.28531   0.28211  -0.0611  0.0249  1.0000  -1.4898   0.0000   0.0000   0.0000   0.3002
  22.300   0.7533   0.28741   0.28422  -0.0617  0.0249  1.0000  -1.4846   0.0000   0.0000   0.0000   0.3008
  22.400   0.7548   0.28932   0.28612  -0.0624  0.0248  1.0000  -1.4802   0.0000   0.0000   0.0000   0.3014
  22.500   0.7564   0.29121   0.28802  -0.0631  0.0248  1.0000  -1.4763   0.0000   0.0000   0.0000   0.3020
  22.600   0.7579   0.29309   0.28990  -0.0637  0.0248  1.0000  -1.4727   0.0000   0.0000   0.0000   0.3026
  22.700   0.7595   0.29496   0.29177  -0.0644  0.0247  1.0000  -1.4696   0.0000   0.0000   0.0000   0.3031
  22.800   0.7610   0.29681   0.29362  -0.0651  0.0247  1.0000  -1.4668   0.0000   0.0000   0.0000   0.3037
  22.900   0.7626   0.29864   0.29544  -0.0657  0.0247  1.0000  -1.4646   0.0000   0.0000   0.0000   0.3042
  23.000   0.7642   0.30044   0.29725  -0.0664  0.0246  1.0000  -1.4628   0.0000   0.0000   0.0000   0.3047
  23.100   0.7658   0.30222   0.29903  -0.0670  0.0246  1.0000  -1.4616   0.0000   0.0000   0.0000   0.3052
  23.200   0.7674   0.30395   0.30077  -0.0677  0.0245  1.0000  -1.4607   0.0000   0.0000   0.0000   0.3058
  23.300   0.7691   0.30565   0.30246  -0.0683  0.0245  1.0000  -1.4605   0.0000   0.0000   0.0000   0.3063
  23.400   0.7707   0.30729   0.30411  -0.0690  0.0244  1.0000  -1.4613   0.0000   0.0000   0.0000   0.3067
  23.500   0.7725   0.30887   0.30569  -0.0696  0.0243  1.0000  -1.4632   0.0000   0.0000   0.0000   0.3072
  23.600   0.7744   0.31036   0.30717  -0.0703  0.0242  1.0000  -1.4667   0.0000   0.0000   0.0000   0.3077
  23.700   0.7764   0.31170   0.30852  -0.0710  0.0240  1.0000  -1.4719   0.0000   0.0000   0.0000   0.3081
  23.800   0.7787   0.31284   0.30966  -0.0717  0.0238  1.0000  -1.4800   0.0000   0.0000   0.0000   0.3086
  23.900   0.7815   0.31364   0.31046  -0.0725  0.0234  1.0000  -1.4919   0.0000   0.0000   0.0000   0.3091
  24.000   0.7853   0.31398   0.31080  -0.0737  0.0225  1.0000  -1.5023   0.0000   0.0000   0.0000   0.3100
  24.100   0.7894   0.31488   0.31170  -0.0750  0.0207  1.0000  -1.5046   0.0000   0.0000   0.0000   0.3110
  24.200   0.7917   0.31646   0.31329  -0.0758  0.0193  1.0000  -1.5103   0.0000   0.0000   0.0000   0.3116
  24.300   0.7936   0.31803   0.31485  -0.0764  0.0183  1.0000  -1.5218   0.0000   0.0000   0.0000   0.3120
  24.400   0.7954   0.31953   0.31635  -0.0770  0.0176  1.0000  -1.5369   0.0000   0.0000   0.0000   0.3123
  24.500   0.7971   0.32096   0.31778  -0.0775  0.0169  1.0000  -1.5548   0.0000   0.0000   0.0000   0.3125
  24.600   0.7988   0.32233   0.31915  -0.0780  0.0164  1.0000  -1.5750   0.0000   0.0000   0.0000   0.3127
  24.700   0.8006   0.32365   0.32047  -0.0785  0.0160  1.0000  -1.5971   0.0000   0.0000   0.0000   0.3129
  24.800   0.8023   0.32492   0.32174  -0.0789  0.0156  1.0000  -1.6210   0.0000   0.0000   0.0000   0.3130
  24.900   0.8041   0.32616   0.32298  -0.0794  0.0153  1.0000  -1.6464   0.0000   0.0000   0.0000   0.3131
  25.000   0.8058   0.32736   0.32418  -0.0798  0.0150  1.0000  -1.6732   0.0000   0.0000   0.0000   0.3132
  25.100   0.8076   0.32853   0.32535  -0.0802  0.0147  1.0000  -1.7012   0.0000   0.0000   0.0000   0.3132
  25.200   0.8093   0.32967   0.32649  -0.0806  0.0145  1.0000  -1.7305   0.0000   0.0000   0.0000   0.3132
  25.300   0.8110   0.33079   0.32761  -0.0809  0.0143  1.0000  -1.7609   0.0000   0.0000   0.0000   0.3132
  25.400   0.8128   0.33189   0.32871  -0.0812  0.0141  1.0000  -1.7924   0.0000   0.0000   0.0000   0.3131
  25.500   0.8145   0.33298   0.32980  -0.0815  0.0140  1.0000  -1.8249   0.0000   0.0000   0.0000   0.3130
  25.600   0.8162   0.33406   0.33089  -0.0818  0.0138  1.0000  -1.8585   0.0000   0.0000   0.0000   0.3128
  25.700   0.8179   0.33515   0.33197  -0.0820  0.0137  1.0000  -1.8932   0.0000   0.0000   0.0000   0.3126
  25.800   0.8196   0.33626   0.33308  -0.0821  0.0135  1.0000  -1.9290   0.0000   0.0000   0.0000   0.3124
  25.900   0.8200   0.33774   0.33457  -0.0822  0.0132  1.0000  -1.9551   0.0000   0.0000   0.0000   0.3122


