xflr5 v6.61

 Calculated polar for: NACA 4412

 1 1 Reynolds number fixed          Mach number fixed         

 xtrf =   1.000 (top)        1.000 (bottom)
 Mach =   0.000     Re =     0.200 e 6     Ncrit =   9.000

  alpha     CL        CD       CDp       Cm    Top Xtr Bot Xtr   Cpmin    Chinge    XCp    
 ------- -------- --------- --------- -------- ------- ------- -------- --------- ---------
 -10.000  -0.3534   0.10738   0.10337  -0.0402  1.0000  0.0742  -1.6181   0.0000   0.0000   0.0000   0.1223
  -9.900  -0.3559   0.10675   0.10277  -0.0403  1.0000  0.0744  -1.6245   0.0000   0.0000   0.0000   0.1233
  -9.800  -0.3585   0.10597   0.10201  -0.0402  1.0000  0.0746  -1.6295   0.0000   0.0000   0.0000   0.1247
  -9.700  -0.3615   0.10515   0.10122  -0.0399  1.0000  0.0747  -1.6340   0.0000   0.0000   0.0000   0.1266
  -9.600  -0.3650   0.10433   0.10042  -0.0396  1.0000  0.0748  -1.6388   0.0000   0.0000   0.0000   0.1290
  -9.500  -0.3691   0.10354   0.09965  -0.0391  1.0000  0.0748  -1.6442   0.0000   0.0000   0.0000   0.1319
  -9.400  -0.3738   0.10278   0.09892  -0.0384  1.0000  0.0749  -1.6507   0.0000   0.0000   0.0000   0.1354
  -9.300  -0.3792   0.10207   0.09823  -0.0376  1.0000  0.0749  -1.6582   0.0000   0.0000   0.0000   0.1393
  -9.200  -0.3850   0.10138   0.09757  -0.0367  1.0000  0.0750  -1.6666   0.0000   0.0000   0.0000   0.1434
  -9.100  -0.3911   0.10069   0.09690  -0.0358  1.0000  0.0750  -1.6760   0.0000   0.0000   0.0000   0.1476
  -9.000  -0.3974   0.09998   0.09622  -0.0349  1.0000  0.0750  -1.6860   0.0000   0.0000   0.0000   0.1516
  -8.900  -0.4040   0.09925   0.09552  -0.0341  1.0000  0.0750  -1.6970   0.0000   0.0000   0.0000   0.1555
  -8.800  -0.4108   0.09852   0.09481  -0.0332  1.0000  0.0750  -1.7092   0.0000   0.0000   0.0000   0.1593
  -8.700  -0.4181   0.09779   0.09411  -0.0323  1.0000  0.0751  -1.7229   0.0000   0.0000   0.0000   0.1632
  -8.600  -0.4259   0.09706   0.09341  -0.0314  1.0000  0.0751  -1.7383   0.0000   0.0000   0.0000   0.1671
  -8.500  -0.4336   0.09628   0.09266  -0.0307  1.0000  0.0751  -1.7543   0.0000   0.0000   0.0000   0.1704
  -8.400  -0.4398   0.09529   0.09169  -0.0304  1.0000  0.0751  -1.7686   0.0000   0.0000   0.0000   0.1722
  -8.300  -0.4436   0.09398   0.09040  -0.0310  0.9998  0.0751  -1.7802   0.0000   0.0000   0.0000   0.1718
  -8.200  -0.4362   0.09127   0.08767  -0.0349  0.9979  0.0752  -1.7779   0.0000   0.0000   0.0000   0.1616
  -8.100  -0.4284   0.08845   0.08482  -0.0390  0.9956  0.0752  -1.7763   0.0000   0.0000   0.0000   0.1507
  -8.000  -0.4208   0.08563   0.08197  -0.0428  0.9929  0.0753  -1.7753   0.0000   0.0000   0.0000   0.1399
  -7.900  -0.4138   0.08290   0.07920  -0.0463  0.9900  0.0753  -1.7741   0.0000   0.0000   0.0000   0.1297
  -7.800  -0.4302   0.07328   0.06955  -0.0520  0.9860  0.0768  -1.9587   0.0000   0.0000   0.0000   0.1209
  -7.700  -0.4265   0.07061   0.06688  -0.0534  0.9835  0.0779  -1.9320   0.0000   0.0000   0.0000   0.1168
  -7.600  -0.4173   0.06976   0.06605  -0.0535  0.9814  0.0787  -1.8693   0.0000   0.0000   0.0000   0.1136
  -7.500  -0.4060   0.06969   0.06600  -0.0529  0.9799  0.0795  -1.8049   0.0000   0.0000   0.0000   0.1117
  -7.400  -0.3922   0.07211   0.06849  -0.0485  0.9799  0.0812  -1.6694   0.0000   0.0000   0.0000   0.1183
  -7.300  -0.3786   0.07393   0.07035  -0.0454  0.9795  0.0838  -1.5573   0.0000   0.0000   0.0000   0.1220
  -7.200  -0.3668   0.07381   0.07023  -0.0461  0.9776  0.0865  -1.5075   0.0000   0.0000   0.0000   0.1164
  -7.100  -0.3550   0.07288   0.06928  -0.0484  0.9749  0.0891  -1.4841   0.0000   0.0000   0.0000   0.1056
  -7.000  -0.3420   0.07168   0.06806  -0.0516  0.9721  0.0917  -1.4719   0.0000   0.0000   0.0000   0.0911
  -6.900  -0.3277   0.07050   0.06685  -0.0550  0.9694  0.0939  -1.4624   0.0000   0.0000   0.0000   0.0739
  -6.800  -0.3130   0.06937   0.06569  -0.0583  0.9669  0.0957  -1.4527   0.0000   0.0000   0.0000   0.0554
  -6.700  -0.2959   0.06896   0.06523  -0.0612  0.9648  0.0975  -1.4310   0.0000   0.0000   0.0000   0.0344
  -6.600  -0.2769   0.06926   0.06547  -0.0640  0.9627  0.0990  -1.3990   0.0000   0.0000   0.0000   0.0098
  -6.500  -0.2625   0.06826   0.06442  -0.0669  0.9608  0.0995  -1.3870   0.0000   0.0000   0.0000  -0.0141
  -6.400  -0.2494   0.06674   0.06284  -0.0696  0.9590  0.0998  -1.3823   0.0000   0.0000   0.0000  -0.0389
  -6.300  -0.2742   0.04150   0.03671  -0.0846  0.9536  0.0715  -1.9863   0.0000   0.0000   0.0000  -0.0692
  -6.200  -0.2635   0.03848   0.03351  -0.0869  0.9520  0.0690  -2.0222   0.0000   0.0000   0.0000  -0.0907
  -6.100  -0.2518   0.03587   0.03069  -0.0888  0.9501  0.0666  -2.0585   0.0000   0.0000   0.0000  -0.1144
  -6.000  -0.2490   0.03385   0.02850  -0.0882  0.9474  0.0650  -2.0908   0.0000   0.0000   0.0000  -0.1158
  -5.900  -0.2459   0.03184   0.02627  -0.0875  0.9440  0.0634  -2.1271   0.0000   0.0000   0.0000  -0.1176
  -5.800  -0.2405   0.02971   0.02387  -0.0872  0.9405  0.0617  -2.1692   0.0000   0.0000   0.0000  -0.1244
  -5.700  -0.2327   0.02770   0.02157  -0.0871  0.9375  0.0602  -2.2081   0.0000   0.0000   0.0000  -0.1368
  -5.600  -0.2229   0.02613   0.01977  -0.0872  0.9348  0.0590  -2.2282   0.0000   0.0000   0.0000  -0.1543
  -5.500  -0.2119   0.02485   0.01827  -0.0875  0.9323  0.0580  -2.2365   0.0000   0.0000   0.0000  -0.1763
  -5.400  -0.1999   0.02383   0.01705  -0.0878  0.9299  0.0573  -2.2337   0.0000   0.0000   0.0000  -0.2034
  -5.300  -0.1872   0.02298   0.01605  -0.0883  0.9276  0.0567  -2.2219   0.0000   0.0000   0.0000  -0.2362
  -5.200  -0.1740   0.02227   0.01520  -0.0888  0.9255  0.0563  -2.2035   0.0000   0.0000   0.0000  -0.2760
  -5.100  -0.1603   0.02164   0.01446  -0.0894  0.9235  0.0560  -2.1805   0.0000   0.0000   0.0000  -0.3245
  -5.000  -0.1462   0.02107   0.01379  -0.0901  0.9216  0.0557  -2.1543   0.0000   0.0000   0.0000  -0.3841
  -4.900  -0.1317   0.02053   0.01317  -0.0908  0.9199  0.0556  -2.1258   0.0000   0.0000   0.0000  -0.4588
  -4.800  -0.1170   0.02002   0.01259  -0.0916  0.9182  0.0555  -2.0958   0.0000   0.0000   0.0000  -0.5545
  -4.700  -0.1020   0.01954   0.01203  -0.0925  0.9166  0.0554  -2.0649   0.0000   0.0000   0.0000  -0.6807
  -4.600  -0.0867   0.01906   0.01149  -0.0933  0.9152  0.0555  -2.0333   0.0000   0.0000   0.0000  -0.8542
  -4.500  -0.0712   0.01861   0.01098  -0.0943  0.9138  0.0557  -2.0012   0.0000   0.0000   0.0000  -1.1068
  -4.400  -0.0555   0.01816   0.01048  -0.0952  0.9125  0.0561  -1.9688   0.0000   0.0000   0.0000  -1.5062
  -4.300  -0.0397   0.01773   0.01001  -0.0962  0.9112  0.0566  -1.9363   0.0000   0.0000   0.0000  -2.2262
  -4.200  -0.0240   0.01733   0.00957  -0.0971  0.9098  0.0574  -1.9037   0.0000   0.0000   0.0000  -3.8915
  -4.100  -0.0082   0.01694   0.00916  -0.0981  0.9083  0.0585  -1.8708   0.0000   0.0000   0.0000  -11.9527
  -4.000   0.0076   0.01658   0.00878  -0.0990  0.9067  0.0601  -1.8375   0.0000   0.0000   0.0000  13.5242
  -3.900   0.0233   0.01625   0.00844  -0.0999  0.9048  0.0624  -1.8047   0.0000   0.0000   0.0000   4.6200
  -3.800   0.0388   0.01596   0.00814  -0.1008  0.9026  0.0658  -1.7742   0.0000   0.0000   0.0000   2.8993
  -3.700   0.0534   0.01574   0.00791  -0.1015  0.8998  0.0720  -1.7514   0.0000   0.0000   0.0000   2.1829
  -3.600   0.0608   0.01523   0.00759  -0.1008  0.8979  0.0921  -1.7548   0.0000   0.0000   0.0000   1.9363
  -3.500   0.0686   0.01500   0.00738  -0.1001  0.8955  0.1083  -1.7350   0.0000   0.0000   0.0000   1.7335
  -3.400   0.0764   0.01476   0.00724  -0.0994  0.8926  0.1242  -1.7063   0.0000   0.0000   0.0000   1.5740
  -3.300   0.0845   0.01463   0.00715  -0.0988  0.8892  0.1336  -1.6713   0.0000   0.0000   0.0000   1.4386
  -3.200   0.0933   0.01454   0.00707  -0.0984  0.8855  0.1407  -1.6343   0.0000   0.0000   0.0000   1.3212
  -3.100   0.1028   0.01447   0.00698  -0.0981  0.8817  0.1459  -1.5955   0.0000   0.0000   0.0000   1.2190
  -3.000   0.1128   0.01442   0.00690  -0.0979  0.8779  0.1494  -1.5550   0.0000   0.0000   0.0000   1.1305
  -2.900   0.1233   0.01429   0.00679  -0.0978  0.8740  0.1578  -1.5157   0.0000   0.0000   0.0000   1.0548
  -2.800   0.1341   0.01414   0.00671  -0.0978  0.8702  0.1698  -1.4749   0.0000   0.0000   0.0000   0.9896
  -2.700   0.1453   0.01401   0.00665  -0.0979  0.8664  0.1801  -1.4324   0.0000   0.0000   0.0000   0.9327
  -2.600   0.1569   0.01391   0.00658  -0.0980  0.8626  0.1890  -1.3894   0.0000   0.0000   0.0000   0.8827
  -2.500   0.1689   0.01382   0.00648  -0.0982  0.8588  0.1962  -1.3461   0.0000   0.0000   0.0000   0.8387
  -2.400   0.1810   0.01371   0.00638  -0.0984  0.8551  0.2035  -1.3029   0.0000   0.0000   0.0000   0.8001
  -2.300   0.1930   0.01354   0.00629  -0.0986  0.8514  0.2168  -1.2603   0.0000   0.0000   0.0000   0.7669
  -2.200   0.2050   0.01338   0.00620  -0.0988  0.8477  0.2286  -1.2174   0.0000   0.0000   0.0000   0.7374
  -2.100   0.2172   0.01325   0.00610  -0.0990  0.8440  0.2391  -1.1745   0.0000   0.0000   0.0000   0.7108
  -2.000   0.2298   0.01315   0.00599  -0.0993  0.8403  0.2472  -1.1312   0.0000   0.0000   0.0000   0.6864
  -1.900   0.2428   0.01302   0.00587  -0.0997  0.8365  0.2566  -1.0878   0.0000   0.0000   0.0000   0.6643
  -1.800   0.2556   0.01283   0.00578  -0.1000  0.8327  0.2695  -1.0449   0.0000   0.0000   0.0000   0.6448
  -1.700   0.2685   0.01267   0.00568  -0.1004  0.8286  0.2811  -1.0019   0.0000   0.0000   0.0000   0.6270
  -1.600   0.2816   0.01255   0.00559  -0.1008  0.8241  0.2915  -0.9592   0.0000   0.0000   0.0000   0.6107
  -1.500   0.2948   0.01248   0.00551  -0.1012  0.8188  0.2995  -0.9167   0.0000   0.0000   0.0000   0.5958
  -1.400   0.3077   0.01244   0.00550  -0.1017  0.8123  0.3205  -0.8756   0.0000   0.0000   0.0000   0.5826
  -1.300   0.3198   0.01249   0.00564  -0.1021  0.8036  0.3454  -0.8364   0.0000   0.0000   0.0000   0.5712
  -1.200   0.3297   0.01247   0.00573  -0.1021  0.7991  0.3671  -0.8008   0.0000   0.0000   0.0000   0.5612
  -1.100   0.3394   0.01234   0.00568  -0.1018  0.7976  0.3878  -0.7657   0.0000   0.0000   0.0000   0.5514
  -1.000   0.3490   0.01221   0.00563  -0.1015  0.7957  0.4170  -0.7311   0.0000   0.0000   0.0000   0.5421
  -0.900   0.3577   0.01198   0.00562  -0.1011  0.7935  0.4668  -0.6981   0.0000   0.0000   0.0000   0.5336
  -0.800   0.3659   0.01171   0.00562  -0.1005  0.7908  0.5316  -0.6778   0.0000   0.0000   0.0000   0.5255
  -0.700   0.3734   0.01142   0.00564  -0.0997  0.7877  0.6165  -0.6839   0.0000   0.0000   0.0000   0.5175
  -0.600   0.3806   0.01115   0.00566  -0.0986  0.7843  0.7032  -0.6898   0.0000   0.0000   0.0000   0.5095
  -0.500   0.3879   0.01090   0.00569  -0.0973  0.7806  0.7995  -0.6959   0.0000   0.0000   0.0000   0.5012
  -0.400   0.4228   0.01061   0.00563  -0.1016  0.7782  0.9693  -0.7181   0.0000   0.0000   0.0000   0.4905
  -0.300   0.4446   0.01054   0.00553  -0.1039  0.7744  1.0000  -0.7330   0.0000   0.0000   0.0000   0.4836
  -0.200   0.4548   0.01052   0.00547  -0.1037  0.7696  1.0000  -0.7415   0.0000   0.0000   0.0000   0.4778
  -0.100   0.4654   0.01050   0.00540  -0.1036  0.7647  1.0000  -0.7502   0.0000   0.0000   0.0000   0.4722
   0.000   0.4765   0.01047   0.00533  -0.1035  0.7596  1.0000  -0.7592   0.0000   0.0000   0.0000   0.4668
   0.100   0.4879   0.01044   0.00525  -0.1036  0.7543  1.0000  -0.7685   0.0000   0.0000   0.0000   0.4616
   0.200   0.4996   0.01041   0.00517  -0.1036  0.7489  1.0000  -0.7779   0.0000   0.0000   0.0000   0.4567
   0.300   0.5116   0.01038   0.00508  -0.1038  0.7433  1.0000  -0.7875   0.0000   0.0000   0.0000   0.4519
   0.400   0.5236   0.01036   0.00500  -0.1039  0.7372  1.0000  -0.7972   0.0000   0.0000   0.0000   0.4474
   0.500   0.5358   0.01036   0.00493  -0.1041  0.7301  1.0000  -0.8069   0.0000   0.0000   0.0000   0.4431
   0.600   0.5483   0.01040   0.00489  -0.1044  0.7209  1.0000  -0.8166   0.0000   0.0000   0.0000   0.4391
   0.700   0.5610   0.01053   0.00498  -0.1048  0.7086  1.0000  -0.8262   0.0000   0.0000   0.0000   0.4354
   0.800   0.5719   0.01077   0.00525  -0.1050  0.6996  1.0000  -0.8341   0.0000   0.0000   0.0000   0.4321
   0.900   0.5815   0.01077   0.00523  -0.1047  0.6980  1.0000  -0.8424   0.0000   0.0000   0.0000   0.4285
   1.000   0.5911   0.01077   0.00521  -0.1044  0.6960  1.0000  -0.8516   0.0000   0.0000   0.0000   0.4249
   1.100   0.6006   0.01077   0.00519  -0.1041  0.6934  1.0000  -0.8614   0.0000   0.0000   0.0000   0.4215
   1.200   0.6102   0.01078   0.00517  -0.1038  0.6903  1.0000  -0.8712   0.0000   0.0000   0.0000   0.4181
   1.300   0.6198   0.01079   0.00516  -0.1035  0.6865  1.0000  -0.8811   0.0000   0.0000   0.0000   0.4149
   1.400   0.6296   0.01081   0.00516  -0.1032  0.6823  1.0000  -0.8910   0.0000   0.0000   0.0000   0.4118
   1.500   0.6395   0.01083   0.00515  -0.1030  0.6777  1.0000  -0.9010   0.0000   0.0000   0.0000   0.4088
   1.600   0.6495   0.01086   0.00515  -0.1028  0.6729  1.0000  -0.9110   0.0000   0.0000   0.0000   0.4058
   1.700   0.6598   0.01089   0.00514  -0.1026  0.6676  1.0000  -0.9213   0.0000   0.0000   0.0000   0.4030
   1.800   0.6702   0.01092   0.00512  -0.1025  0.6621  1.0000  -0.9317   0.0000   0.0000   0.0000   0.4003
   1.900   0.6808   0.01095   0.00510  -0.1023  0.6564  1.0000  -0.9423   0.0000   0.0000   0.0000   0.3976
   2.000   0.6914   0.01098   0.00507  -0.1022  0.6504  1.0000  -0.9529   0.0000   0.0000   0.0000   0.3950
   2.100   0.7020   0.01102   0.00504  -0.1021  0.6442  1.0000  -0.9635   0.0000   0.0000   0.0000   0.3924
   2.200   0.7126   0.01107   0.00501  -0.1019  0.6375  1.0000  -0.9741   0.0000   0.0000   0.0000   0.3900
   2.300   0.7230   0.01114   0.00500  -0.1018  0.6296  1.0000  -0.9863   0.0000   0.0000   0.0000   0.3876
   2.400   0.7338   0.01126   0.00505  -0.1018  0.6200  1.0000  -0.9989   0.0000   0.0000   0.0000   0.3854
   2.500   0.7451   0.01145   0.00519  -0.1019  0.6089  1.0000  -1.0116   0.0000   0.0000   0.0000   0.3834
   2.600   0.7559   0.01166   0.00538  -0.1020  0.5996  1.0000  -1.0245   0.0000   0.0000   0.0000   0.3815
   2.700   0.7657   0.01165   0.00536  -0.1017  0.5982  1.0000  -1.0592   0.0000   0.0000   0.0000   0.3793
   2.800   0.7753   0.01164   0.00534  -0.1014  0.5964  1.0000  -1.0941   0.0000   0.0000   0.0000   0.3771
   2.900   0.7850   0.01164   0.00534  -0.1012  0.5941  1.0000  -1.1291   0.0000   0.0000   0.0000   0.3750
   3.000   0.7947   0.01166   0.00535  -0.1009  0.5913  1.0000  -1.1644   0.0000   0.0000   0.0000   0.3730
   3.100   0.8044   0.01168   0.00536  -0.1006  0.5881  1.0000  -1.2001   0.0000   0.0000   0.0000   0.3710
   3.200   0.8142   0.01171   0.00539  -0.1004  0.5846  1.0000  -1.2361   0.0000   0.0000   0.0000   0.3691
   3.300   0.8240   0.01175   0.00542  -0.1001  0.5806  1.0000  -1.2724   0.0000   0.0000   0.0000   0.3673
   3.400   0.8339   0.01180   0.00544  -0.0999  0.5761  1.0000  -1.3091   0.0000   0.0000   0.0000   0.3654
   3.500   0.8439   0.01184   0.00546  -0.0997  0.5709  1.0000  -1.3463   0.0000   0.0000   0.0000   0.3637
   3.600   0.8539   0.01189   0.00547  -0.0995  0.5654  1.0000  -1.3839   0.0000   0.0000   0.0000   0.3619
   3.700   0.8639   0.01195   0.00548  -0.0993  0.5595  1.0000  -1.4218   0.0000   0.0000   0.0000   0.3602
   3.800   0.8739   0.01201   0.00548  -0.0991  0.5534  1.0000  -1.4599   0.0000   0.0000   0.0000   0.3585
   3.900   0.8839   0.01208   0.00549  -0.0988  0.5470  1.0000  -1.4982   0.0000   0.0000   0.0000   0.3568
   4.000   0.8937   0.01217   0.00551  -0.0986  0.5405  1.0000  -1.5365   0.0000   0.0000   0.0000   0.3552
   4.100   0.9035   0.01227   0.00555  -0.0983  0.5339  1.0000  -1.5748   0.0000   0.0000   0.0000   0.3537
   4.200   0.9134   0.01240   0.00562  -0.0982  0.5271  1.0000  -1.6134   0.0000   0.0000   0.0000   0.3522
   4.300   0.9236   0.01254   0.00573  -0.0981  0.5200  1.0000  -1.6527   0.0000   0.0000   0.0000   0.3507
   4.400   0.9343   0.01271   0.00588  -0.0981  0.5126  1.0000  -1.6930   0.0000   0.0000   0.0000   0.3494
   4.500   0.9453   0.01291   0.00607  -0.0982  0.5044  1.0000  -1.7339   0.0000   0.0000   0.0000   0.3482
   4.600   0.9558   0.01306   0.00623  -0.0982  0.4995  1.0000  -1.7745   0.0000   0.0000   0.0000   0.3470
   4.700   0.9656   0.01308   0.00626  -0.0979  0.4984  1.0000  -1.8147   0.0000   0.0000   0.0000   0.3456
   4.800   0.9753   0.01310   0.00630  -0.0977  0.4969  1.0000  -1.8550   0.0000   0.0000   0.0000   0.3442
   4.900   0.9850   0.01312   0.00634  -0.0975  0.4951  1.0000  -1.8955   0.0000   0.0000   0.0000   0.3428
   5.000   0.9946   0.01315   0.00639  -0.0972  0.4928  1.0000  -1.9361   0.0000   0.0000   0.0000   0.3415
   5.100   1.0043   0.01320   0.00645  -0.0970  0.4900  1.0000  -1.9769   0.0000   0.0000   0.0000   0.3402
   5.200   1.0139   0.01325   0.00651  -0.0967  0.4867  1.0000  -2.0181   0.0000   0.0000   0.0000   0.3389
   5.300   1.0237   0.01331   0.00659  -0.0965  0.4831  1.0000  -2.0594   0.0000   0.0000   0.0000   0.3377
   5.400   1.0334   0.01338   0.00666  -0.0963  0.4791  1.0000  -2.1010   0.0000   0.0000   0.0000   0.3364
   5.500   1.0431   0.01345   0.00674  -0.0961  0.4746  1.0000  -2.1428   0.0000   0.0000   0.0000   0.3352
   5.600   1.0527   0.01353   0.00680  -0.0958  0.4694  1.0000  -2.1847   0.0000   0.0000   0.0000   0.3340
   5.700   1.0623   0.01362   0.00687  -0.0956  0.4637  1.0000  -2.2268   0.0000   0.0000   0.0000   0.3328
   5.800   1.0719   0.01371   0.00694  -0.0953  0.4580  1.0000  -2.2690   0.0000   0.0000   0.0000   0.3317
   5.900   1.0814   0.01382   0.00700  -0.0950  0.4521  1.0000  -2.3113   0.0000   0.0000   0.0000   0.3305
   6.000   1.0907   0.01393   0.00706  -0.0947  0.4454  1.0000  -2.3533   0.0000   0.0000   0.0000   0.3293
   6.100   1.0994   0.01405   0.00711  -0.0943  0.4370  1.0000  -2.3944   0.0000   0.0000   0.0000   0.3281
   6.200   1.1074   0.01421   0.00718  -0.0937  0.4266  1.0000  -2.4342   0.0000   0.0000   0.0000   0.3268
   6.300   1.1155   0.01439   0.00729  -0.0932  0.4145  1.0000  -2.4740   0.0000   0.0000   0.0000   0.3256
   6.400   1.1247   0.01460   0.00747  -0.0929  0.4027  1.0000  -2.5158   0.0000   0.0000   0.0000   0.3246
   6.500   1.1343   0.01469   0.00758  -0.0927  0.3988  1.0000  -2.5590   0.0000   0.0000   0.0000   0.3235
   6.600   1.1438   0.01475   0.00767  -0.0924  0.3966  1.0000  -2.6020   0.0000   0.0000   0.0000   0.3225
   6.700   1.1531   0.01482   0.00778  -0.0922  0.3937  1.0000  -2.6450   0.0000   0.0000   0.0000   0.3215
   6.800   1.1624   0.01491   0.00788  -0.0919  0.3896  1.0000  -2.6875   0.0000   0.0000   0.0000   0.3205
   6.900   1.1714   0.01501   0.00799  -0.0915  0.3837  1.0000  -2.7296   0.0000   0.0000   0.0000   0.3194
   7.000   1.1801   0.01513   0.00810  -0.0911  0.3751  1.0000  -2.7707   0.0000   0.0000   0.0000   0.3184
   7.100   1.1880   0.01528   0.00820  -0.0906  0.3627  1.0000  -2.8101   0.0000   0.0000   0.0000   0.3173
   7.200   1.1946   0.01551   0.00829  -0.0898  0.3454  1.0000  -2.8465   0.0000   0.0000   0.0000   0.3160
   7.300   1.1989   0.01584   0.00840  -0.0886  0.3238  1.0000  -2.8774   0.0000   0.0000   0.0000   0.3147
   7.400   1.2025   0.01616   0.00859  -0.0874  0.2990  1.0000  -2.9057   0.0000   0.0000   0.0000   0.3132
   7.500   1.2071   0.01651   0.00880  -0.0864  0.2772  1.0000  -2.9348   0.0000   0.0000   0.0000   0.3119
   7.600   1.2045   0.01719   0.00914  -0.0842  0.2504  1.0000  -2.9487   0.0000   0.0000   0.0000   0.3101
   7.700   1.2028   0.01792   0.00956  -0.0823  0.2137  1.0000  -2.9611   0.0000   0.0000   0.0000   0.3085
   7.800   1.1974   0.01889   0.01018  -0.0799  0.1668  1.0000  -2.9633   0.0000   0.0000   0.0000   0.3067
   7.900   1.1896   0.01993   0.01090  -0.0770  0.1252  1.0000  -2.9577   0.0000   0.0000   0.0000   0.3046
   8.000   1.1827   0.02104   0.01172  -0.0744  0.0879  1.0000  -2.9436   0.0000   0.0000   0.0000   0.3026
   8.100   1.1788   0.02199   0.01249  -0.0722  0.0738  1.0000  -2.9331   0.0000   0.0000   0.0000   0.3008
   8.200   1.1819   0.02246   0.01298  -0.0710  0.0703  1.0000  -2.9472   0.0000   0.0000   0.0000   0.2995
   8.300   1.1853   0.02291   0.01344  -0.0699  0.0679  1.0000  -2.9645   0.0000   0.0000   0.0000   0.2982
   8.400   1.1883   0.02335   0.01390  -0.0687  0.0662  1.0000  -2.9828   0.0000   0.0000   0.0000   0.2970
   8.500   1.1908   0.02381   0.01438  -0.0675  0.0648  1.0000  -3.0010   0.0000   0.0000   0.0000   0.2957
   8.600   1.1931   0.02429   0.01488  -0.0663  0.0636  1.0000  -3.0194   0.0000   0.0000   0.0000   0.2944
   8.700   1.1955   0.02478   0.01539  -0.0652  0.0627  1.0000  -3.0381   0.0000   0.0000   0.0000   0.2932
   8.800   1.1980   0.02527   0.01591  -0.0641  0.0618  1.0000  -3.0572   0.0000   0.0000   0.0000   0.2920
   8.900   1.2010   0.02577   0.01643  -0.0630  0.0611  1.0000  -3.0771   0.0000   0.0000   0.0000   0.2908
   9.000   1.2039   0.02628   0.01697  -0.0620  0.0604  1.0000  -3.0971   0.0000   0.0000   0.0000   0.2897
   9.100   1.2066   0.02681   0.01753  -0.0610  0.0597  1.0000  -3.1174   0.0000   0.0000   0.0000   0.2886
   9.200   1.2084   0.02738   0.01813  -0.0600  0.0589  1.0000  -3.1365   0.0000   0.0000   0.0000   0.2875
   9.300   1.2100   0.02799   0.01876  -0.0589  0.0581  1.0000  -3.1553   0.0000   0.0000   0.0000   0.2864
   9.400   1.2117   0.02861   0.01941  -0.0579  0.0572  1.0000  -3.1745   0.0000   0.0000   0.0000   0.2853
   9.500   1.2135   0.02924   0.02007  -0.0569  0.0562  1.0000  -3.1934   0.0000   0.0000   0.0000   0.2843
   9.600   1.2155   0.02989   0.02074  -0.0560  0.0552  1.0000  -3.2121   0.0000   0.0000   0.0000   0.2832
   9.700   1.2174   0.03057   0.02145  -0.0550  0.0541  1.0000  -3.2298   0.0000   0.0000   0.0000   0.2822
   9.900   1.2218   0.03185   0.02327  -0.0536  0.0385  1.0000  -3.4954   0.0000   0.0000   0.0000   0.2806
  10.000   1.2244   0.03245   0.02386  -0.0529  0.0359  1.0000  -3.5560   0.0000   0.0000   0.0000   0.2797
  10.100   1.2260   0.03312   0.02451  -0.0521  0.0339  1.0000  -3.6045   0.0000   0.0000   0.0000   0.2788
  10.200   1.2269   0.03387   0.02525  -0.0512  0.0322  1.0000  -3.6427   0.0000   0.0000   0.0000   0.2779
  10.300   1.2269   0.03471   0.02610  -0.0502  0.0308  1.0000  -3.6724   0.0000   0.0000   0.0000   0.2769
  10.400   1.2264   0.03562   0.02704  -0.0493  0.0296  1.0000  -3.6966   0.0000   0.0000   0.0000   0.2760
  10.500   1.2248   0.03665   0.02811  -0.0483  0.0287  1.0000  -3.7146   0.0000   0.0000   0.0000   0.2750
  10.600   1.2228   0.03774   0.02924  -0.0473  0.0278  1.0000  -3.7295   0.0000   0.0000   0.0000   0.2741
  10.700   1.2216   0.03884   0.03040  -0.0463  0.0270  1.0000  -3.7434   0.0000   0.0000   0.0000   0.2731
  10.800   1.2206   0.03997   0.03159  -0.0453  0.0262  1.0000  -3.7553   0.0000   0.0000   0.0000   0.2722
  10.900   1.2199   0.04115   0.03284  -0.0442  0.0255  1.0000  -3.7641   0.0000   0.0000   0.0000   0.2711
  11.000   1.2228   0.04188   0.03356  -0.0437  0.0250  1.0000  -3.8125   0.0000   0.0000   0.0000   0.2704
  11.100   1.2291   0.04213   0.03380  -0.0437  0.0247  1.0000  -3.8988   0.0000   0.0000   0.0000   0.2700
  11.200   1.2347   0.04250   0.03416  -0.0435  0.0243  1.0000  -3.9758   0.0000   0.0000   0.0000   0.2696
  11.300   1.2397   0.04296   0.03464  -0.0433  0.0240  1.0000  -4.0448   0.0000   0.0000   0.0000   0.2691
  11.400   1.2440   0.04351   0.03519  -0.0430  0.0236  1.0000  -4.1075   0.0000   0.0000   0.0000   0.2685
  11.500   1.2479   0.04411   0.03581  -0.0427  0.0232  1.0000  -4.1654   0.0000   0.0000   0.0000   0.2680
  11.600   1.2514   0.04476   0.03649  -0.0423  0.0229  1.0000  -4.2196   0.0000   0.0000   0.0000   0.2674
  11.700   1.2545   0.04545   0.03720  -0.0420  0.0225  1.0000  -4.2708   0.0000   0.0000   0.0000   0.2668
  11.800   1.2574   0.04618   0.03796  -0.0416  0.0222  1.0000  -4.3198   0.0000   0.0000   0.0000   0.2662
  11.900   1.2599   0.04694   0.03875  -0.0412  0.0219  1.0000  -4.3667   0.0000   0.0000   0.0000   0.2657
  12.000   1.2622   0.04773   0.03957  -0.0408  0.0216  1.0000  -4.4116   0.0000   0.0000   0.0000   0.2651
  12.100   1.2635   0.04864   0.04051  -0.0404  0.0214  1.0000  -4.4514   0.0000   0.0000   0.0000   0.2646
  12.200   1.2640   0.04964   0.04155  -0.0400  0.0212  1.0000  -4.4868   0.0000   0.0000   0.0000   0.2641
  12.300   1.2648   0.05061   0.04256  -0.0397  0.0209  1.0000  -4.5235   0.0000   0.0000   0.0000   0.2636
  12.400   1.2660   0.05154   0.04352  -0.0393  0.0207  1.0000  -4.5617   0.0000   0.0000   0.0000   0.2631
  12.500   1.2675   0.05245   0.04447  -0.0390  0.0205  1.0000  -4.6007   0.0000   0.0000   0.0000   0.2626
  12.600   1.2690   0.05336   0.04541  -0.0386  0.0203  1.0000  -4.6399   0.0000   0.0000   0.0000   0.2620
  12.700   1.2706   0.05426   0.04634  -0.0382  0.0201  1.0000  -4.6791   0.0000   0.0000   0.0000   0.2615
  12.800   1.2721   0.05517   0.04729  -0.0379  0.0199  1.0000  -4.7177   0.0000   0.0000   0.0000   0.2610
  12.900   1.2734   0.05608   0.04825  -0.0375  0.0198  1.0000  -4.7550   0.0000   0.0000   0.0000   0.2605
  13.000   1.2744   0.05701   0.04921  -0.0372  0.0196  1.0000  -4.7912   0.0000   0.0000   0.0000   0.2600
  13.100   1.2754   0.05795   0.05020  -0.0368  0.0195  1.0000  -4.8264   0.0000   0.0000   0.0000   0.2595
  13.200   1.2763   0.05893   0.05121  -0.0364  0.0193  1.0000  -4.8610   0.0000   0.0000   0.0000   0.2590
  13.300   1.2771   0.05994   0.05226  -0.0361  0.0192  1.0000  -4.8946   0.0000   0.0000   0.0000   0.2585
  13.400   1.2777   0.06098   0.05335  -0.0358  0.0191  1.0000  -4.9270   0.0000   0.0000   0.0000   0.2581
  13.500   1.2781   0.06207   0.05449  -0.0355  0.0190  1.0000  -4.9579   0.0000   0.0000   0.0000   0.2576
  13.600   1.2782   0.06320   0.05567  -0.0353  0.0189  1.0000  -4.9871   0.0000   0.0000   0.0000   0.2572
  13.700   1.2781   0.06438   0.05691  -0.0351  0.0188  1.0000  -5.0146   0.0000   0.0000   0.0000   0.2569
  13.800   1.2775   0.06565   0.05823  -0.0349  0.0187  1.0000  -5.0388   0.0000   0.0000   0.0000   0.2565
  13.900   1.2754   0.06719   0.05982  -0.0349  0.0186  1.0000  -5.0546   0.0000   0.0000   0.0000   0.2564
  14.000   1.2733   0.06874   0.06144  -0.0350  0.0186  1.0000  -5.0700   0.0000   0.0000   0.0000   0.2563
  14.100   1.2718   0.07022   0.06298  -0.0350  0.0185  1.0000  -5.0876   0.0000   0.0000   0.0000   0.2561
  14.200   1.2867   0.06929   0.06201  -0.0367  0.0183  1.0000  -5.1569   0.0000   0.0000   0.0000   0.2568
  14.300   1.2864   0.07058   0.06335  -0.0366  0.0182  1.0000  -5.1812   0.0000   0.0000   0.0000   0.2566
  14.400   1.2859   0.07190   0.06473  -0.0365  0.0182  1.0000  -5.2051   0.0000   0.0000   0.0000   0.2563
  14.500   1.2852   0.07326   0.06614  -0.0364  0.0181  1.0000  -5.2279   0.0000   0.0000   0.0000   0.2560
  14.600   1.2842   0.07465   0.06760  -0.0363  0.0180  1.0000  -5.2492   0.0000   0.0000   0.0000   0.2558
  14.700   1.2830   0.07609   0.06910  -0.0363  0.0180  1.0000  -5.2685   0.0000   0.0000   0.0000   0.2555
  14.800   1.2815   0.07759   0.07066  -0.0363  0.0180  1.0000  -5.2854   0.0000   0.0000   0.0000   0.2554
  14.900   1.2796   0.07915   0.07229  -0.0363  0.0179  1.0000  -5.2995   0.0000   0.0000   0.0000   0.2552
  15.000   1.2774   0.08079   0.07400  -0.0364  0.0179  1.0000  -5.3109   0.0000   0.0000   0.0000   0.2551
  15.100   1.2748   0.08252   0.07581  -0.0366  0.0179  1.0000  -5.3187   0.0000   0.0000   0.0000   0.2551
  15.200   1.2715   0.08437   0.07775  -0.0368  0.0179  1.0000  -5.3218   0.0000   0.0000   0.0000   0.2552
  15.300   1.2668   0.08647   0.07993  -0.0373  0.0179  1.0000  -5.3164   0.0000   0.0000   0.0000   0.2554
  15.400   1.2596   0.08902   0.08256  -0.0382  0.0179  1.0000  -5.2967   0.0000   0.0000   0.0000   0.2560
  15.500   1.2544   0.09124   0.08487  -0.0388  0.0179  1.0000  -5.2859   0.0000   0.0000   0.0000   0.2564
  15.600   1.2498   0.09334   0.08705  -0.0393  0.0179  1.0000  -5.2776   0.0000   0.0000   0.0000   0.2568
  15.700   1.2454   0.09541   0.08922  -0.0398  0.0180  1.0000  -5.2684   0.0000   0.0000   0.0000   0.2571
  15.800   1.2408   0.09752   0.09141  -0.0403  0.0180  1.0000  -5.2570   0.0000   0.0000   0.0000   0.2574
  15.900   1.2358   0.09969   0.09367  -0.0409  0.0180  1.0000  -5.2423   0.0000   0.0000   0.0000   0.2578
  16.000   1.2306   0.10198   0.09605  -0.0417  0.0181  1.0000  -5.2242   0.0000   0.0000   0.0000   0.2583
  16.100   1.2249   0.10439   0.09855  -0.0425  0.0181  1.0000  -5.2015   0.0000   0.0000   0.0000   0.2590
  16.200   1.2185   0.10694   0.10119  -0.0435  0.0182  1.0000  -5.1736   0.0000   0.0000   0.0000   0.2598
  16.300   1.2113   0.10966   0.10400  -0.0447  0.0182  1.0000  -5.1400   0.0000   0.0000   0.0000   0.2607
  16.400   1.2026   0.11275   0.10719  -0.0462  0.0183  1.0000  -5.0958   0.0000   0.0000   0.0000   0.2621
  16.500   1.1919   0.11630   0.11083  -0.0483  0.0183  1.0000  -5.0390   0.0000   0.0000   0.0000   0.2640
  16.600   1.1840   0.11928   0.11390  -0.0498  0.0184  1.0000  -4.9946   0.0000   0.0000   0.0000   0.2653
  16.700   1.1769   0.12209   0.11680  -0.0512  0.0184  1.0000  -4.9520   0.0000   0.0000   0.0000   0.2666
  16.800   1.1698   0.12489   0.11969  -0.0526  0.0185  1.0000  -4.9067   0.0000   0.0000   0.0000   0.2679
  16.900   1.1623   0.12782   0.12270  -0.0542  0.0186  1.0000  -4.8562   0.0000   0.0000   0.0000   0.2694
  17.000   1.1542   0.13096   0.12593  -0.0560  0.0187  1.0000  -4.7984   0.0000   0.0000   0.0000   0.2711
  17.100   1.1451   0.13445   0.12951  -0.0580  0.0187  1.0000  -4.7304   0.0000   0.0000   0.0000   0.2731
  17.200   1.1335   0.13875   0.13391  -0.0607  0.0188  1.0000  -4.6393   0.0000   0.0000   0.0000   0.2759
  17.300   1.1201   0.14379   0.13904  -0.0638  0.0189  1.0000  -4.5271   0.0000   0.0000   0.0000   0.2794
  17.400   1.1054   0.14944   0.14479  -0.0673  0.0190  1.0000  -4.3925   0.0000   0.0000   0.0000   0.2832
  17.500   0.9920   0.18886   0.18442  -0.0863  0.0221  1.0000  -2.9527   0.0000   0.0000   0.0000   0.3119
  17.600   0.9859   0.19358   0.18914  -0.0882  0.0225  1.0000  -2.8340   0.0000   0.0000   0.0000   0.3143
  17.700   0.9809   0.19790   0.19346  -0.0898  0.0228  1.0000  -2.7320   0.0000   0.0000   0.0000   0.3165
  17.800   0.9765   0.20202   0.19759  -0.0913  0.0231  1.0000  -2.6385   0.0000   0.0000   0.0000   0.3184
  17.900   0.9722   0.20613   0.20169  -0.0928  0.0235  1.0000  -2.5466   0.0000   0.0000   0.0000   0.3203
  18.000   0.9673   0.21054   0.20611  -0.0942  0.0240  1.0000  -2.4425   0.0000   0.0000   0.0000   0.3223
  18.200   0.9616   0.22421   0.21986  -0.0987  0.0336  1.0000  -2.0061   0.0000   0.0000   0.0000   0.3282
  18.300   0.9727   0.22056   0.21619  -0.0971  0.0305  1.0000  -2.2260   0.0000   0.0000   0.0000   0.3247
  18.400   0.9798   0.21866   0.21427  -0.0963  0.0288  1.0000  -2.3800   0.0000   0.0000   0.0000   0.3227
  18.900   0.9564   0.24908   0.24473  -0.1020  0.0494  1.0000  -1.7269   0.0000   0.0000   0.0000   0.3316
  19.000   0.9575   0.25129   0.24694  -0.1028  0.0494  1.0000  -1.7187   0.0000   0.0000   0.0000   0.3322
  19.100   0.9586   0.25345   0.24909  -0.1036  0.0493  1.0000  -1.7109   0.0000   0.0000   0.0000   0.3327
  19.200   0.9598   0.25554   0.25118  -0.1044  0.0492  1.0000  -1.7036   0.0000   0.0000   0.0000   0.3333
  19.300   0.9611   0.25752   0.25316  -0.1052  0.0490  1.0000  -1.6968   0.0000   0.0000   0.0000   0.3339
  19.400   0.9625   0.25934   0.25498  -0.1061  0.0487  1.0000  -1.6908   0.0000   0.0000   0.0000   0.3345
  19.500   0.9643   0.26082   0.25646  -0.1073  0.0481  1.0000  -1.6843   0.0000   0.0000   0.0000   0.3353
  19.600   0.9641   0.26234   0.25797  -0.1092  0.0469  1.0000  -1.6547   0.0000   0.0000   0.0000   0.3372
  19.700   0.9640   0.26439   0.26002  -0.1107  0.0456  1.0000  -1.6291   0.0000   0.0000   0.0000   0.3386
  19.800   0.9645   0.26660   0.26223  -0.1118  0.0446  1.0000  -1.6127   0.0000   0.0000   0.0000   0.3395
  19.900   0.9652   0.26882   0.26445  -0.1127  0.0438  1.0000  -1.6006   0.0000   0.0000   0.0000   0.3402
  20.000   0.9659   0.27104   0.26667  -0.1135  0.0431  1.0000  -1.5908   0.0000   0.0000   0.0000   0.3408
  20.100   0.9667   0.27325   0.26888  -0.1142  0.0424  1.0000  -1.5825   0.0000   0.0000   0.0000   0.3414
  20.200   0.9675   0.27545   0.27108  -0.1149  0.0418  1.0000  -1.5753   0.0000   0.0000   0.0000   0.3419
  20.300   0.9682   0.27763   0.27326  -0.1156  0.0412  1.0000  -1.5688   0.0000   0.0000   0.0000   0.3423
  20.400   0.9690   0.27982   0.27544  -0.1163  0.0407  1.0000  -1.5629   0.0000   0.0000   0.0000   0.3427
  20.500   0.9698   0.28199   0.27762  -0.1169  0.0402  1.0000  -1.5575   0.0000   0.0000   0.0000   0.3431
  20.600   0.9705   0.28416   0.27978  -0.1175  0.0397  1.0000  -1.5524   0.0000   0.0000   0.0000   0.3435
  20.700   0.9713   0.28632   0.28195  -0.1181  0.0392  1.0000  -1.5477   0.0000   0.0000   0.0000   0.3439
  20.800   0.9720   0.28847   0.28410  -0.1187  0.0388  1.0000  -1.5431   0.0000   0.0000   0.0000   0.3442
  20.900   0.9726   0.29063   0.28625  -0.1193  0.0384  1.0000  -1.5388   0.0000   0.0000   0.0000   0.3446
  21.000   0.9733   0.29277   0.28840  -0.1198  0.0380  1.0000  -1.5346   0.0000   0.0000   0.0000   0.3449
  21.100   0.9739   0.29492   0.29055  -0.1204  0.0376  1.0000  -1.5305   0.0000   0.0000   0.0000   0.3452
  21.200   0.9744   0.29706   0.29269  -0.1209  0.0373  1.0000  -1.5265   0.0000   0.0000   0.0000   0.3455
  21.300   0.9749   0.29919   0.29482  -0.1214  0.0370  1.0000  -1.5226   0.0000   0.0000   0.0000   0.3458
  21.400   0.9754   0.30132   0.29696  -0.1219  0.0367  1.0000  -1.5186   0.0000   0.0000   0.0000   0.3461
  21.500   0.9758   0.30345   0.29908  -0.1224  0.0364  1.0000  -1.5147   0.0000   0.0000   0.0000   0.3463
  21.600   0.9761   0.30557   0.30120  -0.1228  0.0361  1.0000  -1.5107   0.0000   0.0000   0.0000   0.3466
  21.700   0.9764   0.30768   0.30332  -0.1233  0.0358  1.0000  -1.5067   0.0000   0.0000   0.0000   0.3469
  21.800   0.9766   0.30979   0.30543  -0.1237  0.0356  1.0000  -1.5026   0.0000   0.0000   0.0000   0.3471
  21.900   0.9767   0.31189   0.30753  -0.1241  0.0353  1.0000  -1.4984   0.0000   0.0000   0.0000   0.3474
  22.000   0.9768   0.31399   0.30963  -0.1245  0.0351  1.0000  -1.4941   0.0000   0.0000   0.0000   0.3476
  22.100   0.9768   0.31607   0.31171  -0.1249  0.0349  1.0000  -1.4897   0.0000   0.0000   0.0000   0.3479
  22.200   0.9766   0.31814   0.31379  -0.1253  0.0347  1.0000  -1.4850   0.0000   0.0000   0.0000   0.3481
  22.300   0.9764   0.32020   0.31585  -0.1256  0.0345  1.0000  -1.4802   0.0000   0.0000   0.0000   0.3483
  22.400   0.9760   0.32224   0.31789  -0.1259  0.0343  1.0000  -1.4751   0.0000   0.0000   0.0000   0.3486
  22.500   0.9755   0.32426   0.31992  -0.1262  0.0342  1.0000  -1.4698   0.0000   0.0000   0.0000   0.3488
  22.600   0.9752   0.32608   0.32175  -0.1265  0.0337  1.0000  -1.4713   0.0000   0.0000   0.0000   0.3489
  22.700   0.9750   0.32767   0.32334  -0.1266  0.0329  1.0000  -1.4810   0.0000   0.0000   0.0000   0.3489
  22.800   0.9749   0.32919   0.32485  -0.1267  0.0322  1.0000  -1.4927   0.0000   0.0000   0.0000   0.3488
  22.900   0.9747   0.33063   0.32630  -0.1268  0.0315  1.0000  -1.5065   0.0000   0.0000   0.0000   0.3487
  23.000   0.9745   0.33199   0.32766  -0.1267  0.0309  1.0000  -1.5225   0.0000   0.0000   0.0000   0.3485
  23.100   0.9743   0.33328   0.32895  -0.1266  0.0303  1.0000  -1.5409   0.0000   0.0000   0.0000   0.3482
  23.200   0.9740   0.33448   0.33016  -0.1264  0.0297  1.0000  -1.5619   0.0000   0.0000   0.0000   0.3478
  23.300   0.9737   0.33561   0.33129  -0.1262  0.0292  1.0000  -1.5859   0.0000   0.0000   0.0000   0.3474
  23.400   0.9735   0.33668   0.33237  -0.1258  0.0287  1.0000  -1.6131   0.0000   0.0000   0.0000   0.3468
  23.500   0.9750   0.33729   0.33309  -0.1252  0.0282  1.0000  -1.6561   0.0000   0.0000   0.0000   0.3458
  23.600   0.9745   0.33846   0.33428  -0.1247  0.0278  1.0000  -1.6807   0.0000   0.0000   0.0000   0.3451
  23.700   0.9743   0.33972   0.33555  -0.1239  0.0274  1.0000  -1.7120   0.0000   0.0000   0.0000   0.3442
  23.800   0.9710   0.34129   0.33714  -0.1230  0.0269  1.0000  -1.7244   0.0000   0.0000   0.0000   0.3436
  23.900   0.9129   0.32943   0.32537  -0.1144  0.0272  1.0000  -1.5781   0.0000   0.0000   0.0000   0.3434
  24.000   0.9017   0.32850   0.32447  -0.1126  0.0267  1.0000  -1.5599   0.0000   0.0000   0.0000   0.3430
  24.100   0.8586   0.33121   0.32707  -0.1083  0.0252  1.0000  -1.2892   0.0000   0.0000   0.0000   0.3458
  24.200   0.8542   0.33114   0.32701  -0.1081  0.0251  1.0000  -1.2736   0.0000   0.0000   0.0000   0.3461
  24.300   0.8502   0.33113   0.32701  -0.1079  0.0251  1.0000  -1.2590   0.0000   0.0000   0.0000   0.3464
  24.400   0.8465   0.33116   0.32706  -0.1077  0.0251  1.0000  -1.2452   0.0000   0.0000   0.0000   0.3467
  24.500   0.8431   0.33123   0.32714  -0.1076  0.0251  1.0000  -1.2322   0.0000   0.0000   0.0000   0.3470
  24.600   0.8399   0.33129   0.32721  -0.1075  0.0250  1.0000  -1.2197   0.0000   0.0000   0.0000   0.3474
  24.700   0.8373   0.33114   0.32717  -0.1076  0.0250  1.0000  -1.2093   0.0000   0.0000   0.0000   0.3477
  24.800   0.8346   0.33128   0.32733  -0.1075  0.0250  1.0000  -1.1985   0.0000   0.0000   0.0000   0.3480
  24.900   0.8320   0.33142   0.32749  -0.1075  0.0249  1.0000  -1.1881   0.0000   0.0000   0.0000   0.3483
  25.000   0.8296   0.33158   0.32765  -0.1075  0.0249  1.0000  -1.1784   0.0000   0.0000   0.0000   0.3486
  25.100   0.8273   0.33173   0.32782  -0.1076  0.0248  1.0000  -1.1693   0.0000   0.0000   0.0000   0.3490
  25.200   0.8252   0.33189   0.32799  -0.1076  0.0248  1.0000  -1.1610   0.0000   0.0000   0.0000   0.3493
  25.300   0.8233   0.33202   0.32812  -0.1077  0.0247  1.0000  -1.1532   0.0000   0.0000   0.0000   0.3496
  25.400   0.8215   0.33213   0.32824  -0.1079  0.0246  1.0000  -1.1462   0.0000   0.0000   0.0000   0.3500
  25.500   0.8200   0.33223   0.32835  -0.1081  0.0244  1.0000  -1.1405   0.0000   0.0000   0.0000   0.3504
  25.600   0.8188   0.33227   0.32840  -0.1084  0.0243  1.0000  -1.1352   0.0000   0.0000   0.0000   0.3508
  25.700   0.8178   0.33227   0.32841  -0.1089  0.0239  1.0000  -1.1289   0.0000   0.0000   0.0000   0.3514
  25.800   0.8175   0.33241   0.32855  -0.1097  0.0234  1.0000  -1.1183   0.0000   0.0000   0.0000   0.3523
  25.900   0.8188   0.33323   0.32938  -0.1109  0.0222  1.0000  -1.1037   0.0000   0.0000   0.0000   0.3534
  26.000   0.8192   0.33419   0.33034  -0.1116  0.0209  1.0000  -1.0917   0.0000   0.0000   0.0000   0.3540
  26.100   0.8186   0.33487   0.33104  -0.1119  0.0198  1.0000  -1.0865   0.0000   0.0000   0.0000   0.3543
  26.200   0.8178   0.33540   0.33158  -0.1121  0.0190  1.0000  -1.0857   0.0000   0.0000   0.0000   0.3546
  26.300   0.8169   0.33586   0.33204  -0.1122  0.0182  1.0000  -1.0883   0.0000   0.0000   0.0000   0.3548
  26.400   0.8160   0.33625   0.33244  -0.1123  0.0175  1.0000  -1.0936   0.0000   0.0000   0.0000   0.3549
  26.500   0.8152   0.33660   0.33280  -0.1124  0.0169  1.0000  -1.1017   0.0000   0.0000   0.0000   0.3550
  26.600   0.8145   0.33690   0.33310  -0.1125  0.0164  1.0000  -1.1124   0.0000   0.0000   0.0000   0.3551
  26.700   0.8139   0.33716   0.33337  -0.1126  0.0159  1.0000  -1.1258   0.0000   0.0000   0.0000   0.3551
  26.800   0.8134   0.33737   0.33358  -0.1127  0.0154  1.0000  -1.1419   0.0000   0.0000   0.0000   0.3550
  26.900   0.8129   0.33753   0.33375  -0.1127  0.0151  1.0000  -1.1609   0.0000   0.0000   0.0000   0.3550
  27.000   0.8126   0.33765   0.33386  -0.1127  0.0147  1.0000  -1.1827   0.0000   0.0000   0.0000   0.3548
  27.100   0.8123   0.33771   0.33393  -0.1127  0.0144  1.0000  -1.2075   0.0000   0.0000   0.0000   0.3546
  27.200   0.8121   0.33773   0.33395  -0.1126  0.0142  1.0000  -1.2355   0.0000   0.0000   0.0000   0.3543
  27.300   0.8120   0.33771   0.33393  -0.1124  0.0139  1.0000  -1.2669   0.0000   0.0000   0.0000   0.3539
  27.400   0.8120   0.33769   0.33391  -0.1121  0.0137  1.0000  -1.3020   0.0000   0.0000   0.0000   0.3533
  27.500   0.8122   0.33780   0.33403  -0.1116  0.0134  1.0000  -1.3428   0.0000   0.0000   0.0000   0.3523
  27.600   0.8011   0.34042   0.33662  -0.1103  0.0127  1.0000  -1.2052   0.0000   0.0000   0.0000   0.3532
  27.700   0.7998   0.34098   0.33718  -0.1105  0.0127  1.0000  -1.1923   0.0000   0.0000   0.0000   0.3536
  27.800   0.7986   0.34154   0.33775  -0.1107  0.0126  1.0000  -1.1798   0.0000   0.0000   0.0000   0.3540
  27.900   0.7974   0.34210   0.33833  -0.1110  0.0126  1.0000  -1.1676   0.0000   0.0000   0.0000   0.3543
  28.000   0.7962   0.34267   0.33890  -0.1112  0.0126  1.0000  -1.1559   0.0000   0.0000   0.0000   0.3547
  28.100   0.7951   0.34324   0.33949  -0.1114  0.0126  1.0000  -1.1445   0.0000   0.0000   0.0000   0.3550
  28.200   0.7941   0.34382   0.34007  -0.1116  0.0126  1.0000  -1.1334   0.0000   0.0000   0.0000   0.3554
  28.300   0.7931   0.34440   0.34066  -0.1118  0.0126  1.0000  -1.1227   0.0000   0.0000   0.0000   0.3557
  28.400   0.7922   0.34498   0.34126  -0.1121  0.0125  1.0000  -1.1123   0.0000   0.0000   0.0000   0.3560
  28.500   0.7912   0.34557   0.34185  -0.1123  0.0125  1.0000  -1.1022   0.0000   0.0000   0.0000   0.3563
  28.600   0.7903   0.34615   0.34244  -0.1125  0.0125  1.0000  -1.0918   0.0000   0.0000   0.0000   0.3567
  28.700   0.7894   0.34674   0.34303  -0.1128  0.0125  1.0000  -1.0815   0.0000   0.0000   0.0000   0.3570
  28.800   0.7886   0.34733   0.34363  -0.1130  0.0125  1.0000  -1.0716   0.0000   0.0000   0.0000   0.3574
  28.900   0.7877   0.34792   0.34423  -0.1133  0.0125  1.0000  -1.0620   0.0000   0.0000   0.0000   0.3577
  29.000   0.7869   0.34851   0.34484  -0.1135  0.0124  1.0000  -1.0526   0.0000   0.0000   0.0000   0.3580
  29.100   0.7862   0.34911   0.34545  -0.1138  0.0124  1.0000  -1.0435   0.0000   0.0000   0.0000   0.3583
  29.200   0.7855   0.34972   0.34606  -0.1140  0.0124  1.0000  -1.0347   0.0000   0.0000   0.0000   0.3587
  29.300   0.7848   0.35032   0.34667  -0.1143  0.0124  1.0000  -1.0261   0.0000   0.0000   0.0000   0.3590
  29.400   0.7841   0.35093   0.34729  -0.1146  0.0124  1.0000  -1.0177   0.0000   0.0000   0.0000   0.3593
  29.500   0.7835   0.35154   0.34791  -0.1148  0.0123  1.0000  -1.0095   0.0000   0.0000   0.0000   0.3596
  29.600   0.7828   0.35216   0.34853  -0.1151  0.0123  1.0000  -1.0012   0.0000   0.0000   0.0000   0.3599
  29.700   0.7822   0.35278   0.34916  -0.1154  0.0123  1.0000  -0.9920   0.0000   0.0000   0.0000   0.3602
  29.800   0.7815   0.35340   0.34979  -0.1157  0.0123  1.0000  -0.9831   0.0000   0.0000   0.0000   0.3606
  29.900   0.7809   0.35402   0.35043  -0.1160  0.0123  1.0000  -0.9745   0.0000   0.0000   0.0000   0.3609
  30.000   0.7803   0.35465   0.35106  -0.1162  0.0122  1.0000  -0.9662   0.0000   0.0000   0.0000   0.3612


