xflr5 v6.61

 Calculated polar for: NACA 4412

 1 1 Reynolds number fixed          Mach number fixed         

 xtrf =   1.000 (top)        1.000 (bottom)
 Mach =   0.000     Re =     0.500 e 6     Ncrit =   9.000

  alpha     CL        CD       CDp       Cm    Top Xtr Bot Xtr   Cpmin    Chinge    XCp    
 ------- -------- --------- --------- -------- ------- ------- -------- --------- ---------
 -10.000  -0.3774   0.09499   0.09242  -0.0374  1.0000  0.0395  -1.9491   0.0000   0.0000   0.0000   0.1369
  -9.900  -0.3804   0.09424   0.09170  -0.0368  1.0000  0.0403  -1.9431   0.0000   0.0000   0.0000   0.1394
  -9.800  -0.3851   0.09352   0.09099  -0.0360  1.0000  0.0409  -1.9460   0.0000   0.0000   0.0000   0.1432
  -9.700  -0.3930   0.09300   0.09050  -0.0344  1.0000  0.0411  -1.9590   0.0000   0.0000   0.0000   0.1494
  -9.600  -0.3899   0.09142   0.08893  -0.0359  0.9995  0.0422  -1.9474   0.0000   0.0000   0.0000   0.1450
  -9.500  -0.3857   0.08962   0.08712  -0.0378  0.9988  0.0431  -1.9369   0.0000   0.0000   0.0000   0.1391
  -9.400  -0.3817   0.08773   0.08523  -0.0398  0.9979  0.0439  -1.9301   0.0000   0.0000   0.0000   0.1329
  -9.300  -0.3778   0.08576   0.08326  -0.0419  0.9968  0.0445  -1.9259   0.0000   0.0000   0.0000   0.1263
  -9.200  -0.3740   0.08379   0.08129  -0.0440  0.9956  0.0449  -1.9217   0.0000   0.0000   0.0000   0.1196
  -9.100  -0.3701   0.08185   0.07935  -0.0461  0.9941  0.0453  -1.9162   0.0000   0.0000   0.0000   0.1128
  -9.000  -0.3668   0.07986   0.07736  -0.0482  0.9923  0.0456  -1.9142   0.0000   0.0000   0.0000   0.1059
  -8.900  -0.3644   0.07777   0.07527  -0.0504  0.9902  0.0457  -1.9184   0.0000   0.0000   0.0000   0.0992
  -8.800  -0.3629   0.07551   0.07301  -0.0528  0.9875  0.0457  -1.9304   0.0000   0.0000   0.0000   0.0922
  -8.700  -0.3620   0.07296   0.07047  -0.0556  0.9841  0.0455  -1.9521   0.0000   0.0000   0.0000   0.0842
  -8.600  -0.3619   0.06995   0.06745  -0.0593  0.9797  0.0452  -1.9891   0.0000   0.0000   0.0000   0.0742
  -8.500  -0.3598   0.06556   0.06305  -0.0657  0.9751  0.0446  -2.0590   0.0000   0.0000   0.0000   0.0555
  -8.400  -0.3966   0.03800   0.03476  -0.0942  0.9615  0.0389  -2.9324   0.0000   0.0000   0.0000   0.0006
  -8.300  -0.3896   0.03524   0.03183  -0.0963  0.9595  0.0390  -2.9704   0.0000   0.0000   0.0000  -0.0092
  -8.200  -0.3808   0.03326   0.02970  -0.0978  0.9579  0.0392  -2.9816   0.0000   0.0000   0.0000  -0.0191
  -8.100  -0.3711   0.03165   0.02796  -0.0991  0.9564  0.0394  -2.9797   0.0000   0.0000   0.0000  -0.0295
  -8.000  -0.3609   0.03029   0.02649  -0.1002  0.9547  0.0396  -2.9695   0.0000   0.0000   0.0000  -0.0403
  -7.900  -0.3507   0.02910   0.02518  -0.1012  0.9526  0.0398  -2.9558   0.0000   0.0000   0.0000  -0.0512
  -7.800  -0.3414   0.02809   0.02406  -0.1018  0.9499  0.0399  -2.9410   0.0000   0.0000   0.0000  -0.0609
  -7.700  -0.3344   0.02711   0.02300  -0.1017  0.9489  0.0400  -2.9274   0.0000   0.0000   0.0000  -0.0669
  -7.600  -0.3272   0.02619   0.02198  -0.1015  0.9478  0.0401  -2.9123   0.0000   0.0000   0.0000  -0.0733
  -7.500  -0.3196   0.02531   0.02101  -0.1014  0.9465  0.0402  -2.8957   0.0000   0.0000   0.0000  -0.0802
  -7.400  -0.3117   0.02447   0.02008  -0.1012  0.9450  0.0403  -2.8779   0.0000   0.0000   0.0000  -0.0879
  -7.300  -0.3035   0.02366   0.01918  -0.1011  0.9433  0.0403  -2.8587   0.0000   0.0000   0.0000  -0.0965
  -7.200  -0.2948   0.02288   0.01831  -0.1011  0.9415  0.0403  -2.8383   0.0000   0.0000   0.0000  -0.1062
  -7.100  -0.2858   0.02212   0.01747  -0.1010  0.9396  0.0404  -2.8167   0.0000   0.0000   0.0000  -0.1172
  -7.000  -0.2763   0.02139   0.01665  -0.1011  0.9377  0.0404  -2.7939   0.0000   0.0000   0.0000  -0.1297
  -6.900  -0.2662   0.02076   0.01595  -0.1012  0.9358  0.0405  -2.7652   0.0000   0.0000   0.0000  -0.1442
  -6.800  -0.2554   0.02038   0.01552  -0.1014  0.9340  0.0410  -2.7223   0.0000   0.0000   0.0000  -0.1614
  -6.700  -0.2441   0.02010   0.01522  -0.1016  0.9322  0.0416  -2.6728   0.0000   0.0000   0.0000  -0.1811
  -6.600  -0.2326   0.01985   0.01494  -0.1019  0.9304  0.0423  -2.6222   0.0000   0.0000   0.0000  -0.2033
  -6.500  -0.2211   0.01955   0.01462  -0.1022  0.9285  0.0429  -2.5747   0.0000   0.0000   0.0000  -0.2278
  -6.400  -0.2098   0.01915   0.01417  -0.1025  0.9267  0.0433  -2.5340   0.0000   0.0000   0.0000  -0.2545
  -6.300  -0.1987   0.01856   0.01351  -0.1027  0.9248  0.0434  -2.5049   0.0000   0.0000   0.0000  -0.2831
  -6.200  -0.1880   0.01779   0.01263  -0.1028  0.9228  0.0430  -2.4880   0.0000   0.0000   0.0000  -0.3137
  -6.100  -0.1771   0.01705   0.01180  -0.1029  0.9209  0.0427  -2.4702   0.0000   0.0000   0.0000  -0.3489
  -6.000  -0.1657   0.01637   0.01101  -0.1031  0.9189  0.0423  -2.4500   0.0000   0.0000   0.0000  -0.3910
  -5.900  -0.1541   0.01574   0.01029  -0.1033  0.9169  0.0420  -2.4277   0.0000   0.0000   0.0000  -0.4405
  -5.800  -0.1423   0.01516   0.00963  -0.1036  0.9148  0.0417  -2.4033   0.0000   0.0000   0.0000  -0.4991
  -5.700  -0.1304   0.01463   0.00902  -0.1038  0.9126  0.0414  -2.3770   0.0000   0.0000   0.0000  -0.5690
  -5.600  -0.1183   0.01415   0.00846  -0.1041  0.9099  0.0411  -2.3493   0.0000   0.0000   0.0000  -0.6540
  -5.500  -0.1062   0.01371   0.00795  -0.1044  0.9066  0.0408  -2.3202   0.0000   0.0000   0.0000  -0.7596
  -5.400  -0.0940   0.01334   0.00751  -0.1047  0.9022  0.0406  -2.2900   0.0000   0.0000   0.0000  -0.8931
  -5.300  -0.0834   0.01300   0.00712  -0.1047  0.8995  0.0404  -2.2611   0.0000   0.0000   0.0000  -1.0372
  -5.200  -0.0740   0.01269   0.00676  -0.1043  0.8986  0.0402  -2.2330   0.0000   0.0000   0.0000  -1.1961
  -5.100  -0.0646   0.01239   0.00642  -0.1040  0.8974  0.0401  -2.2044   0.0000   0.0000   0.0000  -1.4003
  -5.000  -0.0552   0.01212   0.00610  -0.1036  0.8960  0.0399  -2.1751   0.0000   0.0000   0.0000  -1.6738
  -4.900  -0.0457   0.01187   0.00581  -0.1033  0.8942  0.0398  -2.1452   0.0000   0.0000   0.0000  -2.0615
  -4.800  -0.0362   0.01163   0.00553  -0.1030  0.8922  0.0397  -2.1146   0.0000   0.0000   0.0000  -2.6581
  -4.700  -0.0266   0.01141   0.00528  -0.1027  0.8898  0.0396  -2.0832   0.0000   0.0000   0.0000  -3.7005
  -4.600  -0.0168   0.01121   0.00505  -0.1024  0.8873  0.0395  -2.0512   0.0000   0.0000   0.0000  -5.9927
  -4.500  -0.0068   0.01103   0.00483  -0.1022  0.8846  0.0394  -2.0184   0.0000   0.0000   0.0000  -15.0676
  -4.400   0.0033   0.01086   0.00462  -0.1020  0.8816  0.0394  -1.9850   0.0000   0.0000   0.0000  32.2963
  -4.300   0.0135   0.01070   0.00444  -0.1018  0.8784  0.0393  -1.9508   0.0000   0.0000   0.0000   7.9779
  -4.200   0.0239   0.01055   0.00426  -0.1017  0.8749  0.0393  -1.9156   0.0000   0.0000   0.0000   4.5994
  -4.100   0.0345   0.01041   0.00408  -0.1016  0.8712  0.0394  -1.8797   0.0000   0.0000   0.0000   3.2518
  -4.000   0.0453   0.01028   0.00392  -0.1016  0.8673  0.0394  -1.8431   0.0000   0.0000   0.0000   2.5333
  -3.900   0.0563   0.01016   0.00376  -0.1016  0.8631  0.0395  -1.8061   0.0000   0.0000   0.0000   2.0864
  -3.800   0.0675   0.01004   0.00361  -0.1016  0.8588  0.0396  -1.7686   0.0000   0.0000   0.0000   1.7823
  -3.700   0.0788   0.00993   0.00346  -0.1016  0.8543  0.0398  -1.7308   0.0000   0.0000   0.0000   1.5625
  -3.600   0.0902   0.00983   0.00331  -0.1017  0.8495  0.0401  -1.6930   0.0000   0.0000   0.0000   1.3968
  -3.500   0.1016   0.00973   0.00317  -0.1017  0.8444  0.0405  -1.6554   0.0000   0.0000   0.0000   1.2681
  -3.400   0.1129   0.00963   0.00304  -0.1018  0.8387  0.0410  -1.6184   0.0000   0.0000   0.0000   1.1657
  -3.300   0.1242   0.00955   0.00291  -0.1018  0.8323  0.0418  -1.5825   0.0000   0.0000   0.0000   1.0825
  -3.200   0.1355   0.00947   0.00280  -0.1019  0.8251  0.0432  -1.5483   0.0000   0.0000   0.0000   1.0131
  -3.100   0.1470   0.00938   0.00270  -0.1020  0.8172  0.0462  -1.5171   0.0000   0.0000   0.0000   0.9539
  -3.000   0.1584   0.00923   0.00263  -0.1022  0.8091  0.0632  -1.4884   0.0000   0.0000   0.0000   0.9039
  -2.900   0.1700   0.00913   0.00260  -0.1024  0.8011  0.0777  -1.4493   0.0000   0.0000   0.0000   0.8607
  -2.800   0.1803   0.00899   0.00257  -0.1024  0.7992  0.0890  -1.4098   0.0000   0.0000   0.0000   0.8253
  -2.700   0.1906   0.00891   0.00253  -0.1023  0.7980  0.0957  -1.3695   0.0000   0.0000   0.0000   0.7934
  -2.600   0.2009   0.00885   0.00249  -0.1022  0.7964  0.0998  -1.3291   0.0000   0.0000   0.0000   0.7646
  -2.500   0.2112   0.00880   0.00245  -0.1020  0.7941  0.1083  -1.2889   0.0000   0.0000   0.0000   0.7385
  -2.400   0.2215   0.00873   0.00240  -0.1019  0.7909  0.1178  -1.2488   0.0000   0.0000   0.0000   0.7150
  -2.300   0.2318   0.00865   0.00235  -0.1018  0.7865  0.1252  -1.2087   0.0000   0.0000   0.0000   0.6935
  -2.200   0.2424   0.00859   0.00230  -0.1017  0.7806  0.1319  -1.1684   0.0000   0.0000   0.0000   0.6736
  -2.100   0.2531   0.00854   0.00225  -0.1016  0.7730  0.1377  -1.1280   0.0000   0.0000   0.0000   0.6552
  -2.000   0.2640   0.00851   0.00218  -0.1016  0.7637  0.1425  -1.0876   0.0000   0.0000   0.0000   0.6381
  -1.900   0.2749   0.00850   0.00211  -0.1015  0.7527  0.1463  -1.0474   0.0000   0.0000   0.0000   0.6222
  -1.800   0.2856   0.00851   0.00204  -0.1014  0.7397  0.1494  -1.0078   0.0000   0.0000   0.0000   0.6077
  -1.700   0.2962   0.00853   0.00198  -0.1013  0.7237  0.1555  -0.9691   0.0000   0.0000   0.0000   0.5944
  -1.600   0.3073   0.00854   0.00195  -0.1014  0.7073  0.1651  -0.9299   0.0000   0.0000   0.0000   0.5820
  -1.500   0.3182   0.00850   0.00194  -0.1014  0.6991  0.1740  -0.8912   0.0000   0.0000   0.0000   0.5706
  -1.400   0.3287   0.00846   0.00193  -0.1014  0.6966  0.1819  -0.8536   0.0000   0.0000   0.0000   0.5600
  -1.300   0.3392   0.00843   0.00192  -0.1013  0.6929  0.1890  -0.8161   0.0000   0.0000   0.0000   0.5501
  -1.200   0.3499   0.00842   0.00191  -0.1013  0.6877  0.1949  -0.7789   0.0000   0.0000   0.0000   0.5407
  -1.100   0.3605   0.00842   0.00189  -0.1012  0.6807  0.1999  -0.7421   0.0000   0.0000   0.0000   0.5318
  -1.000   0.3710   0.00841   0.00187  -0.1012  0.6718  0.2099  -0.7059   0.0000   0.0000   0.0000   0.5235
  -0.900   0.3812   0.00840   0.00186  -0.1011  0.6617  0.2206  -0.6948   0.0000   0.0000   0.0000   0.5157
  -0.800   0.3912   0.00841   0.00184  -0.1009  0.6510  0.2297  -0.7022   0.0000   0.0000   0.0000   0.5083
  -0.700   0.4011   0.00844   0.00183  -0.1007  0.6407  0.2368  -0.7095   0.0000   0.0000   0.0000   0.5013
  -0.600   0.4110   0.00848   0.00182  -0.1005  0.6307  0.2421  -0.7167   0.0000   0.0000   0.0000   0.4946
  -0.500   0.4210   0.00852   0.00181  -0.1003  0.6204  0.2461  -0.7240   0.0000   0.0000   0.0000   0.4883
  -0.400   0.4314   0.00855   0.00182  -0.1003  0.6102  0.2492  -0.7314   0.0000   0.0000   0.0000   0.4822
  -0.300   0.4421   0.00857   0.00182  -0.1003  0.6016  0.2542  -0.7401   0.0000   0.0000   0.0000   0.4764
  -0.200   0.4530   0.00855   0.00184  -0.1003  0.5986  0.2626  -0.7491   0.0000   0.0000   0.0000   0.4709
  -0.100   0.4638   0.00851   0.00185  -0.1003  0.5966  0.2706  -0.7580   0.0000   0.0000   0.0000   0.4657
   0.000   0.4746   0.00849   0.00186  -0.1004  0.5940  0.2782  -0.7670   0.0000   0.0000   0.0000   0.4607
   0.100   0.4854   0.00847   0.00188  -0.1004  0.5907  0.2856  -0.7759   0.0000   0.0000   0.0000   0.4559
   0.200   0.4961   0.00846   0.00188  -0.1004  0.5866  0.2942  -0.7849   0.0000   0.0000   0.0000   0.4514
   0.400   0.5172   0.00846   0.00190  -0.1004  0.5760  0.3289  -0.8027   0.0000   0.0000   0.0000   0.4427
   0.500   0.5275   0.00844   0.00192  -0.1003  0.5700  0.3489  -0.8115   0.0000   0.0000   0.0000   0.4387
   0.600   0.5377   0.00843   0.00194  -0.1002  0.5641  0.3667  -0.8202   0.0000   0.0000   0.0000   0.4349
   0.700   0.5479   0.00843   0.00197  -0.1001  0.5583  0.3838  -0.8289   0.0000   0.0000   0.0000   0.4311
   0.900   0.5687   0.00804   0.00209  -0.1002  0.5628  0.5238  -0.8463   0.0000   0.0000   0.0000   0.4243
   1.000   0.5782   0.00791   0.00213  -0.1000  0.5595  0.5802  -0.8547   0.0000   0.0000   0.0000   0.4210
   1.100   0.5879   0.00785   0.00217  -0.0998  0.5557  0.6223  -0.8631   0.0000   0.0000   0.0000   0.4176
   1.200   0.5966   0.00772   0.00221  -0.0993  0.5517  0.6841  -0.8717   0.0000   0.0000   0.0000   0.4143
   1.300   0.6043   0.00757   0.00227  -0.0986  0.5476  0.7562  -0.8805   0.0000   0.0000   0.0000   0.4108
   1.400   0.6112   0.00745   0.00234  -0.0975  0.5430  0.8451  -0.8888   0.0000   0.0000   0.0000   0.4071
   1.500   0.6362   0.00739   0.00239  -0.1004  0.5364  0.9724  -0.9083   0.0000   0.0000   0.0000   0.4052
   1.600   0.6560   0.00745   0.00241  -0.1024  0.5285  1.0000  -0.9243   0.0000   0.0000   0.0000   0.4034
   1.700   0.6656   0.00752   0.00243  -0.1021  0.5211  1.0000  -0.9342   0.0000   0.0000   0.0000   0.4007
   1.800   0.6756   0.00758   0.00246  -0.1020  0.5139  1.0000  -0.9443   0.0000   0.0000   0.0000   0.3981
   1.900   0.6858   0.00763   0.00249  -0.1019  0.5074  1.0000  -0.9545   0.0000   0.0000   0.0000   0.3956
   2.000   0.6961   0.00769   0.00252  -0.1018  0.5018  1.0000  -0.9648   0.0000   0.0000   0.0000   0.3931
   2.100   0.7067   0.00773   0.00255  -0.1017  0.4997  1.0000  -0.9754   0.0000   0.0000   0.0000   0.3908
   2.200   0.7173   0.00776   0.00257  -0.1017  0.4993  1.0000  -0.9860   0.0000   0.0000   0.0000   0.3885
   2.300   0.7279   0.00778   0.00260  -0.1017  0.4988  1.0000  -0.9987   0.0000   0.0000   0.0000   0.3863
   2.400   0.7386   0.00781   0.00263  -0.1016  0.4982  1.0000  -1.0114   0.0000   0.0000   0.0000   0.3841
   2.500   0.7492   0.00784   0.00265  -0.1016  0.4975  1.0000  -1.0242   0.0000   0.0000   0.0000   0.3820
   2.600   0.7598   0.00787   0.00268  -0.1016  0.4966  1.0000  -1.0537   0.0000   0.0000   0.0000   0.3800
   2.700   0.7704   0.00790   0.00271  -0.1015  0.4955  1.0000  -1.0898   0.0000   0.0000   0.0000   0.3780
   2.800   0.7809   0.00794   0.00274  -0.1015  0.4942  1.0000  -1.1261   0.0000   0.0000   0.0000   0.3761
   2.900   0.7915   0.00797   0.00277  -0.1014  0.4927  1.0000  -1.1627   0.0000   0.0000   0.0000   0.3742
   3.000   0.8021   0.00801   0.00281  -0.1014  0.4910  1.0000  -1.1996   0.0000   0.0000   0.0000   0.3723
   3.100   0.8126   0.00805   0.00284  -0.1013  0.4893  1.0000  -1.2368   0.0000   0.0000   0.0000   0.3705
   3.200   0.8232   0.00809   0.00288  -0.1013  0.4873  1.0000  -1.2743   0.0000   0.0000   0.0000   0.3687
   3.300   0.8337   0.00814   0.00291  -0.1012  0.4850  1.0000  -1.3120   0.0000   0.0000   0.0000   0.3670
   3.400   0.8441   0.00819   0.00295  -0.1012  0.4815  1.0000  -1.3498   0.0000   0.0000   0.0000   0.3653
   3.500   0.8543   0.00825   0.00298  -0.1010  0.4765  1.0000  -1.3876   0.0000   0.0000   0.0000   0.3636
   3.600   0.8641   0.00833   0.00302  -0.1008  0.4698  1.0000  -1.4251   0.0000   0.0000   0.0000   0.3620
   3.700   0.8736   0.00843   0.00306  -0.1006  0.4616  1.0000  -1.4623   0.0000   0.0000   0.0000   0.3603
   3.800   0.8828   0.00854   0.00311  -0.1003  0.4526  1.0000  -1.4991   0.0000   0.0000   0.0000   0.3586
   3.900   0.8918   0.00867   0.00317  -0.0999  0.4434  1.0000  -1.5358   0.0000   0.0000   0.0000   0.3570
   4.000   0.9008   0.00879   0.00322  -0.0996  0.4344  1.0000  -1.5727   0.0000   0.0000   0.0000   0.3554
   4.100   0.9102   0.00889   0.00328  -0.0993  0.4261  1.0000  -1.6106   0.0000   0.0000   0.0000   0.3538
   4.200   0.9199   0.00898   0.00334  -0.0991  0.4179  1.0000  -1.6492   0.0000   0.0000   0.0000   0.3523
   4.300   0.9298   0.00907   0.00340  -0.0990  0.4101  1.0000  -1.6885   0.0000   0.0000   0.0000   0.3509
   4.400   0.9400   0.00914   0.00346  -0.0988  0.4033  1.0000  -1.7284   0.0000   0.0000   0.0000   0.3495
   4.500   0.9504   0.00921   0.00352  -0.0988  0.3996  1.0000  -1.7693   0.0000   0.0000   0.0000   0.3482
   4.600   0.9611   0.00925   0.00358  -0.0988  0.3988  1.0000  -1.8108   0.0000   0.0000   0.0000   0.3469
   4.700   0.9717   0.00930   0.00363  -0.0987  0.3978  1.0000  -1.8526   0.0000   0.0000   0.0000   0.3456
   4.800   0.9823   0.00936   0.00369  -0.0987  0.3965  1.0000  -1.8945   0.0000   0.0000   0.0000   0.3444
   4.900   0.9928   0.00941   0.00374  -0.0987  0.3948  1.0000  -1.9366   0.0000   0.0000   0.0000   0.3432
   5.000   1.0033   0.00947   0.00380  -0.0986  0.3926  1.0000  -1.9789   0.0000   0.0000   0.0000   0.3419
   5.100   1.0137   0.00954   0.00386  -0.0985  0.3900  1.0000  -2.0212   0.0000   0.0000   0.0000   0.3407
   5.200   1.0240   0.00960   0.00392  -0.0985  0.3869  1.0000  -2.0637   0.0000   0.0000   0.0000   0.3396
   5.300   1.0342   0.00968   0.00398  -0.0983  0.3826  1.0000  -2.1061   0.0000   0.0000   0.0000   0.3384
   5.400   1.0439   0.00978   0.00405  -0.0982  0.3760  1.0000  -2.1480   0.0000   0.0000   0.0000   0.3372
   5.500   1.0529   0.00993   0.00413  -0.0978  0.3650  1.0000  -2.1884   0.0000   0.0000   0.0000   0.3360
   5.600   1.0604   0.01016   0.00424  -0.0973  0.3484  1.0000  -2.2262   0.0000   0.0000   0.0000   0.3347
   5.700   1.0663   0.01048   0.00438  -0.0964  0.3245  1.0000  -2.2607   0.0000   0.0000   0.0000   0.3332
   5.800   1.0739   0.01071   0.00450  -0.0959  0.2985  1.0000  -2.2984   0.0000   0.0000   0.0000   0.3320
   5.900   1.0824   0.01089   0.00461  -0.0955  0.2874  1.0000  -2.3382   0.0000   0.0000   0.0000   0.3308
   6.000   1.0885   0.01124   0.00478  -0.0947  0.2690  1.0000  -2.3732   0.0000   0.0000   0.0000   0.3294
   6.100   1.0934   0.01168   0.00503  -0.0938  0.2483  1.0000  -2.4054   0.0000   0.0000   0.0000   0.3281
   6.200   1.1000   0.01200   0.00523  -0.0932  0.2314  1.0000  -2.4410   0.0000   0.0000   0.0000   0.3268
   6.300   1.1042   0.01253   0.00552  -0.0921  0.2022  1.0000  -2.4712   0.0000   0.0000   0.0000   0.3255
   6.400   1.1104   0.01293   0.00578  -0.0915  0.1767  1.0000  -2.5048   0.0000   0.0000   0.0000   0.3243
   6.500   1.1137   0.01356   0.00616  -0.0903  0.1377  1.0000  -2.5313   0.0000   0.0000   0.0000   0.3229
   6.600   1.1155   0.01430   0.00661  -0.0890  0.0947  1.0000  -2.5518   0.0000   0.0000   0.0000   0.3214
   6.700   1.1139   0.01528   0.00724  -0.0871  0.0591  1.0000  -2.5615   0.0000   0.0000   0.0000   0.3197
   6.800   1.1206   0.01561   0.00752  -0.0863  0.0468  1.0000  -2.5800   0.0000   0.0000   0.0000   0.3185
   6.900   1.1287   0.01582   0.00774  -0.0859  0.0451  1.0000  -2.6115   0.0000   0.0000   0.0000   0.3174
   7.000   1.1369   0.01602   0.00794  -0.0854  0.0441  1.0000  -2.6450   0.0000   0.0000   0.0000   0.3163
   7.100   1.1451   0.01621   0.00815  -0.0850  0.0433  1.0000  -2.6794   0.0000   0.0000   0.0000   0.3152
   7.200   1.1533   0.01640   0.00835  -0.0845  0.0427  1.0000  -2.7143   0.0000   0.0000   0.0000   0.3142
   7.300   1.1614   0.01659   0.00856  -0.0841  0.0423  1.0000  -2.7496   0.0000   0.0000   0.0000   0.3131
   7.400   1.1693   0.01679   0.00878  -0.0836  0.0419  1.0000  -2.7850   0.0000   0.0000   0.0000   0.3121
   7.500   1.1771   0.01698   0.00898  -0.0831  0.0415  1.0000  -2.8211   0.0000   0.0000   0.0000   0.3110
   7.600   1.1843   0.01718   0.00919  -0.0824  0.0409  1.0000  -2.8578   0.0000   0.0000   0.0000   0.3099
   7.700   1.1912   0.01738   0.00939  -0.0818  0.0403  1.0000  -2.8952   0.0000   0.0000   0.0000   0.3088
   7.800   1.1981   0.01759   0.00960  -0.0812  0.0395  1.0000  -2.9329   0.0000   0.0000   0.0000   0.3078
   7.900   1.2049   0.01780   0.00981  -0.0805  0.0387  1.0000  -2.9708   0.0000   0.0000   0.0000   0.3067
   8.000   1.2117   0.01802   0.01003  -0.0798  0.0379  1.0000  -3.0086   0.0000   0.0000   0.0000   0.3056
   8.100   1.2184   0.01824   0.01026  -0.0792  0.0372  1.0000  -3.0459   0.0000   0.0000   0.0000   0.3046
   8.200   1.2251   0.01847   0.01050  -0.0785  0.0366  1.0000  -3.0827   0.0000   0.0000   0.0000   0.3036
   8.300   1.2317   0.01871   0.01075  -0.0779  0.0362  1.0000  -3.1189   0.0000   0.0000   0.0000   0.3025
   8.400   1.2383   0.01895   0.01101  -0.0772  0.0359  1.0000  -3.1548   0.0000   0.0000   0.0000   0.3015
   8.500   1.2447   0.01919   0.01128  -0.0765  0.0357  1.0000  -3.1905   0.0000   0.0000   0.0000   0.3005
   8.600   1.2510   0.01945   0.01155  -0.0758  0.0355  1.0000  -3.2261   0.0000   0.0000   0.0000   0.2995
   8.700   1.2571   0.01971   0.01184  -0.0751  0.0352  1.0000  -3.2615   0.0000   0.0000   0.0000   0.2984
   8.800   1.2628   0.01998   0.01213  -0.0743  0.0350  1.0000  -3.2961   0.0000   0.0000   0.0000   0.2974
   8.900   1.2680   0.02025   0.01243  -0.0735  0.0348  1.0000  -3.3300   0.0000   0.0000   0.0000   0.2963
   9.000   1.2726   0.02055   0.01275  -0.0725  0.0346  1.0000  -3.3623   0.0000   0.0000   0.0000   0.2952
   9.300   1.2923   0.02110   0.01352  -0.0712  0.0218  1.0000  -3.7643   0.0000   0.0000   0.0000   0.2928
   9.400   1.2983   0.02134   0.01371  -0.0706  0.0202  1.0000  -3.8468   0.0000   0.0000   0.0000   0.2920
   9.500   1.3030   0.02166   0.01398  -0.0699  0.0188  1.0000  -3.9164   0.0000   0.0000   0.0000   0.2910
   9.600   1.3072   0.02203   0.01429  -0.0691  0.0177  1.0000  -3.9797   0.0000   0.0000   0.0000   0.2901
   9.700   1.3115   0.02241   0.01463  -0.0682  0.0166  1.0000  -4.0381   0.0000   0.0000   0.0000   0.2891
   9.800   1.3158   0.02280   0.01501  -0.0674  0.0157  1.0000  -4.0925   0.0000   0.0000   0.0000   0.2881
   9.900   1.3200   0.02320   0.01542  -0.0666  0.0149  1.0000  -4.1442   0.0000   0.0000   0.0000   0.2872
  10.000   1.3236   0.02364   0.01588  -0.0657  0.0143  1.0000  -4.1922   0.0000   0.0000   0.0000   0.2862
  10.100   1.3256   0.02416   0.01644  -0.0646  0.0138  1.0000  -4.2336   0.0000   0.0000   0.0000   0.2851
  10.200   1.3275   0.02471   0.01703  -0.0636  0.0134  1.0000  -4.2741   0.0000   0.0000   0.0000   0.2841
  10.300   1.3298   0.02527   0.01763  -0.0626  0.0131  1.0000  -4.3154   0.0000   0.0000   0.0000   0.2831
  10.400   1.3321   0.02584   0.01826  -0.0617  0.0127  1.0000  -4.3560   0.0000   0.0000   0.0000   0.2821
  10.500   1.3356   0.02635   0.01877  -0.0609  0.0127  1.0000  -4.3998   0.0000   0.0000   0.0000   0.2812
  10.600   1.3391   0.02685   0.01931  -0.0601  0.0126  1.0000  -4.4436   0.0000   0.0000   0.0000   0.2804
  10.700   1.3425   0.02737   0.01987  -0.0593  0.0126  1.0000  -4.4872   0.0000   0.0000   0.0000   0.2795
  10.800   1.3458   0.02791   0.02044  -0.0585  0.0126  1.0000  -4.5304   0.0000   0.0000   0.0000   0.2786
  10.900   1.3489   0.02846   0.02103  -0.0578  0.0125  1.0000  -4.5728   0.0000   0.0000   0.0000   0.2778
  11.000   1.3517   0.02903   0.02164  -0.0570  0.0125  1.0000  -4.6143   0.0000   0.0000   0.0000   0.2769
  11.100   1.3541   0.02962   0.02227  -0.0561  0.0125  1.0000  -4.6540   0.0000   0.0000   0.0000   0.2760
  11.200   1.3559   0.03023   0.02292  -0.0553  0.0124  1.0000  -4.6923   0.0000   0.0000   0.0000   0.2752
  11.300   1.3575   0.03088   0.02361  -0.0544  0.0124  1.0000  -4.7293   0.0000   0.0000   0.0000   0.2743
  11.400   1.3587   0.03158   0.02436  -0.0536  0.0124  1.0000  -4.7651   0.0000   0.0000   0.0000   0.2735
  11.500   1.3580   0.03245   0.02528  -0.0527  0.0124  1.0000  -4.7937   0.0000   0.0000   0.0000   0.2727
  11.600   1.3564   0.03344   0.02631  -0.0519  0.0124  1.0000  -4.8185   0.0000   0.0000   0.0000   0.2719
  11.700   1.3565   0.03431   0.02723  -0.0512  0.0124  1.0000  -4.8498   0.0000   0.0000   0.0000   0.2712
  11.800   1.3573   0.03515   0.02811  -0.0505  0.0123  1.0000  -4.8835   0.0000   0.0000   0.0000   0.2704
  11.900   1.3583   0.03599   0.02899  -0.0498  0.0123  1.0000  -4.9181   0.0000   0.0000   0.0000   0.2697
  12.000   1.3594   0.03683   0.02988  -0.0492  0.0123  1.0000  -4.9527   0.0000   0.0000   0.0000   0.2690
  12.100   1.3604   0.03769   0.03078  -0.0485  0.0123  1.0000  -4.9870   0.0000   0.0000   0.0000   0.2683
  12.200   1.3612   0.03857   0.03171  -0.0479  0.0123  1.0000  -5.0207   0.0000   0.0000   0.0000   0.2676
  12.300   1.3619   0.03949   0.03266  -0.0473  0.0123  1.0000  -5.0536   0.0000   0.0000   0.0000   0.2669
  12.400   1.3623   0.04043   0.03366  -0.0466  0.0123  1.0000  -5.0853   0.0000   0.0000   0.0000   0.2663
  12.500   1.3624   0.04142   0.03469  -0.0461  0.0123  1.0000  -5.1157   0.0000   0.0000   0.0000   0.2656
  12.600   1.3621   0.04246   0.03578  -0.0455  0.0122  1.0000  -5.1445   0.0000   0.0000   0.0000   0.2650
  12.700   1.3588   0.04388   0.03726  -0.0451  0.0122  1.0000  -5.1604   0.0000   0.0000   0.0000   0.2646
  12.800   1.3563   0.04523   0.03865  -0.0447  0.0122  1.0000  -5.1794   0.0000   0.0000   0.0000   0.2641
  12.900   1.3553   0.04639   0.03986  -0.0442  0.0122  1.0000  -5.2047   0.0000   0.0000   0.0000   0.2636
  13.000   1.3549   0.04748   0.04101  -0.0437  0.0122  1.0000  -5.2320   0.0000   0.0000   0.0000   0.2631


