xflr5 v6.61

 Calculated polar for: NACA 65-209

 1 1 Reynolds number fixed          Mach number fixed         

 xtrf =   1.000 (top)        1.000 (bottom)
 Mach =   0.000     Re =     0.200 e 6     Ncrit =   9.000

  alpha     CL        CD       CDp       Cm    Top Xtr Bot Xtr   Cpmin    Chinge    XCp    
 ------- -------- --------- --------- -------- ------- ------- -------- --------- ---------
 -10.000  -0.4282   0.09915   0.09519  -0.0338  1.0000  0.0315  -1.5933   0.0000   0.0000   0.0000   0.1652
  -9.900  -0.4278   0.09784   0.09389  -0.0340  1.0000  0.0318  -1.5906   0.0000   0.0000   0.0000   0.1647
  -9.800  -0.4276   0.09652   0.09259  -0.0343  1.0000  0.0321  -1.5895   0.0000   0.0000   0.0000   0.1642
  -9.700  -0.4276   0.09519   0.09127  -0.0345  1.0000  0.0323  -1.5900   0.0000   0.0000   0.0000   0.1637
  -9.600  -0.4277   0.09386   0.08995  -0.0348  1.0000  0.0326  -1.5920   0.0000   0.0000   0.0000   0.1631
  -9.500  -0.4280   0.09251   0.08862  -0.0352  1.0000  0.0329  -1.5954   0.0000   0.0000   0.0000   0.1625
  -9.400  -0.4285   0.09115   0.08728  -0.0355  1.0000  0.0332  -1.6001   0.0000   0.0000   0.0000   0.1618
  -9.300  -0.4291   0.08979   0.08593  -0.0359  1.0000  0.0334  -1.6061   0.0000   0.0000   0.0000   0.1612
  -9.200  -0.4300   0.08841   0.08457  -0.0363  1.0000  0.0337  -1.6134   0.0000   0.0000   0.0000   0.1605
  -9.100  -0.4310   0.08702   0.08319  -0.0367  1.0000  0.0339  -1.6220   0.0000   0.0000   0.0000   0.1598
  -9.000  -0.4322   0.08561   0.08180  -0.0372  1.0000  0.0342  -1.6318   0.0000   0.0000   0.0000   0.1591
  -8.900  -0.4335   0.08418   0.08038  -0.0376  1.0000  0.0344  -1.6431   0.0000   0.0000   0.0000   0.1584
  -8.800  -0.4352   0.08273   0.07896  -0.0382  1.0000  0.0346  -1.6557   0.0000   0.0000   0.0000   0.1576
  -8.700  -0.4371   0.08127   0.07751  -0.0387  1.0000  0.0348  -1.6700   0.0000   0.0000   0.0000   0.1568
  -8.600  -0.4393   0.07978   0.07605  -0.0393  1.0000  0.0349  -1.6859   0.0000   0.0000   0.0000   0.1560
  -8.500  -0.4418   0.07828   0.07456  -0.0400  1.0000  0.0351  -1.7040   0.0000   0.0000   0.0000   0.1551
  -8.400  -0.4448   0.07674   0.07304  -0.0408  1.0000  0.0352  -1.7248   0.0000   0.0000   0.0000   0.1541
  -8.300  -0.4485   0.07515   0.07147  -0.0417  1.0000  0.0352  -1.7493   0.0000   0.0000   0.0000   0.1529
  -8.200  -0.4531   0.07350   0.06983  -0.0428  1.0000  0.0352  -1.7795   0.0000   0.0000   0.0000   0.1515
  -8.100  -0.4588   0.07187   0.06821  -0.0439  1.0000  0.0351  -1.8123   0.0000   0.0000   0.0000   0.1504
  -8.000  -0.4653   0.07047   0.06681  -0.0445  1.0000  0.0351  -1.8424   0.0000   0.0000   0.0000   0.1507
  -7.900  -0.4728   0.06927   0.06562  -0.0445  1.0000  0.0350  -1.8706   0.0000   0.0000   0.0000   0.1521
  -7.800  -0.4810   0.06827   0.06462  -0.0441  1.0000  0.0349  -1.8968   0.0000   0.0000   0.0000   0.1548
  -7.700  -0.4900   0.06744   0.06379  -0.0431  1.0000  0.0348  -1.9210   0.0000   0.0000   0.0000   0.1586
  -7.600  -0.4986   0.06664   0.06300  -0.0419  1.0000  0.0348  -1.9425   0.0000   0.0000   0.0000   0.1627
  -7.500  -0.5050   0.06562   0.06197  -0.0410  1.0000  0.0348  -1.9602   0.0000   0.0000   0.0000   0.1655
  -7.400  -0.5108   0.06460   0.06094  -0.0402  1.0000  0.0349  -1.9758   0.0000   0.0000   0.0000   0.1682
  -7.300  -0.5163   0.06360   0.05993  -0.0393  1.0000  0.0350  -1.9898   0.0000   0.0000   0.0000   0.1708
  -7.200  -0.5216   0.06262   0.05894  -0.0383  1.0000  0.0351  -2.0021   0.0000   0.0000   0.0000   0.1736
  -7.100  -0.5267   0.06166   0.05796  -0.0372  1.0000  0.0352  -2.0130   0.0000   0.0000   0.0000   0.1764
  -7.000  -0.5315   0.06071   0.05699  -0.0361  1.0000  0.0354  -2.0225   0.0000   0.0000   0.0000   0.1791
  -6.900  -0.5359   0.05975   0.05601  -0.0350  1.0000  0.0356  -2.0307   0.0000   0.0000   0.0000   0.1819
  -6.800  -0.5400   0.05879   0.05503  -0.0338  1.0000  0.0358  -2.0376   0.0000   0.0000   0.0000   0.1846
  -6.700  -0.5438   0.05783   0.05404  -0.0326  1.0000  0.0360  -2.0433   0.0000   0.0000   0.0000   0.1872
  -6.600  -0.5472   0.05685   0.05303  -0.0315  1.0000  0.0362  -2.0478   0.0000   0.0000   0.0000   0.1898
  -6.500  -0.5502   0.05587   0.05202  -0.0303  1.0000  0.0365  -2.0513   0.0000   0.0000   0.0000   0.1922
  -6.400  -0.5529   0.05488   0.05099  -0.0292  1.0000  0.0368  -2.0538   0.0000   0.0000   0.0000   0.1946
  -6.300  -0.5553   0.05387   0.04995  -0.0280  1.0000  0.0371  -2.0554   0.0000   0.0000   0.0000   0.1969
  -6.200  -0.5572   0.05285   0.04888  -0.0269  1.0000  0.0375  -2.0560   0.0000   0.0000   0.0000   0.1991
  -6.100  -0.5586   0.05180   0.04778  -0.0259  1.0000  0.0379  -2.0556   0.0000   0.0000   0.0000   0.2012
  -6.000  -0.5596   0.05073   0.04666  -0.0248  1.0000  0.0383  -2.0545   0.0000   0.0000   0.0000   0.2032
  -5.900  -0.5594   0.04956   0.04543  -0.0240  0.9999  0.0388  -2.0518   0.0000   0.0000   0.0000   0.2048
  -5.500  -0.5250   0.04063   0.03564  -0.0261  0.9932  0.0435  -2.0341   0.0000   0.0000   0.0000   0.1979
  -5.000  -0.4682   0.02924   0.02277  -0.0258  0.9826  0.0283  -2.4035   0.0000   0.0000   0.0000   0.1921
  -4.900  -0.4539   0.02862   0.02200  -0.0259  0.9804  0.0273  -2.3868   0.0000   0.0000   0.0000   0.1902
  -4.800  -0.4435   0.02594   0.01901  -0.0259  0.9783  0.0279  -2.4713   0.0000   0.0000   0.0000   0.1889
  -4.700  -0.4334   0.02370   0.01662  -0.0263  0.9763  0.0309  -2.4716   0.0000   0.0000   0.0000   0.1867
  -4.600  -0.4206   0.02317   0.01610  -0.0271  0.9740  0.0341  -2.3438   0.0000   0.0000   0.0000   0.1828
  -4.500  -0.4068   0.02269   0.01560  -0.0279  0.9719  0.0365  -2.2223   0.0000   0.0000   0.0000   0.1787
  -4.400  -0.3925   0.02211   0.01495  -0.0287  0.9699  0.0378  -2.1118   0.0000   0.0000   0.0000   0.1743
  -4.300  -0.3779   0.02160   0.01438  -0.0295  0.9679  0.0394  -1.9933   0.0000   0.0000   0.0000   0.1693
  -4.200  -0.3627   0.02153   0.01431  -0.0306  0.9659  0.0437  -1.8398   0.0000   0.0000   0.0000   0.1630
  -4.100  -0.3470   0.02148   0.01422  -0.0316  0.9641  0.0470  -1.7470   0.0000   0.0000   0.0000   0.1562
  -4.000  -0.3317   0.02086   0.01352  -0.0325  0.9625  0.0473  -1.7164   0.0000   0.0000   0.0000   0.1495
  -3.900  -0.3167   0.02003   0.01261  -0.0332  0.9610  0.0465  -1.7020   0.0000   0.0000   0.0000   0.1424
  -3.800  -0.3014   0.01931   0.01181  -0.0340  0.9596  0.0459  -1.6849   0.0000   0.0000   0.0000   0.1345
  -3.700  -0.2862   0.01866   0.01111  -0.0348  0.9583  0.0453  -1.6661   0.0000   0.0000   0.0000   0.1257
  -3.600  -0.2710   0.01809   0.01048  -0.0356  0.9570  0.0449  -1.6460   0.0000   0.0000   0.0000   0.1159
  -3.500  -0.2557   0.01757   0.00991  -0.0364  0.9557  0.0446  -1.6248   0.0000   0.0000   0.0000   0.1048
  -3.400  -0.2404   0.01710   0.00941  -0.0372  0.9544  0.0444  -1.6025   0.0000   0.0000   0.0000   0.0921
  -3.300  -0.2251   0.01669   0.00896  -0.0381  0.9531  0.0443  -1.5795   0.0000   0.0000   0.0000   0.0777
  -3.200  -0.2099   0.01632   0.00857  -0.0390  0.9516  0.0444  -1.5559   0.0000   0.0000   0.0000   0.0612
  -3.100  -0.1962   0.01603   0.00825  -0.0396  0.9498  0.0447  -1.5334   0.0000   0.0000   0.0000   0.0450
  -3.000  -0.1886   0.01567   0.00787  -0.0389  0.9476  0.0451  -1.5169   0.0000   0.0000   0.0000   0.0405
  -2.900  -0.1806   0.01535   0.00752  -0.0383  0.9450  0.0456  -1.4999   0.0000   0.0000   0.0000   0.0347
  -2.800  -0.1718   0.01505   0.00720  -0.0379  0.9422  0.0462  -1.4821   0.0000   0.0000   0.0000   0.0262
  -2.700  -0.1623   0.01477   0.00689  -0.0377  0.9393  0.0472  -1.4636   0.0000   0.0000   0.0000   0.0148
  -2.600  -0.1518   0.01452   0.00660  -0.0376  0.9365  0.0484  -1.4441   0.0000   0.0000   0.0000  -0.0010
  -2.500  -0.1405   0.01430   0.00633  -0.0377  0.9339  0.0498  -1.4224   0.0000   0.0000   0.0000  -0.0220
  -2.400  -0.1286   0.01400   0.00598  -0.0380  0.9314  0.0529  -1.4129   0.0000   0.0000   0.0000  -0.0487
  -2.300  -0.1165   0.01355   0.00552  -0.0382  0.9290  0.0673  -1.4255   0.0000   0.0000   0.0000  -0.0819
  -2.200  -0.1113   0.01157   0.00505  -0.0386  0.9266  0.4145  -1.4408   0.0000   0.0000   0.0000  -0.1008
  -2.100  -0.1080   0.01078   0.00539  -0.0367  0.9240  0.6807  -1.4286   0.0000   0.0000   0.0000  -0.0934
  -2.000  -0.0994   0.01085   0.00566  -0.0355  0.9216  0.7455  -1.3853   0.0000   0.0000   0.0000  -0.1108
  -1.900  -0.0913   0.01099   0.00595  -0.0340  0.9193  0.7783  -1.3373   0.0000   0.0000   0.0000  -0.1261
  -1.800  -0.0797   0.01117   0.00611  -0.0336  0.9174  0.7986  -1.2793   0.0000   0.0000   0.0000  -0.1760
  -1.700  -0.0703   0.01126   0.00627  -0.0325  0.9154  0.8142  -1.2255   0.0000   0.0000   0.0000  -0.2171
  -1.600  -0.0596   0.01141   0.00642  -0.0319  0.9135  0.8253  -1.1681   0.0000   0.0000   0.0000  -0.2898
  -1.500  -0.0470   0.01150   0.00649  -0.0319  0.9118  0.8334  -1.1068   0.0000   0.0000   0.0000  -0.4342
  -1.400  -0.0353   0.01165   0.00663  -0.0316  0.9101  0.8437  -1.0473   0.0000   0.0000   0.0000  -0.6525
  -1.300  -0.0244   0.01177   0.00674  -0.0311  0.9082  0.8540  -0.9902   0.0000   0.0000   0.0000  -1.0355
  -1.200  -0.0146   0.01190   0.00689  -0.0301  0.9062  0.8635  -0.9359   0.0000   0.0000   0.0000  -1.8198
  -1.100  -0.0032   0.01208   0.00706  -0.0296  0.9042  0.8705  -0.8783   0.0000   0.0000   0.0000  -9.1061
  -1.000   0.0096   0.01221   0.00718  -0.0298  0.9019  0.8751  -0.8193   0.0000   0.0000   0.0000   3.3865
  -0.900   0.0198   0.01228   0.00723  -0.0297  0.8992  0.8787  -0.7678   0.0000   0.0000   0.0000   1.7567
  -0.800   0.0276   0.01225   0.00719  -0.0290  0.8967  0.8828  -0.7227   0.0000   0.0000   0.0000   1.3060
  -0.700   0.0352   0.01223   0.00715  -0.0284  0.8936  0.8869  -0.6788   0.0000   0.0000   0.0000   1.0591
  -0.600   0.0435   0.01221   0.00712  -0.0279  0.8902  0.8908  -0.6338   0.0000   0.0000   0.0000   0.8935
  -0.500   0.0526   0.01219   0.00709  -0.0275  0.8870  0.8942  -0.5874   0.0000   0.0000   0.0000   0.7758
  -0.400   0.0625   0.01218   0.00706  -0.0274  0.8839  0.8970  -0.5398   0.0000   0.0000   0.0000   0.6899
  -0.300   0.0730   0.01218   0.00705  -0.0274  0.8811  0.8993  -0.4915   0.0000   0.0000   0.0000   0.6264
  -0.200   0.0847   0.01208   0.00694  -0.0277  0.8787  0.9029  -0.4412   0.0000   0.0000   0.0000   0.5772
  -0.100   0.0973   0.01201   0.00687  -0.0281  0.8764  0.9062  -0.3896   0.0000   0.0000   0.0000   0.5385
   0.000   0.1103   0.01197   0.00683  -0.0285  0.8743  0.9090  -0.3380   0.0000   0.0000   0.0000   0.5083
   0.100   0.1237   0.01194   0.00680  -0.0290  0.8722  0.9117  -0.3269   0.0000   0.0000   0.0000   0.4842
   0.200   0.1376   0.01192   0.00678  -0.0296  0.8703  0.9143  -0.3332   0.0000   0.0000   0.0000   0.4648
   0.300   0.1520   0.01190   0.00676  -0.0303  0.8685  0.9168  -0.3397   0.0000   0.0000   0.0000   0.4490
   0.400   0.1666   0.01189   0.00675  -0.0311  0.8668  0.9195  -0.3464   0.0000   0.0000   0.0000   0.4359
   0.500   0.1815   0.01187   0.00674  -0.0319  0.8651  0.9223  -0.3531   0.0000   0.0000   0.0000   0.4250
   0.600   0.1964   0.01186   0.00672  -0.0327  0.8634  0.9252  -0.3599   0.0000   0.0000   0.0000   0.4157
   0.700   0.2113   0.01185   0.00671  -0.0335  0.8617  0.9281  -0.4135   0.0000   0.0000   0.0000   0.4077
   0.800   0.2260   0.01183   0.00669  -0.0342  0.8599  0.9311  -0.4741   0.0000   0.0000   0.0000   0.4007
   0.900   0.2404   0.01182   0.00668  -0.0349  0.8579  0.9341  -0.5350   0.0000   0.0000   0.0000   0.3944
   1.000   0.2541   0.01183   0.00668  -0.0355  0.8556  0.9370  -0.5956   0.0000   0.0000   0.0000   0.3887
   1.100   0.2673   0.01189   0.00675  -0.0360  0.8526  0.9398  -0.6557   0.0000   0.0000   0.0000   0.3836
   1.200   0.2785   0.01200   0.00686  -0.0362  0.8495  0.9428  -0.7116   0.0000   0.0000   0.0000   0.3788
   1.300   0.2881   0.01201   0.00688  -0.0360  0.8473  0.9459  -0.7641   0.0000   0.0000   0.0000   0.3739
   1.400   0.2974   0.01205   0.00694  -0.0358  0.8449  0.9486  -0.8164   0.0000   0.0000   0.0000   0.3693
   1.500   0.3088   0.01203   0.00694  -0.0361  0.8424  0.9517  -0.8750   0.0000   0.0000   0.0000   0.3658
   1.600   0.3241   0.01196   0.00690  -0.0373  0.8401  0.9549  -0.9450   0.0000   0.0000   0.0000   0.3637
   1.700   0.3402   0.01191   0.00687  -0.0385  0.8376  0.9574  -1.0184   0.0000   0.0000   0.0000   0.3618
   1.800   0.3566   0.01186   0.00685  -0.0397  0.8350  0.9596  -1.0942   0.0000   0.0000   0.0000   0.3601
   1.900   0.3733   0.01180   0.00682  -0.0410  0.8322  0.9616  -1.1719   0.0000   0.0000   0.0000   0.3585
   2.000   0.3900   0.01168   0.00672  -0.0421  0.8285  0.9635  -1.2516   0.0000   0.0000   0.0000   0.3566
   2.100   0.4070   0.01135   0.00641  -0.0429  0.8222  0.9652  -1.3348   0.0000   0.0000   0.0000   0.3538
   2.200   0.4234   0.01090   0.00594  -0.0431  0.8136  0.9671  -1.4186   0.0000   0.0000   0.0000   0.3503
   2.300   0.4388   0.01061   0.00559  -0.0432  0.8021  0.9690  -1.5001   0.0000   0.0000   0.0000   0.3469
   2.400   0.4526   0.01040   0.00541  -0.0435  0.7934  0.9717  -1.5753   0.0000   0.0000   0.0000   0.3445
   2.500   0.4665   0.01020   0.00523  -0.0439  0.7835  0.9745  -1.6507   0.0000   0.0000   0.0000   0.3423
   2.600   0.4794   0.00985   0.00482  -0.0435  0.7659  0.9773  -1.7256   0.0000   0.0000   0.0000   0.3390
   2.700   0.4917   0.00960   0.00448  -0.0431  0.7424  0.9802  -1.7974   0.0000   0.0000   0.0000   0.3359
   2.800   0.5028   0.00940   0.00410  -0.0425  0.7057  0.9833  -1.8641   0.0000   0.0000   0.0000   0.3326
   2.900   0.5126   0.00939   0.00382  -0.0417  0.6471  0.9867  -1.9223   0.0000   0.0000   0.0000   0.3295
   3.000   0.5194   0.00973   0.00362  -0.0407  0.5254  0.9904  -1.9630   0.0000   0.0000   0.0000   0.3263
   3.100   0.5158   0.01145   0.00394  -0.0389  0.2483  0.9953  -1.9681   0.0000   0.0000   0.0000   0.3232
   3.200   0.5179   0.01307   0.00457  -0.0382  0.0611  0.9988  -1.9441   0.0000   0.0000   0.0000   0.3216
   3.300   0.5245   0.01354   0.00506  -0.0374  0.0481  1.0000  -1.9113   0.0000   0.0000   0.0000   0.3191
   3.400   0.5271   0.01367   0.00524  -0.0360  0.0464  1.0000  -1.9231   0.0000   0.0000   0.0000   0.3160
   3.500   0.5295   0.01382   0.00543  -0.0346  0.0449  1.0000  -1.9335   0.0000   0.0000   0.0000   0.3129
   3.600   0.5317   0.01400   0.00564  -0.0331  0.0437  1.0000  -1.9442   0.0000   0.0000   0.0000   0.3097
   3.700   0.5339   0.01418   0.00585  -0.0315  0.0426  1.0000  -1.9558   0.0000   0.0000   0.0000   0.3066
   3.800   0.5366   0.01439   0.00609  -0.0301  0.0418  1.0000  -1.9688   0.0000   0.0000   0.0000   0.3035
   3.900   0.5397   0.01462   0.00635  -0.0287  0.0410  1.0000  -1.9830   0.0000   0.0000   0.0000   0.3005
   4.000   0.5438   0.01487   0.00662  -0.0275  0.0404  1.0000  -1.9987   0.0000   0.0000   0.0000   0.2978
   4.100   0.5489   0.01517   0.00694  -0.0264  0.0398  1.0000  -2.0162   0.0000   0.0000   0.0000   0.2954
   4.200   0.5549   0.01549   0.00729  -0.0256  0.0394  1.0000  -2.0352   0.0000   0.0000   0.0000   0.2932
   4.300   0.5617   0.01585   0.00766  -0.0248  0.0390  1.0000  -2.0554   0.0000   0.0000   0.0000   0.2913
   4.400   0.5692   0.01623   0.00807  -0.0242  0.0388  1.0000  -2.0762   0.0000   0.0000   0.0000   0.2896
   4.500   0.5772   0.01665   0.00850  -0.0237  0.0386  1.0000  -2.0975   0.0000   0.0000   0.0000   0.2880
   4.600   0.5857   0.01709   0.00897  -0.0232  0.0386  1.0000  -2.1191   0.0000   0.0000   0.0000   0.2865
   4.700   0.5947   0.01757   0.00947  -0.0228  0.0386  1.0000  -2.1408   0.0000   0.0000   0.0000   0.2852
   4.800   0.6042   0.01809   0.01002  -0.0225  0.0387  1.0000  -2.1624   0.0000   0.0000   0.0000   0.2840
   4.900   0.6140   0.01864   0.01061  -0.0222  0.0389  1.0000  -2.1836   0.0000   0.0000   0.0000   0.2829
   5.000   0.6242   0.01923   0.01124  -0.0220  0.0392  1.0000  -2.2040   0.0000   0.0000   0.0000   0.2818
   5.100   0.6347   0.01986   0.01192  -0.0218  0.0395  1.0000  -2.2235   0.0000   0.0000   0.0000   0.2809
   5.200   0.6453   0.02054   0.01266  -0.0216  0.0399  1.0000  -2.2419   0.0000   0.0000   0.0000   0.2800
   5.300   0.6561   0.02127   0.01345  -0.0214  0.0405  1.0000  -2.2592   0.0000   0.0000   0.0000   0.2791
   5.400   0.6668   0.02205   0.01430  -0.0213  0.0410  1.0000  -2.2752   0.0000   0.0000   0.0000   0.2782
   5.500   0.6774   0.02289   0.01521  -0.0211  0.0417  1.0000  -2.2900   0.0000   0.0000   0.0000   0.2774
   5.600   0.6878   0.02379   0.01619  -0.0208  0.0424  1.0000  -2.3030   0.0000   0.0000   0.0000   0.2765
   5.700   0.6979   0.02476   0.01725  -0.0206  0.0432  1.0000  -2.3140   0.0000   0.0000   0.0000   0.2756
   5.800   0.7076   0.02580   0.01839  -0.0202  0.0440  1.0000  -2.3237   0.0000   0.0000   0.0000   0.2747
   5.900   0.7170   0.02652   0.01918  -0.0199  0.0436  1.0000  -2.3526   0.0000   0.0000   0.0000   0.2739
   6.000   0.7263   0.02686   0.01957  -0.0197  0.0418  1.0000  -2.4050   0.0000   0.0000   0.0000   0.2731
   6.100   0.7353   0.02704   0.01977  -0.0195  0.0390  1.0000  -2.4972   0.0000   0.0000   0.0000   0.2724
   6.200   0.7439   0.02722   0.01995  -0.0194  0.0361  1.0000  -2.6302   0.0000   0.0000   0.0000   0.2719
   6.300   0.7526   0.02778   0.02056  -0.0191  0.0349  1.0000  -2.7392   0.0000   0.0000   0.0000   0.2711
   7.600   0.7817   0.05377   0.04930  -0.0012  0.0411  1.0000  -2.4410   0.0000   0.0000   0.0000   0.2468
   7.700   0.7805   0.05509   0.05070  -0.0000  0.0405  1.0000  -2.4403   0.0000   0.0000   0.0000   0.2453
   7.800   0.7787   0.05637   0.05207   0.0011  0.0399  1.0000  -2.4389   0.0000   0.0000   0.0000   0.2438
   7.900   0.7763   0.05762   0.05339   0.0023  0.0394  1.0000  -2.4365   0.0000   0.0000   0.0000   0.2422
   8.000   0.7733   0.05883   0.05467   0.0034  0.0390  1.0000  -2.4330   0.0000   0.0000   0.0000   0.2407
   8.100   0.7698   0.06001   0.05591   0.0046  0.0386  1.0000  -2.4281   0.0000   0.0000   0.0000   0.2391
   8.200   0.7657   0.06116   0.05712   0.0057  0.0383  1.0000  -2.4220   0.0000   0.0000   0.0000   0.2375
   8.300   0.7611   0.06229   0.05830   0.0069  0.0380  1.0000  -2.4143   0.0000   0.0000   0.0000   0.2359
   8.400   0.7555   0.06332   0.05938   0.0082  0.0378  1.0000  -2.4046   0.0000   0.0000   0.0000   0.2340
   8.500   0.7483   0.06418   0.06027   0.0098  0.0377  1.0000  -2.3926   0.0000   0.0000   0.0000   0.2317
   8.600   0.7407   0.06504   0.06116   0.0113  0.0376  1.0000  -2.3791   0.0000   0.0000   0.0000   0.2294
   8.700   0.7329   0.06594   0.06208   0.0127  0.0375  1.0000  -2.3641   0.0000   0.0000   0.0000   0.2273
   8.800   0.7250   0.06690   0.06307   0.0139  0.0375  1.0000  -2.3477   0.0000   0.0000   0.0000   0.2255
   8.900   0.7172   0.06792   0.06412   0.0148  0.0375  1.0000  -2.3298   0.0000   0.0000   0.0000   0.2239
   9.000   0.7094   0.06900   0.06523   0.0155  0.0376  1.0000  -2.3105   0.0000   0.0000   0.0000   0.2225
   9.100   0.7016   0.07015   0.06640   0.0160  0.0376  1.0000  -2.2896   0.0000   0.0000   0.0000   0.2215
   9.200   0.6939   0.07137   0.06764   0.0163  0.0377  1.0000  -2.2672   0.0000   0.0000   0.0000   0.2208
   9.300   0.6865   0.07268   0.06898   0.0163  0.0377  1.0000  -2.2434   0.0000   0.0000   0.0000   0.2203
   9.400   0.6793   0.07410   0.07041   0.0162  0.0378  1.0000  -2.2181   0.0000   0.0000   0.0000   0.2202
   9.500   0.6724   0.07560   0.07193   0.0158  0.0379  1.0000  -2.1913   0.0000   0.0000   0.0000   0.2204
   9.600   0.6658   0.07719   0.07353   0.0152  0.0379  1.0000  -2.1633   0.0000   0.0000   0.0000   0.2210
   9.700   0.6596   0.07886   0.07521   0.0145  0.0380  1.0000  -2.1342   0.0000   0.0000   0.0000   0.2218
   9.800   0.6538   0.08065   0.07701   0.0135  0.0381  1.0000  -2.1039   0.0000   0.0000   0.0000   0.2230
   9.900   0.6487   0.08254   0.07891   0.0123  0.0381  1.0000  -2.0727   0.0000   0.0000   0.0000   0.2245
  10.000   0.6442   0.08455   0.08093   0.0110  0.0381  1.0000  -2.0402   0.0000   0.0000   0.0000   0.2264
  10.100   0.6403   0.08666   0.08303   0.0095  0.0381  1.0000  -2.0076   0.0000   0.0000   0.0000   0.2285
  10.200   0.6370   0.08873   0.08508   0.0082  0.0380  1.0000  -1.9782   0.0000   0.0000   0.0000   0.2305
  10.300   0.6341   0.09074   0.08709   0.0070  0.0378  1.0000  -1.9514   0.0000   0.0000   0.0000   0.2322
  10.400   0.6315   0.09273   0.08906   0.0059  0.0376  1.0000  -1.9264   0.0000   0.0000   0.0000   0.2339
  10.500   0.6291   0.09469   0.09101   0.0048  0.0375  1.0000  -1.9027   0.0000   0.0000   0.0000   0.2354
  10.600   0.6269   0.09664   0.09295   0.0038  0.0373  1.0000  -1.8802   0.0000   0.0000   0.0000   0.2369
  10.700   0.6249   0.09857   0.09487   0.0028  0.0370  1.0000  -1.8586   0.0000   0.0000   0.0000   0.2384
  10.800   0.6231   0.10050   0.09679   0.0019  0.0368  1.0000  -1.8378   0.0000   0.0000   0.0000   0.2399
  10.900   0.6215   0.10244   0.09871   0.0009  0.0366  1.0000  -1.8178   0.0000   0.0000   0.0000   0.2413
  11.000   0.6199   0.10436   0.10062   0.0000  0.0363  1.0000  -1.7984   0.0000   0.0000   0.0000   0.2427
  11.100   0.6186   0.10629   0.10254  -0.0009  0.0361  1.0000  -1.7798   0.0000   0.0000   0.0000   0.2441
  11.200   0.6174   0.10822   0.10446  -0.0018  0.0358  1.0000  -1.7621   0.0000   0.0000   0.0000   0.2455
  11.300   0.6164   0.11015   0.10637  -0.0027  0.0355  1.0000  -1.7452   0.0000   0.0000   0.0000   0.2468
  11.400   0.6155   0.11207   0.10828  -0.0035  0.0352  1.0000  -1.7293   0.0000   0.0000   0.0000   0.2482
  11.500   0.6148   0.11398   0.11018  -0.0044  0.0350  1.0000  -1.7143   0.0000   0.0000   0.0000   0.2495
  11.600   0.6143   0.11588   0.11207  -0.0052  0.0346  1.0000  -1.7005   0.0000   0.0000   0.0000   0.2508
  11.700   0.6140   0.11777   0.11394  -0.0061  0.0343  1.0000  -1.6878   0.0000   0.0000   0.0000   0.2521
  11.800   0.6138   0.11964   0.11580  -0.0069  0.0340  1.0000  -1.6764   0.0000   0.0000   0.0000   0.2533
  11.900   0.6138   0.12149   0.11765  -0.0077  0.0337  1.0000  -1.6663   0.0000   0.0000   0.0000   0.2546
  12.000   0.6140   0.12332   0.11947  -0.0085  0.0333  1.0000  -1.6576   0.0000   0.0000   0.0000   0.2558
  12.100   0.6144   0.12513   0.12126  -0.0092  0.0330  1.0000  -1.6503   0.0000   0.0000   0.0000   0.2569
  12.200   0.6150   0.12690   0.12303  -0.0100  0.0326  1.0000  -1.6445   0.0000   0.0000   0.0000   0.2581
  12.300   0.6157   0.12866   0.12478  -0.0107  0.0323  1.0000  -1.6403   0.0000   0.0000   0.0000   0.2592
  12.400   0.6166   0.13040   0.12651  -0.0115  0.0319  1.0000  -1.6376   0.0000   0.0000   0.0000   0.2603
  12.500   0.6177   0.13211   0.12821  -0.0122  0.0315  1.0000  -1.6366   0.0000   0.0000   0.0000   0.2613
  12.600   0.6190   0.13380   0.12990  -0.0129  0.0311  1.0000  -1.6372   0.0000   0.0000   0.0000   0.2623
  12.700   0.6204   0.13547   0.13156  -0.0136  0.0308  1.0000  -1.6396   0.0000   0.0000   0.0000   0.2633
  12.800   0.6221   0.13713   0.13321  -0.0142  0.0304  1.0000  -1.6439   0.0000   0.0000   0.0000   0.2642
  12.900   0.6239   0.13876   0.13484  -0.0148  0.0300  1.0000  -1.6503   0.0000   0.0000   0.0000   0.2650
  13.000   0.6260   0.14038   0.13645  -0.0155  0.0297  1.0000  -1.6588   0.0000   0.0000   0.0000   0.2658
  13.100   0.6282   0.14198   0.13805  -0.0160  0.0293  1.0000  -1.6696   0.0000   0.0000   0.0000   0.2666
  13.200   0.6307   0.14357   0.13964  -0.0166  0.0289  1.0000  -1.6831   0.0000   0.0000   0.0000   0.2673
  13.300   0.6319   0.14558   0.14165  -0.0173  0.0287  1.0000  -1.6783   0.0000   0.0000   0.0000   0.2683
  13.400   0.6352   0.14712   0.14319  -0.0177  0.0282  1.0000  -1.7048   0.0000   0.0000   0.0000   0.2687
  13.500   0.6388   0.14863   0.14470  -0.0181  0.0278  1.0000  -1.7341   0.0000   0.0000   0.0000   0.2690
  13.600   0.6422   0.15019   0.14626  -0.0185  0.0274  1.0000  -1.7607   0.0000   0.0000   0.0000   0.2694
  13.700   0.6457   0.15184   0.14791  -0.0189  0.0270  1.0000  -1.7882   0.0000   0.0000   0.0000   0.2698
  13.800   0.6491   0.15362   0.14969  -0.0194  0.0266  1.0000  -1.8117   0.0000   0.0000   0.0000   0.2702
  13.900   0.6510   0.15557   0.15164  -0.0200  0.0262  1.0000  -1.8161   0.0000   0.0000   0.0000   0.2710
  14.000   0.6526   0.15772   0.15378  -0.0207  0.0259  1.0000  -1.8140   0.0000   0.0000   0.0000   0.2720
  14.100   0.6538   0.16020   0.15626  -0.0216  0.0255  1.0000  -1.8003   0.0000   0.0000   0.0000   0.2731
  14.200   0.6539   0.16324   0.15930  -0.0226  0.0251  1.0000  -1.7647   0.0000   0.0000   0.0000   0.2746
  14.300   0.6519   0.16760   0.16365  -0.0240  0.0246  1.0000  -1.6785   0.0000   0.0000   0.0000   0.2768
  14.500   0.6519   0.17362   0.16960  -0.0263  0.0242  1.0000  -1.5761   0.0000   0.0000   0.0000   0.2802
  14.600   0.6540   0.17527   0.17124  -0.0271  0.0242  1.0000  -1.5705   0.0000   0.0000   0.0000   0.2812
  14.700   0.6561   0.17691   0.17288  -0.0278  0.0241  1.0000  -1.5650   0.0000   0.0000   0.0000   0.2821
  14.800   0.6583   0.17853   0.17450  -0.0286  0.0241  1.0000  -1.5597   0.0000   0.0000   0.0000   0.2830
  14.900   0.6605   0.18015   0.17612  -0.0293  0.0241  1.0000  -1.5545   0.0000   0.0000   0.0000   0.2839
  15.000   0.6627   0.18176   0.17773  -0.0301  0.0241  1.0000  -1.5495   0.0000   0.0000   0.0000   0.2848
  15.100   0.6649   0.18336   0.17932  -0.0308  0.0241  1.0000  -1.5446   0.0000   0.0000   0.0000   0.2857
  15.200   0.6671   0.18495   0.18091  -0.0316  0.0241  1.0000  -1.5400   0.0000   0.0000   0.0000   0.2866
  15.300   0.6693   0.18653   0.18249  -0.0323  0.0241  1.0000  -1.5355   0.0000   0.0000   0.0000   0.2874
  15.400   0.6716   0.18810   0.18405  -0.0331  0.0240  1.0000  -1.5312   0.0000   0.0000   0.0000   0.2883
  15.500   0.6739   0.18965   0.18560  -0.0338  0.0240  1.0000  -1.5270   0.0000   0.0000   0.0000   0.2891
  15.600   0.6761   0.19118   0.18713  -0.0345  0.0240  1.0000  -1.5230   0.0000   0.0000   0.0000   0.2899
  15.700   0.6784   0.19270   0.18864  -0.0353  0.0240  1.0000  -1.5193   0.0000   0.0000   0.0000   0.2907
  15.800   0.6807   0.19420   0.19014  -0.0360  0.0239  1.0000  -1.5157   0.0000   0.0000   0.0000   0.2915
  15.900   0.6830   0.19568   0.19161  -0.0367  0.0239  1.0000  -1.5123   0.0000   0.0000   0.0000   0.2923
  16.000   0.6853   0.19713   0.19307  -0.0374  0.0239  1.0000  -1.5092   0.0000   0.0000   0.0000   0.2931
  16.100   0.6876   0.19856   0.19449  -0.0382  0.0238  1.0000  -1.5063   0.0000   0.0000   0.0000   0.2938
  16.200   0.6899   0.19996   0.19588  -0.0389  0.0238  1.0000  -1.5037   0.0000   0.0000   0.0000   0.2945
  16.300   0.6922   0.20132   0.19724  -0.0396  0.0237  1.0000  -1.5013   0.0000   0.0000   0.0000   0.2953
  16.400   0.6946   0.20264   0.19856  -0.0403  0.0237  1.0000  -1.4993   0.0000   0.0000   0.0000   0.2960
  16.500   0.6969   0.20392   0.19984  -0.0410  0.0236  1.0000  -1.4976   0.0000   0.0000   0.0000   0.2967
  16.600   0.6992   0.20514   0.20106  -0.0417  0.0235  1.0000  -1.4962   0.0000   0.0000   0.0000   0.2974
  16.700   0.7016   0.20631   0.20222  -0.0424  0.0234  1.0000  -1.4952   0.0000   0.0000   0.0000   0.2981
  16.800   0.7039   0.20741   0.20332  -0.0431  0.0233  1.0000  -1.4945   0.0000   0.0000   0.0000   0.2987
  16.900   0.7062   0.20845   0.20436  -0.0437  0.0231  1.0000  -1.4938   0.0000   0.0000   0.0000   0.2994
  17.000   0.7083   0.20941   0.20531  -0.0444  0.0230  1.0000  -1.4921   0.0000   0.0000   0.0000   0.3000
  17.100   0.7097   0.21024   0.20614  -0.0452  0.0228  1.0000  -1.4845   0.0000   0.0000   0.0000   0.3009
  17.200   0.7112   0.21107   0.20697  -0.0460  0.0226  1.0000  -1.4766   0.0000   0.0000   0.0000   0.3017
  17.300   0.7128   0.21194   0.20783  -0.0467  0.0224  1.0000  -1.4687   0.0000   0.0000   0.0000   0.3025
  17.400   0.7146   0.21286   0.20874  -0.0475  0.0222  1.0000  -1.4611   0.0000   0.0000   0.0000   0.3033
  17.500   0.7161   0.21348   0.20936  -0.0483  0.0218  1.0000  -1.4503   0.0000   0.0000   0.0000   0.3041
  17.600   0.7179   0.21423   0.21011  -0.0490  0.0213  1.0000  -1.4398   0.0000   0.0000   0.0000   0.3049
  17.700   0.7201   0.21519   0.21106  -0.0498  0.0207  1.0000  -1.4312   0.0000   0.0000   0.0000   0.3056
  17.800   0.7224   0.21630   0.21217  -0.0505  0.0202  1.0000  -1.4249   0.0000   0.0000   0.0000   0.3062
  17.900   0.7248   0.21751   0.21338  -0.0512  0.0197  1.0000  -1.4209   0.0000   0.0000   0.0000   0.3069
  18.000   0.7273   0.21877   0.21464  -0.0519  0.0191  1.0000  -1.4188   0.0000   0.0000   0.0000   0.3074
  18.100   0.7299   0.22007   0.21594  -0.0526  0.0186  1.0000  -1.4186   0.0000   0.0000   0.0000   0.3080
  18.200   0.7324   0.22138   0.21725  -0.0532  0.0182  1.0000  -1.4199   0.0000   0.0000   0.0000   0.3085
  18.300   0.7350   0.22270   0.21856  -0.0539  0.0177  1.0000  -1.4226   0.0000   0.0000   0.0000   0.3091
  18.400   0.7376   0.22402   0.21988  -0.0545  0.0172  1.0000  -1.4268   0.0000   0.0000   0.0000   0.3096
  18.500   0.7402   0.22533   0.22120  -0.0552  0.0168  1.0000  -1.4324   0.0000   0.0000   0.0000   0.3100
  18.600   0.7428   0.22665   0.22251  -0.0558  0.0164  1.0000  -1.4395   0.0000   0.0000   0.0000   0.3105
  18.700   0.7455   0.22794   0.22383  -0.0564  0.0157  1.0000  -1.4558   0.0000   0.0000   0.0000   0.3109
  18.800   0.7482   0.22923   0.22513  -0.0571  0.0153  1.0000  -1.4695   0.0000   0.0000   0.0000   0.3113
  18.900   0.7510   0.23053   0.22642  -0.0577  0.0149  1.0000  -1.4853   0.0000   0.0000   0.0000   0.3117
  19.000   0.7538   0.23182   0.22771  -0.0583  0.0145  1.0000  -1.5039   0.0000   0.0000   0.0000   0.3121
  19.100   0.7567   0.23311   0.22899  -0.0588  0.0142  1.0000  -1.5260   0.0000   0.0000   0.0000   0.3124
  19.200   0.7597   0.23440   0.23028  -0.0594  0.0139  1.0000  -1.5525   0.0000   0.0000   0.0000   0.3126
  19.300   0.7629   0.23573   0.23162  -0.0599  0.0135  1.0000  -1.5847   0.0000   0.0000   0.0000   0.3128
  19.400   0.7664   0.23719   0.23307  -0.0603  0.0132  1.0000  -1.6250   0.0000   0.0000   0.0000   0.3129
  19.500   0.7708   0.23897   0.23486  -0.0607  0.0129  1.0000  -1.6788   0.0000   0.0000   0.0000   0.3127
  19.600   0.7782   0.24251   0.23840  -0.0607  0.0124  1.0000  -1.7733   0.0000   0.0000   0.0000   0.3119
  28.500   0.9662   0.35219   0.34820  -0.1181  0.0044  1.0000  -1.7008   0.0000   0.0000   0.0000   0.3409
  28.600   0.9679   0.35342   0.34944  -0.1188  0.0044  1.0000  -1.6963   0.0000   0.0000   0.0000   0.3411
  28.700   0.9696   0.35465   0.35068  -0.1194  0.0044  1.0000  -1.6919   0.0000   0.0000   0.0000   0.3413
  28.800   0.9713   0.35589   0.35192  -0.1201  0.0044  1.0000  -1.6876   0.0000   0.0000   0.0000   0.3416
  28.900   0.9730   0.35713   0.35316  -0.1207  0.0044  1.0000  -1.6835   0.0000   0.0000   0.0000   0.3418
  29.000   0.9747   0.35836   0.35440  -0.1214  0.0044  1.0000  -1.6796   0.0000   0.0000   0.0000   0.3420
  29.100   0.9764   0.35960   0.35564  -0.1220  0.0044  1.0000  -1.6758   0.0000   0.0000   0.0000   0.3422
  29.200   0.9781   0.36083   0.35688  -0.1226  0.0044  1.0000  -1.6722   0.0000   0.0000   0.0000   0.3425
  29.300   0.9797   0.36207   0.35813  -0.1233  0.0044  1.0000  -1.6687   0.0000   0.0000   0.0000   0.3427
  29.400   0.9814   0.36331   0.35937  -0.1239  0.0044  1.0000  -1.6653   0.0000   0.0000   0.0000   0.3429
  29.500   0.9830   0.36455   0.36061  -0.1246  0.0044  1.0000  -1.6620   0.0000   0.0000   0.0000   0.3431
  29.600   0.9846   0.36578   0.36186  -0.1252  0.0044  1.0000  -1.6589   0.0000   0.0000   0.0000   0.3433
  29.700   0.9863   0.36702   0.36310  -0.1258  0.0044  1.0000  -1.6559   0.0000   0.0000   0.0000   0.3435
  29.800   0.9879   0.36826   0.36434  -0.1265  0.0043  1.0000  -1.6530   0.0000   0.0000   0.0000   0.3438
  29.900   0.9895   0.36950   0.36558  -0.1271  0.0043  1.0000  -1.6502   0.0000   0.0000   0.0000   0.3440
  30.000   0.9910   0.37073   0.36682  -0.1278  0.0043  1.0000  -1.6475   0.0000   0.0000   0.0000   0.3442


