xflr5 v6.61

 Calculated polar for: NACA 65-210

 1 1 Reynolds number fixed          Mach number fixed         

 xtrf =   1.000 (top)        1.000 (bottom)
 Mach =   0.000     Re =     0.450 e 6     Ncrit =   9.000

  alpha     CL        CD       CDp       Cm    Top Xtr Bot Xtr   Cpmin    Chinge    XCp    
 ------- -------- --------- --------- -------- ------- ------- -------- --------- ---------
 -10.000  -0.4351   0.09075   0.08815  -0.0379  1.0000  0.0182  -1.8809   0.0000   0.0000   0.0000   0.1558
  -9.900  -0.4361   0.08917   0.08658  -0.0385  1.0000  0.0183  -1.8977   0.0000   0.0000   0.0000   0.1547
  -9.800  -0.4373   0.08758   0.08500  -0.0391  1.0000  0.0184  -1.9156   0.0000   0.0000   0.0000   0.1536
  -9.700  -0.4386   0.08597   0.08340  -0.0398  1.0000  0.0185  -1.9349   0.0000   0.0000   0.0000   0.1525
  -9.600  -0.4402   0.08434   0.08178  -0.0405  1.0000  0.0185  -1.9557   0.0000   0.0000   0.0000   0.1513
  -9.500  -0.4420   0.08268   0.08012  -0.0412  1.0000  0.0186  -1.9782   0.0000   0.0000   0.0000   0.1501
  -9.400  -0.4441   0.08097   0.07843  -0.0420  1.0000  0.0187  -2.0028   0.0000   0.0000   0.0000   0.1488
  -9.300  -0.4465   0.07920   0.07668  -0.0430  1.0000  0.0188  -2.0300   0.0000   0.0000   0.0000   0.1474
  -9.200  -0.4493   0.07735   0.07483  -0.0440  1.0000  0.0188  -2.0605   0.0000   0.0000   0.0000   0.1459
  -9.100  -0.4527   0.07537   0.07286  -0.0452  1.0000  0.0188  -2.0963   0.0000   0.0000   0.0000   0.1440
  -9.000  -0.4571   0.07315   0.07066  -0.0469  1.0000  0.0188  -2.1418   0.0000   0.0000   0.0000   0.1414
  -8.900  -0.4630   0.07077   0.06828  -0.0489  1.0000  0.0187  -2.1970   0.0000   0.0000   0.0000   0.1385
  -8.800  -0.4697   0.06878   0.06628  -0.0503  1.0000  0.0187  -2.2447   0.0000   0.0000   0.0000   0.1373
  -8.700  -0.4772   0.06707   0.06457  -0.0512  1.0000  0.0186  -2.2873   0.0000   0.0000   0.0000   0.1373
  -8.600  -0.4854   0.06562   0.06310  -0.0515  1.0000  0.0186  -2.3258   0.0000   0.0000   0.0000   0.1385
  -8.500  -0.4945   0.06439   0.06187  -0.0514  1.0000  0.0185  -2.3607   0.0000   0.0000   0.0000   0.1410
  -8.400  -0.5044   0.06340   0.06087  -0.0506  1.0000  0.0185  -2.3922   0.0000   0.0000   0.0000   0.1446
  -8.300  -0.5152   0.06266   0.06012  -0.0493  1.0000  0.0184  -2.4210   0.0000   0.0000   0.0000   0.1495
  -8.200  -0.5272   0.06219   0.05965  -0.0473  1.0000  0.0183  -2.4474   0.0000   0.0000   0.0000   0.1556
  -8.100  -0.5404   0.06196   0.05943  -0.0446  1.0000  0.0183  -2.4720   0.0000   0.0000   0.0000   0.1628
  -8.000  -0.5517   0.06154   0.05900  -0.0423  0.9999  0.0182  -2.4945   0.0000   0.0000   0.0000   0.1688
  -7.900  -0.5515   0.05960   0.05701  -0.0434  0.9987  0.0183  -2.5110   0.0000   0.0000   0.0000   0.1669
  -7.800  -0.5507   0.05777   0.05511  -0.0443  0.9974  0.0185  -2.5242   0.0000   0.0000   0.0000   0.1652
  -7.700  -0.5490   0.05598   0.05326  -0.0451  0.9958  0.0187  -2.5339   0.0000   0.0000   0.0000   0.1636
  -7.600  -0.5464   0.05421   0.05142  -0.0458  0.9939  0.0188  -2.5404   0.0000   0.0000   0.0000   0.1619
  -7.500  -0.5432   0.05248   0.04962  -0.0464  0.9918  0.0191  -2.5438   0.0000   0.0000   0.0000   0.1603
  -7.400  -0.5394   0.05081   0.04787  -0.0470  0.9894  0.0193  -2.5437   0.0000   0.0000   0.0000   0.1587
  -7.300  -0.5349   0.04917   0.04615  -0.0475  0.9868  0.0196  -2.5407   0.0000   0.0000   0.0000   0.1570
  -7.200  -0.5296   0.04757   0.04447  -0.0480  0.9842  0.0199  -2.5346   0.0000   0.0000   0.0000   0.1552
  -7.100  -0.5234   0.04600   0.04282  -0.0485  0.9816  0.0203  -2.5250   0.0000   0.0000   0.0000   0.1532
  -7.000  -0.5163   0.04449   0.04122  -0.0490  0.9791  0.0207  -2.5115   0.0000   0.0000   0.0000   0.1511
  -6.900  -0.5083   0.04306   0.03970  -0.0494  0.9767  0.0212  -2.4932   0.0000   0.0000   0.0000   0.1487
  -6.800  -0.4997   0.04175   0.03830  -0.0498  0.9744  0.0217  -2.4691   0.0000   0.0000   0.0000   0.1462
  -6.700  -0.4901   0.04059   0.03705  -0.0503  0.9723  0.0223  -2.4369   0.0000   0.0000   0.0000   0.1434
  -6.600  -0.4793   0.03965   0.03601  -0.0507  0.9704  0.0231  -2.3923   0.0000   0.0000   0.0000   0.1402
  -6.500  -0.4600   0.04097   0.03733  -0.0511  0.9694  0.0249  -2.2405   0.0000   0.0000   0.0000   0.1350
  -6.300  -0.4653   0.02719   0.02232  -0.0493  0.9624  0.0142  -3.1444   0.0000   0.0000   0.0000   0.1397
  -6.200  -0.4549   0.02502   0.02006  -0.0495  0.9603  0.0118  -3.1935   0.0000   0.0000   0.0000   0.1367
  -6.100  -0.4458   0.02240   0.01714  -0.0494  0.9575  0.0111  -3.3037   0.0000   0.0000   0.0000   0.1346
  -6.000  -0.4347   0.02073   0.01527  -0.0495  0.9544  0.0108  -3.3343   0.0000   0.0000   0.0000   0.1314
  -5.800  -0.4144   0.01870   0.01297  -0.0492  0.9487  0.0109  -3.2706   0.0000   0.0000   0.0000   0.1266
  -5.700  -0.4050   0.01812   0.01232  -0.0489  0.9469  0.0111  -3.1977   0.0000   0.0000   0.0000   0.1248
  -5.600  -0.3954   0.01762   0.01177  -0.0485  0.9448  0.0114  -3.1129   0.0000   0.0000   0.0000   0.1227
  -5.500  -0.3855   0.01720   0.01131  -0.0483  0.9425  0.0119  -3.0137   0.0000   0.0000   0.0000   0.1203
  -5.400  -0.3750   0.01701   0.01108  -0.0481  0.9399  0.0126  -2.8793   0.0000   0.0000   0.0000   0.1172
  -5.300  -0.3645   0.01675   0.01077  -0.0479  0.9373  0.0137  -2.7214   0.0000   0.0000   0.0000   0.1142
  -5.200  -0.3556   0.01757   0.01168  -0.0483  0.9341  0.0229  -2.2475   0.0000   0.0000   0.0000   0.1099
  -5.100  -0.3453   0.01719   0.01127  -0.0482  0.9315  0.0232  -2.2027   0.0000   0.0000   0.0000   0.1062
  -5.000  -0.3351   0.01682   0.01085  -0.0481  0.9287  0.0234  -2.1590   0.0000   0.0000   0.0000   0.1024
  -4.900  -0.3247   0.01672   0.01074  -0.0480  0.9260  0.0240  -2.0920   0.0000   0.0000   0.0000   0.0981
  -4.800  -0.3137   0.01701   0.01105  -0.0480  0.9232  0.0249  -1.9970   0.0000   0.0000   0.0000   0.0927
  -4.700  -0.3026   0.01772   0.01177  -0.0482  0.9202  0.0266  -1.8713   0.0000   0.0000   0.0000   0.0868
  -4.600  -0.2936   0.01634   0.01027  -0.0478  0.9174  0.0274  -1.8849   0.0000   0.0000   0.0000   0.0829
  -4.500  -0.2838   0.01557   0.00944  -0.0476  0.9144  0.0278  -1.8691   0.0000   0.0000   0.0000   0.0781
  -4.400  -0.2734   0.01523   0.00907  -0.0475  0.9111  0.0277  -1.8334   0.0000   0.0000   0.0000   0.0723
  -4.300  -0.2627   0.01503   0.00885  -0.0474  0.9074  0.0274  -1.7917   0.0000   0.0000   0.0000   0.0656
  -4.200  -0.2519   0.01483   0.00863  -0.0473  0.9030  0.0271  -1.7506   0.0000   0.0000   0.0000   0.0580
  -4.100  -0.2414   0.01462   0.00840  -0.0472  0.8997  0.0268  -1.7112   0.0000   0.0000   0.0000   0.0501
  -4.000  -0.2314   0.01436   0.00813  -0.0470  0.8982  0.0266  -1.6743   0.0000   0.0000   0.0000   0.0425
  -3.900  -0.2214   0.01408   0.00784  -0.0468  0.8964  0.0264  -1.6393   0.0000   0.0000   0.0000   0.0343
  -3.800  -0.2115   0.01378   0.00753  -0.0466  0.8944  0.0262  -1.6068   0.0000   0.0000   0.0000   0.0255
  -3.700  -0.2017   0.01345   0.00718  -0.0463  0.8921  0.0261  -1.5770   0.0000   0.0000   0.0000   0.0160
  -3.600  -0.1920   0.01309   0.00680  -0.0460  0.8896  0.0260  -1.5507   0.0000   0.0000   0.0000   0.0059
  -3.500  -0.1826   0.01270   0.00639  -0.0457  0.8869  0.0260  -1.5281   0.0000   0.0000   0.0000  -0.0049
  -3.400  -0.1734   0.01228   0.00594  -0.0454  0.8841  0.0260  -1.5097   0.0000   0.0000   0.0000  -0.0161
  -3.300  -0.1645   0.01184   0.00546  -0.0450  0.8813  0.0261  -1.4955   0.0000   0.0000   0.0000  -0.0280
  -3.200  -0.1557   0.01139   0.00495  -0.0445  0.8784  0.0264  -1.4858   0.0000   0.0000   0.0000  -0.0407
  -3.100  -0.1469   0.01094   0.00444  -0.0441  0.8754  0.0269  -1.4808   0.0000   0.0000   0.0000  -0.0551
  -3.000  -0.1379   0.01051   0.00393  -0.0437  0.8724  0.0280  -1.4820   0.0000   0.0000   0.0000  -0.0720
  -2.900  -0.1285   0.01014   0.00344  -0.0434  0.8694  0.0303  -1.4934   0.0000   0.0000   0.0000  -0.0926
  -2.800  -0.1186   0.00982   0.00302  -0.0430  0.8663  0.0370  -1.5163   0.0000   0.0000   0.0000  -0.1182
  -2.700  -0.1083   0.00965   0.00284  -0.0429  0.8630  0.0436  -1.4924   0.0000   0.0000   0.0000  -0.1513
  -2.600  -0.0978   0.00955   0.00272  -0.0428  0.8593  0.0490  -1.4519   0.0000   0.0000   0.0000  -0.1933
  -2.500  -0.0875   0.00936   0.00261  -0.0428  0.8551  0.0741  -1.4121   0.0000   0.0000   0.0000  -0.2451
  -2.400  -0.0792   0.00865   0.00244  -0.0429  0.8503  0.2146  -1.3707   0.0000   0.0000   0.0000  -0.2990
  -2.300  -0.0717   0.00773   0.00221  -0.0431  0.8490  0.4014  -1.3276   0.0000   0.0000   0.0000  -0.3575
  -2.200  -0.0636   0.00713   0.00217  -0.0429  0.8475  0.5492  -1.2793   0.0000   0.0000   0.0000  -0.4316
  -2.100  -0.0537   0.00697   0.00219  -0.0427  0.8458  0.5985  -1.2249   0.0000   0.0000   0.0000  -0.5539
  -2.000  -0.0438   0.00685   0.00223  -0.0425  0.8439  0.6330  -1.1703   0.0000   0.0000   0.0000  -0.7295
  -1.900  -0.0334   0.00681   0.00224  -0.0424  0.8418  0.6582  -1.1144   0.0000   0.0000   0.0000  -1.0291
  -1.800  -0.0236   0.00676   0.00231  -0.0420  0.8395  0.6825  -1.0601   0.0000   0.0000   0.0000  -1.5472
  -1.700  -0.0129   0.00679   0.00234  -0.0419  0.8372  0.6973  -1.0043   0.0000   0.0000   0.0000  -3.0165
  -1.600  -0.0028   0.00675   0.00237  -0.0416  0.8346  0.7127  -0.9504   0.0000   0.0000   0.0000  -14.4875
  -1.500   0.0071   0.00675   0.00242  -0.0412  0.8320  0.7251  -0.8974   0.0000   0.0000   0.0000   6.1281
  -1.400   0.0174   0.00676   0.00245  -0.0410  0.8293  0.7340  -0.8440   0.0000   0.0000   0.0000   2.6201
  -1.300   0.0281   0.00678   0.00246  -0.0409  0.8265  0.7401  -0.7906   0.0000   0.0000   0.0000   1.7147
  -1.200   0.0389   0.00680   0.00245  -0.0408  0.8236  0.7444  -0.7377   0.0000   0.0000   0.0000   1.3050
  -1.100   0.0497   0.00682   0.00244  -0.0407  0.8207  0.7471  -0.6853   0.0000   0.0000   0.0000   1.0725
  -1.000   0.0606   0.00684   0.00243  -0.0407  0.8177  0.7492  -0.6336   0.0000   0.0000   0.0000   0.9234
  -0.900   0.0712   0.00681   0.00241  -0.0405  0.8146  0.7566  -0.5835   0.0000   0.0000   0.0000   0.8217
  -0.800   0.0814   0.00681   0.00242  -0.0403  0.8113  0.7643  -0.5349   0.0000   0.0000   0.0000   0.7470
  -0.700   0.0915   0.00684   0.00248  -0.0400  0.8076  0.7711  -0.4869   0.0000   0.0000   0.0000   0.6888
  -0.600   0.1018   0.00691   0.00256  -0.0398  0.8034  0.7772  -0.4393   0.0000   0.0000   0.0000   0.6420
  -0.500   0.1124   0.00698   0.00264  -0.0397  0.8001  0.7825  -0.3919   0.0000   0.0000   0.0000   0.6039
  -0.400   0.1231   0.00700   0.00267  -0.0396  0.7990  0.7869  -0.3683   0.0000   0.0000   0.0000   0.5721
  -0.300   0.1340   0.00701   0.00269  -0.0396  0.7977  0.7903  -0.3729   0.0000   0.0000   0.0000   0.5456
  -0.200   0.1451   0.00701   0.00269  -0.0397  0.7963  0.7926  -0.3776   0.0000   0.0000   0.0000   0.5232
  -0.100   0.1563   0.00701   0.00269  -0.0397  0.7947  0.7946  -0.3822   0.0000   0.0000   0.0000   0.5041
   0.000   0.1675   0.00702   0.00270  -0.0398  0.7929  0.7963  -0.3869   0.0000   0.0000   0.0000   0.4875
   0.100   0.1787   0.00703   0.00271  -0.0399  0.7909  0.7978  -0.3917   0.0000   0.0000   0.0000   0.4729
   0.200   0.1899   0.00704   0.00271  -0.0400  0.7889  0.7990  -0.3970   0.0000   0.0000   0.0000   0.4601
   0.300   0.2011   0.00702   0.00270  -0.0401  0.7867  0.8016  -0.4023   0.0000   0.0000   0.0000   0.4488
   0.400   0.2121   0.00697   0.00266  -0.0402  0.7844  0.8060  -0.4076   0.0000   0.0000   0.0000   0.4387
   0.500   0.2229   0.00694   0.00265  -0.0402  0.7819  0.8098  -0.4128   0.0000   0.0000   0.0000   0.4294
   0.600   0.2336   0.00693   0.00264  -0.0401  0.7794  0.8132  -0.4179   0.0000   0.0000   0.0000   0.4208
   0.700   0.2442   0.00692   0.00264  -0.0400  0.7768  0.8163  -0.4231   0.0000   0.0000   0.0000   0.4129
   0.800   0.2548   0.00692   0.00264  -0.0399  0.7741  0.8192  -0.4720   0.0000   0.0000   0.0000   0.4056
   0.900   0.2654   0.00692   0.00264  -0.0398  0.7713  0.8220  -0.5237   0.0000   0.0000   0.0000   0.3989
   1.000   0.2759   0.00692   0.00264  -0.0397  0.7677  0.8248  -0.5761   0.0000   0.0000   0.0000   0.3926
   1.100   0.2864   0.00694   0.00263  -0.0395  0.7630  0.8277  -0.6293   0.0000   0.0000   0.0000   0.3867
   1.200   0.2969   0.00698   0.00265  -0.0393  0.7565  0.8306  -0.6833   0.0000   0.0000   0.0000   0.3813
   1.300   0.3075   0.00703   0.00268  -0.0392  0.7497  0.8335  -0.7384   0.0000   0.0000   0.0000   0.3763
   1.400   0.3179   0.00698   0.00264  -0.0390  0.7463  0.8364  -0.7943   0.0000   0.0000   0.0000   0.3714
   1.500   0.3282   0.00693   0.00259  -0.0388  0.7407  0.8392  -0.8509   0.0000   0.0000   0.0000   0.3668
   1.600   0.3386   0.00689   0.00254  -0.0386  0.7333  0.8418  -0.9084   0.0000   0.0000   0.0000   0.3624
   1.700   0.3489   0.00688   0.00249  -0.0384  0.7245  0.8441  -0.9666   0.0000   0.0000   0.0000   0.3583
   1.800   0.3592   0.00689   0.00245  -0.0381  0.7154  0.8461  -1.0252   0.0000   0.0000   0.0000   0.3544
   1.900   0.3694   0.00695   0.00244  -0.0379  0.7044  0.8477  -1.0844   0.0000   0.0000   0.0000   0.3509
   2.000   0.3801   0.00696   0.00244  -0.0378  0.6972  0.8491  -1.1456   0.0000   0.0000   0.0000   0.3478
   2.100   0.3909   0.00691   0.00241  -0.0378  0.6901  0.8528  -1.2074   0.0000   0.0000   0.0000   0.3449
   2.200   0.4011   0.00688   0.00237  -0.0376  0.6805  0.8575  -1.2686   0.0000   0.0000   0.0000   0.3419
   2.300   0.4108   0.00689   0.00234  -0.0373  0.6687  0.8616  -1.3290   0.0000   0.0000   0.0000   0.3388
   2.400   0.4198   0.00695   0.00233  -0.0368  0.6536  0.8653  -1.3882   0.0000   0.0000   0.0000   0.3356
   2.500   0.4296   0.00695   0.00234  -0.0365  0.6423  0.8686  -1.4498   0.0000   0.0000   0.0000   0.3329
   2.600   0.4390   0.00699   0.00235  -0.0361  0.6256  0.8719  -1.5111   0.0000   0.0000   0.0000   0.3301
   2.700   0.4477   0.00709   0.00235  -0.0356  0.6054  0.8751  -1.5705   0.0000   0.0000   0.0000   0.3273
   2.800   0.4573   0.00714   0.00238  -0.0353  0.5899  0.8783  -1.6325   0.0000   0.0000   0.0000   0.3249
   2.900   0.4656   0.00729   0.00239  -0.0347  0.5573  0.8815  -1.6912   0.0000   0.0000   0.0000   0.3222
   3.000   0.4726   0.00756   0.00243  -0.0340  0.5029  0.8848  -1.7457   0.0000   0.0000   0.0000   0.3195
   3.100   0.4759   0.00820   0.00259  -0.0328  0.3963  0.8884  -1.7881   0.0000   0.0000   0.0000   0.3163
   3.200   0.4794   0.00889   0.00284  -0.0317  0.2939  0.8919  -1.8299   0.0000   0.0000   0.0000   0.3136
   3.300   0.4834   0.00958   0.00311  -0.0308  0.1961  0.8950  -1.8714   0.0000   0.0000   0.0000   0.3111
   3.400   0.4876   0.01023   0.00336  -0.0299  0.1077  0.8977  -1.9116   0.0000   0.0000   0.0000   0.3086
   3.500   0.4930   0.01077   0.00360  -0.0291  0.0502  0.8998  -1.9499   0.0000   0.0000   0.0000   0.3062
   3.600   0.5010   0.01096   0.00374  -0.0286  0.0376  0.9060  -1.9777   0.0000   0.0000   0.0000   0.3041
   3.700   0.5043   0.01160   0.00463  -0.0266  0.0240  0.9123  -1.8491   0.0000   0.0000   0.0000   0.2999
   3.800   0.5118   0.01171   0.00476  -0.0259  0.0238  0.9171  -1.8912   0.0000   0.0000   0.0000   0.2976
   3.900   0.5191   0.01183   0.00491  -0.0251  0.0236  0.9217  -1.9309   0.0000   0.0000   0.0000   0.2953
   4.000   0.5262   0.01198   0.00510  -0.0243  0.0234  0.9265  -1.9684   0.0000   0.0000   0.0000   0.2931
   4.100   0.5332   0.01216   0.00531  -0.0235  0.0231  0.9312  -2.0038   0.0000   0.0000   0.0000   0.2908
   4.200   0.5400   0.01235   0.00554  -0.0226  0.0230  0.9359  -2.0375   0.0000   0.0000   0.0000   0.2886
   4.300   0.5467   0.01257   0.00579  -0.0217  0.0228  0.9403  -2.0698   0.0000   0.0000   0.0000   0.2865
   4.400   0.5533   0.01281   0.00606  -0.0209  0.0227  0.9444  -2.1009   0.0000   0.0000   0.0000   0.2843
   4.500   0.5597   0.01306   0.00635  -0.0199  0.0226  0.9478  -2.1306   0.0000   0.0000   0.0000   0.2822
   4.600   0.5669   0.01335   0.00667  -0.0192  0.0225  0.9516  -2.1609   0.0000   0.0000   0.0000   0.2804
   4.700   0.5774   0.01371   0.00707  -0.0193  0.0224  0.9584  -2.1958   0.0000   0.0000   0.0000   0.2799
   4.800   0.5884   0.01412   0.00752  -0.0195  0.0224  0.9647  -2.2302   0.0000   0.0000   0.0000   0.2794
   4.900   0.5997   0.01457   0.00801  -0.0197  0.0224  0.9702  -2.2640   0.0000   0.0000   0.0000   0.2791
   5.000   0.6115   0.01507   0.00854  -0.0200  0.0224  0.9750  -2.2969   0.0000   0.0000   0.0000   0.2789
   5.100   0.6234   0.01562   0.00913  -0.0203  0.0225  0.9795  -2.3285   0.0000   0.0000   0.0000   0.2786
   5.200   0.6357   0.01622   0.00977  -0.0206  0.0226  0.9838  -2.3584   0.0000   0.0000   0.0000   0.2785
   5.300   0.6481   0.01689   0.01048  -0.0210  0.0227  0.9881  -2.3859   0.0000   0.0000   0.0000   0.2783
   5.400   0.6607   0.01765   0.01128  -0.0213  0.0228  0.9926  -2.4102   0.0000   0.0000   0.0000   0.2782
   5.500   0.6732   0.01852   0.01221  -0.0217  0.0230  0.9976  -2.4289   0.0000   0.0000   0.0000   0.2780
   5.600   0.6838   0.01953   0.01329  -0.0216  0.0233  1.0000  -2.4354   0.0000   0.0000   0.0000   0.2774
   6.000   0.7184   0.01714   0.01088  -0.0213  0.0144  1.0000  -3.1861   0.0000   0.0000   0.0000   0.2750
   6.200   0.7344   0.02065   0.01456  -0.0206  0.0116  1.0000  -3.2294   0.0000   0.0000   0.0000   0.2732
   6.300   0.7441   0.01984   0.01371  -0.0205  0.0110  1.0000  -3.4460   0.0000   0.0000   0.0000   0.2726
   6.400   0.7539   0.01988   0.01376  -0.0204  0.0106  1.0000  -3.5813   0.0000   0.0000   0.0000   0.2720
   6.500   0.7638   0.02072   0.01470  -0.0201  0.0101  1.0000  -3.6867   0.0000   0.0000   0.0000   0.2712
   6.600   0.7733   0.02082   0.01480  -0.0200  0.0097  1.0000  -3.8093   0.0000   0.0000   0.0000   0.2707
   6.700   0.7826   0.02095   0.01493  -0.0199  0.0094  1.0000  -3.9244   0.0000   0.0000   0.0000   0.2701
   6.800   0.7918   0.02110   0.01509  -0.0197  0.0091  1.0000  -4.0382   0.0000   0.0000   0.0000   0.2696
   6.900   0.8009   0.02127   0.01527  -0.0196  0.0089  1.0000  -4.1535   0.0000   0.0000   0.0000   0.2690
   7.000   0.8099   0.02144   0.01545  -0.0195  0.0087  1.0000  -4.2701   0.0000   0.0000   0.0000   0.2685
   7.100   0.8188   0.02163   0.01564  -0.0193  0.0085  1.0000  -4.3877   0.0000   0.0000   0.0000   0.2679
   7.200   0.8275   0.02181   0.01583  -0.0191  0.0083  1.0000  -4.5089   0.0000   0.0000   0.0000   0.2673
   7.300   0.8361   0.02199   0.01601  -0.0189  0.0081  1.0000  -4.6333   0.0000   0.0000   0.0000   0.2667
   7.400   0.8445   0.02218   0.01620  -0.0187  0.0080  1.0000  -4.7592   0.0000   0.0000   0.0000   0.2661
   7.500   0.8528   0.02241   0.01644  -0.0184  0.0078  1.0000  -4.8836   0.0000   0.0000   0.0000   0.2655
   7.600   0.8609   0.02271   0.01675  -0.0182  0.0077  1.0000  -5.0020   0.0000   0.0000   0.0000   0.2649
   7.700   0.8688   0.02314   0.01721  -0.0178  0.0076  1.0000  -5.1095   0.0000   0.0000   0.0000   0.2642
   7.800   0.8765   0.02371   0.01783  -0.0175  0.0075  1.0000  -5.2021   0.0000   0.0000   0.0000   0.2635
   7.900   0.8840   0.02445   0.01863  -0.0171  0.0074  1.0000  -5.2788   0.0000   0.0000   0.0000   0.2628
   8.000   0.8910   0.02531   0.01958  -0.0166  0.0073  1.0000  -5.3415   0.0000   0.0000   0.0000   0.2620
   8.100   0.8976   0.02625   0.02061  -0.0160  0.0073  1.0000  -5.3940   0.0000   0.0000   0.0000   0.2611
   8.200   0.9037   0.02724   0.02171  -0.0153  0.0073  1.0000  -5.4390   0.0000   0.0000   0.0000   0.2602
   8.300   0.9094   0.02827   0.02285  -0.0146  0.0073  1.0000  -5.4755   0.0000   0.0000   0.0000   0.2592
   8.400   0.9122   0.03068   0.02557  -0.0131  0.0076  1.0000  -5.3266   0.0000   0.0000   0.0000   0.2574
   9.100   0.8162   0.05510   0.05195   0.0100  0.0169  1.0000  -3.2743   0.0000   0.0000   0.0000   0.2311
   9.200   0.8084   0.05585   0.05274   0.0120  0.0168  1.0000  -3.2630   0.0000   0.0000   0.0000   0.2283
   9.300   0.8004   0.05664   0.05357   0.0139  0.0168  1.0000  -3.2499   0.0000   0.0000   0.0000   0.2258
   9.400   0.7923   0.05749   0.05445   0.0156  0.0168  1.0000  -3.2355   0.0000   0.0000   0.0000   0.2233
   9.500   0.7842   0.05840   0.05540   0.0171  0.0168  1.0000  -3.2197   0.0000   0.0000   0.0000   0.2211
   9.600   0.7760   0.05935   0.05640   0.0184  0.0168  1.0000  -3.2020   0.0000   0.0000   0.0000   0.2190
   9.700   0.7678   0.06036   0.05745   0.0196  0.0168  1.0000  -3.1829   0.0000   0.0000   0.0000   0.2172
   9.800   0.7595   0.06144   0.05857   0.0206  0.0168  1.0000  -3.1617   0.0000   0.0000   0.0000   0.2155
   9.900   0.7515   0.06262   0.05978   0.0214  0.0168  1.0000  -3.1392   0.0000   0.0000   0.0000   0.2141
  10.000   0.7431   0.06387   0.06107   0.0220  0.0168  1.0000  -3.1138   0.0000   0.0000   0.0000   0.2128
  10.100   0.7348   0.06521   0.06244   0.0224  0.0168  1.0000  -3.0862   0.0000   0.0000   0.0000   0.2117
  10.200   0.7260   0.06662   0.06389   0.0227  0.0169  1.0000  -3.0548   0.0000   0.0000   0.0000   0.2109
  10.300   0.7174   0.06813   0.06544   0.0228  0.0169  1.0000  -3.0209   0.0000   0.0000   0.0000   0.2103
  10.400   0.7082   0.06977   0.06711   0.0227  0.0170  1.0000  -2.9824   0.0000   0.0000   0.0000   0.2099
  10.500   0.6991   0.07154   0.06891   0.0223  0.0170  1.0000  -2.9406   0.0000   0.0000   0.0000   0.2099
  10.600   0.6896   0.07348   0.07087   0.0217  0.0171  1.0000  -2.8932   0.0000   0.0000   0.0000   0.2102
  10.700   0.6802   0.07559   0.07302   0.0209  0.0172  1.0000  -2.8408   0.0000   0.0000   0.0000   0.2108
  10.800   0.6710   0.07792   0.07537   0.0198  0.0173  1.0000  -2.7830   0.0000   0.0000   0.0000   0.2120
  10.900   0.6622   0.08053   0.07801   0.0183  0.0175  1.0000  -2.7176   0.0000   0.0000   0.0000   0.2136
  11.000   0.6535   0.08344   0.08093   0.0166  0.0176  1.0000  -2.6436   0.0000   0.0000   0.0000   0.2159
  11.100   0.6453   0.08693   0.08443   0.0142  0.0179  1.0000  -2.5532   0.0000   0.0000   0.0000   0.2191
  11.200   0.6388   0.09039   0.08789   0.0120  0.0180  1.0000  -2.4696   0.0000   0.0000   0.0000   0.2224
  11.300   0.6344   0.09323   0.09072   0.0103  0.0181  1.0000  -2.4109   0.0000   0.0000   0.0000   0.2248
  11.400   0.6309   0.09579   0.09328   0.0089  0.0181  1.0000  -2.3632   0.0000   0.0000   0.0000   0.2268
  11.500   0.6280   0.09820   0.09568   0.0077  0.0181  1.0000  -2.3221   0.0000   0.0000   0.0000   0.2287
  11.600   0.6256   0.10050   0.09797   0.0065  0.0181  1.0000  -2.2857   0.0000   0.0000   0.0000   0.2304
  11.700   0.6236   0.10272   0.10018   0.0054  0.0180  1.0000  -2.2530   0.0000   0.0000   0.0000   0.2321
  11.800   0.6219   0.10488   0.10233   0.0044  0.0179  1.0000  -2.2229   0.0000   0.0000   0.0000   0.2337
  11.900   0.6204   0.10700   0.10445   0.0033  0.0179  1.0000  -2.1943   0.0000   0.0000   0.0000   0.2353
  12.000   0.6192   0.10908   0.10652   0.0023  0.0178  1.0000  -2.1679   0.0000   0.0000   0.0000   0.2368
  12.100   0.6182   0.11112   0.10855   0.0014  0.0176  1.0000  -2.1436   0.0000   0.0000   0.0000   0.2383
  12.200   0.6175   0.11312   0.11054   0.0004  0.0175  1.0000  -2.1210   0.0000   0.0000   0.0000   0.2397
  12.300   0.6169   0.11510   0.11251  -0.0005  0.0174  1.0000  -2.1000   0.0000   0.0000   0.0000   0.2412
  12.400   0.6165   0.11704   0.11445  -0.0014  0.0172  1.0000  -2.0805   0.0000   0.0000   0.0000   0.2426
  12.500   0.6163   0.11896   0.11636  -0.0023  0.0171  1.0000  -2.0624   0.0000   0.0000   0.0000   0.2440
  12.600   0.6162   0.12085   0.11825  -0.0032  0.0169  1.0000  -2.0455   0.0000   0.0000   0.0000   0.2454
  12.700   0.6163   0.12272   0.12011  -0.0041  0.0168  1.0000  -2.0297   0.0000   0.0000   0.0000   0.2467
  12.800   0.6166   0.12458   0.12196  -0.0050  0.0167  1.0000  -2.0152   0.0000   0.0000   0.0000   0.2481
  12.900   0.6169   0.12642   0.12380  -0.0059  0.0165  1.0000  -2.0017   0.0000   0.0000   0.0000   0.2494
  13.000   0.6174   0.12825   0.12563  -0.0067  0.0164  1.0000  -1.9892   0.0000   0.0000   0.0000   0.2507
  13.100   0.6180   0.13007   0.12744  -0.0076  0.0162  1.0000  -1.9778   0.0000   0.0000   0.0000   0.2519
  13.200   0.6187   0.13188   0.12924  -0.0084  0.0161  1.0000  -1.9670   0.0000   0.0000   0.0000   0.2532
  13.300   0.6195   0.13367   0.13103  -0.0092  0.0159  1.0000  -1.9572   0.0000   0.0000   0.0000   0.2544
  13.400   0.6204   0.13545   0.13281  -0.0101  0.0158  1.0000  -1.9483   0.0000   0.0000   0.0000   0.2556
  13.500   0.6214   0.13721   0.13457  -0.0109  0.0157  1.0000  -1.9404   0.0000   0.0000   0.0000   0.2568
  13.600   0.6224   0.13897   0.13632  -0.0117  0.0155  1.0000  -1.9334   0.0000   0.0000   0.0000   0.2580
  13.700   0.6236   0.14070   0.13805  -0.0125  0.0154  1.0000  -1.9272   0.0000   0.0000   0.0000   0.2591
  13.800   0.6249   0.14243   0.13977  -0.0133  0.0153  1.0000  -1.9220   0.0000   0.0000   0.0000   0.2603
  13.900   0.6262   0.14414   0.14148  -0.0140  0.0151  1.0000  -1.9175   0.0000   0.0000   0.0000   0.2614
  14.000   0.6277   0.14584   0.14318  -0.0148  0.0150  1.0000  -1.9139   0.0000   0.0000   0.0000   0.2625
  14.100   0.6292   0.14753   0.14486  -0.0156  0.0149  1.0000  -1.9112   0.0000   0.0000   0.0000   0.2635
  14.200   0.6307   0.14920   0.14653  -0.0163  0.0147  1.0000  -1.9095   0.0000   0.0000   0.0000   0.2646
  14.300   0.6324   0.15086   0.14818  -0.0171  0.0146  1.0000  -1.9088   0.0000   0.0000   0.0000   0.2656
  14.400   0.6341   0.15250   0.14983  -0.0178  0.0145  1.0000  -1.9091   0.0000   0.0000   0.0000   0.2666
  14.500   0.6359   0.15414   0.15146  -0.0186  0.0144  1.0000  -1.9105   0.0000   0.0000   0.0000   0.2676
  14.600   0.6378   0.15576   0.15308  -0.0193  0.0143  1.0000  -1.9129   0.0000   0.0000   0.0000   0.2685
  14.700   0.6398   0.15737   0.15468  -0.0200  0.0142  1.0000  -1.9164   0.0000   0.0000   0.0000   0.2694
  14.800   0.6418   0.15896   0.15628  -0.0207  0.0140  1.0000  -1.9210   0.0000   0.0000   0.0000   0.2703
  14.900   0.6439   0.16054   0.15785  -0.0214  0.0139  1.0000  -1.9268   0.0000   0.0000   0.0000   0.2712
  15.000   0.6461   0.16211   0.15942  -0.0221  0.0138  1.0000  -1.9338   0.0000   0.0000   0.0000   0.2721
  15.100   0.6484   0.16367   0.16097  -0.0228  0.0137  1.0000  -1.9420   0.0000   0.0000   0.0000   0.2729
  15.200   0.6508   0.16522   0.16253  -0.0235  0.0136  1.0000  -1.9515   0.0000   0.0000   0.0000   0.2737
  15.300   0.6533   0.16677   0.16407  -0.0241  0.0135  1.0000  -1.9623   0.0000   0.0000   0.0000   0.2744
  15.400   0.6557   0.16832   0.16562  -0.0248  0.0134  1.0000  -1.9737   0.0000   0.0000   0.0000   0.2752
  15.500   0.6582   0.16987   0.16717  -0.0255  0.0133  1.0000  -1.9851   0.0000   0.0000   0.0000   0.2759
  15.600   0.6607   0.17143   0.16873  -0.0261  0.0132  1.0000  -1.9961   0.0000   0.0000   0.0000   0.2767
  15.700   0.6632   0.17300   0.17030  -0.0268  0.0131  1.0000  -2.0076   0.0000   0.0000   0.0000   0.2774
  15.800   0.6658   0.17458   0.17188  -0.0274  0.0130  1.0000  -2.0196   0.0000   0.0000   0.0000   0.2781
  15.900   0.6684   0.17618   0.17348  -0.0280  0.0129  1.0000  -2.0316   0.0000   0.0000   0.0000   0.2788
  16.000   0.6710   0.17781   0.17510  -0.0287  0.0128  1.0000  -2.0434   0.0000   0.0000   0.0000   0.2794
  16.100   0.6731   0.17953   0.17682  -0.0294  0.0127  1.0000  -2.0439   0.0000   0.0000   0.0000   0.2802
  16.200   0.6752   0.18130   0.17859  -0.0301  0.0126  1.0000  -2.0417   0.0000   0.0000   0.0000   0.2811
  16.300   0.6771   0.18313   0.18042  -0.0309  0.0125  1.0000  -2.0360   0.0000   0.0000   0.0000   0.2819
  17.900   0.7015   0.20907   0.20632  -0.0440  0.0086  1.0000  -1.6566   0.0000   0.0000   0.0000   0.2975
  18.000   0.7041   0.21041   0.20765  -0.0447  0.0083  1.0000  -1.6724   0.0000   0.0000   0.0000   0.2981
  18.100   0.7068   0.21171   0.20895  -0.0453  0.0081  1.0000  -1.6907   0.0000   0.0000   0.0000   0.2986
  18.200   0.7094   0.21299   0.21023  -0.0459  0.0079  1.0000  -1.7132   0.0000   0.0000   0.0000   0.2991
  18.300   0.7122   0.21423   0.21147  -0.0466  0.0077  1.0000  -1.7403   0.0000   0.0000   0.0000   0.2996
  18.400   0.7150   0.21546   0.21269  -0.0472  0.0076  1.0000  -1.7726   0.0000   0.0000   0.0000   0.3000
  18.500   0.7179   0.21666   0.21389  -0.0477  0.0075  1.0000  -1.8108   0.0000   0.0000   0.0000   0.3004
  18.600   0.7211   0.21785   0.21508  -0.0483  0.0073  1.0000  -1.8568   0.0000   0.0000   0.0000   0.3007
  18.700   0.7246   0.21908   0.21631  -0.0488  0.0072  1.0000  -1.9131   0.0000   0.0000   0.0000   0.3009
  18.800   0.7291   0.22047   0.21770  -0.0491  0.0071  1.0000  -1.9909   0.0000   0.0000   0.0000   0.3008
  18.900   0.7303   0.22436   0.22157  -0.0498  0.0068  1.0000  -1.8919   0.0000   0.0000   0.0000   0.3016
  19.000   0.7322   0.22570   0.22292  -0.0506  0.0068  1.0000  -1.8758   0.0000   0.0000   0.0000   0.3023
  19.100   0.7340   0.22702   0.22423  -0.0513  0.0067  1.0000  -1.8597   0.0000   0.0000   0.0000   0.3030
  19.200   0.7359   0.22828   0.22549  -0.0520  0.0067  1.0000  -1.8432   0.0000   0.0000   0.0000   0.3037
  19.300   0.7377   0.22950   0.22671  -0.0527  0.0067  1.0000  -1.8263   0.0000   0.0000   0.0000   0.3043
  19.400   0.7389   0.23065   0.22785  -0.0536  0.0066  1.0000  -1.7940   0.0000   0.0000   0.0000   0.3052
  19.500   0.7400   0.23176   0.22896  -0.0544  0.0065  1.0000  -1.7404   0.0000   0.0000   0.0000   0.3062
  19.600   0.7420   0.23307   0.23027  -0.0552  0.0060  1.0000  -1.6667   0.0000   0.0000   0.0000   0.3070
  19.700   0.7446   0.23442   0.23162  -0.0558  0.0057  1.0000  -1.6528   0.0000   0.0000   0.0000   0.3075
  19.800   0.7471   0.23566   0.23286  -0.0565  0.0054  1.0000  -1.6561   0.0000   0.0000   0.0000   0.3079
  19.900   0.7497   0.23684   0.23403  -0.0571  0.0052  1.0000  -1.6667   0.0000   0.0000   0.0000   0.3083
  20.000   0.7522   0.23796   0.23515  -0.0577  0.0051  1.0000  -1.6826   0.0000   0.0000   0.0000   0.3087
  20.100   0.7547   0.23904   0.23623  -0.0583  0.0050  1.0000  -1.7031   0.0000   0.0000   0.0000   0.3091
  20.200   0.7573   0.24009   0.23728  -0.0589  0.0048  1.0000  -1.7276   0.0000   0.0000   0.0000   0.3095
  20.300   0.7599   0.24111   0.23830  -0.0595  0.0048  1.0000  -1.7562   0.0000   0.0000   0.0000   0.3098
  20.400   0.7625   0.24211   0.23930  -0.0600  0.0047  1.0000  -1.7888   0.0000   0.0000   0.0000   0.3101
  20.500   0.7651   0.24310   0.24029  -0.0606  0.0046  1.0000  -1.8258   0.0000   0.0000   0.0000   0.3104
  20.600   0.7678   0.24409   0.24128  -0.0612  0.0046  1.0000  -1.8681   0.0000   0.0000   0.0000   0.3107
  20.700   0.7707   0.24511   0.24229  -0.0617  0.0045  1.0000  -1.9177   0.0000   0.0000   0.0000   0.3109
  20.800   0.7739   0.24624   0.24342  -0.0622  0.0044  1.0000  -1.9829   0.0000   0.0000   0.0000   0.3110
  20.900   0.7773   0.24827   0.24543  -0.0626  0.0044  1.0000  -2.0052   0.0000   0.0000   0.0000   0.3109
  21.000   0.7794   0.24952   0.24668  -0.0632  0.0044  1.0000  -1.9872   0.0000   0.0000   0.0000   0.3114
  21.100   0.7815   0.25076   0.24792  -0.0638  0.0044  1.0000  -1.9700   0.0000   0.0000   0.0000   0.3119
  21.200   0.7836   0.25201   0.24917  -0.0645  0.0043  1.0000  -1.9538   0.0000   0.0000   0.0000   0.3123
  21.300   0.7856   0.25326   0.25042  -0.0651  0.0043  1.0000  -1.9312   0.0000   0.0000   0.0000   0.3128
  21.400   0.7875   0.25451   0.25167  -0.0658  0.0043  1.0000  -1.9073   0.0000   0.0000   0.0000   0.3133
  21.500   0.7895   0.25576   0.25292  -0.0664  0.0043  1.0000  -1.8849   0.0000   0.0000   0.0000   0.3137
  21.600   0.7915   0.25701   0.25417  -0.0670  0.0043  1.0000  -1.8640   0.0000   0.0000   0.0000   0.3142
  21.700   0.7935   0.25827   0.25543  -0.0677  0.0043  1.0000  -1.8444   0.0000   0.0000   0.0000   0.3147
  21.800   0.7956   0.25953   0.25669  -0.0683  0.0043  1.0000  -1.8260   0.0000   0.0000   0.0000   0.3151
  21.900   0.7977   0.26079   0.25795  -0.0689  0.0043  1.0000  -1.8087   0.0000   0.0000   0.0000   0.3155
  22.000   0.7999   0.26205   0.25921  -0.0696  0.0043  1.0000  -1.7924   0.0000   0.0000   0.0000   0.3159
  22.100   0.8020   0.26332   0.26047  -0.0702  0.0043  1.0000  -1.7771   0.0000   0.0000   0.0000   0.3163
  22.200   0.8042   0.26458   0.26174  -0.0708  0.0043  1.0000  -1.7626   0.0000   0.0000   0.0000   0.3167
  22.300   0.8064   0.26585   0.26300  -0.0714  0.0043  1.0000  -1.7489   0.0000   0.0000   0.0000   0.3171
  22.400   0.8086   0.26711   0.26427  -0.0721  0.0043  1.0000  -1.7360   0.0000   0.0000   0.0000   0.3175
  22.500   0.8108   0.26838   0.26554  -0.0727  0.0043  1.0000  -1.7237   0.0000   0.0000   0.0000   0.3179
  22.600   0.8131   0.26965   0.26681  -0.0733  0.0043  1.0000  -1.7122   0.0000   0.0000   0.0000   0.3182
  22.700   0.8153   0.27092   0.26807  -0.0739  0.0042  1.0000  -1.7012   0.0000   0.0000   0.0000   0.3186
  22.800   0.8176   0.27219   0.26934  -0.0745  0.0042  1.0000  -1.6908   0.0000   0.0000   0.0000   0.3189
  22.900   0.8198   0.27345   0.27061  -0.0751  0.0042  1.0000  -1.6809   0.0000   0.0000   0.0000   0.3193
  23.000   0.8221   0.27472   0.27188  -0.0758  0.0042  1.0000  -1.6716   0.0000   0.0000   0.0000   0.3196
  23.100   0.8243   0.27599   0.27315  -0.0764  0.0042  1.0000  -1.6627   0.0000   0.0000   0.0000   0.3200
  23.200   0.8266   0.27726   0.27442  -0.0770  0.0042  1.0000  -1.6543   0.0000   0.0000   0.0000   0.3203
  23.300   0.8288   0.27853   0.27569  -0.0776  0.0042  1.0000  -1.6464   0.0000   0.0000   0.0000   0.3206
  23.400   0.8311   0.27980   0.27696  -0.0782  0.0042  1.0000  -1.6389   0.0000   0.0000   0.0000   0.3210
  23.500   0.8334   0.28107   0.27823  -0.0788  0.0042  1.0000  -1.6318   0.0000   0.0000   0.0000   0.3213
  23.600   0.8356   0.28234   0.27950  -0.0794  0.0042  1.0000  -1.6250   0.0000   0.0000   0.0000   0.3216
  23.700   0.8379   0.28361   0.28077  -0.0800  0.0042  1.0000  -1.6186   0.0000   0.0000   0.0000   0.3219
  23.800   0.8401   0.28488   0.28204  -0.0806  0.0042  1.0000  -1.6125   0.0000   0.0000   0.0000   0.3222
  23.900   0.8424   0.28614   0.28331  -0.0813  0.0042  1.0000  -1.6068   0.0000   0.0000   0.0000   0.3225
  24.000   0.8446   0.28741   0.28458  -0.0819  0.0042  1.0000  -1.6013   0.0000   0.0000   0.0000   0.3228
  24.100   0.8468   0.28868   0.28585  -0.0825  0.0042  1.0000  -1.5961   0.0000   0.0000   0.0000   0.3231
  24.200   0.8491   0.28995   0.28712  -0.0831  0.0042  1.0000  -1.5911   0.0000   0.0000   0.0000   0.3234
  24.300   0.8513   0.29121   0.28838  -0.0837  0.0042  1.0000  -1.5864   0.0000   0.0000   0.0000   0.3237
  24.400   0.8535   0.29248   0.28965  -0.0843  0.0041  1.0000  -1.5819   0.0000   0.0000   0.0000   0.3240
  24.500   0.8557   0.29374   0.29092  -0.0849  0.0041  1.0000  -1.5777   0.0000   0.0000   0.0000   0.3243
  24.600   0.8579   0.29501   0.29219  -0.0855  0.0041  1.0000  -1.5737   0.0000   0.0000   0.0000   0.3245
  24.700   0.8601   0.29627   0.29345  -0.0861  0.0041  1.0000  -1.5698   0.0000   0.0000   0.0000   0.3248
  24.800   0.8623   0.29754   0.29472  -0.0867  0.0041  1.0000  -1.5662   0.0000   0.0000   0.0000   0.3251
  24.900   0.8645   0.29880   0.29603  -0.0873  0.0041  1.0000  -1.5641   0.0000   0.0000   0.0000   0.3254
  25.000   0.8667   0.30005   0.29729  -0.0879  0.0041  1.0000  -1.5614   0.0000   0.0000   0.0000   0.3257
  25.100   0.8688   0.30132   0.29856  -0.0886  0.0041  1.0000  -1.5585   0.0000   0.0000   0.0000   0.3259
  25.200   0.8710   0.30258   0.29982  -0.0892  0.0041  1.0000  -1.5556   0.0000   0.0000   0.0000   0.3262
  25.300   0.8731   0.30384   0.30109  -0.0898  0.0041  1.0000  -1.5529   0.0000   0.0000   0.0000   0.3265
  25.400   0.8753   0.30510   0.30235  -0.0904  0.0041  1.0000  -1.5502   0.0000   0.0000   0.0000   0.3267
  25.500   0.8774   0.30636   0.30361  -0.0910  0.0041  1.0000  -1.5477   0.0000   0.0000   0.0000   0.3270
  25.600   0.8795   0.30762   0.30487  -0.0916  0.0041  1.0000  -1.5453   0.0000   0.0000   0.0000   0.3273
  25.700   0.8816   0.30888   0.30613  -0.0922  0.0041  1.0000  -1.5429   0.0000   0.0000   0.0000   0.3275
  25.800   0.8837   0.31014   0.30740  -0.0928  0.0041  1.0000  -1.5407   0.0000   0.0000   0.0000   0.3278
  25.900   0.8858   0.31140   0.30866  -0.0934  0.0041  1.0000  -1.5386   0.0000   0.0000   0.0000   0.3280
  26.000   0.8879   0.31265   0.30992  -0.0940  0.0041  1.0000  -1.5366   0.0000   0.0000   0.0000   0.3283
  26.100   0.8899   0.31391   0.31117  -0.0947  0.0041  1.0000  -1.5347   0.0000   0.0000   0.0000   0.3285
  26.200   0.8920   0.31517   0.31243  -0.0953  0.0041  1.0000  -1.5328   0.0000   0.0000   0.0000   0.3288
  26.300   0.8940   0.31642   0.31369  -0.0959  0.0041  1.0000  -1.5311   0.0000   0.0000   0.0000   0.3290
  26.400   0.8961   0.31768   0.31495  -0.0965  0.0040  1.0000  -1.5294   0.0000   0.0000   0.0000   0.3293
  26.500   0.8981   0.31893   0.31621  -0.0971  0.0040  1.0000  -1.5279   0.0000   0.0000   0.0000   0.3295
  26.600   0.9001   0.32019   0.31746  -0.0977  0.0040  1.0000  -1.5264   0.0000   0.0000   0.0000   0.3298
  26.700   0.9021   0.32144   0.31872  -0.0983  0.0040  1.0000  -1.5250   0.0000   0.0000   0.0000   0.3300
  26.800   0.9041   0.32269   0.31997  -0.0989  0.0040  1.0000  -1.5236   0.0000   0.0000   0.0000   0.3303
  26.900   0.9061   0.32394   0.32123  -0.0996  0.0040  1.0000  -1.5223   0.0000   0.0000   0.0000   0.3305
  27.000   0.9080   0.32520   0.32248  -0.1002  0.0040  1.0000  -1.5211   0.0000   0.0000   0.0000   0.3307
  27.100   0.9100   0.32645   0.32373  -0.1008  0.0040  1.0000  -1.5200   0.0000   0.0000   0.0000   0.3310
  27.200   0.9119   0.32769   0.32498  -0.1014  0.0040  1.0000  -1.5189   0.0000   0.0000   0.0000   0.3312
  27.300   0.9139   0.32894   0.32623  -0.1020  0.0040  1.0000  -1.5178   0.0000   0.0000   0.0000   0.3314
  27.400   0.9158   0.33019   0.32748  -0.1026  0.0040  1.0000  -1.5169   0.0000   0.0000   0.0000   0.3317
  27.500   0.9177   0.33144   0.32873  -0.1032  0.0040  1.0000  -1.5159   0.0000   0.0000   0.0000   0.3319
  27.600   0.9196   0.33268   0.32998  -0.1039  0.0040  1.0000  -1.5151   0.0000   0.0000   0.0000   0.3321
  27.700   0.9215   0.33393   0.33123  -0.1045  0.0040  1.0000  -1.5143   0.0000   0.0000   0.0000   0.3324
  27.800   0.9234   0.33517   0.33248  -0.1051  0.0040  1.0000  -1.5135   0.0000   0.0000   0.0000   0.3326
  27.900   0.9252   0.33642   0.33372  -0.1057  0.0040  1.0000  -1.5128   0.0000   0.0000   0.0000   0.3328
  28.000   0.9271   0.33766   0.33497  -0.1063  0.0040  1.0000  -1.5121   0.0000   0.0000   0.0000   0.3331
  28.100   0.9289   0.33890   0.33621  -0.1069  0.0040  1.0000  -1.5114   0.0000   0.0000   0.0000   0.3333
  28.200   0.9308   0.34014   0.33745  -0.1075  0.0040  1.0000  -1.5108   0.0000   0.0000   0.0000   0.3335
  28.300   0.9326   0.34138   0.33869  -0.1082  0.0040  1.0000  -1.5103   0.0000   0.0000   0.0000   0.3337
  28.400   0.9344   0.34262   0.33994  -0.1088  0.0040  1.0000  -1.5097   0.0000   0.0000   0.0000   0.3339
  28.500   0.9362   0.34385   0.34118  -0.1094  0.0040  1.0000  -1.5092   0.0000   0.0000   0.0000   0.3342
  28.600   0.9379   0.34509   0.34241  -0.1100  0.0040  1.0000  -1.5088   0.0000   0.0000   0.0000   0.3344
  28.700   0.9397   0.34632   0.34365  -0.1106  0.0040  1.0000  -1.5084   0.0000   0.0000   0.0000   0.3346
  28.800   0.9415   0.34756   0.34489  -0.1112  0.0039  1.0000  -1.5080   0.0000   0.0000   0.0000   0.3348
  28.900   0.9432   0.34879   0.34613  -0.1119  0.0039  1.0000  -1.5076   0.0000   0.0000   0.0000   0.3350
  29.000   0.9449   0.35002   0.34736  -0.1125  0.0039  1.0000  -1.5073   0.0000   0.0000   0.0000   0.3352
  29.100   0.9467   0.35125   0.34859  -0.1131  0.0039  1.0000  -1.5070   0.0000   0.0000   0.0000   0.3355
  29.200   0.9484   0.35248   0.34983  -0.1137  0.0039  1.0000  -1.5067   0.0000   0.0000   0.0000   0.3357
  29.300   0.9500   0.35371   0.35106  -0.1143  0.0039  1.0000  -1.5065   0.0000   0.0000   0.0000   0.3359
  29.400   0.9517   0.35494   0.35229  -0.1149  0.0039  1.0000  -1.5063   0.0000   0.0000   0.0000   0.3361
  29.500   0.9534   0.35616   0.35352  -0.1156  0.0039  1.0000  -1.5061   0.0000   0.0000   0.0000   0.3363
  29.600   0.9550   0.35739   0.35474  -0.1162  0.0039  1.0000  -1.5059   0.0000   0.0000   0.0000   0.3365
  29.700   0.9567   0.35861   0.35597  -0.1168  0.0039  1.0000  -1.5058   0.0000   0.0000   0.0000   0.3367
  29.800   0.9583   0.35983   0.35720  -0.1174  0.0039  1.0000  -1.5056   0.0000   0.0000   0.0000   0.3369
  29.900   0.9599   0.36105   0.35842  -0.1180  0.0039  1.0000  -1.5055   0.0000   0.0000   0.0000   0.3371
  30.000   0.9615   0.36227   0.35964  -0.1187  0.0039  1.0000  -1.5055   0.0000   0.0000   0.0000   0.3373


