xflr5 v6.61

 Calculated polar for: NACA 4408

 1 1 Reynolds number fixed          Mach number fixed         

 xtrf =   1.000 (top)        1.000 (bottom)
 Mach =   0.000     Re =     1.000 e 6     Ncrit =   9.000

  alpha     CL        CD       CDp       Cm    Top Xtr Bot Xtr   Cpmin    Chinge    XCp    
 ------- -------- --------- --------- -------- ------- ------- -------- --------- ---------
 -10.000  -0.3930   0.10504   0.10331  -0.0280  1.0001  0.0064  -2.4458   0.0000   0.0000   0.0000   0.1719
  -9.900  -0.3933   0.10295   0.10122  -0.0288  1.0001  0.0067  -2.5590   0.0000   0.0000   0.0000   0.1699
  -9.800  -0.3920   0.10123   0.09950  -0.0294  1.0001  0.0070  -2.6258   0.0000   0.0000   0.0000   0.1680
  -9.700  -0.3889   0.10006   0.09835  -0.0299  1.0001  0.0073  -2.6152   0.0000   0.0000   0.0000   0.1661
  -9.600  -0.3851   0.09913   0.09742  -0.0303  1.0001  0.0075  -2.5736   0.0000   0.0000   0.0000   0.1644
  -9.400  -0.3919   0.09456   0.09289  -0.0326  1.0001  0.0088  -2.7634   0.0000   0.0000   0.0000   0.1602
  -9.300  -0.3894   0.09386   0.09218  -0.0328  1.0001  0.0091  -2.6906   0.0000   0.0000   0.0000   0.1592
  -9.200  -0.3864   0.09323   0.09156  -0.0330  1.0001  0.0093  -2.6116   0.0000   0.0000   0.0000   0.1582
  -9.100  -0.3826   0.09279   0.09113  -0.0330  1.0001  0.0095  -2.5125   0.0000   0.0000   0.0000   0.1574
  -9.000  -0.3788   0.09240   0.09074  -0.0330  1.0001  0.0098  -2.4121   0.0000   0.0000   0.0000   0.1568
  -8.900  -0.3754   0.09196   0.09031  -0.0329  1.0001  0.0101  -2.3217   0.0000   0.0000   0.0000   0.1562
  -8.800  -0.3725   0.09148   0.08984  -0.0328  1.0001  0.0104  -2.2413   0.0000   0.0000   0.0000   0.1559
  -8.700  -0.3702   0.09096   0.08933  -0.0327  1.0001  0.0109  -2.1710   0.0000   0.0000   0.0000   0.1558
  -8.600  -0.3684   0.09040   0.08878  -0.0326  1.0001  0.0116  -2.1112   0.0000   0.0000   0.0000   0.1558
  -8.500  -0.3673   0.08979   0.08818  -0.0324  1.0001  0.0124  -2.0645   0.0000   0.0000   0.0000   0.1562
  -8.400  -0.3667   0.08919   0.08760  -0.0322  1.0001  0.0139  -2.0339   0.0000   0.0000   0.0000   0.1568
  -8.300  -0.3604   0.08983   0.08824  -0.0321  1.0001  0.0159  -1.9812   0.0000   0.0000   0.0000   0.1557
  -8.200  -0.3633   0.08921   0.08764  -0.0312  1.0001  0.0160  -2.0021   0.0000   0.0000   0.0000   0.1589
  -8.100  -0.3653   0.08841   0.08685  -0.0307  0.9999  0.0161  -2.0146   0.0000   0.0000   0.0000   0.1608
  -8.000  -0.3580   0.08664   0.08508  -0.0330  0.9991  0.0162  -2.0137   0.0000   0.0000   0.0000   0.1526
  -7.900  -0.3510   0.08484   0.08328  -0.0354  0.9981  0.0162  -2.0085   0.0000   0.0000   0.0000   0.1441
  -7.800  -0.3440   0.08302   0.08145  -0.0378  0.9967  0.0162  -2.0017   0.0000   0.0000   0.0000   0.1350
  -7.700  -0.3364   0.08112   0.07956  -0.0404  0.9953  0.0162  -1.9937   0.0000   0.0000   0.0000   0.1246
  -7.600  -0.3275   0.07908   0.07752  -0.0435  0.9942  0.0163  -1.9839   0.0000   0.0000   0.0000   0.1118
  -7.500  -0.3188   0.07704   0.07548  -0.0466  0.9925  0.0163  -1.9745   0.0000   0.0000   0.0000   0.0986
  -7.400  -0.3099   0.07499   0.07342  -0.0498  0.9909  0.0163  -1.9658   0.0000   0.0000   0.0000   0.0840
  -7.300  -0.3003   0.07286   0.07128  -0.0532  0.9896  0.0163  -1.9569   0.0000   0.0000   0.0000   0.0675
  -7.200  -0.2901   0.07066   0.06907  -0.0568  0.9886  0.0163  -1.9481   0.0000   0.0000   0.0000   0.0487
  -7.100  -0.2793   0.06838   0.06679  -0.0606  0.9877  0.0163  -1.9398   0.0000   0.0000   0.0000   0.0274
  -7.000  -0.2682   0.06607   0.06447  -0.0645  0.9868  0.0163  -1.9325   0.0000   0.0000   0.0000   0.0039
  -6.900  -0.2587   0.06389   0.06227  -0.0677  0.9845  0.0164  -1.9285   0.0000   0.0000   0.0000  -0.0176
  -6.800  -0.2489   0.06164   0.06002  -0.0711  0.9821  0.0164  -1.9256   0.0000   0.0000   0.0000  -0.0416
  -6.700  -0.2380   0.05927   0.05763  -0.0747  0.9800  0.0164  -1.9271   0.0000   0.0000   0.0000  -0.0701
  -6.600  -0.2265   0.05682   0.05515  -0.0784  0.9782  0.0164  -1.9544   0.0000   0.0000   0.0000  -0.1024
  -6.500  -0.2146   0.05428   0.05258  -0.0821  0.9766  0.0164  -1.9848   0.0000   0.0000   0.0000  -0.1393
  -6.400  -0.2046   0.05190   0.05018  -0.0850  0.9736  0.0164  -2.0171   0.0000   0.0000   0.0000  -0.1726
  -6.300  -0.1949   0.04951   0.04775  -0.0878  0.9700  0.0164  -2.0525   0.0000   0.0000   0.0000  -0.2075
  -6.200  -0.1843   0.04696   0.04516  -0.0906  0.9671  0.0164  -2.0929   0.0000   0.0000   0.0000  -0.2492
  -6.100  -0.1728   0.04423   0.04236  -0.0935  0.9646  0.0164  -2.1414   0.0000   0.0000   0.0000  -0.2992
  -6.000  -0.1612   0.04126   0.03932  -0.0964  0.9623  0.0164  -2.2030   0.0000   0.0000   0.0000  -0.3567
  -5.900  -0.1519   0.03819   0.03617  -0.0985  0.9583  0.0165  -2.2826   0.0000   0.0000   0.0000  -0.4076
  -5.400  -0.1137   0.01689   0.01334  -0.1075  0.9401  0.0150  -3.2112   0.0000   0.0000   0.0000  -0.7099
  -5.300  -0.1045   0.01483   0.01097  -0.1076  0.9370  0.0145  -3.2990   0.0000   0.0000   0.0000  -0.7944
  -5.200  -0.0946   0.01346   0.00937  -0.1075  0.9343  0.0141  -3.3326   0.0000   0.0000   0.0000  -0.9034
  -5.100  -0.0843   0.01239   0.00813  -0.1074  0.9317  0.0138  -3.3417   0.0000   0.0000   0.0000  -1.0426
  -5.000  -0.0738   0.01152   0.00710  -0.1073  0.9292  0.0136  -3.3356   0.0000   0.0000   0.0000  -1.2247
  -4.900  -0.0631   0.01081   0.00625  -0.1072  0.9268  0.0135  -3.3174   0.0000   0.0000   0.0000  -1.4710
  -4.800  -0.0526   0.01021   0.00555  -0.1070  0.9242  0.0134  -3.2885   0.0000   0.0000   0.0000  -1.8125
  -4.700  -0.0420   0.00971   0.00496  -0.1069  0.9213  0.0133  -3.2517   0.0000   0.0000   0.0000  -2.3305
  -4.600  -0.0313   0.00929   0.00446  -0.1067  0.9183  0.0133  -3.2091   0.0000   0.0000   0.0000  -3.2101
  -4.500  -0.0204   0.00893   0.00401  -0.1066  0.9153  0.0134  -3.1634   0.0000   0.0000   0.0000  -5.0310
  -4.400  -0.0096   0.00861   0.00362  -0.1065  0.9124  0.0137  -3.1195   0.0000   0.0000   0.0000  -11.0306
  -4.300   0.0014   0.00828   0.00316  -0.1063  0.9095  0.0150  -3.1107   0.0000   0.0000   0.0000  74.5911
  -4.200   0.0126   0.00825   0.00311  -0.1063  0.9064  0.0160  -3.0282   0.0000   0.0000   0.0000   8.8120
  -4.100   0.0235   0.00796   0.00280  -0.1062  0.9036  0.0211  -2.9887   0.0000   0.0000   0.0000   4.8267
  -4.000   0.0345   0.00790   0.00276  -0.1062  0.9004  0.0223  -2.8884   0.0000   0.0000   0.0000   3.3599
  -3.900   0.0455   0.00785   0.00270  -0.1061  0.8968  0.0232  -2.7893   0.0000   0.0000   0.0000   2.6052
  -3.800   0.0565   0.00778   0.00262  -0.1061  0.8930  0.0240  -2.6931   0.0000   0.0000   0.0000   2.1454
  -3.700   0.0675   0.00771   0.00252  -0.1060  0.8891  0.0247  -2.5992   0.0000   0.0000   0.0000   1.8355
  -3.600   0.0785   0.00765   0.00242  -0.1059  0.8852  0.0254  -2.5069   0.0000   0.0000   0.0000   1.6124
  -3.500   0.0895   0.00758   0.00232  -0.1058  0.8813  0.0260  -2.4158   0.0000   0.0000   0.0000   1.4436
  -3.400   0.1007   0.00751   0.00224  -0.1058  0.8784  0.0266  -2.3246   0.0000   0.0000   0.0000   1.3104
  -3.300   0.1118   0.00745   0.00216  -0.1058  0.8750  0.0271  -2.2338   0.0000   0.0000   0.0000   1.2039
  -3.200   0.1230   0.00740   0.00211  -0.1057  0.8713  0.0275  -2.1430   0.0000   0.0000   0.0000   1.1170
  -3.100   0.1341   0.00739   0.00208  -0.1057  0.8674  0.0278  -2.0502   0.0000   0.0000   0.0000   1.0447
  -3.000   0.1451   0.00708   0.00175  -0.1056  0.8635  0.0361  -1.9913   0.0000   0.0000   0.0000   0.9835
  -2.900   0.1561   0.00703   0.00169  -0.1056  0.8593  0.0387  -1.9044   0.0000   0.0000   0.0000   0.9311
  -2.700   0.1784   0.00697   0.00159  -0.1055  0.8520  0.0415  -1.7303   0.0000   0.0000   0.0000   0.8453
  -2.600   0.1897   0.00688   0.00149  -0.1055  0.8485  0.0455  -1.6498   0.0000   0.0000   0.0000   0.8098
  -2.500   0.2008   0.00678   0.00142  -0.1055  0.8444  0.0528  -1.5689   0.0000   0.0000   0.0000   0.7785
  -2.400   0.2119   0.00673   0.00138  -0.1055  0.8400  0.0570  -1.4860   0.0000   0.0000   0.0000   0.7505
  -2.300   0.2230   0.00671   0.00133  -0.1054  0.8354  0.0599  -1.4041   0.0000   0.0000   0.0000   0.7253
  -2.200   0.2339   0.00664   0.00128  -0.1053  0.8305  0.0696  -1.3255   0.0000   0.0000   0.0000   0.7026
  -2.100   0.2449   0.00661   0.00124  -0.1053  0.8256  0.0758  -1.2461   0.0000   0.0000   0.0000   0.6820
  -2.000   0.2562   0.00656   0.00121  -0.1053  0.8220  0.0816  -1.1668   0.0000   0.0000   0.0000   0.6629
  -1.900   0.2673   0.00649   0.00118  -0.1053  0.8174  0.0924  -1.0890   0.0000   0.0000   0.0000   0.6456
  -1.800   0.2784   0.00646   0.00115  -0.1053  0.8120  0.0999  -1.0320   0.0000   0.0000   0.0000   0.6296
  -1.700   0.2893   0.00639   0.00110  -0.1053  0.8062  0.1170  -0.9891   0.0000   0.0000   0.0000   0.6151
  -1.600   0.3002   0.00638   0.00106  -0.1052  0.7999  0.1242  -0.9388   0.0000   0.0000   0.0000   0.6014
  -1.500   0.3111   0.00634   0.00104  -0.1051  0.7943  0.1371  -0.8891   0.0000   0.0000   0.0000   0.5888
  -1.400   0.3224   0.00630   0.00103  -0.1052  0.7902  0.1472  -0.8391   0.0000   0.0000   0.0000   0.5770
  -1.300   0.3336   0.00627   0.00100  -0.1052  0.7855  0.1576  -0.7900   0.0000   0.0000   0.0000   0.5659
  -1.200   0.3447   0.00622   0.00099  -0.1052  0.7801  0.1708  -0.7416   0.0000   0.0000   0.0000   0.5556
  -1.100   0.3557   0.00621   0.00097  -0.1051  0.7743  0.1795  -0.6940   0.0000   0.0000   0.0000   0.5459
  -1.000   0.3665   0.00619   0.00096  -0.1051  0.7681  0.1955  -0.6475   0.0000   0.0000   0.0000   0.5369
  -0.900   0.3774   0.00618   0.00095  -0.1050  0.7622  0.2073  -0.6013   0.0000   0.0000   0.0000   0.5284
  -0.800   0.3887   0.00613   0.00094  -0.1050  0.7582  0.2226  -0.5681   0.0000   0.0000   0.0000   0.5203
  -0.700   0.3999   0.00610   0.00094  -0.1051  0.7531  0.2371  -0.5755   0.0000   0.0000   0.0000   0.5127
  -0.600   0.4109   0.00607   0.00093  -0.1050  0.7469  0.2528  -0.5828   0.0000   0.0000   0.0000   0.5055
  -0.500   0.4218   0.00605   0.00093  -0.1050  0.7400  0.2712  -0.5900   0.0000   0.0000   0.0000   0.4987
  -0.400   0.4324   0.00603   0.00093  -0.1049  0.7320  0.2943  -0.5971   0.0000   0.0000   0.0000   0.4923
  -0.300   0.4434   0.00599   0.00094  -0.1049  0.7261  0.3185  -0.6045   0.0000   0.0000   0.0000   0.4861
  -0.200   0.4546   0.00593   0.00094  -0.1050  0.7207  0.3482  -0.6126   0.0000   0.0000   0.0000   0.4803
  -0.100   0.4654   0.00582   0.00095  -0.1050  0.7142  0.3967  -0.6206   0.0000   0.0000   0.0000   0.4749
   0.000   0.4759   0.00562   0.00097  -0.1050  0.7072  0.4945  -0.6285   0.0000   0.0000   0.0000   0.4699
   0.200   0.4960   0.00524   0.00104  -0.1047  0.6925  0.6887  -0.6437   0.0000   0.0000   0.0000   0.4602
   0.300   0.5054   0.00499   0.00108  -0.1044  0.6885  0.7885  -0.6511   0.0000   0.0000   0.0000   0.4555
   0.400   0.5105   0.00469   0.00111  -0.1028  0.6836  0.9133  -0.6564   0.0000   0.0000   0.0000   0.4502
   0.500   0.5274   0.00462   0.00108  -0.1040  0.6769  0.9999  -0.6676   0.0000   0.0000   0.0000   0.4459
   0.600   0.5382   0.00467   0.00108  -0.1039  0.6694  0.9999  -0.6757   0.0000   0.0000   0.0000   0.4417
   0.700   0.5488   0.00474   0.00109  -0.1037  0.6606  0.9999  -0.6836   0.0000   0.0000   0.0000   0.4377
   0.800   0.5598   0.00478   0.00110  -0.1037  0.6539  0.9999  -0.6918   0.0000   0.0000   0.0000   0.4338
   0.900   0.5709   0.00481   0.00113  -0.1037  0.6485  0.9999  -0.7005   0.0000   0.0000   0.0000   0.4301
   1.000   0.5819   0.00485   0.00114  -0.1037  0.6419  0.9999  -0.7095   0.0000   0.0000   0.0000   0.4265
   1.100   0.5928   0.00491   0.00115  -0.1036  0.6346  0.9999  -0.7185   0.0000   0.0000   0.0000   0.4231
   1.200   0.6035   0.00498   0.00117  -0.1035  0.6268  0.9999  -0.7274   0.0000   0.0000   0.0000   0.4197
   1.300   0.6142   0.00504   0.00119  -0.1034  0.6183  0.9999  -0.7363   0.0000   0.0000   0.0000   0.4165
   1.400   0.6254   0.00507   0.00120  -0.1034  0.6145  0.9999  -0.7455   0.0000   0.0000   0.0000   0.4134
   1.500   0.6365   0.00510   0.00122  -0.1034  0.6094  0.9999  -0.7547   0.0000   0.0000   0.0000   0.4105
   1.600   0.6474   0.00515   0.00123  -0.1034  0.6031  0.9999  -0.7638   0.0000   0.0000   0.0000   0.4076
   1.700   0.6582   0.00521   0.00126  -0.1033  0.5958  0.9999  -0.7730   0.0000   0.0000   0.0000   0.4048
   1.800   0.6688   0.00529   0.00128  -0.1032  0.5875  0.9999  -0.7829   0.0000   0.0000   0.0000   0.4020
   1.900   0.6795   0.00536   0.00131  -0.1031  0.5791  0.9999  -0.7929   0.0000   0.0000   0.0000   0.3994
   2.000   0.6907   0.00538   0.00133  -0.1031  0.5758  0.9999  -0.8032   0.0000   0.0000   0.0000   0.3969
   2.100   0.7018   0.00542   0.00135  -0.1031  0.5715  0.9999  -0.8134   0.0000   0.0000   0.0000   0.3944
   2.200   0.7128   0.00546   0.00138  -0.1031  0.5662  0.9999  -0.8237   0.0000   0.0000   0.0000   0.3920
   2.300   0.7236   0.00552   0.00141  -0.1030  0.5601  0.9999  -0.8341   0.0000   0.0000   0.0000   0.3897
   2.400   0.7343   0.00560   0.00144  -0.1029  0.5531  0.9999  -0.8453   0.0000   0.0000   0.0000   0.3874
   2.500   0.7449   0.00567   0.00148  -0.1028  0.5450  0.9999  -0.8564   0.0000   0.0000   0.0000   0.3852
   2.600   0.7558   0.00573   0.00151  -0.1028  0.5392  0.9999  -0.8678   0.0000   0.0000   0.0000   0.3831
   2.700   0.7669   0.00576   0.00154  -0.1028  0.5362  0.9999  -0.8809   0.0000   0.0000   0.0000   0.3811
   2.800   0.7780   0.00579   0.00157  -0.1028  0.5323  0.9999  -0.9124   0.0000   0.0000   0.0000   0.3791
   2.900   0.7889   0.00584   0.00161  -0.1028  0.5273  0.9999  -0.9524   0.0000   0.0000   0.0000   0.3771
   3.000   0.7997   0.00591   0.00165  -0.1027  0.5214  0.9999  -0.9969   0.0000   0.0000   0.0000   0.3752
   3.100   0.8103   0.00599   0.00169  -0.1026  0.5146  0.9999  -1.0509   0.0000   0.0000   0.0000   0.3733
   3.200   0.8207   0.00609   0.00174  -0.1025  0.5043  0.9999  -1.1050   0.0000   0.0000   0.0000   0.3714
   3.300   0.8315   0.00614   0.00177  -0.1025  0.4970  0.9999  -1.1612   0.0000   0.0000   0.0000   0.3697
   3.400   0.8421   0.00621   0.00181  -0.1024  0.4869  0.9999  -1.2175   0.0000   0.0000   0.0000   0.3679
   3.500   0.8520   0.00636   0.00186  -0.1022  0.4720  0.9999  -1.2726   0.0000   0.0000   0.0000   0.3662
   3.600   0.8627   0.00643   0.00198  -0.1021  0.4658  0.9999  -1.3175   0.0000   0.0000   0.0000   0.3645
   3.700   0.8734   0.00650   0.00202  -0.1020  0.4563  0.9999  -1.3720   0.0000   0.0000   0.0000   0.3629
   3.800   0.8838   0.00660   0.00207  -0.1019  0.4443  0.9999  -1.4284   0.0000   0.0000   0.0000   0.3613
   3.900   0.8939   0.00673   0.00213  -0.1017  0.4325  0.9999  -1.4852   0.0000   0.0000   0.0000   0.3597
   4.000   0.9042   0.00683   0.00219  -0.1016  0.4220  0.9999  -1.5437   0.0000   0.0000   0.0000   0.3582
   4.100   0.9152   0.00687   0.00224  -0.1016  0.4188  0.9999  -1.6049   0.0000   0.0000   0.0000   0.3567
   4.200   0.9261   0.00692   0.00229  -0.1016  0.4132  0.9999  -1.6704   0.0000   0.0000   0.0000   0.3553
   4.300   0.9366   0.00701   0.00235  -0.1015  0.4039  0.9999  -1.7588   0.0000   0.0000   0.0000   0.3539
   4.400   0.9465   0.00715   0.00242  -0.1013  0.3904  0.9999  -1.8459   0.0000   0.0000   0.0000   0.3524
   4.500   0.9569   0.00726   0.00249  -0.1012  0.3795  0.9999  -1.9362   0.0000   0.0000   0.0000   0.3510
   4.600   0.9672   0.00736   0.00256  -0.1011  0.3676  0.9999  -2.0277   0.0000   0.0000   0.0000   0.3497
   4.700   0.9765   0.00758   0.00265  -0.1008  0.3470  0.9999  -2.1160   0.0000   0.0000   0.0000   0.3483
   4.800   0.9866   0.00771   0.00274  -0.1007  0.3323  0.9999  -2.2088   0.0000   0.0000   0.0000   0.3470
   4.900   0.9954   0.00798   0.00287  -0.1003  0.3065  0.9999  -2.2972   0.0000   0.0000   0.0000   0.3457
   5.000   1.0047   0.00820   0.00300  -0.1001  0.2844  0.9999  -2.3885   0.0000   0.0000   0.0000   0.3444
   5.100   1.0134   0.00849   0.00315  -0.0997  0.2574  0.9999  -2.4784   0.0000   0.0000   0.0000   0.3431
   5.200   1.0216   0.00883   0.00333  -0.0993  0.2269  0.9999  -2.5668   0.0000   0.0000   0.0000   0.3418
   5.300   1.0296   0.00921   0.00353  -0.0989  0.1949  0.9999  -2.6548   0.0000   0.0000   0.0000   0.3405
   5.400   1.0375   0.00960   0.00375  -0.0985  0.1635  0.9999  -2.7432   0.0000   0.0000   0.0000   0.3393
   5.500   1.0455   0.00998   0.00398  -0.0980  0.1344  0.9999  -2.8325   0.0000   0.0000   0.0000   0.3380
   5.600   1.0536   0.01034   0.00420  -0.0976  0.1089  0.9999  -2.9234   0.0000   0.0000   0.0000   0.3368
   5.700   1.0618   0.01068   0.00441  -0.0972  0.0869  0.9999  -3.0159   0.0000   0.0000   0.0000   0.3356
   5.800   1.0701   0.01101   0.00462  -0.0968  0.0675  0.9999  -3.1096   0.0000   0.0000   0.0000   0.3344
   5.900   1.0786   0.01132   0.00483  -0.0964  0.0531  0.9999  -3.2052   0.0000   0.0000   0.0000   0.3332
   6.000   1.0880   0.01152   0.00499  -0.0962  0.0447  0.9999  -3.3065   0.0000   0.0000   0.0000   0.3321
   6.100   1.0969   0.01177   0.00518  -0.0958  0.0359  0.9999  -3.4049   0.0000   0.0000   0.0000   0.3310
   6.200   1.1068   0.01192   0.00531  -0.0956  0.0326  0.9999  -3.5099   0.0000   0.0000   0.0000   0.3299
   6.300   1.1165   0.01207   0.00550  -0.0955  0.0298  0.9999  -3.6023   0.0000   0.0000   0.0000   0.3289
   6.400   1.1254   0.01231   0.00570  -0.0951  0.0246  0.9999  -3.6990   0.0000   0.0000   0.0000   0.3278
   6.500   1.1349   0.01250   0.00589  -0.0948  0.0210  0.9999  -3.7956   0.0000   0.0000   0.0000   0.3267
   6.600   1.1448   0.01261   0.00602  -0.0947  0.0200  0.9999  -3.9054   0.0000   0.0000   0.0000   0.3257
   6.700   1.1545   0.01277   0.00617  -0.0945  0.0185  0.9999  -4.0111   0.0000   0.0000   0.0000   0.3247
   6.800   1.1638   0.01296   0.00634  -0.0942  0.0168  0.9999  -4.1145   0.0000   0.0000   0.0000   0.3237
   6.900   1.1728   0.01319   0.00656  -0.0938  0.0148  0.9999  -4.2106   0.0000   0.0000   0.0000   0.3226
   7.000   1.1803   0.01361   0.00704  -0.0932  0.0113  0.9999  -4.2545   0.0000   0.0000   0.0000   0.3214
   7.100   1.1907   0.01365   0.00705  -0.0931  0.0110  0.9999  -4.3809   0.0000   0.0000   0.0000   0.3206
   7.200   1.2004   0.01378   0.00717  -0.0929  0.0100  0.9999  -4.4802   0.0000   0.0000   0.0000   0.3197
   7.300   1.2091   0.01404   0.00747  -0.0925  0.0091  0.9999  -4.5467   0.0000   0.0000   0.0000   0.3186
   7.400   1.2177   0.01431   0.00779  -0.0920  0.0087  0.9999  -4.6172   0.0000   0.0000   0.0000   0.3176
   7.500   1.2260   0.01461   0.00813  -0.0915  0.0085  0.9999  -4.6901   0.0000   0.0000   0.0000   0.3165
   7.600   1.2341   0.01492   0.00849  -0.0910  0.0083  0.9999  -4.7633   0.0000   0.0000   0.0000   0.3154
   7.700   1.2419   0.01525   0.00887  -0.0904  0.0082  0.9999  -4.8355   0.0000   0.0000   0.0000   0.3144
   7.800   1.2494   0.01560   0.00929  -0.0898  0.0082  0.9999  -4.9057   0.0000   0.0000   0.0000   0.3133
   7.900   1.2566   0.01599   0.00973  -0.0891  0.0081  0.9999  -4.9734   0.0000   0.0000   0.0000   0.3122
   8.000   1.2635   0.01640   0.01020  -0.0883  0.0081  0.9999  -5.0380   0.0000   0.0000   0.0000   0.3111
   8.100   1.2699   0.01685   0.01071  -0.0875  0.0081  0.9999  -5.0993   0.0000   0.0000   0.0000   0.3100
   8.200   1.2759   0.01733   0.01125  -0.0866  0.0081  0.9999  -5.1569   0.0000   0.0000   0.0000   0.3088
   8.300   1.2815   0.01784   0.01183  -0.0856  0.0082  0.9999  -5.2109   0.0000   0.0000   0.0000   0.3076
   8.400   1.2867   0.01839   0.01244  -0.0846  0.0082  0.9999  -5.2611   0.0000   0.0000   0.0000   0.3065
   8.500   1.2915   0.01899   0.01310  -0.0836  0.0083  0.9999  -5.3073   0.0000   0.0000   0.0000   0.3053
   8.600   1.2961   0.01962   0.01379  -0.0825  0.0084  0.9999  -5.3499   0.0000   0.0000   0.0000   0.3040
   8.700   1.3009   0.02025   0.01449  -0.0814  0.0084  0.9999  -5.3957   0.0000   0.0000   0.0000   0.3029
   8.800   1.3059   0.02087   0.01516  -0.0804  0.0084  0.9999  -5.4486   0.0000   0.0000   0.0000   0.3017
   8.900   1.3113   0.02146   0.01580  -0.0795  0.0084  0.9999  -5.5077   0.0000   0.0000   0.0000   0.3006
   9.000   1.3170   0.02203   0.01642  -0.0786  0.0084  0.9999  -5.5725   0.0000   0.0000   0.0000   0.2996
   9.200   1.3374   0.02169   0.01607  -0.0787  0.0075  0.9999  -5.9488   0.0000   0.0000   0.0000   0.2984
   9.300   1.3434   0.02211   0.01653  -0.0779  0.0074  0.9999  -6.0382   0.0000   0.0000   0.0000   0.2975
   9.400   1.3483   0.02270   0.01717  -0.0770  0.0074  0.9999  -6.1028   0.0000   0.0000   0.0000   0.2964
   9.500   1.3529   0.02336   0.01789  -0.0760  0.0074  0.9999  -6.1573   0.0000   0.0000   0.0000   0.2953
   9.600   1.3574   0.02405   0.01864  -0.0750  0.0074  0.9999  -6.2094   0.0000   0.0000   0.0000   0.2943
   9.700   1.3618   0.02478   0.01944  -0.0739  0.0074  0.9999  -6.2592   0.0000   0.0000   0.0000   0.2932
   9.800   1.3660   0.02553   0.02026  -0.0729  0.0074  0.9999  -6.3062   0.0000   0.0000   0.0000   0.2921
   9.900   1.3703   0.02633   0.02112  -0.0719  0.0075  0.9999  -6.3514   0.0000   0.0000   0.0000   0.2911
  10.000   1.3746   0.02716   0.02202  -0.0708  0.0075  0.9999  -6.3948   0.0000   0.0000   0.0000   0.2900
  10.100   1.3788   0.02804   0.02297  -0.0699  0.0075  0.9999  -6.4364   0.0000   0.0000   0.0000   0.2890
  10.200   1.3830   0.02895   0.02396  -0.0689  0.0076  0.9999  -6.4759   0.0000   0.0000   0.0000   0.2880
  10.300   1.3870   0.02991   0.02499  -0.0679  0.0076  0.9999  -6.5134   0.0000   0.0000   0.0000   0.2870
  10.400   1.3907   0.03090   0.02606  -0.0669  0.0076  0.9999  -6.5479   0.0000   0.0000   0.0000   0.2860
  10.500   1.3940   0.03193   0.02719  -0.0658  0.0077  0.9999  -6.5775   0.0000   0.0000   0.0000   0.2850
  10.600   1.3967   0.03299   0.02833  -0.0647  0.0077  0.9999  -6.6041   0.0000   0.0000   0.0000   0.2840
  10.700   1.3987   0.03407   0.02949  -0.0635  0.0077  0.9999  -6.6278   0.0000   0.0000   0.0000   0.2830
  10.800   1.4001   0.03515   0.03067  -0.0622  0.0078  0.9999  -6.6487   0.0000   0.0000   0.0000   0.2819
  10.900   1.4008   0.03625   0.03186  -0.0609  0.0078  0.9999  -6.6668   0.0000   0.0000   0.0000   0.2808
  11.000   1.4007   0.03735   0.03305  -0.0595  0.0078  0.9999  -6.6821   0.0000   0.0000   0.0000   0.2797
  11.100   1.3999   0.03846   0.03425  -0.0581  0.0078  0.9999  -6.6948   0.0000   0.0000   0.0000   0.2785
  11.200   1.3986   0.03958   0.03546  -0.0566  0.0078  0.9999  -6.7053   0.0000   0.0000   0.0000   0.2774
  11.300   1.3967   0.04072   0.03669  -0.0552  0.0079  0.9999  -6.7139   0.0000   0.0000   0.0000   0.2763
  11.400   1.3943   0.04189   0.03794  -0.0538  0.0079  0.9999  -6.7206   0.0000   0.0000   0.0000   0.2752
  11.500   1.3912   0.04305   0.03919  -0.0523  0.0079  0.9999  -6.7382   0.0000   0.0000   0.0000   0.2741
  11.600   1.3876   0.04424   0.04046  -0.0509  0.0079  0.9999  -6.7633   0.0000   0.0000   0.0000   0.2730
  11.700   1.3837   0.04547   0.04178  -0.0495  0.0079  0.9999  -6.7854   0.0000   0.0000   0.0000   0.2720
  11.800   1.3795   0.04674   0.04313  -0.0483  0.0079  0.9999  -6.8051   0.0000   0.0000   0.0000   0.2711
  11.900   1.3749   0.04806   0.04453  -0.0471  0.0079  0.9999  -6.8214   0.0000   0.0000   0.0000   0.2702
  12.000   1.3700   0.04942   0.04597  -0.0460  0.0079  0.9999  -6.8352   0.0000   0.0000   0.0000   0.2693
  12.100   1.3646   0.05082   0.04745  -0.0449  0.0079  0.9999  -6.8448   0.0000   0.0000   0.0000   0.2685
  12.200   1.3587   0.05223   0.04894  -0.0439  0.0079  0.9999  -6.8503   0.0000   0.0000   0.0000   0.2678
  12.300   1.3525   0.05371   0.05049  -0.0430  0.0079  0.9999  -6.8521   0.0000   0.0000   0.0000   0.2671
  12.400   1.3462   0.05527   0.05213  -0.0422  0.0079  0.9999  -6.8525   0.0000   0.0000   0.0000   0.2666
  12.500   1.3395   0.05691   0.05384  -0.0416  0.0079  0.9999  -6.8487   0.0000   0.0000   0.0000   0.2661
  12.600   1.3329   0.05862   0.05563  -0.0411  0.0079  0.9999  -6.8434   0.0000   0.0000   0.0000   0.2657
  12.700   1.3258   0.06042   0.05751  -0.0408  0.0079  0.9999  -6.8330   0.0000   0.0000   0.0000   0.2654
  12.800   1.3188   0.06229   0.05945  -0.0406  0.0079  0.9999  -6.8214   0.0000   0.0000   0.0000   0.2653
  12.900   1.3112   0.06426   0.06149  -0.0405  0.0080  0.9999  -6.8035   0.0000   0.0000   0.0000   0.2652
  13.000   1.3036   0.06630   0.06360  -0.0405  0.0080  0.9999  -6.7838   0.0000   0.0000   0.0000   0.2653
  13.100   1.2954   0.06846   0.06583  -0.0408  0.0080  0.9999  -6.7567   0.0000   0.0000   0.0000   0.2655
  13.200   1.2873   0.07068   0.06812  -0.0411  0.0080  0.9999  -6.7280   0.0000   0.0000   0.0000   0.2657
  13.300   1.2782   0.07301   0.07051  -0.0416  0.0080  0.9999  -6.6901   0.0000   0.0000   0.0000   0.2662
  13.400   1.2691   0.07536   0.07293  -0.0421  0.0080  0.9999  -6.6496   0.0000   0.0000   0.0000   0.2666
  13.500   1.2594   0.07791   0.07555  -0.0429  0.0080  0.9999  -6.6011   0.0000   0.0000   0.0000   0.2674
  13.600   1.2500   0.08058   0.07829  -0.0438  0.0081  0.9999  -6.5505   0.0000   0.0000   0.0000   0.2682
  13.700   1.2400   0.08345   0.08123  -0.0450  0.0081  0.9999  -6.4918   0.0000   0.0000   0.0000   0.2693
  13.800   1.2300   0.08646   0.08430  -0.0464  0.0081  0.9999  -6.4284   0.0000   0.0000   0.0000   0.2705
  13.900   1.2198   0.08966   0.08756  -0.0479  0.0082  0.9999  -6.3582   0.0000   0.0000   0.0000   0.2719
  14.000   1.2092   0.09307   0.09104  -0.0497  0.0082  0.9999  -6.2791   0.0000   0.0000   0.0000   0.2736
  14.100   1.1987   0.09661   0.09464  -0.0517  0.0083  0.9999  -6.1956   0.0000   0.0000   0.0000   0.2754
  14.200   1.1873   0.10048   0.09858  -0.0540  0.0083  0.9999  -6.0971   0.0000   0.0000   0.0000   0.2776
  14.300   1.1761   0.10448   0.10264  -0.0564  0.0084  0.9999  -5.9928   0.0000   0.0000   0.0000   0.2800
  14.400   1.1641   0.10883   0.10705  -0.0591  0.0084  0.9999  -5.8726   0.0000   0.0000   0.0000   0.2827
  14.500   1.1515   0.11354   0.11183  -0.0622  0.0085  0.9999  -5.7346   0.0000   0.0000   0.0000   0.2858
  14.600   1.1384   0.11862   0.11697  -0.0655  0.0086  0.9999  -5.5770   0.0000   0.0000   0.0000   0.2893
  14.700   1.1237   0.12444   0.12285  -0.0693  0.0087  0.9999  -5.3806   0.0000   0.0000   0.0000   0.2934
  14.800   1.1055   0.13185   0.13033  -0.0742  0.0089  0.9999  -5.0991   0.0000   0.0000   0.0000   0.2989
  15.800   1.0006   0.19145   0.18991  -0.1037  0.0113  0.9999  -2.6447   0.0000   0.0000   0.0000   0.3363
  15.900   1.0012   0.19369   0.19215  -0.1047  0.0113  0.9999  -2.6321   0.0000   0.0000   0.0000   0.3371
  16.000   1.0019   0.19590   0.19436  -0.1057  0.0113  0.9999  -2.6210   0.0000   0.0000   0.0000   0.3379
  16.100   1.0027   0.19810   0.19656  -0.1066  0.0113  0.9999  -2.6113   0.0000   0.0000   0.0000   0.3387
  16.200   1.0035   0.20028   0.19874  -0.1076  0.0113  0.9999  -2.6029   0.0000   0.0000   0.0000   0.3394
  16.300   1.0045   0.20245   0.20091  -0.1085  0.0113  0.9999  -2.5957   0.0000   0.0000   0.0000   0.3401
  16.400   1.0055   0.20460   0.20306  -0.1094  0.0113  0.9999  -2.5895   0.0000   0.0000   0.0000   0.3408
  16.500   1.0065   0.20675   0.20520  -0.1103  0.0113  0.9999  -2.5844   0.0000   0.0000   0.0000   0.3415
  16.600   1.0076   0.20888   0.20733  -0.1112  0.0113  0.9999  -2.5800   0.0000   0.0000   0.0000   0.3421
  16.700   1.0088   0.21100   0.20946  -0.1121  0.0113  0.9999  -2.5765   0.0000   0.0000   0.0000   0.3427
  16.800   1.0100   0.21311   0.21157  -0.1130  0.0113  0.9999  -2.5737   0.0000   0.0000   0.0000   0.3434
  16.900   1.0112   0.21522   0.21367  -0.1139  0.0113  0.9999  -2.5715   0.0000   0.0000   0.0000   0.3439
  17.000   1.0125   0.21731   0.21577  -0.1147  0.0112  0.9999  -2.5698   0.0000   0.0000   0.0000   0.3445
  17.100   1.0138   0.21940   0.21786  -0.1156  0.0112  0.9999  -2.5685   0.0000   0.0000   0.0000   0.3451
  17.200   1.0152   0.22148   0.21994  -0.1164  0.0112  0.9999  -2.5675   0.0000   0.0000   0.0000   0.3456
  17.300   1.0166   0.22356   0.22202  -0.1173  0.0112  0.9999  -2.5666   0.0000   0.0000   0.0000   0.3462
  17.400   1.0181   0.22563   0.22409  -0.1181  0.0112  0.9999  -2.5655   0.0000   0.0000   0.0000   0.3467
  17.500   1.0196   0.22769   0.22615  -0.1189  0.0112  0.9999  -2.5638   0.0000   0.0000   0.0000   0.3472
  17.600   1.0212   0.22974   0.22820  -0.1198  0.0111  0.9999  -2.5609   0.0000   0.0000   0.0000   0.3477
  17.700   1.0229   0.23177   0.23023  -0.1206  0.0111  0.9999  -2.5546   0.0000   0.0000   0.0000   0.3481
  17.800   1.0253   0.23372   0.23218  -0.1214  0.0109  0.9999  -2.5362   0.0000   0.0000   0.0000   0.3485
  18.400   1.0519   0.23567   0.23418  -0.1242  0.0058  0.9999  -3.3177   0.0000   0.0000   0.0000   0.3467
  18.500   1.0542   0.23672   0.23524  -0.1248  0.0056  0.9999  -3.4049   0.0000   0.0000   0.0000   0.3467
  18.600   1.0565   0.23780   0.23632  -0.1254  0.0054  0.9999  -3.4914   0.0000   0.0000   0.0000   0.3468
  18.700   1.0585   0.23894   0.23746  -0.1260  0.0053  0.9999  -3.5740   0.0000   0.0000   0.0000   0.3470
  19.100   1.0580   0.24977   0.24827  -0.1304  0.0040  0.9999  -3.4463   0.0000   0.0000   0.0000   0.3507
  19.200   1.0603   0.25138   0.24988  -0.1310  0.0039  0.9999  -3.4864   0.0000   0.0000   0.0000   0.3508
  19.300   1.0623   0.25319   0.25169  -0.1317  0.0037  0.9999  -3.5071   0.0000   0.0000   0.0000   0.3511
  19.400   1.0637   0.25556   0.25406  -0.1325  0.0034  0.9999  -3.4710   0.0000   0.0000   0.0000   0.3515
  19.500   1.0633   0.25927   0.25777  -0.1335  0.0031  0.9999  -3.3018   0.0000   0.0000   0.0000   0.3524
  19.600   1.0627   0.26301   0.26150  -0.1345  0.0029  0.9999  -3.1341   0.0000   0.0000   0.0000   0.3534
  19.700   1.0624   0.26639   0.26488  -0.1355  0.0029  0.9999  -3.0046   0.0000   0.0000   0.0000   0.3543
  19.800   1.0623   0.26955   0.26804  -0.1364  0.0030  0.9999  -2.8985   0.0000   0.0000   0.0000   0.3551
  19.900   1.0625   0.27254   0.27103  -0.1372  0.0030  0.9999  -2.8097   0.0000   0.0000   0.0000   0.3557
  20.000   1.0627   0.27541   0.27389  -0.1380  0.0031  0.9999  -2.7333   0.0000   0.0000   0.0000   0.3563
  20.100   1.0630   0.27818   0.27667  -0.1388  0.0032  0.9999  -2.6665   0.0000   0.0000   0.0000   0.3569
  20.200   1.0634   0.28089   0.27937  -0.1395  0.0033  0.9999  -2.6072   0.0000   0.0000   0.0000   0.3574
  20.300   1.0637   0.28354   0.28203  -0.1403  0.0034  0.9999  -2.5540   0.0000   0.0000   0.0000   0.3579
  20.400   1.0640   0.28617   0.28466  -0.1410  0.0035  0.9999  -2.5077   0.0000   0.0000   0.0000   0.3584
  20.500   1.0640   0.28886   0.28734  -0.1417  0.0037  0.9999  -2.4581   0.0000   0.0000   0.0000   0.3589
  20.600   1.0583   0.29435   0.29282  -0.1423  0.0043  0.9999  -2.2068   0.0000   0.0000   0.0000   0.3603
  20.700   1.0586   0.29688   0.29535  -0.1429  0.0044  0.9999  -2.1752   0.0000   0.0000   0.0000   0.3606
  20.800   1.0592   0.29930   0.29777  -0.1435  0.0044  0.9999  -2.1522   0.0000   0.0000   0.0000   0.3610
  20.900   1.0598   0.30167   0.30014  -0.1441  0.0044  0.9999  -2.1326   0.0000   0.0000   0.0000   0.3613
  21.000   1.0603   0.30401   0.30248  -0.1446  0.0044  0.9999  -2.1149   0.0000   0.0000   0.0000   0.3616
  21.100   1.0609   0.30634   0.30481  -0.1452  0.0044  0.9999  -2.0985   0.0000   0.0000   0.0000   0.3619
  21.200   1.0615   0.30865   0.30712  -0.1457  0.0044  0.9999  -2.0830   0.0000   0.0000   0.0000   0.3622
  21.300   1.0620   0.31094   0.30942  -0.1463  0.0044  0.9999  -2.0682   0.0000   0.0000   0.0000   0.3624
  21.400   1.0625   0.31323   0.31171  -0.1468  0.0044  0.9999  -2.0540   0.0000   0.0000   0.0000   0.3627
  21.500   1.0629   0.31551   0.31399  -0.1473  0.0044  0.9999  -2.0402   0.0000   0.0000   0.0000   0.3630
  21.600   1.0632   0.31778   0.31626  -0.1478  0.0044  0.9999  -2.0267   0.0000   0.0000   0.0000   0.3632
  21.700   1.0635   0.32004   0.31853  -0.1483  0.0044  0.9999  -2.0134   0.0000   0.0000   0.0000   0.3635
  21.800   1.0638   0.32229   0.32078  -0.1488  0.0044  0.9999  -2.0004   0.0000   0.0000   0.0000   0.3637
  21.900   1.0639   0.32453   0.32302  -0.1492  0.0044  0.9999  -1.9876   0.0000   0.0000   0.0000   0.3640
  22.000   1.0640   0.32676   0.32525  -0.1497  0.0044  0.9999  -1.9750   0.0000   0.0000   0.0000   0.3642
  22.100   1.0640   0.32898   0.32747  -0.1501  0.0044  0.9999  -1.9625   0.0000   0.0000   0.0000   0.3645
  22.200   1.0639   0.33119   0.32968  -0.1505  0.0044  0.9999  -1.9501   0.0000   0.0000   0.0000   0.3647
  22.300   1.0637   0.33338   0.33188  -0.1509  0.0044  0.9999  -1.9377   0.0000   0.0000   0.0000   0.3650
  22.400   1.0634   0.33556   0.33405  -0.1513  0.0044  0.9999  -1.9254   0.0000   0.0000   0.0000   0.3652
  22.500   1.0630   0.33771   0.33621  -0.1516  0.0044  0.9999  -1.9131   0.0000   0.0000   0.0000   0.3654
  22.600   1.0624   0.33985   0.33835  -0.1520  0.0044  0.9999  -1.9007   0.0000   0.0000   0.0000   0.3656
  22.700   1.0617   0.34196   0.34046  -0.1523  0.0044  0.9999  -1.8882   0.0000   0.0000   0.0000   0.3658
  22.800   1.0609   0.34404   0.34255  -0.1525  0.0044  0.9999  -1.8756   0.0000   0.0000   0.0000   0.3660
  22.900   1.0598   0.34609   0.34460  -0.1527  0.0044  0.9999  -1.8628   0.0000   0.0000   0.0000   0.3663
  23.000   1.0585   0.34810   0.34661  -0.1529  0.0044  0.9999  -1.8498   0.0000   0.0000   0.0000   0.3665
  23.100   1.0570   0.35007   0.34858  -0.1531  0.0044  0.9999  -1.8364   0.0000   0.0000   0.0000   0.3666
  23.200   1.0551   0.35197   0.35049  -0.1532  0.0044  0.9999  -1.8226   0.0000   0.0000   0.0000   0.3668
  23.300   1.0530   0.35381   0.35233  -0.1532  0.0044  0.9999  -1.8083   0.0000   0.0000   0.0000   0.3670
  23.400   1.0503   0.35555   0.35408  -0.1531  0.0044  0.9999  -1.7932   0.0000   0.0000   0.0000   0.3672
  23.500   1.0471   0.35718   0.35571  -0.1530  0.0044  0.9999  -1.7771   0.0000   0.0000   0.0000   0.3674
  23.600   1.0431   0.35862   0.35716  -0.1527  0.0044  0.9999  -1.7595   0.0000   0.0000   0.0000   0.3675
  23.700   1.0377   0.35979   0.35833  -0.1521  0.0044  0.9999  -1.7394   0.0000   0.0000   0.0000   0.3676
  23.800   0.9309   0.33398   0.33258  -0.1336  0.0044  0.9999  -1.5114   0.0000   0.0000   0.0000   0.3662
  23.900   0.9254   0.33371   0.33231  -0.1330  0.0044  0.9999  -1.4915   0.0000   0.0000   0.0000   0.3663
  24.000   0.9205   0.33355   0.33215  -0.1325  0.0044  0.9999  -1.4729   0.0000   0.0000   0.0000   0.3665
  24.100   0.9161   0.33347   0.33208  -0.1321  0.0044  0.9999  -1.4554   0.0000   0.0000   0.0000   0.3666
  24.200   0.9119   0.33346   0.33207  -0.1317  0.0044  0.9999  -1.4385   0.0000   0.0000   0.0000   0.3668
  24.300   0.9081   0.33350   0.33212  -0.1313  0.0044  0.9999  -1.4224   0.0000   0.0000   0.0000   0.3669
  24.400   0.9046   0.33357   0.33219  -0.1311  0.0044  0.9999  -1.4069   0.0000   0.0000   0.0000   0.3671
  24.500   0.9012   0.33368   0.33231  -0.1308  0.0044  0.9999  -1.3920   0.0000   0.0000   0.0000   0.3672
  24.600   0.8981   0.33382   0.33245  -0.1306  0.0044  0.9999  -1.3776   0.0000   0.0000   0.0000   0.3674
  24.700   0.8951   0.33399   0.33262  -0.1304  0.0044  0.9999  -1.3638   0.0000   0.0000   0.0000   0.3676
  24.800   0.8923   0.33418   0.33282  -0.1302  0.0044  0.9999  -1.3504   0.0000   0.0000   0.0000   0.3677
  24.900   0.8896   0.33440   0.33305  -0.1301  0.0044  0.9999  -1.3374   0.0000   0.0000   0.0000   0.3679
  25.000   0.8871   0.33464   0.33329  -0.1300  0.0044  0.9999  -1.3248   0.0000   0.0000   0.0000   0.3681
  25.100   0.8847   0.33490   0.33355  -0.1299  0.0044  0.9999  -1.3126   0.0000   0.0000   0.0000   0.3683
  25.200   0.8824   0.33517   0.33383  -0.1298  0.0044  0.9999  -1.3008   0.0000   0.0000   0.0000   0.3684
  25.300   0.8802   0.33546   0.33412  -0.1298  0.0044  0.9999  -1.2892   0.0000   0.0000   0.0000   0.3686
  25.400   0.8781   0.33576   0.33443  -0.1297  0.0044  0.9999  -1.2780   0.0000   0.0000   0.0000   0.3688
  25.500   0.8761   0.33608   0.33475  -0.1297  0.0044  0.9999  -1.2671   0.0000   0.0000   0.0000   0.3690
  25.600   0.8742   0.33641   0.33508  -0.1297  0.0044  0.9999  -1.2564   0.0000   0.0000   0.0000   0.3692
  25.700   0.8723   0.33674   0.33542  -0.1297  0.0044  0.9999  -1.2460   0.0000   0.0000   0.0000   0.3693
  25.800   0.8706   0.33709   0.33577  -0.1297  0.0044  0.9999  -1.2361   0.0000   0.0000   0.0000   0.3695
  25.900   0.8689   0.33747   0.33615  -0.1297  0.0044  0.9999  -1.2267   0.0000   0.0000   0.0000   0.3697
  26.000   0.8674   0.33784   0.33653  -0.1298  0.0044  0.9999  -1.2176   0.0000   0.0000   0.0000   0.3699
  26.100   0.8658   0.33822   0.33691  -0.1298  0.0043  0.9999  -1.2087   0.0000   0.0000   0.0000   0.3701
  26.200   0.8644   0.33861   0.33733  -0.1299  0.0043  0.9999  -1.1999   0.0000   0.0000   0.0000   0.3703
  26.300   0.8629   0.33901   0.33773  -0.1300  0.0043  0.9999  -1.1914   0.0000   0.0000   0.0000   0.3704
  26.400   0.8616   0.33941   0.33813  -0.1301  0.0043  0.9999  -1.1831   0.0000   0.0000   0.0000   0.3706
  26.500   0.8603   0.33982   0.33855  -0.1302  0.0043  0.9999  -1.1750   0.0000   0.0000   0.0000   0.3708
  26.600   0.8590   0.34023   0.33897  -0.1303  0.0043  0.9999  -1.1671   0.0000   0.0000   0.0000   0.3710
  26.700   0.8577   0.34066   0.33940  -0.1304  0.0043  0.9999  -1.1589   0.0000   0.0000   0.0000   0.3712
  26.800   0.8565   0.34110   0.33983  -0.1305  0.0043  0.9999  -1.1506   0.0000   0.0000   0.0000   0.3714
  26.900   0.8554   0.34154   0.34028  -0.1306  0.0043  0.9999  -1.1425   0.0000   0.0000   0.0000   0.3716
  27.000   0.8543   0.34198   0.34073  -0.1307  0.0043  0.9999  -1.1346   0.0000   0.0000   0.0000   0.3718
  27.100   0.8532   0.34243   0.34118  -0.1309  0.0043  0.9999  -1.1268   0.0000   0.0000   0.0000   0.3720
  27.200   0.8521   0.34289   0.34164  -0.1310  0.0043  0.9999  -1.1192   0.0000   0.0000   0.0000   0.3722
  27.300   0.8511   0.34334   0.34210  -0.1312  0.0043  0.9999  -1.1118   0.0000   0.0000   0.0000   0.3724
  27.400   0.8501   0.34381   0.34257  -0.1313  0.0043  0.9999  -1.1046   0.0000   0.0000   0.0000   0.3726
  27.500   0.8492   0.34427   0.34304  -0.1315  0.0043  0.9999  -1.0975   0.0000   0.0000   0.0000   0.3728
  27.600   0.8482   0.34474   0.34351  -0.1317  0.0043  0.9999  -1.0905   0.0000   0.0000   0.0000   0.3730
  27.700   0.8473   0.34522   0.34399  -0.1318  0.0043  0.9999  -1.0837   0.0000   0.0000   0.0000   0.3732
  27.800   0.8465   0.34569   0.34447  -0.1320  0.0043  0.9999  -1.0770   0.0000   0.0000   0.0000   0.3733
  27.900   0.8456   0.34617   0.34495  -0.1322  0.0042  0.9999  -1.0705   0.0000   0.0000   0.0000   0.3735
  28.000   0.8448   0.34666   0.34544  -0.1324  0.0042  0.9999  -1.0641   0.0000   0.0000   0.0000   0.3737
  28.100   0.8440   0.34714   0.34593  -0.1326  0.0042  0.9999  -1.0578   0.0000   0.0000   0.0000   0.3739
  28.200   0.8432   0.34763   0.34642  -0.1327  0.0042  0.9999  -1.0517   0.0000   0.0000   0.0000   0.3741
  28.300   0.8425   0.34812   0.34692  -0.1329  0.0042  0.9999  -1.0456   0.0000   0.0000   0.0000   0.3743
  28.400   0.8418   0.34862   0.34742  -0.1331  0.0042  0.9999  -1.0397   0.0000   0.0000   0.0000   0.3745
  28.500   0.8411   0.34912   0.34792  -0.1334  0.0042  0.9999  -1.0339   0.0000   0.0000   0.0000   0.3747
  28.600   0.8404   0.34962   0.34842  -0.1336  0.0042  0.9999  -1.0281   0.0000   0.0000   0.0000   0.3749
  28.700   0.8397   0.35012   0.34893  -0.1338  0.0042  0.9999  -1.0225   0.0000   0.0000   0.0000   0.3751
  28.800   0.8390   0.35062   0.34943  -0.1340  0.0042  0.9999  -1.0170   0.0000   0.0000   0.0000   0.3753
  28.900   0.8384   0.35113   0.34995  -0.1342  0.0042  0.9999  -1.0116   0.0000   0.0000   0.0000   0.3755
  29.000   0.8378   0.35164   0.35046  -0.1344  0.0042  0.9999  -1.0063   0.0000   0.0000   0.0000   0.3756
  29.100   0.8372   0.35215   0.35097  -0.1347  0.0042  0.9999  -1.0010   0.0000   0.0000   0.0000   0.3758
  29.200   0.8366   0.35266   0.35149  -0.1349  0.0041  0.9999  -0.9959   0.0000   0.0000   0.0000   0.3760
  29.300   0.8360   0.35318   0.35201  -0.1351  0.0041  0.9999  -0.9908   0.0000   0.0000   0.0000   0.3762
  29.400   0.8354   0.35370   0.35253  -0.1354  0.0041  0.9999  -0.9858   0.0000   0.0000   0.0000   0.3764
  29.500   0.8349   0.35422   0.35305  -0.1356  0.0041  0.9999  -0.9809   0.0000   0.0000   0.0000   0.3766
  29.600   0.8344   0.35474   0.35358  -0.1358  0.0041  0.9999  -0.9761   0.0000   0.0000   0.0000   0.3768
  29.700   0.8338   0.35526   0.35410  -0.1361  0.0041  0.9999  -0.9713   0.0000   0.0000   0.0000   0.3770
  29.800   0.8333   0.35578   0.35463  -0.1363  0.0041  0.9999  -0.9666   0.0000   0.0000   0.0000   0.3771
  29.900   0.8328   0.35631   0.35516  -0.1366  0.0041  0.9999  -0.9620   0.0000   0.0000   0.0000   0.3773
  30.000   0.8323   0.35684   0.35569  -0.1368  0.0041  0.9999  -0.9574   0.0000   0.0000   0.0000   0.3775


