xflr5 v6.61

 Calculated polar for: NACA 2415

 1 1 Reynolds number fixed          Mach number fixed         

 xtrf =   1.000 (top)        1.000 (bottom)
 Mach =   0.000     Re =     0.450 e 6     Ncrit =   9.000

  alpha     CL        CD       CDp       Cm    Top Xtr Bot Xtr   Cpmin    Chinge    XCp    
 ------- -------- --------- --------- -------- ------- ------- -------- --------- ---------
 -10.000  -0.9035   0.02199   0.01606  -0.0365  0.9931  0.0298  -4.5236   0.0000   0.0000   0.0000   0.1968
  -9.900  -0.8934   0.02159   0.01561  -0.0367  0.9919  0.0300  -4.4767   0.0000   0.0000   0.0000   0.1962
  -9.800  -0.8828   0.02119   0.01517  -0.0369  0.9906  0.0302  -4.4284   0.0000   0.0000   0.0000   0.1956
  -9.700  -0.8718   0.02080   0.01475  -0.0372  0.9892  0.0304  -4.3790   0.0000   0.0000   0.0000   0.1948
  -9.600  -0.8604   0.02043   0.01434  -0.0375  0.9877  0.0307  -4.3287   0.0000   0.0000   0.0000   0.1939
  -9.500  -0.8487   0.02007   0.01393  -0.0379  0.9861  0.0309  -4.2776   0.0000   0.0000   0.0000   0.1929
  -9.400  -0.8368   0.01971   0.01355  -0.0384  0.9844  0.0312  -4.2259   0.0000   0.0000   0.0000   0.1919
  -9.300  -0.8249   0.01938   0.01317  -0.0388  0.9827  0.0314  -4.1740   0.0000   0.0000   0.0000   0.1908
  -9.200  -0.8129   0.01905   0.01282  -0.0392  0.9810  0.0317  -4.1222   0.0000   0.0000   0.0000   0.1896
  -9.100  -0.8011   0.01874   0.01248  -0.0396  0.9794  0.0320  -4.0706   0.0000   0.0000   0.0000   0.1885
  -9.000  -0.7895   0.01845   0.01215  -0.0399  0.9779  0.0323  -4.0195   0.0000   0.0000   0.0000   0.1875
  -8.900  -0.7778   0.01817   0.01184  -0.0403  0.9765  0.0327  -3.9682   0.0000   0.0000   0.0000   0.1863
  -8.800  -0.7660   0.01790   0.01154  -0.0407  0.9750  0.0330  -3.9162   0.0000   0.0000   0.0000   0.1851
  -8.700  -0.7539   0.01763   0.01125  -0.0411  0.9736  0.0334  -3.8634   0.0000   0.0000   0.0000   0.1838
  -8.600  -0.7414   0.01738   0.01097  -0.0416  0.9721  0.0339  -3.8094   0.0000   0.0000   0.0000   0.1823
  -8.500  -0.7284   0.01713   0.01070  -0.0421  0.9706  0.0344  -3.7535   0.0000   0.0000   0.0000   0.1805
  -8.400  -0.7149   0.01688   0.01044  -0.0428  0.9691  0.0350  -3.6953   0.0000   0.0000   0.0000   0.1785
  -8.300  -0.7009   0.01666   0.01019  -0.0436  0.9676  0.0358  -3.6333   0.0000   0.0000   0.0000   0.1763
  -8.100  -0.6686   0.01683   0.01025  -0.0460  0.9651  0.0404  -3.4073   0.0000   0.0000   0.0000   0.1697
  -8.000  -0.6544   0.01649   0.00986  -0.0468  0.9637  0.0405  -3.3609   0.0000   0.0000   0.0000   0.1670
  -7.900  -0.6401   0.01617   0.00950  -0.0476  0.9623  0.0406  -3.3141   0.0000   0.0000   0.0000   0.1642
  -7.800  -0.6258   0.01587   0.00916  -0.0484  0.9610  0.0407  -3.2673   0.0000   0.0000   0.0000   0.1613
  -7.700  -0.6118   0.01558   0.00884  -0.0491  0.9597  0.0409  -3.2206   0.0000   0.0000   0.0000   0.1583
  -7.600  -0.5979   0.01533   0.00854  -0.0498  0.9586  0.0410  -3.1741   0.0000   0.0000   0.0000   0.1553
  -7.500  -0.5840   0.01508   0.00827  -0.0505  0.9574  0.0413  -3.1275   0.0000   0.0000   0.0000   0.1521
  -7.400  -0.5700   0.01486   0.00801  -0.0513  0.9563  0.0416  -3.0806   0.0000   0.0000   0.0000   0.1487
  -7.300  -0.5559   0.01464   0.00776  -0.0520  0.9550  0.0420  -3.0337   0.0000   0.0000   0.0000   0.1451
  -7.200  -0.5419   0.01444   0.00754  -0.0527  0.9535  0.0425  -2.9871   0.0000   0.0000   0.0000   0.1413
  -7.100  -0.5281   0.01428   0.00735  -0.0534  0.9516  0.0431  -2.9414   0.0000   0.0000   0.0000   0.1375
  -7.000  -0.5163   0.01412   0.00716  -0.0536  0.9496  0.0439  -2.9000   0.0000   0.0000   0.0000   0.1347
  -6.900  -0.5067   0.01390   0.00693  -0.0534  0.9484  0.0450  -2.8634   0.0000   0.0000   0.0000   0.1334
  -6.800  -0.4970   0.01369   0.00670  -0.0531  0.9469  0.0464  -2.8275   0.0000   0.0000   0.0000   0.1320
  -6.700  -0.4872   0.01349   0.00648  -0.0528  0.9451  0.0484  -2.7910   0.0000   0.0000   0.0000   0.1303
  -6.600  -0.4788   0.01307   0.00617  -0.0523  0.9428  0.0640  -2.7734   0.0000   0.0000   0.0000   0.1295
  -6.500  -0.4691   0.01280   0.00600  -0.0522  0.9406  0.0743  -2.7333   0.0000   0.0000   0.0000   0.1275
  -6.400  -0.4593   0.01251   0.00584  -0.0521  0.9381  0.0853  -2.6904   0.0000   0.0000   0.0000   0.1254
  -6.300  -0.4485   0.01229   0.00571  -0.0522  0.9357  0.0932  -2.6433   0.0000   0.0000   0.0000   0.1225
  -6.200  -0.4367   0.01215   0.00560  -0.0524  0.9334  0.0977  -2.5936   0.0000   0.0000   0.0000   0.1188
  -6.100  -0.4244   0.01206   0.00550  -0.0527  0.9312  0.0999  -2.5423   0.0000   0.0000   0.0000   0.1147
  -6.000  -0.4121   0.01194   0.00538  -0.0530  0.9289  0.1049  -2.4925   0.0000   0.0000   0.0000   0.1103
  -5.900  -0.3998   0.01180   0.00525  -0.0532  0.9267  0.1122  -2.4428   0.0000   0.0000   0.0000   0.1056
  -5.800  -0.3876   0.01166   0.00514  -0.0535  0.9244  0.1193  -2.3930   0.0000   0.0000   0.0000   0.1006
  -5.700  -0.3755   0.01150   0.00503  -0.0538  0.9222  0.1252  -2.3435   0.0000   0.0000   0.0000   0.0955
  -5.600  -0.3633   0.01135   0.00493  -0.0540  0.9199  0.1305  -2.2939   0.0000   0.0000   0.0000   0.0899
  -5.500  -0.3507   0.01122   0.00482  -0.0544  0.9177  0.1353  -2.2434   0.0000   0.0000   0.0000   0.0834
  -5.400  -0.3378   0.01110   0.00471  -0.0548  0.9155  0.1395  -2.1927   0.0000   0.0000   0.0000   0.0762
  -5.300  -0.3248   0.01100   0.00461  -0.0552  0.9131  0.1430  -2.1420   0.0000   0.0000   0.0000   0.0683
  -5.200  -0.3116   0.01090   0.00451  -0.0556  0.9104  0.1457  -2.0914   0.0000   0.0000   0.0000   0.0596
  -5.100  -0.2984   0.01081   0.00442  -0.0561  0.9072  0.1478  -2.0409   0.0000   0.0000   0.0000   0.0500
  -5.000  -0.2850   0.01075   0.00434  -0.0566  0.9028  0.1494  -1.9905   0.0000   0.0000   0.0000   0.0393
  -4.900  -0.2734   0.01070   0.00428  -0.0567  0.8994  0.1518  -1.9441   0.0000   0.0000   0.0000   0.0303
  -4.800  -0.2639   0.01061   0.00419  -0.0563  0.8980  0.1583  -1.9026   0.0000   0.0000   0.0000   0.0241
  -4.700  -0.2545   0.01051   0.00412  -0.0560  0.8963  0.1655  -1.8614   0.0000   0.0000   0.0000   0.0175
  -4.600  -0.2452   0.01040   0.00406  -0.0556  0.8941  0.1722  -1.8205   0.0000   0.0000   0.0000   0.0105
  -4.500  -0.2358   0.01030   0.00400  -0.0553  0.8915  0.1783  -1.7796   0.0000   0.0000   0.0000   0.0027
  -4.400  -0.2261   0.01021   0.00394  -0.0550  0.8887  0.1840  -1.7384   0.0000   0.0000   0.0000  -0.0063
  -4.300  -0.2162   0.01013   0.00388  -0.0548  0.8858  0.1894  -1.6970   0.0000   0.0000   0.0000  -0.0167
  -4.200  -0.2061   0.01006   0.00382  -0.0546  0.8826  0.1940  -1.6555   0.0000   0.0000   0.0000  -0.0284
  -4.100  -0.1958   0.00999   0.00377  -0.0544  0.8791  0.1978  -1.6139   0.0000   0.0000   0.0000  -0.0418
  -4.000  -0.1852   0.00993   0.00371  -0.0543  0.8754  0.2019  -1.5722   0.0000   0.0000   0.0000  -0.0573
  -3.900  -0.1748   0.00983   0.00365  -0.0542  0.8713  0.2121  -1.5311   0.0000   0.0000   0.0000  -0.0746
  -3.800  -0.1644   0.00971   0.00359  -0.0540  0.8669  0.2216  -1.4904   0.0000   0.0000   0.0000  -0.0937
  -3.700  -0.1539   0.00959   0.00353  -0.0539  0.8624  0.2300  -1.4496   0.0000   0.0000   0.0000  -0.1162
  -3.600  -0.1429   0.00950   0.00346  -0.0539  0.8577  0.2373  -1.4083   0.0000   0.0000   0.0000  -0.1435
  -3.500  -0.1317   0.00943   0.00339  -0.0539  0.8528  0.2431  -1.3668   0.0000   0.0000   0.0000  -0.1767
  -3.400  -0.1202   0.00936   0.00332  -0.0540  0.8476  0.2473  -1.3252   0.0000   0.0000   0.0000  -0.2171
  -3.300  -0.1087   0.00932   0.00326  -0.0540  0.8420  0.2501  -1.2838   0.0000   0.0000   0.0000  -0.2665
  -3.200  -0.0978   0.00922   0.00318  -0.0540  0.8356  0.2591  -1.2441   0.0000   0.0000   0.0000  -0.3231
  -3.100  -0.0870   0.00912   0.00313  -0.0540  0.8282  0.2681  -1.2049   0.0000   0.0000   0.0000  -0.3924
  -3.000  -0.0760   0.00903   0.00309  -0.0540  0.8200  0.2761  -1.1655   0.0000   0.0000   0.0000  -0.4854
  -2.900  -0.0644   0.00898   0.00307  -0.0542  0.8112  0.2833  -1.1255   0.0000   0.0000   0.0000  -0.6190
  -2.800  -0.0525   0.00896   0.00308  -0.0544  0.8020  0.2896  -1.0854   0.0000   0.0000   0.0000  -0.8192
  -2.700  -0.0418   0.00891   0.00305  -0.0544  0.7992  0.2943  -1.0475   0.0000   0.0000   0.0000  -1.0895
  -2.600  -0.0314   0.00887   0.00302  -0.0542  0.7980  0.2978  -1.0104   0.0000   0.0000   0.0000  -1.5259
  -2.500  -0.0209   0.00883   0.00298  -0.0540  0.7965  0.3005  -0.9735   0.0000   0.0000   0.0000  -2.4008
  -2.400  -0.0107   0.00877   0.00294  -0.0539  0.7944  0.3101  -0.9374   0.0000   0.0000   0.0000  -4.9375
  -2.300  -0.0004   0.00872   0.00290  -0.0537  0.7919  0.3218  -0.9017   0.0000   0.0000   0.0000  -126.5070
  -2.200   0.0097   0.00865   0.00286  -0.0534  0.7888  0.3343  -0.8664   0.0000   0.0000   0.0000   5.8800
  -2.100   0.0198   0.00857   0.00283  -0.0532  0.7851  0.3462  -0.8315   0.0000   0.0000   0.0000   2.9969
  -2.000   0.0300   0.00848   0.00280  -0.0531  0.7810  0.3576  -0.7967   0.0000   0.0000   0.0000   2.0561
  -1.900   0.0404   0.00841   0.00277  -0.0529  0.7765  0.3689  -0.7619   0.0000   0.0000   0.0000   1.5868
  -1.800   0.0509   0.00834   0.00274  -0.0528  0.7716  0.3799  -0.7371   0.0000   0.0000   0.0000   1.3064
  -1.700   0.0616   0.00829   0.00271  -0.0527  0.7662  0.3897  -0.7170   0.0000   0.0000   0.0000   1.1198
  -1.600   0.0726   0.00824   0.00268  -0.0526  0.7604  0.3974  -0.6968   0.0000   0.0000   0.0000   0.9869
  -1.500   0.0834   0.00820   0.00264  -0.0526  0.7542  0.4133  -0.6769   0.0000   0.0000   0.0000   0.8894
  -1.400   0.0934   0.00810   0.00260  -0.0523  0.7475  0.4408  -0.6579   0.0000   0.0000   0.0000   0.8179
  -1.300   0.1032   0.00799   0.00257  -0.0521  0.7399  0.4640  -0.6416   0.0000   0.0000   0.0000   0.7608
  -1.200   0.1134   0.00793   0.00256  -0.0519  0.7311  0.4837  -0.6259   0.0000   0.0000   0.0000   0.7124
  -1.100   0.1242   0.00790   0.00254  -0.0518  0.7211  0.4985  -0.6098   0.0000   0.0000   0.0000   0.6711
  -1.000   0.1342   0.00782   0.00256  -0.0516  0.7109  0.5341  -0.5946   0.0000   0.0000   0.0000   0.6379
  -0.900   0.1441   0.00772   0.00260  -0.0514  0.7012  0.5663  -0.5992   0.0000   0.0000   0.0000   0.6092
  -0.800   0.1544   0.00766   0.00262  -0.0512  0.6991  0.5863  -0.6072   0.0000   0.0000   0.0000   0.5836
  -0.700   0.1649   0.00763   0.00262  -0.0511  0.6978  0.5965  -0.6154   0.0000   0.0000   0.0000   0.5610
  -0.600   0.1755   0.00760   0.00262  -0.0509  0.6962  0.6083  -0.6237   0.0000   0.0000   0.0000   0.5411
  -0.500   0.1852   0.00752   0.00264  -0.0506  0.6941  0.6327  -0.6314   0.0000   0.0000   0.0000   0.5237
  -0.400   0.1947   0.00744   0.00265  -0.0502  0.6912  0.6528  -0.6392   0.0000   0.0000   0.0000   0.5079
  -0.300   0.2047   0.00738   0.00266  -0.0499  0.6872  0.6696  -0.6472   0.0000   0.0000   0.0000   0.4935
  -0.200   0.2150   0.00736   0.00267  -0.0497  0.6817  0.6830  -0.6553   0.0000   0.0000   0.0000   0.4803
  -0.100   0.2254   0.00735   0.00265  -0.0494  0.6744  0.6926  -0.6636   0.0000   0.0000   0.0000   0.4684
   0.000   0.2359   0.00737   0.00263  -0.0492  0.6654  0.6987  -0.6742   0.0000   0.0000   0.0000   0.4575
   0.100   0.2461   0.00738   0.00261  -0.0490  0.6548  0.7148  -0.6857   0.0000   0.0000   0.0000   0.4475
   0.200   0.2552   0.00738   0.00262  -0.0484  0.6429  0.7377  -0.6965   0.0000   0.0000   0.0000   0.4380
   0.300   0.2640   0.00740   0.00264  -0.0478  0.6284  0.7560  -0.7071   0.0000   0.0000   0.0000   0.4291
   0.400   0.2738   0.00744   0.00267  -0.0474  0.6125  0.7716  -0.7182   0.0000   0.0000   0.0000   0.4211
   0.500   0.2846   0.00748   0.00272  -0.0473  0.6044  0.7840  -0.7299   0.0000   0.0000   0.0000   0.4139
   0.600   0.2954   0.00750   0.00275  -0.0472  0.5993  0.7934  -0.7417   0.0000   0.0000   0.0000   0.4073
   0.700   0.3059   0.00750   0.00276  -0.0471  0.5978  0.7997  -0.7535   0.0000   0.0000   0.0000   0.4011
   0.800   0.3168   0.00748   0.00278  -0.0470  0.5956  0.8175  -0.7655   0.0000   0.0000   0.0000   0.3953
   0.900   0.3273   0.00748   0.00282  -0.0467  0.5926  0.8351  -0.7773   0.0000   0.0000   0.0000   0.3897
   1.000   0.3380   0.00749   0.00286  -0.0465  0.5886  0.8507  -0.7893   0.0000   0.0000   0.0000   0.3844
   1.100   0.3487   0.00752   0.00289  -0.0463  0.5835  0.8648  -0.8013   0.0000   0.0000   0.0000   0.3794
   1.200   0.3589   0.00756   0.00291  -0.0460  0.5772  0.8768  -0.8131   0.0000   0.0000   0.0000   0.3747
   1.300   0.3688   0.00761   0.00292  -0.0456  0.5701  0.8862  -0.8246   0.0000   0.0000   0.0000   0.3702
   1.400   0.3781   0.00767   0.00293  -0.0452  0.5622  0.8931  -0.8358   0.0000   0.0000   0.0000   0.3659
   1.500   0.3871   0.00774   0.00294  -0.0447  0.5538  0.8978  -0.8468   0.0000   0.0000   0.0000   0.3617
   1.600   0.3969   0.00782   0.00295  -0.0444  0.5441  0.9030  -0.8583   0.0000   0.0000   0.0000   0.3579
   1.700   0.4088   0.00792   0.00299  -0.0445  0.5324  0.9103  -0.8712   0.0000   0.0000   0.0000   0.3549
   1.800   0.4214   0.00802   0.00304  -0.0448  0.5198  0.9166  -0.8845   0.0000   0.0000   0.0000   0.3521
   1.900   0.4346   0.00811   0.00309  -0.0452  0.5089  0.9224  -0.8981   0.0000   0.0000   0.0000   0.3497
   2.000   0.4478   0.00819   0.00315  -0.0456  0.5004  0.9279  -0.9118   0.0000   0.0000   0.0000   0.3474
   2.100   0.4607   0.00823   0.00319  -0.0459  0.4992  0.9333  -0.9255   0.0000   0.0000   0.0000   0.3452
   2.200   0.4728   0.00827   0.00323  -0.0461  0.4983  0.9385  -0.9387   0.0000   0.0000   0.0000   0.3429
   2.300   0.4838   0.00830   0.00327  -0.0460  0.4973  0.9435  -0.9563   0.0000   0.0000   0.0000   0.3404
   2.400   0.4940   0.00834   0.00332  -0.0458  0.4961  0.9478  -0.9737   0.0000   0.0000   0.0000   0.3378
   2.500   0.5062   0.00838   0.00335  -0.0460  0.4946  0.9513  -0.9930   0.0000   0.0000   0.0000   0.3359
   2.600   0.5226   0.00841   0.00338  -0.0472  0.4925  0.9544  -1.0160   0.0000   0.0000   0.0000   0.3352
   2.700   0.5390   0.00845   0.00340  -0.0483  0.4899  0.9573  -1.0390   0.0000   0.0000   0.0000   0.3345
   2.800   0.5551   0.00849   0.00343  -0.0494  0.4866  0.9599  -1.0620   0.0000   0.0000   0.0000   0.3339
   2.900   0.5712   0.00854   0.00346  -0.0505  0.4825  0.9626  -1.0851   0.0000   0.0000   0.0000   0.3332
   3.000   0.5875   0.00860   0.00349  -0.0517  0.4767  0.9654  -1.1202   0.0000   0.0000   0.0000   0.3326
   3.100   0.6035   0.00868   0.00352  -0.0528  0.4681  0.9684  -1.1658   0.0000   0.0000   0.0000   0.3320
   3.200   0.6189   0.00879   0.00355  -0.0537  0.4574  0.9717  -1.2109   0.0000   0.0000   0.0000   0.3313
   3.300   0.6336   0.00892   0.00358  -0.0546  0.4453  0.9751  -1.2550   0.0000   0.0000   0.0000   0.3305
   3.400   0.6478   0.00906   0.00363  -0.0553  0.4316  0.9785  -1.2987   0.0000   0.0000   0.0000   0.3297
   3.500   0.6626   0.00918   0.00368  -0.0562  0.4173  0.9820  -1.3438   0.0000   0.0000   0.0000   0.3290
   3.600   0.6781   0.00928   0.00374  -0.0572  0.4058  0.9853  -1.3905   0.0000   0.0000   0.0000   0.3284
   3.700   0.6945   0.00935   0.00379  -0.0584  0.3995  0.9885  -1.4392   0.0000   0.0000   0.0000   0.3280
   3.800   0.7114   0.00939   0.00384  -0.0596  0.3984  0.9914  -1.4895   0.0000   0.0000   0.0000   0.3277
   3.900   0.7280   0.00944   0.00389  -0.0608  0.3968  0.9939  -1.5396   0.0000   0.0000   0.0000   0.3273
   4.000   0.7438   0.00949   0.00393  -0.0619  0.3948  0.9959  -1.5889   0.0000   0.0000   0.0000   0.3268
   4.100   0.7588   0.00954   0.00397  -0.0627  0.3920  0.9974  -1.6369   0.0000   0.0000   0.0000   0.3262
   4.200   0.7730   0.00959   0.00401  -0.0634  0.3883  0.9985  -1.6840   0.0000   0.0000   0.0000   0.3256
   4.300   0.7866   0.00966   0.00405  -0.0641  0.3834  0.9994  -1.7304   0.0000   0.0000   0.0000   0.3248
   4.400   0.7984   0.00973   0.00409  -0.0643  0.3773  1.0000  -1.7739   0.0000   0.0000   0.0000   0.3238
   4.500   0.8062   0.00980   0.00412  -0.0638  0.3706  1.0000  -1.8100   0.0000   0.0000   0.0000   0.3222
   4.600   0.8137   0.00988   0.00415  -0.0631  0.3629  1.0000  -1.8456   0.0000   0.0000   0.0000   0.3207
   4.700   0.8207   0.00998   0.00419  -0.0624  0.3549  1.0000  -1.8806   0.0000   0.0000   0.0000   0.3190
   4.800   0.8273   0.01009   0.00424  -0.0617  0.3465  1.0000  -1.9150   0.0000   0.0000   0.0000   0.3174
   4.900   0.8337   0.01020   0.00430  -0.0609  0.3377  1.0000  -1.9491   0.0000   0.0000   0.0000   0.3157
   5.000   0.8401   0.01031   0.00435  -0.0600  0.3281  1.0000  -1.9834   0.0000   0.0000   0.0000   0.3141
   5.100   0.8469   0.01040   0.00441  -0.0593  0.3175  1.0000  -2.0184   0.0000   0.0000   0.0000   0.3125
   5.200   0.8541   0.01049   0.00447  -0.0586  0.3074  1.0000  -2.0547   0.0000   0.0000   0.0000   0.3110
   5.300   0.8619   0.01056   0.00452  -0.0580  0.2997  1.0000  -2.0921   0.0000   0.0000   0.0000   0.3095
   5.400   0.8701   0.01062   0.00458  -0.0575  0.2973  1.0000  -2.1309   0.0000   0.0000   0.0000   0.3082
   5.500   0.8782   0.01069   0.00463  -0.0569  0.2939  1.0000  -2.1696   0.0000   0.0000   0.0000   0.3069
   5.600   0.8860   0.01077   0.00469  -0.0563  0.2891  1.0000  -2.2078   0.0000   0.0000   0.0000   0.3055
   5.700   0.8932   0.01089   0.00475  -0.0556  0.2822  1.0000  -2.2451   0.0000   0.0000   0.0000   0.3041
   5.800   0.8994   0.01104   0.00483  -0.0548  0.2732  1.0000  -2.2806   0.0000   0.0000   0.0000   0.3026
   5.900   0.9043   0.01126   0.00493  -0.0537  0.2630  1.0000  -2.3136   0.0000   0.0000   0.0000   0.3009
   6.000   0.9090   0.01149   0.00505  -0.0525  0.2518  1.0000  -2.3459   0.0000   0.0000   0.0000   0.2992
   6.100   0.9160   0.01162   0.00515  -0.0518  0.2457  1.0000  -2.3833   0.0000   0.0000   0.0000   0.2979
   6.200   0.9230   0.01175   0.00524  -0.0511  0.2399  1.0000  -2.4210   0.0000   0.0000   0.0000   0.2965
   6.300   0.9297   0.01190   0.00534  -0.0503  0.2336  1.0000  -2.4580   0.0000   0.0000   0.0000   0.2952
   6.400   0.9360   0.01207   0.00545  -0.0495  0.2268  1.0000  -2.4943   0.0000   0.0000   0.0000   0.2938
   6.500   0.9420   0.01225   0.00556  -0.0486  0.2195  1.0000  -2.5301   0.0000   0.0000   0.0000   0.2924
   6.600   0.9482   0.01244   0.00568  -0.0477  0.2104  1.0000  -2.5666   0.0000   0.0000   0.0000   0.2910
   6.700   0.9552   0.01260   0.00580  -0.0470  0.2004  1.0000  -2.6047   0.0000   0.0000   0.0000   0.2898
   6.800   0.9636   0.01269   0.00589  -0.0465  0.1972  1.0000  -2.6458   0.0000   0.0000   0.0000   0.2887
   6.900   0.9718   0.01280   0.00599  -0.0460  0.1934  1.0000  -2.6869   0.0000   0.0000   0.0000   0.2877
   7.000   0.9796   0.01293   0.00611  -0.0455  0.1876  1.0000  -2.7272   0.0000   0.0000   0.0000   0.2866
   7.100   0.9865   0.01312   0.00624  -0.0448  0.1784  1.0000  -2.7657   0.0000   0.0000   0.0000   0.2855
   7.200   0.9923   0.01340   0.00641  -0.0439  0.1657  1.0000  -2.8014   0.0000   0.0000   0.0000   0.2842
   7.300   0.9987   0.01365   0.00658  -0.0432  0.1503  1.0000  -2.8384   0.0000   0.0000   0.0000   0.2831
   7.400   1.0062   0.01384   0.00673  -0.0426  0.1432  1.0000  -2.8777   0.0000   0.0000   0.0000   0.2821
   7.500   1.0127   0.01408   0.00691  -0.0419  0.1338  1.0000  -2.9147   0.0000   0.0000   0.0000   0.2810
   7.600   1.0177   0.01442   0.00713  -0.0410  0.1214  1.0000  -2.9478   0.0000   0.0000   0.0000   0.2797
   7.700   1.0230   0.01476   0.00735  -0.0401  0.1024  1.0000  -2.9802   0.0000   0.0000   0.0000   0.2785
   7.800   1.0270   0.01518   0.00764  -0.0390  0.0858  1.0000  -3.0084   0.0000   0.0000   0.0000   0.2772
   7.900   1.0266   0.01588   0.00811  -0.0373  0.0657  1.0000  -3.0244   0.0000   0.0000   0.0000   0.2754
   8.000   1.0291   0.01640   0.00849  -0.0360  0.0487  1.0000  -3.0360   0.0000   0.0000   0.0000   0.2739
   8.100   1.0360   0.01664   0.00874  -0.0353  0.0466  1.0000  -3.0657   0.0000   0.0000   0.0000   0.2728
   8.200   1.0428   0.01687   0.00897  -0.0346  0.0453  1.0000  -3.0972   0.0000   0.0000   0.0000   0.2718
   8.300   1.0493   0.01708   0.00920  -0.0338  0.0443  1.0000  -3.1291   0.0000   0.0000   0.0000   0.2707
   8.400   1.0556   0.01730   0.00943  -0.0330  0.0436  1.0000  -3.1612   0.0000   0.0000   0.0000   0.2697
   8.500   1.0609   0.01756   0.00993  -0.0322  0.0412  1.0000  -3.2388   0.0000   0.0000   0.0000   0.2686
   8.600   1.0664   0.01781   0.01016  -0.0314  0.0393  1.0000  -3.2801   0.0000   0.0000   0.0000   0.2675
   8.700   1.0724   0.01805   0.01040  -0.0306  0.0380  1.0000  -3.3172   0.0000   0.0000   0.0000   0.2664
   8.800   1.0786   0.01829   0.01065  -0.0298  0.0369  1.0000  -3.3536   0.0000   0.0000   0.0000   0.2654
   8.900   1.0849   0.01853   0.01090  -0.0291  0.0359  1.0000  -3.3896   0.0000   0.0000   0.0000   0.2645
   9.000   1.0912   0.01877   0.01116  -0.0284  0.0351  1.0000  -3.4253   0.0000   0.0000   0.0000   0.2635
   9.100   1.0974   0.01902   0.01142  -0.0277  0.0343  1.0000  -3.4609   0.0000   0.0000   0.0000   0.2626
   9.200   1.1036   0.01927   0.01170  -0.0270  0.0337  1.0000  -3.4963   0.0000   0.0000   0.0000   0.2617
   9.300   1.1095   0.01953   0.01199  -0.0263  0.0332  1.0000  -3.5313   0.0000   0.0000   0.0000   0.2607
   9.400   1.1153   0.01981   0.01229  -0.0255  0.0327  1.0000  -3.5658   0.0000   0.0000   0.0000   0.2598
   9.500   1.1205   0.02010   0.01261  -0.0247  0.0323  1.0000  -3.5992   0.0000   0.0000   0.0000   0.2588
   9.600   1.1251   0.02040   0.01294  -0.0239  0.0319  1.0000  -3.6313   0.0000   0.0000   0.0000   0.2578
   9.700   1.1295   0.02071   0.01328  -0.0230  0.0316  1.0000  -3.6629   0.0000   0.0000   0.0000   0.2568
   9.800   1.1339   0.02103   0.01363  -0.0221  0.0312  1.0000  -3.6947   0.0000   0.0000   0.0000   0.2558
   9.900   1.1384   0.02136   0.01399  -0.0213  0.0309  1.0000  -3.7266   0.0000   0.0000   0.0000   0.2548
  10.000   1.1429   0.02170   0.01436  -0.0204  0.0307  1.0000  -3.7586   0.0000   0.0000   0.0000   0.2538
  10.100   1.1474   0.02205   0.01474  -0.0197  0.0304  1.0000  -3.7905   0.0000   0.0000   0.0000   0.2529
  10.200   1.1518   0.02242   0.01514  -0.0189  0.0302  1.0000  -3.8223   0.0000   0.0000   0.0000   0.2520
  10.300   1.1558   0.02282   0.01557  -0.0181  0.0299  1.0000  -3.8530   0.0000   0.0000   0.0000   0.2511
  10.400   1.1588   0.02327   0.01605  -0.0172  0.0297  1.0000  -3.8813   0.0000   0.0000   0.0000   0.2501
  10.500   1.1619   0.02373   0.01655  -0.0164  0.0295  1.0000  -3.9097   0.0000   0.0000   0.0000   0.2492
  10.600   1.1655   0.02418   0.01703  -0.0156  0.0294  1.0000  -3.9394   0.0000   0.0000   0.0000   0.2483
  10.700   1.1693   0.02463   0.01751  -0.0149  0.0292  1.0000  -3.9697   0.0000   0.0000   0.0000   0.2475
  10.800   1.1733   0.02509   0.01800  -0.0142  0.0290  1.0000  -4.0003   0.0000   0.0000   0.0000   0.2467
  10.900   1.1773   0.02556   0.01850  -0.0136  0.0288  1.0000  -4.0308   0.0000   0.0000   0.0000   0.2459
  11.000   1.1813   0.02603   0.01901  -0.0129  0.0286  1.0000  -4.0612   0.0000   0.0000   0.0000   0.2452
  11.100   1.1851   0.02652   0.01953  -0.0123  0.0285  1.0000  -4.0912   0.0000   0.0000   0.0000   0.2444
  11.200   1.1888   0.02703   0.02007  -0.0116  0.0283  1.0000  -4.1208   0.0000   0.0000   0.0000   0.2437
  11.300   1.1923   0.02755   0.02063  -0.0110  0.0281  1.0000  -4.1498   0.0000   0.0000   0.0000   0.2429
  11.400   1.1956   0.02810   0.02121  -0.0103  0.0280  1.0000  -4.1783   0.0000   0.0000   0.0000   0.2422
  11.500   1.1987   0.02866   0.02181  -0.0097  0.0278  1.0000  -4.2059   0.0000   0.0000   0.0000   0.2414
  11.600   1.2014   0.02925   0.02244  -0.0091  0.0277  1.0000  -4.2327   0.0000   0.0000   0.0000   0.2407
  11.700   1.2035   0.02990   0.02312  -0.0084  0.0276  1.0000  -4.2576   0.0000   0.0000   0.0000   0.2400
  11.800   1.2034   0.03068   0.02396  -0.0078  0.0275  1.0000  -4.2765   0.0000   0.0000   0.0000   0.2392
  11.900   1.2039   0.03143   0.02474  -0.0071  0.0273  1.0000  -4.2968   0.0000   0.0000   0.0000   0.2384
  12.000   1.2052   0.03213   0.02548  -0.0065  0.0272  1.0000  -4.3193   0.0000   0.0000   0.0000   0.2377
  12.100   1.2070   0.03282   0.02621  -0.0059  0.0271  1.0000  -4.3428   0.0000   0.0000   0.0000   0.2370
  12.200   1.2090   0.03352   0.02694  -0.0053  0.0270  1.0000  -4.3666   0.0000   0.0000   0.0000   0.2364
  12.300   1.2111   0.03423   0.02769  -0.0048  0.0269  1.0000  -4.3904   0.0000   0.0000   0.0000   0.2357
  12.400   1.2274   0.03371   0.02719  -0.0053  0.0295  1.0000  -4.4586   0.0000   0.0000   0.0000   0.2360
  12.500   1.2307   0.03431   0.02782  -0.0049  0.0296  1.0000  -4.4870   0.0000   0.0000   0.0000   0.2354
  12.600   1.2337   0.03495   0.02849  -0.0045  0.0296  1.0000  -4.5147   0.0000   0.0000   0.0000   0.2349
  12.700   1.2364   0.03562   0.02920  -0.0041  0.0295  1.0000  -4.5417   0.0000   0.0000   0.0000   0.2343
  12.800   1.2390   0.03632   0.02993  -0.0036  0.0295  1.0000  -4.5681   0.0000   0.0000   0.0000   0.2338
  12.900   1.2413   0.03706   0.03070  -0.0032  0.0294  1.0000  -4.5937   0.0000   0.0000   0.0000   0.2333
  13.000   1.2433   0.03783   0.03151  -0.0029  0.0293  1.0000  -4.6185   0.0000   0.0000   0.0000   0.2327
  13.100   1.2449   0.03865   0.03237  -0.0025  0.0292  1.0000  -4.6417   0.0000   0.0000   0.0000   0.2323
  13.200   1.2439   0.03978   0.03355  -0.0023  0.0291  1.0000  -4.6567   0.0000   0.0000   0.0000   0.2318
  13.300   1.2435   0.04085   0.03466  -0.0020  0.0290  1.0000  -4.6736   0.0000   0.0000   0.0000   0.2314
  13.400   1.2444   0.04179   0.03564  -0.0017  0.0289  1.0000  -4.6940   0.0000   0.0000   0.0000   0.2310
  13.500   1.2456   0.04269   0.03658  -0.0014  0.0288  1.0000  -4.7156   0.0000   0.0000   0.0000   0.2305
  13.600   1.2470   0.04357   0.03750  -0.0011  0.0287  1.0000  -4.7376   0.0000   0.0000   0.0000   0.2301
  13.700   1.2485   0.04446   0.03842  -0.0009  0.0286  1.0000  -4.7595   0.0000   0.0000   0.0000   0.2296
  13.800   1.2498   0.04535   0.03936  -0.0006  0.0284  1.0000  -4.7810   0.0000   0.0000   0.0000   0.2292
  13.900   1.2510   0.04626   0.04031  -0.0003  0.0283  1.0000  -4.8019   0.0000   0.0000   0.0000   0.2288
  14.000   1.2521   0.04719   0.04128  -0.0000  0.0282  1.0000  -4.8220   0.0000   0.0000   0.0000   0.2284
  14.100   1.2529   0.04815   0.04229   0.0002  0.0280  1.0000  -4.8412   0.0000   0.0000   0.0000   0.2279
  14.200   1.2535   0.04915   0.04333   0.0005  0.0279  1.0000  -4.8594   0.0000   0.0000   0.0000   0.2275
  14.300   1.2537   0.05020   0.04442   0.0007  0.0278  1.0000  -4.8761   0.0000   0.0000   0.0000   0.2272
  14.400   1.2536   0.05129   0.04556   0.0009  0.0277  1.0000  -4.8913   0.0000   0.0000   0.0000   0.2268
  14.500   1.2528   0.05246   0.04678   0.0010  0.0275  1.0000  -4.9041   0.0000   0.0000   0.0000   0.2265
  14.600   1.2481   0.05421   0.04860   0.0007  0.0275  1.0000  -4.9032   0.0000   0.0000   0.0000   0.2264
  14.700   1.2454   0.05571   0.05014   0.0006  0.0274  1.0000  -4.9088   0.0000   0.0000   0.0000   0.2263
  14.800   1.2439   0.05701   0.05149   0.0006  0.0273  1.0000  -4.9183   0.0000   0.0000   0.0000   0.2261
  14.900   1.2428   0.05825   0.05279   0.0007  0.0272  1.0000  -4.9285   0.0000   0.0000   0.0000   0.2258
  15.000   1.2415   0.05947   0.05405   0.0008  0.0270  1.0000  -4.9380   0.0000   0.0000   0.0000   0.2255
  15.100   1.2400   0.06068   0.05532   0.0009  0.0269  1.0000  -4.9464   0.0000   0.0000   0.0000   0.2252
  15.200   1.2383   0.06194   0.05664   0.0009  0.0268  1.0000  -4.9539   0.0000   0.0000   0.0000   0.2249
  15.300   1.2364   0.06326   0.05801   0.0010  0.0267  1.0000  -4.9600   0.0000   0.0000   0.0000   0.2246
  15.400   1.2341   0.06466   0.05946   0.0010  0.0266  1.0000  -4.9644   0.0000   0.0000   0.0000   0.2244
  15.500   1.2314   0.06614   0.06100   0.0009  0.0265  1.0000  -4.9667   0.0000   0.0000   0.0000   0.2243
  15.600   1.2284   0.06774   0.06267   0.0007  0.0264  1.0000  -4.9670   0.0000   0.0000   0.0000   0.2242
  15.700   1.2247   0.06948   0.06447   0.0004  0.0263  1.0000  -4.9644   0.0000   0.0000   0.0000   0.2242
  15.800   1.2192   0.07155   0.06660  -0.0001  0.0262  1.0000  -4.9549   0.0000   0.0000   0.0000   0.2244
  15.900   1.2089   0.07450   0.06963  -0.0015  0.0263  1.0000  -4.9281   0.0000   0.0000   0.0000   0.2252
  16.000   1.2040   0.07652   0.07171  -0.0020  0.0262  1.0000  -4.9193   0.0000   0.0000   0.0000   0.2254
  16.100   1.1998   0.07840   0.07365  -0.0024  0.0261  1.0000  -4.9127   0.0000   0.0000   0.0000   0.2255
  16.200   1.1958   0.08026   0.07558  -0.0028  0.0260  1.0000  -4.9057   0.0000   0.0000   0.0000   0.2256
  16.300   1.1916   0.08217   0.07755  -0.0033  0.0259  1.0000  -4.8974   0.0000   0.0000   0.0000   0.2258
  16.400   1.1873   0.08415   0.07960  -0.0038  0.0258  1.0000  -4.8875   0.0000   0.0000   0.0000   0.2260
  16.500   1.1825   0.08623   0.08174  -0.0044  0.0258  1.0000  -4.8751   0.0000   0.0000   0.0000   0.2262
  16.600   1.1770   0.08842   0.08400  -0.0051  0.0257  1.0000  -4.8598   0.0000   0.0000   0.0000   0.2266
  16.700   1.1709   0.09076   0.08641  -0.0059  0.0256  1.0000  -4.8410   0.0000   0.0000   0.0000   0.2271
  16.800   1.1638   0.09329   0.08901  -0.0069  0.0256  1.0000  -4.8181   0.0000   0.0000   0.0000   0.2278
  16.900   1.1523   0.09682   0.09261  -0.0089  0.0257  1.0000  -4.7782   0.0000   0.0000   0.0000   0.2292
  17.000   1.1423   0.10008   0.09594  -0.0107  0.0257  1.0000  -4.7424   0.0000   0.0000   0.0000   0.2306
  17.100   1.1359   0.10263   0.09855  -0.0118  0.0256  1.0000  -4.7183   0.0000   0.0000   0.0000   0.2314
  17.200   1.1299   0.10504   0.10103  -0.0128  0.0256  1.0000  -4.6952   0.0000   0.0000   0.0000   0.2321
  17.300   1.1240   0.10744   0.10349  -0.0138  0.0255  1.0000  -4.6710   0.0000   0.0000   0.0000   0.2328
  17.400   1.1179   0.10987   0.10598  -0.0148  0.0255  1.0000  -4.6450   0.0000   0.0000   0.0000   0.2336
  17.500   1.1115   0.11237   0.10855  -0.0159  0.0254  1.0000  -4.6165   0.0000   0.0000   0.0000   0.2344
  17.600   1.1047   0.11498   0.11122  -0.0172  0.0254  1.0000  -4.5850   0.0000   0.0000   0.0000   0.2354
  17.700   1.0974   0.11773   0.11403  -0.0185  0.0253  1.0000  -4.5500   0.0000   0.0000   0.0000   0.2366
  17.800   1.0894   0.12066   0.11703  -0.0201  0.0253  1.0000  -4.5109   0.0000   0.0000   0.0000   0.2379
  17.900   1.0798   0.12424   0.12068  -0.0222  0.0254  1.0000  -4.4622   0.0000   0.0000   0.0000   0.2399
  18.000   1.0703   0.12787   0.12437  -0.0244  0.0254  1.0000  -4.4113   0.0000   0.0000   0.0000   0.2419
  18.100   1.0616   0.13125   0.12781  -0.0264  0.0254  1.0000  -4.3614   0.0000   0.0000   0.0000   0.2438
  18.200   1.0525   0.13457   0.13118  -0.0284  0.0255  1.0000  -4.3084   0.0000   0.0000   0.0000   0.2458
  18.300   1.0416   0.13841   0.13508  -0.0309  0.0256  1.0000  -4.2426   0.0000   0.0000   0.0000   0.2483
  18.400   1.0314   0.14206   0.13878  -0.0332  0.0256  1.0000  -4.1772   0.0000   0.0000   0.0000   0.2507
  18.500   1.0216   0.14577   0.14255  -0.0355  0.0257  1.0000  -4.1088   0.0000   0.0000   0.0000   0.2531
  18.600   1.0097   0.15024   0.14707  -0.0382  0.0258  1.0000  -4.0222   0.0000   0.0000   0.0000   0.2562
  18.700   0.9972   0.15494   0.15182  -0.0410  0.0260  1.0000  -3.9264   0.0000   0.0000   0.0000   0.2594
  18.800   0.9867   0.15916   0.15608  -0.0433  0.0260  1.0000  -3.8377   0.0000   0.0000   0.0000   0.2622
  18.900   0.9754   0.16371   0.16067  -0.0458  0.0261  1.0000  -3.7365   0.0000   0.0000   0.0000   0.2652
  19.000   0.9596   0.16983   0.16683  -0.0490  0.0264  1.0000  -3.5868   0.0000   0.0000   0.0000   0.2694
  19.100   0.9489   0.17463   0.17165  -0.0513  0.0264  1.0000  -3.4714   0.0000   0.0000   0.0000   0.2725
  19.200   0.9392   0.17927   0.17632  -0.0535  0.0264  1.0000  -3.3576   0.0000   0.0000   0.0000   0.2754
  19.300   0.9282   0.18453   0.18159  -0.0558  0.0264  1.0000  -3.2196   0.0000   0.0000   0.0000   0.2786
  19.400   0.9184   0.18959   0.18665  -0.0579  0.0264  1.0000  -3.0866   0.0000   0.0000   0.0000   0.2817
  19.500   0.9089   0.19470   0.19176  -0.0600  0.0262  1.0000  -2.9497   0.0000   0.0000   0.0000   0.2847
  19.600   0.8986   0.20018   0.19725  -0.0622  0.0259  1.0000  -2.7994   0.0000   0.0000   0.0000   0.2880
  19.700   0.8678   0.21308   0.21012  -0.0667  0.0250  1.0000  -2.3824   0.0000   0.0000   0.0000   0.2964
  19.800   0.8737   0.21320   0.21024  -0.0671  0.0249  1.0000  -2.4449   0.0000   0.0000   0.0000   0.2960
  19.900   0.8795   0.21336   0.21040  -0.0675  0.0247  1.0000  -2.5063   0.0000   0.0000   0.0000   0.2956
  20.000   0.8851   0.21358   0.21062  -0.0678  0.0246  1.0000  -2.5667   0.0000   0.0000   0.0000   0.2952
  20.100   0.8907   0.21382   0.21086  -0.0682  0.0245  1.0000  -2.6267   0.0000   0.0000   0.0000   0.2949
  20.200   0.8962   0.21409   0.21112  -0.0685  0.0243  1.0000  -2.6865   0.0000   0.0000   0.0000   0.2945
  20.300   0.9017   0.21438   0.21141  -0.0689  0.0242  1.0000  -2.7459   0.0000   0.0000   0.0000   0.2941
  20.400   0.9071   0.21469   0.21172  -0.0692  0.0240  1.0000  -2.8050   0.0000   0.0000   0.0000   0.2937
  20.500   0.9124   0.21503   0.21205  -0.0696  0.0238  1.0000  -2.8638   0.0000   0.0000   0.0000   0.2934
  20.600   0.9176   0.21539   0.21242  -0.0699  0.0236  1.0000  -2.9219   0.0000   0.0000   0.0000   0.2930
  20.700   0.9227   0.21578   0.21281  -0.0703  0.0234  1.0000  -2.9794   0.0000   0.0000   0.0000   0.2927
  20.800   0.9277   0.21621   0.21323  -0.0707  0.0232  1.0000  -3.0360   0.0000   0.0000   0.0000   0.2924
  20.900   0.9326   0.21667   0.21369  -0.0711  0.0230  1.0000  -3.0917   0.0000   0.0000   0.0000   0.2921
  21.000   0.9374   0.21718   0.21419  -0.0715  0.0227  1.0000  -3.1462   0.0000   0.0000   0.0000   0.2918
  21.100   0.9420   0.21773   0.21474  -0.0719  0.0224  1.0000  -3.1992   0.0000   0.0000   0.0000   0.2916
  21.200   0.9465   0.21832   0.21533  -0.0723  0.0222  1.0000  -3.2506   0.0000   0.0000   0.0000   0.2914
  21.300   0.9509   0.21897   0.21597  -0.0728  0.0218  1.0000  -3.3005   0.0000   0.0000   0.0000   0.2912
  21.400   0.9551   0.21966   0.21666  -0.0732  0.0215  1.0000  -3.3489   0.0000   0.0000   0.0000   0.2911
  21.500   0.9591   0.22039   0.21740  -0.0737  0.0212  1.0000  -3.3957   0.0000   0.0000   0.0000   0.2910
  21.600   0.9630   0.22118   0.21818  -0.0742  0.0208  1.0000  -3.4410   0.0000   0.0000   0.0000   0.2909
  21.700   0.9667   0.22203   0.21903  -0.0747  0.0204  1.0000  -3.4840   0.0000   0.0000   0.0000   0.2908
  21.800   0.9704   0.22289   0.21988  -0.0753  0.0200  1.0000  -3.5273   0.0000   0.0000   0.0000   0.2908
  21.900   0.9741   0.22373   0.22072  -0.0758  0.0196  1.0000  -3.5718   0.0000   0.0000   0.0000   0.2907
  22.000   0.9779   0.22453   0.22152  -0.0763  0.0192  1.0000  -3.6185   0.0000   0.0000   0.0000   0.2907
  22.100   0.9819   0.22526   0.22224  -0.0768  0.0188  1.0000  -3.6689   0.0000   0.0000   0.0000   0.2905
  22.200   0.9861   0.22591   0.22289  -0.0772  0.0184  1.0000  -3.7233   0.0000   0.0000   0.0000   0.2903
  22.300   0.9906   0.22645   0.22342  -0.0777  0.0181  1.0000  -3.7828   0.0000   0.0000   0.0000   0.2901
  22.400   0.9956   0.22681   0.22378  -0.0780  0.0178  1.0000  -3.8496   0.0000   0.0000   0.0000   0.2897
  22.500   1.0010   0.22704   0.22400  -0.0783  0.0175  1.0000  -3.9257   0.0000   0.0000   0.0000   0.2893
  22.600   1.0067   0.22714   0.22410  -0.0786  0.0172  1.0000  -4.0079   0.0000   0.0000   0.0000   0.2887
  22.700   1.0129   0.22709   0.22405  -0.0788  0.0170  1.0000  -4.0960   0.0000   0.0000   0.0000   0.2881
  22.800   1.0196   0.22690   0.22385  -0.0790  0.0168  1.0000  -4.1906   0.0000   0.0000   0.0000   0.2873
  22.900   1.0268   0.22652   0.22346  -0.0791  0.0166  1.0000  -4.2929   0.0000   0.0000   0.0000   0.2865
  23.000   1.0348   0.22590   0.22282  -0.0791  0.0164  1.0000  -4.4055   0.0000   0.0000   0.0000   0.2854
  23.100   1.0441   0.22488   0.22178  -0.0789  0.0162  1.0000  -4.5345   0.0000   0.0000   0.0000   0.2841
  23.200   1.0588   0.22212   0.21899  -0.0781  0.0161  1.0000  -4.7326   0.0000   0.0000   0.0000   0.2817
  23.300   1.0762   0.21863   0.21545  -0.0770  0.0160  1.0000  -4.9618   0.0000   0.0000   0.0000   0.2788
  23.400   1.0952   0.21483   0.21157  -0.0756  0.0157  1.0000  -5.2068   0.0000   0.0000   0.0000   0.2756
  23.500   1.1178   0.20984   0.20639  -0.0738  0.0129  1.0000  -5.5270   0.0000   0.0000   0.0000   0.2718


