xflr5 v6.61

 Calculated polar for: NACA 65-206

 1 1 Reynolds number fixed          Mach number fixed         

 xtrf =   1.000 (top)        1.000 (bottom)
 Mach =   0.000     Re =     0.100 e 6     Ncrit =   9.000

  alpha     CL        CD       CDp       Cm    Top Xtr Bot Xtr   Cpmin    Chinge    XCp    
 ------- -------- --------- --------- -------- ------- ------- -------- --------- ---------
  -6.200  -0.0750   0.00013  -0.00227  -0.0238  0.9251  0.1121  -0.1920   0.0000   0.0000   0.0000  -0.0432
  -6.100  -0.0740   0.00011  -0.00232  -0.0251  0.9227  0.0900  -0.2386   0.0000   0.0000   0.0000  -0.0646
  -6.000  -0.0735   0.00008  -0.00233  -0.0261  0.9187  0.0851  -0.2627   0.0000   0.0000   0.0000  -0.0805
  -5.900  -0.0759   0.00006  -0.00233  -0.0276  0.9155  0.0815  -0.2983   0.0000   0.0000   0.0000  -0.0899
  -5.800  -0.0793   0.00004  -0.00234  -0.0293  0.9129  0.0797  -0.3348   0.0000   0.0000   0.0000  -0.0967
  -5.700  -0.0753   0.00003  -0.00238  -0.0301  0.9096  0.0721  -0.3614   0.0000   0.0000   0.0000  -0.1256
  -5.600  -0.0712   0.00002  -0.00236  -0.0305  0.9048  0.0703  -0.3676   0.0000   0.0000   0.0000  -0.1543
  -5.500  -0.0705   0.00002  -0.00235  -0.0308  0.8995  0.0694  -0.3758   0.0000   0.0000   0.0000  -0.1614
  -5.400  -0.0718   0.00001  -0.00235  -0.0313  0.8957  0.0685  -0.3902   0.0000   0.0000   0.0000  -0.1623
  -5.300  -0.0738   0.00001  -0.00234  -0.0317  0.8915  0.0678  -0.4031   0.0000   0.0000   0.0000  -0.1561
  -5.200  -0.0761   0.00001  -0.00233  -0.0320  0.8872  0.0671  -0.4151   0.0000   0.0000   0.0000  -0.1481
  -5.100  -0.0784   0.00001  -0.00233  -0.0322  0.8832  0.0665  -0.4262   0.0000   0.0000   0.0000  -0.1400
  -5.000  -0.0810   0.00000  -0.00232  -0.0324  0.8804  0.0659  -0.4362   0.0000   0.0000   0.0000  -0.1306
  -4.900  -0.0838   0.00000  -0.00232  -0.0326  0.8779  0.0654  -0.4454   0.0000   0.0000   0.0000  -0.1197
  -4.800  -0.0870   0.00000  -0.00231  -0.0327  0.8757  0.0649  -0.4539   0.0000   0.0000   0.0000  -0.1074
  -4.700  -0.0906   0.00000  -0.00231  -0.0326  0.8740  0.0645  -0.4616   0.0000   0.0000   0.0000  -0.0934
  -4.600  -0.0945   0.00000  -0.00230  -0.0325  0.8727  0.0642  -0.4686   0.0000   0.0000   0.0000  -0.0781
  -4.500  -0.0989   0.00000  -0.00230  -0.0323  0.8720  0.0639  -0.4749   0.0000   0.0000   0.0000  -0.0611
  -4.400  -0.1039   0.00000  -0.00229  -0.0319  0.8719  0.0638  -0.4806   0.0000   0.0000   0.0000  -0.0428
  -4.300  -0.1090   0.00000  -0.00229  -0.0314  0.8712  0.0637  -0.4860   0.0000   0.0000   0.0000  -0.0251
  -4.200  -0.1142   0.00000  -0.00228  -0.0309  0.8700  0.0636  -0.4911   0.0000   0.0000   0.0000  -0.0084
  -4.100  -0.1194   0.00000  -0.00228  -0.0303  0.8688  0.0635  -0.4958   0.0000   0.0000   0.0000   0.0073
  -4.000  -0.1251   0.00000  -0.00228  -0.0297  0.8682  0.0636  -0.4998   0.0000   0.0000   0.0000   0.0236
  -3.900  -0.1319   0.00000  -0.00227  -0.0288  0.8693  0.0639  -0.5035   0.0000   0.0000   0.0000   0.0416
  -3.800  -0.1395   0.00000  -0.00227  -0.0279  0.8729  0.0643  -0.5080   0.0000   0.0000   0.0000   0.0589
  -3.300  -0.1493   0.00000  -0.00220  -0.0268  0.9007  0.0625  -0.5064   0.0000   0.0000   0.0000   0.0779
  -3.200  -0.1581   0.00000  -0.00227  -0.0268  0.9025  0.0627  -0.5268   0.0000   0.0000   0.0000   0.0872
  -3.100  -0.1664   0.00000  -0.00236  -0.0272  0.9052  0.0627  -0.5513   0.0000   0.0000   0.0000   0.0931
  -3.000  -0.1719   0.00000  -0.00251  -0.0285  0.9093  0.0618  -0.5855   0.0000   0.0000   0.0000   0.0903
  -2.900  -0.1684   0.00000  -0.00284  -0.0320  0.9154  0.0583  -0.6485   0.0000   0.0000   0.0000   0.0654
  -2.700  -0.2420   0.01886   0.00946  -0.0201  1.0000  0.0585  -1.5198   0.0000   0.0000   0.0000   0.1662
  -2.600  -0.2352   0.01874   0.00945  -0.0198  1.0000  0.0689  -1.3968   0.0000   0.0000   0.0000   0.1654
  -2.500  -0.2272   0.01823   0.00890  -0.0190  1.0000  0.0694  -1.3329   0.0000   0.0000   0.0000   0.1658
  -2.400  -0.2194   0.01775   0.00839  -0.0182  1.0000  0.0696  -1.2691   0.0000   0.0000   0.0000   0.1664
  -2.300  -0.2118   0.01731   0.00793  -0.0175  1.0000  0.0699  -1.2595   0.0000   0.0000   0.0000   0.1670
  -2.200  -0.2044   0.01692   0.00752  -0.0167  1.0000  0.0702  -1.2505   0.0000   0.0000   0.0000   0.1678
  -2.100  -0.1972   0.01656   0.00715  -0.0159  1.0000  0.0707  -1.2419   0.0000   0.0000   0.0000   0.1687
  -2.000  -0.1901   0.01623   0.00682  -0.0151  1.0000  0.0713  -1.2337   0.0000   0.0000   0.0000   0.1698
  -1.900  -0.1831   0.01594   0.00651  -0.0144  1.0000  0.0721  -1.2260   0.0000   0.0000   0.0000   0.1709
  -1.800  -0.1762   0.01568   0.00624  -0.0136  1.0000  0.0732  -1.2189   0.0000   0.0000   0.0000   0.1721
  -1.700  -0.1691   0.01548   0.00600  -0.0129  1.0000  0.0747  -1.2101   0.0000   0.0000   0.0000   0.1730
  -1.600  -0.1624   0.01514   0.00565  -0.0122  1.0000  0.0784  -1.2075   0.0000   0.0000   0.0000   0.1742
  -1.500  -0.1557   0.01481   0.00534  -0.0116  1.0000  0.0849  -1.1995   0.0000   0.0000   0.0000   0.1748
  -1.400  -0.1487   0.01461   0.00513  -0.0111  1.0000  0.0921  -1.1915   0.0000   0.0000   0.0000   0.1753
  -1.200  -0.1113   0.01206   0.00572  -0.0101  1.0000  1.0000  -1.2769   0.0000   0.0000   0.0000   0.1584
  -1.100  -0.1097   0.01203   0.00559  -0.0088  1.0000  1.0000  -1.2609   0.0000   0.0000   0.0000   0.1692
  -1.000  -0.1071   0.01201   0.00549  -0.0077  1.0000  1.0000  -1.2386   0.0000   0.0000   0.0000   0.1780
  -0.900  -0.1036   0.01202   0.00541  -0.0067  1.0000  1.0000  -1.2112   0.0000   0.0000   0.0000   0.1852
  -0.800  -0.0993   0.01203   0.00535  -0.0058  1.0000  1.0000  -1.1799   0.0000   0.0000   0.0000   0.1911
  -0.700  -0.0945   0.01206   0.00531  -0.0051  1.0000  1.0000  -1.1459   0.0000   0.0000   0.0000   0.1960
  -0.600  -0.0893   0.01210   0.00529  -0.0044  1.0000  1.0000  -1.1098   0.0000   0.0000   0.0000   0.2005
  -0.500  -0.0838   0.01216   0.00528  -0.0038  1.0000  1.0000  -1.0723   0.0000   0.0000   0.0000   0.2047
  -0.400  -0.0781   0.01221   0.00528  -0.0032  1.0000  1.0000  -1.0339   0.0000   0.0000   0.0000   0.2087
  -0.300  -0.0722   0.01228   0.00530  -0.0027  1.0000  1.0000  -0.9949   0.0000   0.0000   0.0000   0.2129
  -0.200  -0.0662   0.01235   0.00532  -0.0022  1.0000  1.0000  -0.9555   0.0000   0.0000   0.0000   0.2173
  -0.100  -0.0600   0.01243   0.00535  -0.0017  1.0000  1.0000  -0.9158   0.0000   0.0000   0.0000   0.2221
   0.000  -0.0538   0.01251   0.00540  -0.0012  1.0000  1.0000  -0.8761   0.0000   0.0000   0.0000   0.2276
   0.100  -0.0476   0.01260   0.00545  -0.0008  1.0000  1.0000  -0.8365   0.0000   0.0000   0.0000   0.2342
   0.200  -0.0413   0.01269   0.00551  -0.0004  1.0000  1.0000  -0.7971   0.0000   0.0000   0.0000   0.2425
   0.300  -0.0349   0.01279   0.00557   0.0001  1.0000  1.0000  -0.7579   0.0000   0.0000   0.0000   0.2534
   0.400  -0.0286   0.01289   0.00564   0.0005  1.0000  1.0000  -0.7190   0.0000   0.0000   0.0000   0.2688
   0.500  -0.0222   0.01300   0.00573   0.0009  1.0000  1.0000  -0.6804   0.0000   0.0000   0.0000   0.2925
   0.600  -0.0158   0.01311   0.00581   0.0013  1.0000  1.0000  -0.6422   0.0000   0.0000   0.0000   0.3349
   0.700  -0.0094   0.01322   0.00591   0.0017  1.0000  1.0000  -0.6043   0.0000   0.0000   0.0000   0.4343
   0.800  -0.0030   0.01334   0.00600   0.0020  1.0000  1.0000  -0.5669   0.0000   0.0000   0.0000   0.9627
   0.900   0.0104   0.01347   0.00612   0.0011  0.9982  1.0000  -0.5137   0.0000   0.0000   0.0000   0.1335
   1.000   0.0241   0.01361   0.00625   0.0002  0.9959  1.0000  -0.4607   0.0000   0.0000   0.0000   0.2396
   1.100   0.0378   0.01376   0.00639  -0.0008  0.9933  1.0000  -0.4086   0.0000   0.0000   0.0000   0.2692
   1.200   0.0519   0.01392   0.00655  -0.0019  0.9902  1.0000  -0.3568   0.0000   0.0000   0.0000   0.2842
   1.300   0.0663   0.01410   0.00672  -0.0030  0.9867  1.0000  -0.3836   0.0000   0.0000   0.0000   0.2936
   1.400   0.0811   0.01429   0.00692  -0.0042  0.9828  1.0000  -0.4386   0.0000   0.0000   0.0000   0.3003
   1.500   0.0962   0.01449   0.00711  -0.0055  0.9788  1.0000  -0.4956   0.0000   0.0000   0.0000   0.3055
   1.600   0.1115   0.01471   0.00733  -0.0068  0.9748  1.0000  -0.5560   0.0000   0.0000   0.0000   0.3094
   1.700   0.1267   0.01493   0.00757  -0.0081  0.9711  1.0000  -0.6177   0.0000   0.0000   0.0000   0.3125
   1.800   0.1417   0.01517   0.00782  -0.0093  0.9678  1.0000  -0.6801   0.0000   0.0000   0.0000   0.3147
   1.900   0.1574   0.01543   0.00810  -0.0107  0.9646  1.0000  -0.7454   0.0000   0.0000   0.0000   0.3170
   2.000   0.1744   0.01571   0.00841  -0.0124  0.9613  1.0000  -0.8158   0.0000   0.0000   0.0000   0.3198
   2.100   0.1932   0.01602   0.00876  -0.0144  0.9582  1.0000  -0.8922   0.0000   0.0000   0.0000   0.3231
   2.200   0.2135   0.01637   0.00916  -0.0166  0.9551  1.0000  -0.9746   0.0000   0.0000   0.0000   0.3266
   2.300   0.2353   0.01679   0.00964  -0.0192  0.9522  1.0000  -1.0626   0.0000   0.0000   0.0000   0.3302
   2.400   0.2523   0.01709   0.00999  -0.0207  0.9488  1.0000  -1.1383   0.0000   0.0000   0.0000   0.3308
   2.500   0.2559   0.01689   0.00980  -0.0195  0.9435  1.0000  -1.1767   0.0000   0.0000   0.0000   0.3249
   2.600   0.2642   0.01686   0.00981  -0.0192  0.9383  1.0000  -1.2284   0.0000   0.0000   0.0000   0.3215
   2.700   0.2756   0.01689   0.00990  -0.0196  0.9329  1.0000  -1.2897   0.0000   0.0000   0.0000   0.3197
   2.800   0.2898   0.01696   0.01003  -0.0204  0.9275  1.0000  -1.3598   0.0000   0.0000   0.0000   0.3191
   2.900   0.3074   0.01702   0.01018  -0.0219  0.9221  1.0000  -1.4397   0.0000   0.0000   0.0000   0.3197
   3.000   0.4445   0.01511   0.00506  -0.0303  0.0841  1.0000  -1.6490   0.0000   0.0000   0.0000   0.3169
   3.100   0.4519   0.01578   0.00571  -0.0297  0.0744  1.0000  -1.6443   0.0000   0.0000   0.0000   0.3143
   3.200   0.4612   0.01609   0.00604  -0.0293  0.0709  1.0000  -1.6577   0.0000   0.0000   0.0000   0.3121
   3.300   0.4702   0.01648   0.00649  -0.0288  0.0686  1.0000  -1.6661   0.0000   0.0000   0.0000   0.3098
   3.400   0.4790   0.01692   0.00696  -0.0283  0.0669  1.0000  -1.6756   0.0000   0.0000   0.0000   0.3076
   3.500   0.4880   0.01739   0.00746  -0.0278  0.0657  1.0000  -1.6866   0.0000   0.0000   0.0000   0.3054
   3.600   0.4972   0.01791   0.00799  -0.0273  0.0647  1.0000  -1.6985   0.0000   0.0000   0.0000   0.3034
   3.700   0.5069   0.01847   0.00857  -0.0269  0.0640  1.0000  -1.7113   0.0000   0.0000   0.0000   0.3015
   3.800   0.5169   0.01908   0.00919  -0.0265  0.0636  1.0000  -1.7247   0.0000   0.0000   0.0000   0.2997
   3.900   0.5274   0.01974   0.00987  -0.0262  0.0634  1.0000  -1.7385   0.0000   0.0000   0.0000   0.2980
   4.000   0.5382   0.02045   0.01062  -0.0258  0.0634  1.0000  -1.7522   0.0000   0.0000   0.0000   0.2963
   4.100   0.5493   0.02122   0.01144  -0.0255  0.0635  1.0000  -1.7832   0.0000   0.0000   0.0000   0.2947
   4.200   0.5606   0.02206   0.01235  -0.0252  0.0636  1.0000  -1.8716   0.0000   0.0000   0.0000   0.2932
   4.300   0.5704   0.02262   0.01287  -0.0250  0.0588  1.0000  -1.9929   0.0000   0.0000   0.0000   0.2921
   4.400   0.5775   0.02518   0.01533  -0.0252  0.0498  1.0000  -2.0705   0.0000   0.0000   0.0000   0.2918
   4.500   0.5882   0.02493   0.01517  -0.0247  0.0458  1.0000  -2.1748   0.0000   0.0000   0.0000   0.2901
   4.600   0.5993   0.02591   0.01631  -0.0241  0.0437  1.0000  -2.1940   0.0000   0.0000   0.0000   0.2882
   4.700   0.6102   0.02729   0.01790  -0.0234  0.0430  1.0000  -2.1777   0.0000   0.0000   0.0000   0.2863
   4.800   0.6206   0.02887   0.01970  -0.0227  0.0435  1.0000  -2.1546   0.0000   0.0000   0.0000   0.2845
   4.900   0.6302   0.03064   0.02169  -0.0219  0.0448  1.0000  -2.1324   0.0000   0.0000   0.0000   0.2827
   5.000   0.6384   0.03283   0.02407  -0.0213  0.0467  1.0000  -2.1071   0.0000   0.0000   0.0000   0.2812
   5.100   0.6545   0.03364   0.02538  -0.0196  0.0597  1.0000  -2.0034   0.0000   0.0000   0.0000   0.2779
   5.200   0.6624   0.03651   0.02851  -0.0188  0.0695  1.0000  -1.9363   0.0000   0.0000   0.0000   0.2763


