xflr5 v6.61

 Calculated polar for: NACA 2415

 1 1 Reynolds number fixed          Mach number fixed         

 xtrf =   1.000 (top)        1.000 (bottom)
 Mach =   0.000     Re =     0.200 e 6     Ncrit =   9.000

  alpha     CL        CD       CDp       Cm    Top Xtr Bot Xtr   Cpmin    Chinge    XCp    
 ------- -------- --------- --------- -------- ------- ------- -------- --------- ---------
 -10.000  -0.8713   0.03347   0.02721  -0.0386  1.0000  0.0449  -4.0859   0.0000   0.0000   0.0000   0.1929
  -9.900  -0.8704   0.03295   0.02663  -0.0373  1.0000  0.0450  -4.0682   0.0000   0.0000   0.0000   0.1946
  -9.800  -0.8690   0.03243   0.02605  -0.0360  1.0000  0.0452  -4.0490   0.0000   0.0000   0.0000   0.1961
  -9.700  -0.8672   0.03192   0.02549  -0.0348  1.0000  0.0453  -4.0285   0.0000   0.0000   0.0000   0.1975
  -9.600  -0.8648   0.03142   0.02493  -0.0336  1.0000  0.0455  -4.0066   0.0000   0.0000   0.0000   0.1989
  -9.500  -0.8619   0.03092   0.02437  -0.0326  1.0000  0.0456  -3.9833   0.0000   0.0000   0.0000   0.2001
  -9.400  -0.8586   0.03044   0.02384  -0.0315  1.0000  0.0458  -3.9588   0.0000   0.0000   0.0000   0.2013
  -9.300  -0.8550   0.02996   0.02331  -0.0306  1.0000  0.0460  -3.9332   0.0000   0.0000   0.0000   0.2024
  -9.200  -0.8510   0.02950   0.02280  -0.0296  1.0000  0.0462  -3.9065   0.0000   0.0000   0.0000   0.2034
  -9.100  -0.8467   0.02906   0.02230  -0.0287  1.0000  0.0464  -3.8789   0.0000   0.0000   0.0000   0.2044
  -9.000  -0.8421   0.02863   0.02182  -0.0279  1.0000  0.0466  -3.8503   0.0000   0.0000   0.0000   0.2054
  -8.900  -0.8372   0.02825   0.02140  -0.0271  1.0000  0.0468  -3.8187   0.0000   0.0000   0.0000   0.2063
  -8.800  -0.8319   0.02799   0.02110  -0.0263  1.0000  0.0472  -3.7815   0.0000   0.0000   0.0000   0.2071
  -8.700  -0.8263   0.02782   0.02091  -0.0256  1.0000  0.0476  -3.7393   0.0000   0.0000   0.0000   0.2078
  -8.600  -0.8204   0.02775   0.02084  -0.0249  1.0000  0.0481  -3.6922   0.0000   0.0000   0.0000   0.2085
  -8.500  -0.8142   0.02781   0.02090  -0.0243  1.0000  0.0486  -3.6398   0.0000   0.0000   0.0000   0.2092
  -8.400  -0.8076   0.02801   0.02113  -0.0237  1.0000  0.0491  -3.5812   0.0000   0.0000   0.0000   0.2098
  -8.300  -0.8006   0.02843   0.02159  -0.0232  1.0000  0.0496  -3.5145   0.0000   0.0000   0.0000   0.2103
  -8.200  -0.7907   0.02935   0.02260  -0.0231  0.9998  0.0501  -3.4242   0.0000   0.0000   0.0000   0.2102
  -8.100  -0.7835   0.02764   0.02072  -0.0232  0.9989  0.0513  -3.4205   0.0000   0.0000   0.0000   0.2099
  -8.000  -0.7756   0.02604   0.01893  -0.0232  0.9979  0.0528  -3.4169   0.0000   0.0000   0.0000   0.2095
  -7.900  -0.7656   0.02503   0.01782  -0.0235  0.9968  0.0543  -3.3913   0.0000   0.0000   0.0000   0.2088
  -7.800  -0.7540   0.02437   0.01707  -0.0239  0.9955  0.0548  -3.3552   0.0000   0.0000   0.0000   0.2079
  -7.700  -0.7416   0.02383   0.01601  -0.0242  0.9941  0.0544  -3.2902   0.0000   0.0000   0.0000   0.2070
  -7.600  -0.7296   0.02326   0.01538  -0.0246  0.9926  0.0547  -3.2590   0.0000   0.0000   0.0000   0.2060
  -7.500  -0.7173   0.02271   0.01477  -0.0250  0.9909  0.0552  -3.2273   0.0000   0.0000   0.0000   0.2048
  -7.400  -0.7046   0.02218   0.01419  -0.0255  0.9889  0.0558  -3.1951   0.0000   0.0000   0.0000   0.2035
  -7.300  -0.6917   0.02168   0.01363  -0.0261  0.9867  0.0565  -3.1623   0.0000   0.0000   0.0000   0.2020
  -7.200  -0.6783   0.02119   0.01311  -0.0268  0.9843  0.0575  -3.1288   0.0000   0.0000   0.0000   0.2004
  -7.100  -0.6646   0.02074   0.01263  -0.0275  0.9818  0.0588  -3.0940   0.0000   0.0000   0.0000   0.1985
  -7.000  -0.6506   0.02032   0.01220  -0.0282  0.9792  0.0603  -3.0575   0.0000   0.0000   0.0000   0.1965
  -6.900  -0.6363   0.01993   0.01181  -0.0291  0.9765  0.0624  -3.0198   0.0000   0.0000   0.0000   0.1942
  -6.800  -0.6217   0.01958   0.01146  -0.0300  0.9739  0.0650  -2.9820   0.0000   0.0000   0.0000   0.1917
  -6.700  -0.6069   0.01925   0.01112  -0.0309  0.9714  0.0689  -2.9468   0.0000   0.0000   0.0000   0.1890
  -6.600  -0.5918   0.01899   0.01085  -0.0318  0.9691  0.0737  -2.9114   0.0000   0.0000   0.0000   0.1862
  -6.500  -0.5797   0.01826   0.01036  -0.0325  0.9670  0.0881  -2.8970   0.0000   0.0000   0.0000   0.1840
  -6.400  -0.5645   0.01818   0.01032  -0.0336  0.9650  0.0977  -2.8487   0.0000   0.0000   0.0000   0.1806
  -6.300  -0.5507   0.01771   0.00990  -0.0344  0.9632  0.1150  -2.8151   0.0000   0.0000   0.0000   0.1777
  -6.200  -0.5357   0.01749   0.00979  -0.0354  0.9614  0.1267  -2.7631   0.0000   0.0000   0.0000   0.1739
  -6.100  -0.5199   0.01738   0.00973  -0.0366  0.9598  0.1348  -2.7063   0.0000   0.0000   0.0000   0.1696
  -6.000  -0.5035   0.01733   0.00967  -0.0378  0.9582  0.1409  -2.6477   0.0000   0.0000   0.0000   0.1649
  -5.900  -0.4868   0.01731   0.00962  -0.0391  0.9567  0.1453  -2.5878   0.0000   0.0000   0.0000   0.1596
  -5.800  -0.4697   0.01733   0.00959  -0.0404  0.9552  0.1482  -2.5269   0.0000   0.0000   0.0000   0.1537
  -5.700  -0.4524   0.01737   0.00960  -0.0418  0.9538  0.1500  -2.4653   0.0000   0.0000   0.0000   0.1473
  -5.600  -0.4364   0.01713   0.00940  -0.0430  0.9523  0.1588  -2.4123   0.0000   0.0000   0.0000   0.1412
  -5.500  -0.4203   0.01702   0.00935  -0.0443  0.9506  0.1678  -2.3568   0.0000   0.0000   0.0000   0.1343
  -5.400  -0.4106   0.01685   0.00923  -0.0441  0.9483  0.1739  -2.3134   0.0000   0.0000   0.0000   0.1322
  -5.300  -0.4031   0.01664   0.00906  -0.0434  0.9454  0.1789  -2.2746   0.0000   0.0000   0.0000   0.1319
  -5.200  -0.3944   0.01648   0.00892  -0.0430  0.9421  0.1839  -2.2334   0.0000   0.0000   0.0000   0.1306
  -5.100  -0.3844   0.01634   0.00879  -0.0428  0.9387  0.1888  -2.1898   0.0000   0.0000   0.0000   0.1283
  -5.000  -0.3733   0.01624   0.00868  -0.0429  0.9354  0.1935  -2.1438   0.0000   0.0000   0.0000   0.1247
  -4.900  -0.3609   0.01616   0.00858  -0.0432  0.9322  0.1974  -2.0953   0.0000   0.0000   0.0000   0.1199
  -4.800  -0.3476   0.01610   0.00850  -0.0437  0.9293  0.2002  -2.0452   0.0000   0.0000   0.0000   0.1138
  -4.700  -0.3349   0.01583   0.00829  -0.0441  0.9265  0.2112  -1.9989   0.0000   0.0000   0.0000   0.1076
  -4.600  -0.3213   0.01563   0.00819  -0.0448  0.9238  0.2206  -1.9496   0.0000   0.0000   0.0000   0.1001
  -4.500  -0.3071   0.01547   0.00811  -0.0455  0.9214  0.2293  -1.8988   0.0000   0.0000   0.0000   0.0910
  -4.400  -0.2921   0.01533   0.00802  -0.0464  0.9192  0.2375  -1.8469   0.0000   0.0000   0.0000   0.0803
  -4.300  -0.2763   0.01522   0.00791  -0.0473  0.9171  0.2446  -1.7940   0.0000   0.0000   0.0000   0.0675
  -4.200  -0.2597   0.01513   0.00780  -0.0485  0.9152  0.2497  -1.7395   0.0000   0.0000   0.0000   0.0519
  -4.100  -0.2440   0.01485   0.00766  -0.0495  0.9132  0.2628  -1.6879   0.0000   0.0000   0.0000   0.0354
  -4.000  -0.2283   0.01460   0.00755  -0.0505  0.9111  0.2747  -1.6357   0.0000   0.0000   0.0000   0.0167
  -3.900  -0.2119   0.01442   0.00745  -0.0515  0.9090  0.2856  -1.5825   0.0000   0.0000   0.0000  -0.0057
  -3.800  -0.1953   0.01429   0.00734  -0.0526  0.9067  0.2944  -1.5291   0.0000   0.0000   0.0000  -0.0322
  -3.700  -0.1788   0.01424   0.00725  -0.0536  0.9043  0.2998  -1.4762   0.0000   0.0000   0.0000  -0.0632
  -3.600  -0.1631   0.01402   0.00709  -0.0545  0.9015  0.3208  -1.4277   0.0000   0.0000   0.0000  -0.0983
  -3.500  -0.1529   0.01385   0.00704  -0.0543  0.8988  0.3401  -1.3889   0.0000   0.0000   0.0000  -0.1200
  -3.400  -0.1466   0.01370   0.00699  -0.0534  0.8962  0.3538  -1.3568   0.0000   0.0000   0.0000  -0.1288
  -3.300  -0.1399   0.01358   0.00696  -0.0525  0.8932  0.3660  -1.3238   0.0000   0.0000   0.0000  -0.1405
  -3.200  -0.1324   0.01349   0.00693  -0.0518  0.8898  0.3770  -1.2899   0.0000   0.0000   0.0000  -0.1565
  -3.100  -0.1241   0.01342   0.00690  -0.0512  0.8859  0.3865  -1.2548   0.0000   0.0000   0.0000  -0.1784
  -3.000  -0.1150   0.01338   0.00685  -0.0507  0.8818  0.3936  -1.2184   0.0000   0.0000   0.0000  -0.2080
  -2.900  -0.1050   0.01336   0.00681  -0.0505  0.8776  0.3985  -1.1807   0.0000   0.0000   0.0000  -0.2481
  -2.800  -0.0947   0.01324   0.00673  -0.0503  0.8734  0.4117  -1.1433   0.0000   0.0000   0.0000  -0.3002
  -2.700  -0.0847   0.01305   0.00666  -0.0500  0.8690  0.4357  -1.1071   0.0000   0.0000   0.0000  -0.3610
  -2.600  -0.0746   0.01288   0.00663  -0.0498  0.8647  0.4546  -1.0704   0.0000   0.0000   0.0000  -0.4390
  -2.500  -0.0639   0.01273   0.00658  -0.0496  0.8604  0.4708  -1.0327   0.0000   0.0000   0.0000  -0.5520
  -2.400  -0.0524   0.01262   0.00651  -0.0496  0.8562  0.4847  -0.9944   0.0000   0.0000   0.0000  -0.7249
  -2.300  -0.0406   0.01252   0.00644  -0.0497  0.8519  0.4954  -0.9556   0.0000   0.0000   0.0000  -1.0098
  -2.200  -0.0287   0.01240   0.00634  -0.0497  0.8477  0.5106  -0.9174   0.0000   0.0000   0.0000  -1.5296
  -2.100  -0.0178   0.01221   0.00629  -0.0495  0.8435  0.5369  -0.8809   0.0000   0.0000   0.0000  -2.6044
  -2.000  -0.0061   0.01204   0.00625  -0.0494  0.8393  0.5588  -0.8432   0.0000   0.0000   0.0000  -8.0944
  -1.900   0.0062   0.01191   0.00618  -0.0495  0.8350  0.5782  -0.8105   0.0000   0.0000   0.0000   8.3775
  -1.800   0.0190   0.01182   0.00611  -0.0497  0.8304  0.5927  -0.7802   0.0000   0.0000   0.0000   2.9267
  -1.700   0.0319   0.01176   0.00603  -0.0499  0.8253  0.6041  -0.7498   0.0000   0.0000   0.0000   1.8442
  -1.600   0.0443   0.01163   0.00602  -0.0500  0.8196  0.6310  -0.7205   0.0000   0.0000   0.0000   1.3985
  -1.500   0.0565   0.01158   0.00609  -0.0500  0.8121  0.6520  -0.6957   0.0000   0.0000   0.0000   1.1502
  -1.400   0.0683   0.01173   0.00630  -0.0502  0.8014  0.6692  -0.6756   0.0000   0.0000   0.0000   0.9959
  -1.300   0.0778   0.01170   0.00630  -0.0497  0.7985  0.6827  -0.6605   0.0000   0.0000   0.0000   0.8983
  -1.200   0.0871   0.01163   0.00624  -0.0491  0.7966  0.6927  -0.6455   0.0000   0.0000   0.0000   0.8220
  -1.100   0.0964   0.01157   0.00617  -0.0486  0.7940  0.6994  -0.6306   0.0000   0.0000   0.0000   0.7607
  -1.000   0.1067   0.01147   0.00612  -0.0483  0.7910  0.7174  -0.6151   0.0000   0.0000   0.0000   0.7074
  -0.900   0.1167   0.01138   0.00611  -0.0478  0.7875  0.7350  -0.5997   0.0000   0.0000   0.0000   0.6634
  -0.800   0.1267   0.01131   0.00612  -0.0472  0.7834  0.7506  -0.5860   0.0000   0.0000   0.0000   0.6260
  -0.700   0.1368   0.01126   0.00612  -0.0467  0.7790  0.7656  -0.5940   0.0000   0.0000   0.0000   0.5941
  -0.600   0.1469   0.01123   0.00611  -0.0463  0.7743  0.7794  -0.6019   0.0000   0.0000   0.0000   0.5668
  -0.500   0.1567   0.01120   0.00609  -0.0458  0.7694  0.7909  -0.6097   0.0000   0.0000   0.0000   0.5433
  -0.400   0.1664   0.01118   0.00606  -0.0453  0.7644  0.7992  -0.6174   0.0000   0.0000   0.0000   0.5227
  -0.300   0.1790   0.01113   0.00603  -0.0453  0.7594  0.8170  -0.6267   0.0000   0.0000   0.0000   0.5034
  -0.200   0.1923   0.01110   0.00603  -0.0454  0.7542  0.8331  -0.6364   0.0000   0.0000   0.0000   0.4859
  -0.100   0.2061   0.01109   0.00602  -0.0456  0.7488  0.8465  -0.6463   0.0000   0.0000   0.0000   0.4707
   0.000   0.2197   0.01108   0.00600  -0.0458  0.7433  0.8584  -0.6591   0.0000   0.0000   0.0000   0.4576
   0.100   0.2327   0.01108   0.00597  -0.0458  0.7373  0.8700  -0.6722   0.0000   0.0000   0.0000   0.4460
   0.200   0.2447   0.01109   0.00594  -0.0458  0.7305  0.8808  -0.6848   0.0000   0.0000   0.0000   0.4357
   0.300   0.2552   0.01114   0.00594  -0.0454  0.7224  0.8905  -0.6962   0.0000   0.0000   0.0000   0.4264
   0.400   0.2647   0.01124   0.00601  -0.0449  0.7124  0.8981  -0.7069   0.0000   0.0000   0.0000   0.4181
   0.500   0.2801   0.01147   0.00624  -0.0458  0.6999  0.9047  -0.7209   0.0000   0.0000   0.0000   0.4118
   0.600   0.2971   0.01149   0.00627  -0.0469  0.6983  0.9109  -0.7367   0.0000   0.0000   0.0000   0.4056
   0.700   0.3139   0.01151   0.00628  -0.0478  0.6962  0.9169  -0.7523   0.0000   0.0000   0.0000   0.4001
   0.800   0.3296   0.01153   0.00629  -0.0486  0.6934  0.9229  -0.7674   0.0000   0.0000   0.0000   0.3950
   0.900   0.3442   0.01155   0.00629  -0.0492  0.6898  0.9291  -0.7819   0.0000   0.0000   0.0000   0.3902
   1.000   0.3580   0.01157   0.00629  -0.0496  0.6855  0.9356  -0.7958   0.0000   0.0000   0.0000   0.3856
   1.100   0.3705   0.01159   0.00629  -0.0497  0.6805  0.9423  -0.8090   0.0000   0.0000   0.0000   0.3812
   1.200   0.3807   0.01163   0.00631  -0.0493  0.6751  0.9487  -0.8206   0.0000   0.0000   0.0000   0.3765
   1.300   0.3984   0.01163   0.00626  -0.0506  0.6687  0.9526  -0.8372   0.0000   0.0000   0.0000   0.3738
   1.400   0.4188   0.01161   0.00619  -0.0525  0.6618  0.9557  -0.8557   0.0000   0.0000   0.0000   0.3720
   1.500   0.4389   0.01161   0.00613  -0.0543  0.6549  0.9587  -0.8739   0.0000   0.0000   0.0000   0.3703
   1.600   0.4585   0.01162   0.00608  -0.0560  0.6481  0.9621  -0.8919   0.0000   0.0000   0.0000   0.3686
   1.700   0.4779   0.01164   0.00602  -0.0577  0.6410  0.9659  -0.9098   0.0000   0.0000   0.0000   0.3670
   1.800   0.4971   0.01168   0.00598  -0.0593  0.6327  0.9703  -0.9276   0.0000   0.0000   0.0000   0.3656
   1.900   0.5160   0.01176   0.00597  -0.0609  0.6226  0.9749  -0.9456   0.0000   0.0000   0.0000   0.3642
   2.000   0.5347   0.01189   0.00605  -0.0626  0.6107  0.9795  -0.9699   0.0000   0.0000   0.0000   0.3631
   2.100   0.5529   0.01208   0.00622  -0.0643  0.5997  0.9839  -0.9935   0.0000   0.0000   0.0000   0.3621
   2.200   0.5702   0.01207   0.00620  -0.0656  0.5983  0.9886  -1.0173   0.0000   0.0000   0.0000   0.3609
   2.300   0.5875   0.01206   0.00620  -0.0670  0.5964  0.9929  -1.0411   0.0000   0.0000   0.0000   0.3597
   2.400   0.6051   0.01206   0.00620  -0.0683  0.5940  0.9966  -1.0653   0.0000   0.0000   0.0000   0.3586
   2.500   0.6227   0.01206   0.00620  -0.0698  0.5908  0.9997  -1.0898   0.0000   0.0000   0.0000   0.3575
   2.600   0.6322   0.01205   0.00619  -0.0696  0.5873  1.0000  -1.1068   0.0000   0.0000   0.0000   0.3555
   2.700   0.6406   0.01204   0.00617  -0.0692  0.5832  1.0000  -1.1314   0.0000   0.0000   0.0000   0.3533
   2.800   0.6490   0.01204   0.00616  -0.0688  0.5785  1.0000  -1.1640   0.0000   0.0000   0.0000   0.3512
   2.900   0.6574   0.01205   0.00614  -0.0684  0.5730  1.0000  -1.1970   0.0000   0.0000   0.0000   0.3490
   3.000   0.6658   0.01206   0.00612  -0.0679  0.5669  1.0000  -1.2304   0.0000   0.0000   0.0000   0.3469
   3.100   0.6743   0.01208   0.00609  -0.0675  0.5603  1.0000  -1.2641   0.0000   0.0000   0.0000   0.3449
   3.200   0.6827   0.01211   0.00605  -0.0670  0.5532  1.0000  -1.2980   0.0000   0.0000   0.0000   0.3428
   3.300   0.6910   0.01216   0.00601  -0.0665  0.5456  1.0000  -1.3319   0.0000   0.0000   0.0000   0.3408
   3.400   0.6990   0.01222   0.00599  -0.0659  0.5370  1.0000  -1.3656   0.0000   0.0000   0.0000   0.3387
   3.500   0.7071   0.01232   0.00600  -0.0654  0.5269  1.0000  -1.3994   0.0000   0.0000   0.0000   0.3368
   3.600   0.7159   0.01247   0.00608  -0.0650  0.5143  1.0000  -1.4343   0.0000   0.0000   0.0000   0.3351
   3.700   0.7257   0.01272   0.00629  -0.0649  0.4999  1.0000  -1.4706   0.0000   0.0000   0.0000   0.3336
   3.800   0.7335   0.01267   0.00623  -0.0643  0.4983  1.0000  -1.5052   0.0000   0.0000   0.0000   0.3317
   3.900   0.7410   0.01262   0.00619  -0.0636  0.4961  1.0000  -1.5397   0.0000   0.0000   0.0000   0.3298
   4.000   0.7485   0.01259   0.00616  -0.0630  0.4929  1.0000  -1.5742   0.0000   0.0000   0.0000   0.3279
   4.100   0.7561   0.01258   0.00615  -0.0623  0.4887  1.0000  -1.6089   0.0000   0.0000   0.0000   0.3261
   4.200   0.7637   0.01259   0.00615  -0.0617  0.4834  1.0000  -1.6440   0.0000   0.0000   0.0000   0.3243
   4.300   0.7714   0.01261   0.00616  -0.0610  0.4772  1.0000  -1.6793   0.0000   0.0000   0.0000   0.3226
   4.400   0.7792   0.01266   0.00617  -0.0604  0.4707  1.0000  -1.7148   0.0000   0.0000   0.0000   0.3209
   4.500   0.7870   0.01272   0.00619  -0.0598  0.4639  1.0000  -1.7506   0.0000   0.0000   0.0000   0.3192
   4.600   0.7948   0.01279   0.00621  -0.0592  0.4573  1.0000  -1.7867   0.0000   0.0000   0.0000   0.3176
   4.700   0.8027   0.01288   0.00624  -0.0586  0.4509  1.0000  -1.8229   0.0000   0.0000   0.0000   0.3160
   4.800   0.8104   0.01297   0.00627  -0.0580  0.4444  1.0000  -1.8590   0.0000   0.0000   0.0000   0.3144
   4.900   0.8179   0.01307   0.00631  -0.0573  0.4376  1.0000  -1.8949   0.0000   0.0000   0.0000   0.3128
   5.000   0.8253   0.01319   0.00636  -0.0566  0.4302  1.0000  -1.9306   0.0000   0.0000   0.0000   0.3113
   5.100   0.8328   0.01331   0.00644  -0.0560  0.4219  1.0000  -1.9666   0.0000   0.0000   0.0000   0.3097
   5.200   0.8407   0.01346   0.00655  -0.0554  0.4132  1.0000  -2.0034   0.0000   0.0000   0.0000   0.3083
   5.300   0.8494   0.01363   0.00669  -0.0550  0.4041  1.0000  -2.0418   0.0000   0.0000   0.0000   0.3071
   5.400   0.8582   0.01373   0.00680  -0.0546  0.3993  1.0000  -2.0809   0.0000   0.0000   0.0000   0.3058
   5.500   0.8665   0.01377   0.00685  -0.0541  0.3980  1.0000  -2.1197   0.0000   0.0000   0.0000   0.3045
   5.600   0.8749   0.01380   0.00691  -0.0536  0.3961  1.0000  -2.1588   0.0000   0.0000   0.0000   0.3032
   5.700   0.8832   0.01384   0.00698  -0.0531  0.3937  1.0000  -2.1980   0.0000   0.0000   0.0000   0.3020
   5.800   0.8914   0.01389   0.00704  -0.0525  0.3906  1.0000  -2.2373   0.0000   0.0000   0.0000   0.3007
   5.900   0.8995   0.01396   0.00711  -0.0520  0.3868  1.0000  -2.2765   0.0000   0.0000   0.0000   0.2994
   6.000   0.9076   0.01403   0.00718  -0.0514  0.3820  1.0000  -2.3158   0.0000   0.0000   0.0000   0.2982
   6.100   0.9156   0.01411   0.00726  -0.0509  0.3765  1.0000  -2.3551   0.0000   0.0000   0.0000   0.2969
   6.200   0.9235   0.01420   0.00733  -0.0503  0.3703  1.0000  -2.3944   0.0000   0.0000   0.0000   0.2957
   6.300   0.9313   0.01431   0.00740  -0.0497  0.3634  1.0000  -2.4336   0.0000   0.0000   0.0000   0.2945
   6.400   0.9388   0.01443   0.00747  -0.0490  0.3559  1.0000  -2.4725   0.0000   0.0000   0.0000   0.2932
   6.500   0.9460   0.01457   0.00754  -0.0483  0.3477  1.0000  -2.5109   0.0000   0.0000   0.0000   0.2920
   6.600   0.9528   0.01472   0.00761  -0.0475  0.3389  1.0000  -2.5485   0.0000   0.0000   0.0000   0.2907
   6.700   0.9591   0.01489   0.00769  -0.0466  0.3293  1.0000  -2.5850   0.0000   0.0000   0.0000   0.2893
   6.800   0.9653   0.01506   0.00781  -0.0458  0.3185  1.0000  -2.6214   0.0000   0.0000   0.0000   0.2880
   6.900   0.9724   0.01523   0.00795  -0.0451  0.3072  1.0000  -2.6593   0.0000   0.0000   0.0000   0.2868
   7.000   0.9804   0.01539   0.00810  -0.0445  0.2989  1.0000  -2.6996   0.0000   0.0000   0.0000   0.2857
   7.100   0.9887   0.01548   0.00820  -0.0441  0.2949  1.0000  -2.7411   0.0000   0.0000   0.0000   0.2847
   7.200   0.9965   0.01560   0.00831  -0.0435  0.2889  1.0000  -2.7819   0.0000   0.0000   0.0000   0.2837
   7.300   1.0038   0.01575   0.00843  -0.0429  0.2814  1.0000  -2.8214   0.0000   0.0000   0.0000   0.2826
   7.400   1.0103   0.01594   0.00855  -0.0421  0.2732  1.0000  -2.8594   0.0000   0.0000   0.0000   0.2814
   7.500   1.0156   0.01618   0.00868  -0.0412  0.2647  1.0000  -2.8950   0.0000   0.0000   0.0000   0.2801
   7.600   1.0199   0.01646   0.00882  -0.0401  0.2558  1.0000  -2.9283   0.0000   0.0000   0.0000   0.2787
   7.700   1.0258   0.01670   0.00899  -0.0392  0.2480  1.0000  -2.9647   0.0000   0.0000   0.0000   0.2776
   7.800   1.0334   0.01687   0.00914  -0.0387  0.2418  1.0000  -3.0050   0.0000   0.0000   0.0000   0.2766
   7.900   1.0402   0.01707   0.00931  -0.0380  0.2346  1.0000  -3.0435   0.0000   0.0000   0.0000   0.2756
   8.000   1.0461   0.01731   0.00948  -0.0373  0.2267  1.0000  -3.0801   0.0000   0.0000   0.0000   0.2745
   8.100   1.0510   0.01759   0.00967  -0.0363  0.2183  1.0000  -3.1143   0.0000   0.0000   0.0000   0.2733
   8.200   1.0550   0.01791   0.00990  -0.0352  0.2091  1.0000  -3.1462   0.0000   0.0000   0.0000   0.2720
   8.300   1.0598   0.01820   0.01015  -0.0343  0.1996  1.0000  -3.1792   0.0000   0.0000   0.0000   0.2708
   8.400   1.0676   0.01842   0.01089  -0.0336  0.1939  1.0000  -3.2473   0.0000   0.0000   0.0000   0.2698
   8.500   1.0739   0.01867   0.01115  -0.0329  0.1843  1.0000  -3.2899   0.0000   0.0000   0.0000   0.2688
   8.600   1.0772   0.01905   0.01145  -0.0318  0.1705  1.0000  -3.3212   0.0000   0.0000   0.0000   0.2675
   8.700   1.0765   0.01955   0.01181  -0.0300  0.1534  1.0000  -3.3410   0.0000   0.0000   0.0000   0.2657
   8.800   1.0785   0.01998   0.01215  -0.0287  0.1368  1.0000  -3.3636   0.0000   0.0000   0.0000   0.2643
   8.900   1.0750   0.02070   0.01265  -0.0266  0.1156  1.0000  -3.3706   0.0000   0.0000   0.0000   0.2623
   9.000   1.0701   0.02158   0.01334  -0.0244  0.0886  1.0000  -3.3610   0.0000   0.0000   0.0000   0.2602
   9.100   1.0632   0.02264   0.01416  -0.0220  0.0742  1.0000  -3.3454   0.0000   0.0000   0.0000   0.2579
   9.200   1.0658   0.02309   0.01461  -0.0209  0.0696  1.0000  -3.3658   0.0000   0.0000   0.0000   0.2567
   9.300   1.0674   0.02358   0.01507  -0.0197  0.0659  1.0000  -3.3866   0.0000   0.0000   0.0000   0.2554
   9.400   1.0687   0.02410   0.01554  -0.0186  0.0626  1.0000  -3.4084   0.0000   0.0000   0.0000   0.2541
   9.500   1.0700   0.02465   0.01604  -0.0174  0.0595  1.0000  -3.4290   0.0000   0.0000   0.0000   0.2528
   9.600   1.0708   0.02526   0.01663  -0.0162  0.0563  1.0000  -3.4437   0.0000   0.0000   0.0000   0.2515
   9.700   1.0703   0.02596   0.01735  -0.0149  0.0536  1.0000  -3.4513   0.0000   0.0000   0.0000   0.2501
   9.800   1.0683   0.02675   0.01819  -0.0135  0.0517  1.0000  -3.4547   0.0000   0.0000   0.0000   0.2486
   9.900   1.0663   0.02759   0.01909  -0.0121  0.0501  1.0000  -3.4568   0.0000   0.0000   0.0000   0.2472
  10.000   1.0725   0.02788   0.01936  -0.0117  0.0497  1.0000  -3.4999   0.0000   0.0000   0.0000   0.2466
  10.100   1.0785   0.02820   0.01970  -0.0113  0.0493  1.0000  -3.5414   0.0000   0.0000   0.0000   0.2460
  10.200   1.0838   0.02857   0.02009  -0.0108  0.0489  1.0000  -3.5788   0.0000   0.0000   0.0000   0.2453
  10.300   1.0885   0.02898   0.02053  -0.0103  0.0485  1.0000  -3.6124   0.0000   0.0000   0.0000   0.2446
  10.400   1.0930   0.02944   0.02102  -0.0097  0.0482  1.0000  -3.6434   0.0000   0.0000   0.0000   0.2439
  10.500   1.0973   0.02991   0.02152  -0.0091  0.0479  1.0000  -3.6736   0.0000   0.0000   0.0000   0.2432
  10.600   1.1015   0.03039   0.02204  -0.0086  0.0476  1.0000  -3.7034   0.0000   0.0000   0.0000   0.2424
  10.700   1.1055   0.03089   0.02257  -0.0080  0.0473  1.0000  -3.7327   0.0000   0.0000   0.0000   0.2417
  10.800   1.1095   0.03140   0.02311  -0.0074  0.0470  1.0000  -3.7616   0.0000   0.0000   0.0000   0.2410
  10.900   1.1133   0.03193   0.02367  -0.0069  0.0467  1.0000  -3.7901   0.0000   0.0000   0.0000   0.2403
  11.000   1.1170   0.03247   0.02424  -0.0063  0.0465  1.0000  -3.8181   0.0000   0.0000   0.0000   0.2396
  11.100   1.1204   0.03302   0.02483  -0.0058  0.0462  1.0000  -3.8454   0.0000   0.0000   0.0000   0.2389
  11.200   1.1229   0.03364   0.02548  -0.0052  0.0460  1.0000  -3.8701   0.0000   0.0000   0.0000   0.2382
  11.300   1.1249   0.03429   0.02617  -0.0046  0.0457  1.0000  -3.8936   0.0000   0.0000   0.0000   0.2375
  11.400   1.1272   0.03493   0.02684  -0.0040  0.0455  1.0000  -3.9178   0.0000   0.0000   0.0000   0.2368
  11.500   1.1299   0.03557   0.02752  -0.0035  0.0453  1.0000  -3.9429   0.0000   0.0000   0.0000   0.2362
  11.600   1.1329   0.03620   0.02818  -0.0030  0.0450  1.0000  -3.9686   0.0000   0.0000   0.0000   0.2356
  11.700   1.1359   0.03684   0.02885  -0.0026  0.0448  1.0000  -3.9946   0.0000   0.0000   0.0000   0.2350
  11.800   1.1391   0.03749   0.02953  -0.0021  0.0446  1.0000  -4.0206   0.0000   0.0000   0.0000   0.2344
  11.900   1.1422   0.03814   0.03022  -0.0017  0.0443  1.0000  -4.0467   0.0000   0.0000   0.0000   0.2338
  12.000   1.1454   0.03880   0.03092  -0.0013  0.0441  1.0000  -4.0728   0.0000   0.0000   0.0000   0.2332
  12.100   1.1485   0.03947   0.03162  -0.0008  0.0439  1.0000  -4.0988   0.0000   0.0000   0.0000   0.2327
  12.200   1.1516   0.04015   0.03234  -0.0004  0.0437  1.0000  -4.1247   0.0000   0.0000   0.0000   0.2322
  12.300   1.1547   0.04084   0.03307  -0.0000  0.0435  1.0000  -4.1503   0.0000   0.0000   0.0000   0.2316
  12.400   1.1576   0.04155   0.03381   0.0003  0.0433  1.0000  -4.1757   0.0000   0.0000   0.0000   0.2311
  12.500   1.1605   0.04228   0.03457   0.0007  0.0430  1.0000  -4.2007   0.0000   0.0000   0.0000   0.2306
  12.600   1.1632   0.04302   0.03535   0.0010  0.0428  1.0000  -4.2254   0.0000   0.0000   0.0000   0.2301
  12.700   1.1656   0.04379   0.03617   0.0014  0.0427  1.0000  -4.2492   0.0000   0.0000   0.0000   0.2297
  12.800   1.1671   0.04467   0.03709   0.0017  0.0425  1.0000  -4.2699   0.0000   0.0000   0.0000   0.2292
  13.000   1.1717   0.04652   0.03921   0.0029  0.0446  1.0000  -4.2519   0.0000   0.0000   0.0000   0.2278
  13.100   1.1729   0.04747   0.04021   0.0032  0.0447  1.0000  -4.2654   0.0000   0.0000   0.0000   0.2274
  13.200   1.1743   0.04840   0.04119   0.0035  0.0446  1.0000  -4.2811   0.0000   0.0000   0.0000   0.2269
  13.300   1.1758   0.04932   0.04216   0.0038  0.0446  1.0000  -4.2982   0.0000   0.0000   0.0000   0.2265
  13.400   1.1773   0.05024   0.04313   0.0041  0.0445  1.0000  -4.3158   0.0000   0.0000   0.0000   0.2261
  13.500   1.1788   0.05116   0.04411   0.0043  0.0444  1.0000  -4.3336   0.0000   0.0000   0.0000   0.2257
  13.600   1.1802   0.05210   0.04509   0.0045  0.0443  1.0000  -4.3515   0.0000   0.0000   0.0000   0.2253
  13.700   1.1815   0.05305   0.04609   0.0047  0.0442  1.0000  -4.3691   0.0000   0.0000   0.0000   0.2249
  13.800   1.1826   0.05401   0.04711   0.0050  0.0441  1.0000  -4.3863   0.0000   0.0000   0.0000   0.2245
  13.900   1.1835   0.05500   0.04815   0.0051  0.0439  1.0000  -4.4029   0.0000   0.0000   0.0000   0.2242
  14.000   1.1842   0.05602   0.04922   0.0053  0.0438  1.0000  -4.4188   0.0000   0.0000   0.0000   0.2239
  14.100   1.1846   0.05708   0.05033   0.0054  0.0437  1.0000  -4.4337   0.0000   0.0000   0.0000   0.2235
  14.200   1.1846   0.05816   0.05147   0.0056  0.0436  1.0000  -4.4472   0.0000   0.0000   0.0000   0.2232
  14.300   1.1840   0.05928   0.05265   0.0057  0.0435  1.0000  -4.4589   0.0000   0.0000   0.0000   0.2229
  14.400   1.1829   0.06048   0.05390   0.0057  0.0433  1.0000  -4.4686   0.0000   0.0000   0.0000   0.2227
  14.500   1.1796   0.06196   0.05545   0.0056  0.0433  1.0000  -4.4706   0.0000   0.0000   0.0000   0.2225
  14.600   1.1762   0.06350   0.05705   0.0054  0.0432  1.0000  -4.4716   0.0000   0.0000   0.0000   0.2224
  14.700   1.1738   0.06495   0.05856   0.0052  0.0431  1.0000  -4.4758   0.0000   0.0000   0.0000   0.2223
  14.800   1.1720   0.06637   0.06004   0.0051  0.0430  1.0000  -4.4814   0.0000   0.0000   0.0000   0.2222
  14.900   1.1703   0.06779   0.06152   0.0049  0.0429  1.0000  -4.4875   0.0000   0.0000   0.0000   0.2222
  15.000   1.1685   0.06924   0.06303   0.0047  0.0428  1.0000  -4.4929   0.0000   0.0000   0.0000   0.2221
  15.100   1.1665   0.07074   0.06459   0.0045  0.0426  1.0000  -4.4972   0.0000   0.0000   0.0000   0.2221
  15.200   1.1643   0.07230   0.06621   0.0042  0.0425  1.0000  -4.5000   0.0000   0.0000   0.0000   0.2221
  15.300   1.1615   0.07394   0.06791   0.0038  0.0424  1.0000  -4.5007   0.0000   0.0000   0.0000   0.2222
  15.400   1.1582   0.07568   0.06972   0.0034  0.0424  1.0000  -4.4986   0.0000   0.0000   0.0000   0.2223
  15.500   1.1540   0.07755   0.07166   0.0029  0.0423  1.0000  -4.4929   0.0000   0.0000   0.0000   0.2225
  15.600   1.1458   0.08012   0.07432   0.0018  0.0423  1.0000  -4.4693   0.0000   0.0000   0.0000   0.2231
  15.700   1.1388   0.08258   0.07684   0.0009  0.0423  1.0000  -4.4498   0.0000   0.0000   0.0000   0.2237
  15.800   1.1337   0.08472   0.07906   0.0001  0.0422  1.0000  -4.4377   0.0000   0.0000   0.0000   0.2241
  15.900   1.1291   0.08680   0.08121  -0.0006  0.0421  1.0000  -4.4269   0.0000   0.0000   0.0000   0.2246
  16.000   1.1244   0.08890   0.08337  -0.0014  0.0421  1.0000  -4.4151   0.0000   0.0000   0.0000   0.2250
  16.100   1.1194   0.09107   0.08561  -0.0022  0.0420  1.0000  -4.4007   0.0000   0.0000   0.0000   0.2255
  16.200   1.1135   0.09338   0.08799  -0.0031  0.0420  1.0000  -4.3820   0.0000   0.0000   0.0000   0.2261
  16.300   1.1067   0.09591   0.09060  -0.0042  0.0419  1.0000  -4.3577   0.0000   0.0000   0.0000   0.2269
  16.400   1.0983   0.09878   0.09355  -0.0056  0.0420  1.0000  -4.3242   0.0000   0.0000   0.0000   0.2279
  16.500   1.0806   0.10343   0.09832  -0.0082  0.0422  1.0000  -4.2434   0.0000   0.0000   0.0000   0.2301
  16.600   1.0694   0.10692   0.10189  -0.0100  0.0422  1.0000  -4.1909   0.0000   0.0000   0.0000   0.2317
  16.700   1.0602   0.11004   0.10509  -0.0115  0.0423  1.0000  -4.1465   0.0000   0.0000   0.0000   0.2330
  16.800   1.0507   0.11328   0.10840  -0.0132  0.0423  1.0000  -4.0978   0.0000   0.0000   0.0000   0.2345
  16.900   1.0392   0.11700   0.11222  -0.0151  0.0424  1.0000  -4.0341   0.0000   0.0000   0.0000   0.2363
  17.000   1.0205   0.12228   0.11761  -0.0181  0.0427  1.0000  -3.9234   0.0000   0.0000   0.0000   0.2393
  17.200   0.8550   0.16752   0.16311  -0.0428  0.0424  1.0000  -2.6197   0.0000   0.0000   0.0000   0.2736
  17.300   0.8469   0.17211   0.16769  -0.0449  0.0426  1.0000  -2.5118   0.0000   0.0000   0.0000   0.2767
  17.400   0.8420   0.17575   0.17133  -0.0466  0.0426  1.0000  -2.4367   0.0000   0.0000   0.0000   0.2789
  17.500   0.8387   0.17895   0.17452  -0.0480  0.0426  1.0000  -2.3774   0.0000   0.0000   0.0000   0.2809
  17.600   0.8363   0.18187   0.17744  -0.0493  0.0426  1.0000  -2.3278   0.0000   0.0000   0.0000   0.2825
  17.700   0.8346   0.18460   0.18017  -0.0506  0.0425  1.0000  -2.2850   0.0000   0.0000   0.0000   0.2841
  17.800   0.8334   0.18720   0.18276  -0.0518  0.0423  1.0000  -2.2473   0.0000   0.0000   0.0000   0.2855
  17.900   0.8327   0.18969   0.18524  -0.0529  0.0422  1.0000  -2.2136   0.0000   0.0000   0.0000   0.2868
  18.000   0.8322   0.19209   0.18764  -0.0539  0.0420  1.0000  -2.1833   0.0000   0.0000   0.0000   0.2880
  18.100   0.8320   0.19441   0.18996  -0.0550  0.0417  1.0000  -2.1558   0.0000   0.0000   0.0000   0.2892
  18.200   0.8320   0.19667   0.19221  -0.0560  0.0415  1.0000  -2.1308   0.0000   0.0000   0.0000   0.2903
  18.300   0.8322   0.19887   0.19441  -0.0570  0.0411  1.0000  -2.1082   0.0000   0.0000   0.0000   0.2913
  18.400   0.8326   0.20101   0.19655  -0.0580  0.0408  1.0000  -2.0878   0.0000   0.0000   0.0000   0.2924
  18.500   0.8331   0.20310   0.19863  -0.0589  0.0404  1.0000  -2.0698   0.0000   0.0000   0.0000   0.2933
  18.600   0.8339   0.20513   0.20066  -0.0598  0.0399  1.0000  -2.0541   0.0000   0.0000   0.0000   0.2942
  18.700   0.8347   0.20710   0.20263  -0.0607  0.0395  1.0000  -2.0408   0.0000   0.0000   0.0000   0.2951
  18.800   0.8358   0.20901   0.20453  -0.0616  0.0389  1.0000  -2.0303   0.0000   0.0000   0.0000   0.2959
  18.900   0.8370   0.21084   0.20635  -0.0624  0.0383  1.0000  -2.0228   0.0000   0.0000   0.0000   0.2966
  19.000   0.8384   0.21260   0.20811  -0.0632  0.0377  1.0000  -2.0184   0.0000   0.0000   0.0000   0.2973
  19.100   0.8400   0.21426   0.20977  -0.0640  0.0370  1.0000  -2.0177   0.0000   0.0000   0.0000   0.2979
  19.200   0.8418   0.21582   0.21132  -0.0647  0.0363  1.0000  -2.0214   0.0000   0.0000   0.0000   0.2984
  19.300   0.8440   0.21724   0.21273  -0.0654  0.0355  1.0000  -2.0303   0.0000   0.0000   0.0000   0.2988
  19.400   0.8465   0.21851   0.21400  -0.0660  0.0347  1.0000  -2.0453   0.0000   0.0000   0.0000   0.2991
  19.500   0.8494   0.21962   0.21510  -0.0665  0.0339  1.0000  -2.0664   0.0000   0.0000   0.0000   0.2992
  19.600   0.8526   0.22055   0.21602  -0.0670  0.0332  1.0000  -2.0945   0.0000   0.0000   0.0000   0.2993
  19.700   0.8563   0.22129   0.21675  -0.0674  0.0324  1.0000  -2.1298   0.0000   0.0000   0.0000   0.2991
  20.100   0.8549   0.23194   0.22753  -0.0716  0.0340  1.0000  -1.9533   0.0000   0.0000   0.0000   0.3037
  20.200   0.8567   0.23361   0.22921  -0.0722  0.0338  1.0000  -1.9512   0.0000   0.0000   0.0000   0.3042
  20.300   0.8591   0.23493   0.23053  -0.0728  0.0332  1.0000  -1.9642   0.0000   0.0000   0.0000   0.3044
  20.400   0.8622   0.23595   0.23156  -0.0733  0.0326  1.0000  -1.9893   0.0000   0.0000   0.0000   0.3044
  20.500   0.8659   0.23669   0.23229  -0.0736  0.0318  1.0000  -2.0258   0.0000   0.0000   0.0000   0.3042
  20.600   0.8701   0.23717   0.23277  -0.0739  0.0311  1.0000  -2.0721   0.0000   0.0000   0.0000   0.3037
  20.700   0.8748   0.23740   0.23300  -0.0741  0.0304  1.0000  -2.1276   0.0000   0.0000   0.0000   0.3032
  20.800   0.8789   0.23779   0.23338  -0.0744  0.0297  1.0000  -2.1795   0.0000   0.0000   0.0000   0.3028
  20.900   0.8833   0.23803   0.23363  -0.0746  0.0291  1.0000  -2.2367   0.0000   0.0000   0.0000   0.3023
  21.000   0.8877   0.23822   0.23380  -0.0748  0.0285  1.0000  -2.2971   0.0000   0.0000   0.0000   0.3018
  21.100   0.8918   0.23847   0.23406  -0.0750  0.0278  1.0000  -2.3562   0.0000   0.0000   0.0000   0.3013
  21.200   0.8944   0.23923   0.23481  -0.0753  0.0270  1.0000  -2.4012   0.0000   0.0000   0.0000   0.3010
  21.800   0.8830   0.25930   0.25483  -0.0819  0.0229  1.0000  -2.2003   0.0000   0.0000   0.0000   0.3091
  21.900   0.8822   0.26247   0.25801  -0.0828  0.0228  1.0000  -2.1647   0.0000   0.0000   0.0000   0.3101
  22.000   0.8809   0.26593   0.26147  -0.0836  0.0229  1.0000  -2.1195   0.0000   0.0000   0.0000   0.3112
  22.100   0.8786   0.26978   0.26533  -0.0844  0.0232  1.0000  -2.0617   0.0000   0.0000   0.0000   0.3123
  22.300   0.8636   0.28737   0.28301  -0.0886  0.0337  1.0000  -1.5788   0.0000   0.0000   0.0000   0.3200
  22.400   0.8643   0.28968   0.28532  -0.0892  0.0337  1.0000  -1.5685   0.0000   0.0000   0.0000   0.3205
  22.500   0.8651   0.29192   0.28756  -0.0898  0.0336  1.0000  -1.5604   0.0000   0.0000   0.0000   0.3209
  22.600   0.8659   0.29411   0.28975  -0.0904  0.0335  1.0000  -1.5539   0.0000   0.0000   0.0000   0.3214
  22.700   0.8667   0.29627   0.29191  -0.0910  0.0334  1.0000  -1.5484   0.0000   0.0000   0.0000   0.3218
  22.800   0.8675   0.29840   0.29405  -0.0915  0.0332  1.0000  -1.5436   0.0000   0.0000   0.0000   0.3222
  22.900   0.8683   0.30051   0.29616  -0.0921  0.0331  1.0000  -1.5395   0.0000   0.0000   0.0000   0.3225
  23.000   0.8690   0.30260   0.29825  -0.0926  0.0329  1.0000  -1.5358   0.0000   0.0000   0.0000   0.3229
  23.100   0.8698   0.30468   0.30033  -0.0931  0.0328  1.0000  -1.5324   0.0000   0.0000   0.0000   0.3232
  23.200   0.8705   0.30674   0.30240  -0.0936  0.0326  1.0000  -1.5294   0.0000   0.0000   0.0000   0.3235
  23.300   0.8712   0.30879   0.30445  -0.0941  0.0324  1.0000  -1.5266   0.0000   0.0000   0.0000   0.3239
  23.400   0.8718   0.31083   0.30649  -0.0946  0.0322  1.0000  -1.5241   0.0000   0.0000   0.0000   0.3242
  23.500   0.8724   0.31285   0.30851  -0.0951  0.0321  1.0000  -1.5217   0.0000   0.0000   0.0000   0.3245
  23.600   0.8729   0.31486   0.31053  -0.0955  0.0319  1.0000  -1.5194   0.0000   0.0000   0.0000   0.3248
  23.700   0.8734   0.31685   0.31253  -0.0959  0.0317  1.0000  -1.5172   0.0000   0.0000   0.0000   0.3250
  23.800   0.8738   0.31884   0.31452  -0.0964  0.0316  1.0000  -1.5150   0.0000   0.0000   0.0000   0.3253
  23.900   0.8741   0.32081   0.31649  -0.0968  0.0314  1.0000  -1.5129   0.0000   0.0000   0.0000   0.3256
  24.000   0.8743   0.32277   0.31845  -0.0971  0.0312  1.0000  -1.5106   0.0000   0.0000   0.0000   0.3258
  24.100   0.8745   0.32471   0.32040  -0.0975  0.0311  1.0000  -1.5084   0.0000   0.0000   0.0000   0.3261
  24.200   0.8746   0.32664   0.32233  -0.0979  0.0309  1.0000  -1.5059   0.0000   0.0000   0.0000   0.3263
  24.300   0.8745   0.32854   0.32424  -0.0982  0.0308  1.0000  -1.5034   0.0000   0.0000   0.0000   0.3266
  24.400   0.8744   0.33043   0.32613  -0.0985  0.0306  1.0000  -1.5006   0.0000   0.0000   0.0000   0.3268
  24.500   0.8741   0.33230   0.32800  -0.0988  0.0305  1.0000  -1.4976   0.0000   0.0000   0.0000   0.3270
  24.600   0.8736   0.33413   0.32984  -0.0991  0.0304  1.0000  -1.4944   0.0000   0.0000   0.0000   0.3272
  24.700   0.8730   0.33594   0.33166  -0.0993  0.0303  1.0000  -1.4908   0.0000   0.0000   0.0000   0.3275
  24.800   0.8723   0.33771   0.33343  -0.0995  0.0301  1.0000  -1.4868   0.0000   0.0000   0.0000   0.3277
  24.900   0.8713   0.33944   0.33517  -0.0997  0.0300  1.0000  -1.4823   0.0000   0.0000   0.0000   0.3279
  25.000   0.8701   0.34111   0.33685  -0.0998  0.0299  1.0000  -1.4773   0.0000   0.0000   0.0000   0.3281
  25.100   0.8685   0.34273   0.33847  -0.0999  0.0298  1.0000  -1.4716   0.0000   0.0000   0.0000   0.3283
  25.200   0.8667   0.34426   0.34001  -0.0999  0.0297  1.0000  -1.4651   0.0000   0.0000   0.0000   0.3284
  25.300   0.8644   0.34569   0.34145  -0.0999  0.0296  1.0000  -1.4577   0.0000   0.0000   0.0000   0.3286
  25.400   0.8615   0.34698   0.34275  -0.0997  0.0295  1.0000  -1.4489   0.0000   0.0000   0.0000   0.3288
  25.500   0.8554   0.34756   0.34335  -0.0991  0.0294  1.0000  -1.4326   0.0000   0.0000   0.0000   0.3289
  25.600   0.8060   0.33684   0.33272  -0.0915  0.0295  1.0000  -1.3177   0.0000   0.0000   0.0000   0.3282
  25.700   0.7982   0.33600   0.33190  -0.0905  0.0294  1.0000  -1.2978   0.0000   0.0000   0.0000   0.3283
  25.800   0.7921   0.33553   0.33145  -0.0899  0.0294  1.0000  -1.2816   0.0000   0.0000   0.0000   0.3284
  25.900   0.7870   0.33527   0.33120  -0.0893  0.0293  1.0000  -1.2676   0.0000   0.0000   0.0000   0.3285
  26.000   0.7825   0.33514   0.33109  -0.0889  0.0292  1.0000  -1.2551   0.0000   0.0000   0.0000   0.3287
  26.100   0.7785   0.33510   0.33106  -0.0886  0.0291  1.0000  -1.2436   0.0000   0.0000   0.0000   0.3288
  26.200   0.7754   0.33506   0.33104  -0.0882  0.0290  1.0000  -1.2392   0.0000   0.0000   0.0000   0.3289
  26.300   0.7736   0.33492   0.33091  -0.0879  0.0286  1.0000  -1.2503   0.0000   0.0000   0.0000   0.3286
  26.400   0.7721   0.33482   0.33082  -0.0875  0.0282  1.0000  -1.2632   0.0000   0.0000   0.0000   0.3282
  26.500   0.7709   0.33479   0.33080  -0.0871  0.0279  1.0000  -1.2779   0.0000   0.0000   0.0000   0.3278
  26.600   0.7700   0.33486   0.33088  -0.0867  0.0276  1.0000  -1.2945   0.0000   0.0000   0.0000   0.3273
  26.700   0.7695   0.33509   0.33111  -0.0863  0.0272  1.0000  -1.3128   0.0000   0.0000   0.0000   0.3267
  26.800   0.7694   0.33560   0.33163  -0.0858  0.0269  1.0000  -1.3329   0.0000   0.0000   0.0000   0.3260
  26.900   0.7684   0.33672   0.33275  -0.0852  0.0264  1.0000  -1.3450   0.0000   0.0000   0.0000   0.3253
  27.000   0.7427   0.34273   0.33876  -0.0835  0.0250  1.0000  -1.1278   0.0000   0.0000   0.0000   0.3283
  27.100   0.7405   0.34286   0.33890  -0.0836  0.0249  1.0000  -1.1172   0.0000   0.0000   0.0000   0.3288
  27.200   0.7384   0.34301   0.33906  -0.0837  0.0249  1.0000  -1.1071   0.0000   0.0000   0.0000   0.3292
  27.300   0.7365   0.34317   0.33923  -0.0838  0.0249  1.0000  -1.0974   0.0000   0.0000   0.0000   0.3296
  27.400   0.7347   0.34334   0.33941  -0.0839  0.0249  1.0000  -1.0882   0.0000   0.0000   0.0000   0.3300
  27.500   0.7330   0.34353   0.33961  -0.0841  0.0248  1.0000  -1.0794   0.0000   0.0000   0.0000   0.3304
  27.600   0.7313   0.34370   0.33979  -0.0842  0.0248  1.0000  -1.0708   0.0000   0.0000   0.0000   0.3309
  27.700   0.7297   0.34387   0.33997  -0.0844  0.0248  1.0000  -1.0625   0.0000   0.0000   0.0000   0.3313
  27.800   0.7282   0.34405   0.34015  -0.0846  0.0247  1.0000  -1.0546   0.0000   0.0000   0.0000   0.3317
  27.900   0.7268   0.34423   0.34035  -0.0848  0.0247  1.0000  -1.0471   0.0000   0.0000   0.0000   0.3321
  28.000   0.7256   0.34442   0.34055  -0.0850  0.0247  1.0000  -1.0400   0.0000   0.0000   0.0000   0.3326
  28.100   0.7244   0.34461   0.34075  -0.0852  0.0246  1.0000  -1.0334   0.0000   0.0000   0.0000   0.3330
  28.200   0.7233   0.34480   0.34095  -0.0854  0.0245  1.0000  -1.0271   0.0000   0.0000   0.0000   0.3334
  28.300   0.7222   0.34496   0.34111  -0.0857  0.0245  1.0000  -1.0207   0.0000   0.0000   0.0000   0.3339
  28.400   0.7212   0.34511   0.34127  -0.0860  0.0244  1.0000  -1.0148   0.0000   0.0000   0.0000   0.3343
  28.500   0.7203   0.34526   0.34142  -0.0863  0.0243  1.0000  -1.0094   0.0000   0.0000   0.0000   0.3348
  28.600   0.7196   0.34540   0.34157  -0.0866  0.0242  1.0000  -1.0045   0.0000   0.0000   0.0000   0.3352
  28.700   0.7188   0.34548   0.34166  -0.0869  0.0241  1.0000  -0.9989   0.0000   0.0000   0.0000   0.3357
  28.800   0.7181   0.34550   0.34168  -0.0874  0.0239  1.0000  -0.9920   0.0000   0.0000   0.0000   0.3364
  28.900   0.7177   0.34555   0.34175  -0.0880  0.0236  1.0000  -0.9853   0.0000   0.0000   0.0000   0.3371
  29.000   0.7180   0.34575   0.34195  -0.0887  0.0232  1.0000  -0.9782   0.0000   0.0000   0.0000   0.3379
  29.100   0.7196   0.34645   0.34266  -0.0898  0.0222  1.0000  -0.9678   0.0000   0.0000   0.0000   0.3389
  29.200   0.7209   0.34746   0.34367  -0.0906  0.0209  1.0000  -0.9582   0.0000   0.0000   0.0000   0.3397
  29.300   0.7211   0.34819   0.34441  -0.0911  0.0198  1.0000  -0.9544   0.0000   0.0000   0.0000   0.3401
  29.400   0.7211   0.34877   0.34500  -0.0914  0.0189  1.0000  -0.9543   0.0000   0.0000   0.0000   0.3405
  29.500   0.7209   0.34926   0.34550  -0.0917  0.0182  1.0000  -0.9565   0.0000   0.0000   0.0000   0.3408
  29.600   0.7208   0.34970   0.34595  -0.0920  0.0175  1.0000  -0.9606   0.0000   0.0000   0.0000   0.3410
  29.700   0.7207   0.35010   0.34635  -0.0922  0.0169  1.0000  -0.9664   0.0000   0.0000   0.0000   0.3413
  29.800   0.7206   0.35047   0.34672  -0.0925  0.0164  1.0000  -0.9737   0.0000   0.0000   0.0000   0.3415
  29.900   0.7205   0.35080   0.34706  -0.0928  0.0160  1.0000  -0.9825   0.0000   0.0000   0.0000   0.3416
  30.000   0.7205   0.35110   0.34737  -0.0930  0.0156  1.0000  -0.9926   0.0000   0.0000   0.0000   0.3418


