xflr5 v6.61

 Calculated polar for: NACA 2415

 1 1 Reynolds number fixed          Mach number fixed         

 xtrf =   1.000 (top)        1.000 (bottom)
 Mach =   0.000     Re =     0.625 e 6     Ncrit =   9.000

  alpha     CL        CD       CDp       Cm    Top Xtr Bot Xtr   Cpmin    Chinge    XCp    
 ------- -------- --------- --------- -------- ------- ------- -------- --------- ---------
 -10.000  -0.8564   0.02209   0.01691  -0.0452  0.9863  0.0262  -4.3198   0.0000   0.0000   0.0000   0.1843
  -9.900  -0.8469   0.02144   0.01618  -0.0454  0.9845  0.0264  -4.2826   0.0000   0.0000   0.0000   0.1835
  -9.800  -0.8368   0.02082   0.01550  -0.0456  0.9828  0.0266  -4.2434   0.0000   0.0000   0.0000   0.1827
  -9.700  -0.8264   0.02024   0.01486  -0.0459  0.9810  0.0267  -4.2025   0.0000   0.0000   0.0000   0.1817
  -9.600  -0.8157   0.01971   0.01426  -0.0462  0.9793  0.0269  -4.1601   0.0000   0.0000   0.0000   0.1807
  -9.500  -0.8048   0.01920   0.01370  -0.0465  0.9776  0.0271  -4.1167   0.0000   0.0000   0.0000   0.1796
  -9.400  -0.7939   0.01873   0.01318  -0.0468  0.9760  0.0273  -4.0724   0.0000   0.0000   0.0000   0.1785
  -9.300  -0.7830   0.01830   0.01269  -0.0471  0.9745  0.0275  -4.0278   0.0000   0.0000   0.0000   0.1774
  -9.200  -0.7720   0.01789   0.01223  -0.0474  0.9730  0.0277  -3.9824   0.0000   0.0000   0.0000   0.1763
  -9.100  -0.7606   0.01749   0.01179  -0.0477  0.9716  0.0280  -3.9359   0.0000   0.0000   0.0000   0.1750
  -9.000  -0.7489   0.01711   0.01137  -0.0481  0.9702  0.0283  -3.8882   0.0000   0.0000   0.0000   0.1735
  -8.900  -0.7367   0.01675   0.01096  -0.0486  0.9688  0.0286  -3.8392   0.0000   0.0000   0.0000   0.1719
  -8.800  -0.7242   0.01640   0.01057  -0.0491  0.9674  0.0289  -3.7890   0.0000   0.0000   0.0000   0.1701
  -8.700  -0.7114   0.01606   0.01019  -0.0497  0.9661  0.0293  -3.7377   0.0000   0.0000   0.0000   0.1682
  -8.600  -0.6983   0.01574   0.00983  -0.0503  0.9647  0.0298  -3.6850   0.0000   0.0000   0.0000   0.1660
  -8.500  -0.6849   0.01543   0.00948  -0.0510  0.9634  0.0303  -3.6309   0.0000   0.0000   0.0000   0.1637
  -8.400  -0.6715   0.01513   0.00914  -0.0516  0.9621  0.0312  -3.5745   0.0000   0.0000   0.0000   0.1613
  -8.300  -0.6573   0.01499   0.00882  -0.0525  0.9610  0.0358  -3.4737   0.0000   0.0000   0.0000   0.1584
  -8.200  -0.6439   0.01474   0.00854  -0.0531  0.9598  0.0357  -3.4236   0.0000   0.0000   0.0000   0.1558
  -8.100  -0.6307   0.01451   0.00827  -0.0537  0.9585  0.0357  -3.3740   0.0000   0.0000   0.0000   0.1532
  -8.000  -0.6176   0.01429   0.00802  -0.0542  0.9572  0.0356  -3.3244   0.0000   0.0000   0.0000   0.1505
  -7.900  -0.6044   0.01409   0.00779  -0.0548  0.9557  0.0356  -3.2748   0.0000   0.0000   0.0000   0.1477
  -7.800  -0.5914   0.01390   0.00757  -0.0553  0.9539  0.0356  -3.2254   0.0000   0.0000   0.0000   0.1448
  -7.700  -0.5785   0.01374   0.00738  -0.0558  0.9516  0.0357  -3.1767   0.0000   0.0000   0.0000   0.1418
  -7.600  -0.5674   0.01359   0.00720  -0.0559  0.9496  0.0357  -3.1316   0.0000   0.0000   0.0000   0.1398
  -7.500  -0.5576   0.01341   0.00699  -0.0557  0.9487  0.0358  -3.0894   0.0000   0.0000   0.0000   0.1385
  -7.400  -0.5478   0.01323   0.00679  -0.0555  0.9476  0.0358  -3.0473   0.0000   0.0000   0.0000   0.1372
  -7.300  -0.5379   0.01306   0.00659  -0.0552  0.9463  0.0359  -3.0054   0.0000   0.0000   0.0000   0.1358
  -7.200  -0.5278   0.01290   0.00640  -0.0550  0.9448  0.0361  -2.9634   0.0000   0.0000   0.0000   0.1343
  -7.100  -0.5176   0.01274   0.00621  -0.0549  0.9431  0.0363  -2.9215   0.0000   0.0000   0.0000   0.1325
  -7.000  -0.5072   0.01258   0.00602  -0.0548  0.9412  0.0365  -2.8798   0.0000   0.0000   0.0000   0.1306
  -6.900  -0.4965   0.01242   0.00584  -0.0547  0.9392  0.0369  -2.8384   0.0000   0.0000   0.0000   0.1285
  -6.800  -0.4857   0.01226   0.00565  -0.0546  0.9371  0.0375  -2.7979   0.0000   0.0000   0.0000   0.1262
  -6.700  -0.4748   0.01209   0.00546  -0.0546  0.9349  0.0384  -2.7591   0.0000   0.0000   0.0000   0.1237
  -6.600  -0.4640   0.01189   0.00526  -0.0545  0.9326  0.0403  -2.7242   0.0000   0.0000   0.0000   0.1212
  -6.500  -0.4538   0.01161   0.00504  -0.0544  0.9302  0.0454  -2.6971   0.0000   0.0000   0.0000   0.1189
  -6.400  -0.4432   0.01138   0.00486  -0.0543  0.9277  0.0540  -2.6608   0.0000   0.0000   0.0000   0.1162
  -6.300  -0.4331   0.01106   0.00466  -0.0543  0.9252  0.0676  -2.6183   0.0000   0.0000   0.0000   0.1134
  -6.200  -0.4216   0.01089   0.00453  -0.0544  0.9227  0.0745  -2.5702   0.0000   0.0000   0.0000   0.1096
  -6.100  -0.4103   0.01068   0.00441  -0.0546  0.9202  0.0833  -2.5223   0.0000   0.0000   0.0000   0.1056
  -6.000  -0.3990   0.01046   0.00429  -0.0548  0.9176  0.0907  -2.4739   0.0000   0.0000   0.0000   0.1014
  -5.900  -0.3870   0.01032   0.00419  -0.0550  0.9148  0.0955  -2.4240   0.0000   0.0000   0.0000   0.0965
  -5.800  -0.3748   0.01022   0.00409  -0.0552  0.9118  0.0983  -2.3737   0.0000   0.0000   0.0000   0.0911
  -5.700  -0.3625   0.01015   0.00400  -0.0555  0.9082  0.0999  -2.3232   0.0000   0.0000   0.0000   0.0853
  -5.500  -0.3382   0.01001   0.00385  -0.0560  0.8998  0.1094  -2.2250   0.0000   0.0000   0.0000   0.0726
  -5.400  -0.3283   0.00992   0.00378  -0.0558  0.8988  0.1153  -2.1807   0.0000   0.0000   0.0000   0.0682
  -5.300  -0.3184   0.00983   0.00371  -0.0556  0.8974  0.1207  -2.1367   0.0000   0.0000   0.0000   0.0637
  -5.200  -0.3087   0.00973   0.00365  -0.0553  0.8957  0.1257  -2.0932   0.0000   0.0000   0.0000   0.0590
  -5.100  -0.2989   0.00963   0.00359  -0.0550  0.8935  0.1303  -2.0498   0.0000   0.0000   0.0000   0.0539
  -5.000  -0.2891   0.00954   0.00353  -0.0548  0.8909  0.1346  -2.0064   0.0000   0.0000   0.0000   0.0484
  -4.900  -0.2791   0.00946   0.00347  -0.0546  0.8879  0.1388  -1.9629   0.0000   0.0000   0.0000   0.0422
  -4.800  -0.2688   0.00939   0.00341  -0.0544  0.8846  0.1424  -1.9191   0.0000   0.0000   0.0000   0.0352
  -4.700  -0.2582   0.00933   0.00335  -0.0543  0.8812  0.1450  -1.8751   0.0000   0.0000   0.0000   0.0272
  -4.600  -0.2475   0.00927   0.00329  -0.0542  0.8775  0.1470  -1.8310   0.0000   0.0000   0.0000   0.0182
  -4.500  -0.2367   0.00922   0.00323  -0.0542  0.8735  0.1486  -1.7870   0.0000   0.0000   0.0000   0.0082
  -4.400  -0.2257   0.00917   0.00317  -0.0541  0.8692  0.1499  -1.7430   0.0000   0.0000   0.0000  -0.0030
  -4.300  -0.2147   0.00911   0.00311  -0.0541  0.8646  0.1543  -1.6994   0.0000   0.0000   0.0000  -0.0155
  -4.200  -0.2036   0.00904   0.00304  -0.0541  0.8598  0.1616  -1.6562   0.0000   0.0000   0.0000  -0.0293
  -4.100  -0.1927   0.00895   0.00297  -0.0541  0.8546  0.1691  -1.6134   0.0000   0.0000   0.0000  -0.0446
  -4.000  -0.1819   0.00887   0.00291  -0.0540  0.8490  0.1760  -1.5710   0.0000   0.0000   0.0000  -0.0616
  -3.900  -0.1711   0.00879   0.00285  -0.0540  0.8429  0.1824  -1.5291   0.0000   0.0000   0.0000  -0.0805
  -3.800  -0.1603   0.00872   0.00280  -0.0539  0.8360  0.1882  -1.4874   0.0000   0.0000   0.0000  -0.1020
  -3.700  -0.1493   0.00867   0.00274  -0.0539  0.8282  0.1932  -1.4457   0.0000   0.0000   0.0000  -0.1272
  -3.600  -0.1380   0.00863   0.00270  -0.0540  0.8199  0.1973  -1.4038   0.0000   0.0000   0.0000  -0.1580
  -3.500  -0.1264   0.00861   0.00267  -0.0541  0.8117  0.2009  -1.3616   0.0000   0.0000   0.0000  -0.1962
  -3.400  -0.1148   0.00856   0.00264  -0.0543  0.8037  0.2113  -1.3200   0.0000   0.0000   0.0000  -0.2421
  -3.300  -0.1040   0.00847   0.00261  -0.0543  0.7996  0.2213  -1.2802   0.0000   0.0000   0.0000  -0.2920
  -3.200  -0.0939   0.00837   0.00258  -0.0542  0.7987  0.2298  -1.2416   0.0000   0.0000   0.0000  -0.3484
  -3.100  -0.0835   0.00830   0.00254  -0.0540  0.7975  0.2370  -1.2030   0.0000   0.0000   0.0000  -0.4199
  -3.000  -0.0731   0.00824   0.00251  -0.0539  0.7959  0.2424  -1.1644   0.0000   0.0000   0.0000  -0.5133
  -2.900  -0.0625   0.00819   0.00248  -0.0538  0.7939  0.2463  -1.1260   0.0000   0.0000   0.0000  -0.6400
  -2.800  -0.0517   0.00816   0.00245  -0.0537  0.7913  0.2491  -1.0876   0.0000   0.0000   0.0000  -0.8211
  -2.700  -0.0411   0.00811   0.00241  -0.0536  0.7881  0.2540  -1.0497   0.0000   0.0000   0.0000  -1.0954
  -2.600  -0.0306   0.00804   0.00237  -0.0535  0.7843  0.2629  -1.0127   0.0000   0.0000   0.0000  -1.5461
  -2.500  -0.0203   0.00794   0.00232  -0.0534  0.7799  0.2712  -0.9761   0.0000   0.0000   0.0000  -2.4458
  -2.400  -0.0099   0.00787   0.00229  -0.0533  0.7751  0.2785  -0.9395   0.0000   0.0000   0.0000  -5.2838
  -2.300   0.0008   0.00781   0.00226  -0.0532  0.7697  0.2850  -0.9028   0.0000   0.0000   0.0000  68.5669
  -2.200   0.0116   0.00777   0.00223  -0.0531  0.7638  0.2905  -0.8662   0.0000   0.0000   0.0000   4.9245
  -2.100   0.0226   0.00775   0.00219  -0.0531  0.7573  0.2949  -0.8298   0.0000   0.0000   0.0000   2.6533
  -2.000   0.0335   0.00774   0.00215  -0.0530  0.7503  0.2981  -0.7937   0.0000   0.0000   0.0000   1.8635
  -1.900   0.0445   0.00774   0.00211  -0.0530  0.7424  0.3009  -0.7579   0.0000   0.0000   0.0000   1.4639
  -1.800   0.0553   0.00774   0.00208  -0.0529  0.7334  0.3100  -0.7345   0.0000   0.0000   0.0000   1.2239
  -1.700   0.0662   0.00774   0.00205  -0.0528  0.7233  0.3215  -0.7144   0.0000   0.0000   0.0000   1.0620
  -1.600   0.0773   0.00772   0.00204  -0.0529  0.7132  0.3335  -0.6942   0.0000   0.0000   0.0000   0.9447
  -1.500   0.0885   0.00769   0.00203  -0.0530  0.7043  0.3450  -0.6740   0.0000   0.0000   0.0000   0.8568
  -1.400   0.0994   0.00763   0.00202  -0.0530  0.6996  0.3562  -0.6542   0.0000   0.0000   0.0000   0.7897
  -1.300   0.1100   0.00756   0.00201  -0.0529  0.6986  0.3673  -0.6362   0.0000   0.0000   0.0000   0.7366
  -1.200   0.1206   0.00750   0.00200  -0.0528  0.6974  0.3777  -0.6202   0.0000   0.0000   0.0000   0.6926
  -1.100   0.1313   0.00745   0.00200  -0.0527  0.6954  0.3867  -0.6042   0.0000   0.0000   0.0000   0.6554
  -1.000   0.1420   0.00742   0.00199  -0.0527  0.6923  0.3938  -0.5968   0.0000   0.0000   0.0000   0.6238
  -0.900   0.1527   0.00740   0.00197  -0.0526  0.6874  0.3996  -0.6051   0.0000   0.0000   0.0000   0.5965
  -0.800   0.1629   0.00736   0.00196  -0.0524  0.6799  0.4235  -0.6132   0.0000   0.0000   0.0000   0.5732
  -0.700   0.1721   0.00726   0.00194  -0.0520  0.6696  0.4519  -0.6209   0.0000   0.0000   0.0000   0.5533
  -0.600   0.1811   0.00721   0.00192  -0.0516  0.6566  0.4762  -0.6284   0.0000   0.0000   0.0000   0.5355
  -0.500   0.1899   0.00723   0.00190  -0.0511  0.6408  0.4925  -0.6358   0.0000   0.0000   0.0000   0.5193
  -0.400   0.1988   0.00727   0.00189  -0.0506  0.6212  0.5075  -0.6432   0.0000   0.0000   0.0000   0.5046
  -0.300   0.2077   0.00721   0.00191  -0.0502  0.6034  0.5410  -0.6505   0.0000   0.0000   0.0000   0.4913
  -0.200   0.2173   0.00712   0.00192  -0.0499  0.5983  0.5677  -0.6583   0.0000   0.0000   0.0000   0.4790
  -0.100   0.2277   0.00707   0.00193  -0.0498  0.5954  0.5847  -0.6666   0.0000   0.0000   0.0000   0.4675
   0.000   0.2384   0.00707   0.00194  -0.0497  0.5910  0.5941  -0.6768   0.0000   0.0000   0.0000   0.4571
   0.100   0.2492   0.00708   0.00194  -0.0496  0.5849  0.5998  -0.6886   0.0000   0.0000   0.0000   0.4475
   0.200   0.2591   0.00707   0.00195  -0.0494  0.5771  0.6232  -0.6998   0.0000   0.0000   0.0000   0.4387
   0.300   0.2680   0.00702   0.00198  -0.0489  0.5681  0.6484  -0.7105   0.0000   0.0000   0.0000   0.4304
   0.400   0.2771   0.00700   0.00200  -0.0484  0.5586  0.6699  -0.7213   0.0000   0.0000   0.0000   0.4226
   0.500   0.2872   0.00695   0.00204  -0.0482  0.5573  0.6938  -0.7328   0.0000   0.0000   0.0000   0.4154
   0.600   0.2974   0.00699   0.00205  -0.0480  0.5504  0.7027  -0.7442   0.0000   0.0000   0.0000   0.4088
   0.700   0.3068   0.00698   0.00208  -0.0476  0.5425  0.7317  -0.7553   0.0000   0.0000   0.0000   0.4024
   0.800   0.3158   0.00696   0.00212  -0.0471  0.5343  0.7556  -0.7660   0.0000   0.0000   0.0000   0.3962
   0.900   0.3254   0.00697   0.00216  -0.0467  0.5258  0.7738  -0.7772   0.0000   0.0000   0.0000   0.3905
   1.000   0.3356   0.00699   0.00218  -0.0465  0.5176  0.7867  -0.7888   0.0000   0.0000   0.0000   0.3853
   1.100   0.3462   0.00702   0.00221  -0.0464  0.5101  0.7949  -0.8006   0.0000   0.0000   0.0000   0.3805
   1.300   0.3677   0.00705   0.00226  -0.0462  0.4996  0.8225  -0.8245   0.0000   0.0000   0.0000   0.3719
   1.400   0.3781   0.00703   0.00231  -0.0459  0.4989  0.8429  -0.8364   0.0000   0.0000   0.0000   0.3677
   1.500   0.3889   0.00703   0.00236  -0.0457  0.4980  0.8599  -0.8486   0.0000   0.0000   0.0000   0.3637
   1.600   0.3996   0.00705   0.00239  -0.0456  0.4968  0.8734  -0.8607   0.0000   0.0000   0.0000   0.3601
   1.700   0.4103   0.00706   0.00242  -0.0454  0.4956  0.8833  -0.8729   0.0000   0.0000   0.0000   0.3567
   1.800   0.4210   0.00708   0.00244  -0.0453  0.4942  0.8902  -0.8850   0.0000   0.0000   0.0000   0.3534
   1.900   0.4317   0.00711   0.00246  -0.0452  0.4925  0.8949  -0.8972   0.0000   0.0000   0.0000   0.3504
   2.000   0.4423   0.00713   0.00248  -0.0451  0.4904  0.8982  -0.9093   0.0000   0.0000   0.0000   0.3475
   2.100   0.4533   0.00716   0.00250  -0.0450  0.4879  0.9024  -0.9217   0.0000   0.0000   0.0000   0.3449
   2.200   0.4657   0.00719   0.00254  -0.0453  0.4848  0.9101  -0.9351   0.0000   0.0000   0.0000   0.3426
   2.300   0.4783   0.00724   0.00259  -0.0455  0.4810  0.9167  -0.9516   0.0000   0.0000   0.0000   0.3405
   2.400   0.4908   0.00730   0.00263  -0.0458  0.4762  0.9226  -0.9711   0.0000   0.0000   0.0000   0.3385
   2.500   0.5031   0.00736   0.00267  -0.0460  0.4707  0.9281  -0.9905   0.0000   0.0000   0.0000   0.3366
   2.600   0.5149   0.00744   0.00272  -0.0462  0.4644  0.9334  -1.0095   0.0000   0.0000   0.0000   0.3346
   2.700   0.5260   0.00752   0.00276  -0.0462  0.4577  0.9384  -1.0279   0.0000   0.0000   0.0000   0.3326
   2.800   0.5361   0.00762   0.00280  -0.0459  0.4495  0.9432  -1.0456   0.0000   0.0000   0.0000   0.3305
   2.900   0.5448   0.00773   0.00284  -0.0454  0.4391  0.9475  -1.0620   0.0000   0.0000   0.0000   0.3280
   3.000   0.5546   0.00784   0.00288  -0.0452  0.4259  0.9511  -1.0794   0.0000   0.0000   0.0000   0.3260
   3.100   0.5691   0.00794   0.00292  -0.0460  0.4103  0.9547  -1.1129   0.0000   0.0000   0.0000   0.3253
   3.200   0.5840   0.00801   0.00297  -0.0469  0.3997  0.9577  -1.1565   0.0000   0.0000   0.0000   0.3246
   3.300   0.5993   0.00805   0.00300  -0.0478  0.3982  0.9604  -1.2012   0.0000   0.0000   0.0000   0.3241
   3.400   0.6147   0.00809   0.00304  -0.0488  0.3965  0.9632  -1.2464   0.0000   0.0000   0.0000   0.3235
   3.500   0.6303   0.00814   0.00308  -0.0498  0.3943  0.9661  -1.2924   0.0000   0.0000   0.0000   0.3231
   3.600   0.6459   0.00820   0.00312  -0.0508  0.3914  0.9690  -1.3390   0.0000   0.0000   0.0000   0.3226
   3.700   0.6613   0.00826   0.00316  -0.0517  0.3878  0.9718  -1.3857   0.0000   0.0000   0.0000   0.3222
   3.800   0.6763   0.00833   0.00320  -0.0526  0.3829  0.9746  -1.4321   0.0000   0.0000   0.0000   0.3216
   3.900   0.6912   0.00842   0.00325  -0.0535  0.3756  0.9777  -1.4789   0.0000   0.0000   0.0000   0.3212
   4.000   0.7061   0.00855   0.00331  -0.0544  0.3656  0.9810  -1.5259   0.0000   0.0000   0.0000   0.3207
   4.100   0.7208   0.00870   0.00338  -0.0553  0.3541  0.9844  -1.5730   0.0000   0.0000   0.0000   0.3202
   4.200   0.7354   0.00886   0.00345  -0.0561  0.3423  0.9877  -1.6202   0.0000   0.0000   0.0000   0.3198
   4.300   0.7499   0.00900   0.00352  -0.0570  0.3306  0.9904  -1.6676   0.0000   0.0000   0.0000   0.3193
   4.400   0.7641   0.00911   0.00358  -0.0577  0.3180  0.9925  -1.7149   0.0000   0.0000   0.0000   0.3188
   4.500   0.7778   0.00920   0.00363  -0.0584  0.3061  0.9942  -1.7617   0.0000   0.0000   0.0000   0.3181
   4.600   0.7914   0.00927   0.00369  -0.0590  0.2992  0.9955  -1.8086   0.0000   0.0000   0.0000   0.3175
   4.700   0.8047   0.00933   0.00374  -0.0595  0.2965  0.9966  -1.8555   0.0000   0.0000   0.0000   0.3169
   4.800   0.8179   0.00941   0.00379  -0.0600  0.2924  0.9976  -1.9023   0.0000   0.0000   0.0000   0.3162
   4.900   0.8310   0.00951   0.00385  -0.0605  0.2859  0.9985  -1.9495   0.0000   0.0000   0.0000   0.3156
   5.000   0.8434   0.00970   0.00394  -0.0610  0.2747  0.9994  -1.9958   0.0000   0.0000   0.0000   0.3149
   5.100   0.8522   0.00996   0.00407  -0.0608  0.2613  1.0000  -2.0350   0.0000   0.0000   0.0000   0.3138
   5.200   0.8571   0.01014   0.00416  -0.0597  0.2496  1.0000  -2.0666   0.0000   0.0000   0.0000   0.3120
   5.300   0.8637   0.01023   0.00422  -0.0589  0.2444  1.0000  -2.1019   0.0000   0.0000   0.0000   0.3104
   5.400   0.8703   0.01034   0.00429  -0.0581  0.2388  1.0000  -2.1373   0.0000   0.0000   0.0000   0.3089
   5.500   0.8767   0.01047   0.00436  -0.0573  0.2326  1.0000  -2.1726   0.0000   0.0000   0.0000   0.3073
   5.600   0.8830   0.01061   0.00444  -0.0564  0.2260  1.0000  -2.2077   0.0000   0.0000   0.0000   0.3058
   5.700   0.8891   0.01076   0.00453  -0.0555  0.2190  1.0000  -2.2427   0.0000   0.0000   0.0000   0.3042
   5.800   0.8959   0.01090   0.00462  -0.0548  0.2108  1.0000  -2.2791   0.0000   0.0000   0.0000   0.3028
   5.900   0.9033   0.01100   0.00470  -0.0541  0.2025  1.0000  -2.3170   0.0000   0.0000   0.0000   0.3014
   6.000   0.9112   0.01108   0.00477  -0.0535  0.1988  1.0000  -2.3563   0.0000   0.0000   0.0000   0.3002
   6.100   0.9193   0.01115   0.00483  -0.0530  0.1965  1.0000  -2.3960   0.0000   0.0000   0.0000   0.2989
   6.200   0.9272   0.01123   0.00490  -0.0524  0.1933  1.0000  -2.4356   0.0000   0.0000   0.0000   0.2977
   6.300   0.9348   0.01134   0.00499  -0.0518  0.1887  1.0000  -2.4747   0.0000   0.0000   0.0000   0.2965
   6.400   0.9416   0.01149   0.00509  -0.0510  0.1803  1.0000  -2.5122   0.0000   0.0000   0.0000   0.2951
   6.500   0.9468   0.01174   0.00523  -0.0500  0.1666  1.0000  -2.5465   0.0000   0.0000   0.0000   0.2937
   6.600   0.9527   0.01197   0.00538  -0.0491  0.1500  1.0000  -2.5820   0.0000   0.0000   0.0000   0.2923
   6.700   0.9599   0.01210   0.00548  -0.0484  0.1444  1.0000  -2.6206   0.0000   0.0000   0.0000   0.2910
   6.800   0.9666   0.01227   0.00560  -0.0476  0.1377  1.0000  -2.6582   0.0000   0.0000   0.0000   0.2898
   6.900   0.9727   0.01247   0.00574  -0.0468  0.1295  1.0000  -2.6946   0.0000   0.0000   0.0000   0.2885
   7.000   0.9784   0.01272   0.00589  -0.0459  0.1192  1.0000  -2.7298   0.0000   0.0000   0.0000   0.2871
   7.100   0.9847   0.01295   0.00604  -0.0451  0.1055  1.0000  -2.7662   0.0000   0.0000   0.0000   0.2859
   7.200   0.9921   0.01312   0.00618  -0.0445  0.0964  1.0000  -2.8047   0.0000   0.0000   0.0000   0.2848
   7.300   0.9958   0.01352   0.00645  -0.0433  0.0831  1.0000  -2.8347   0.0000   0.0000   0.0000   0.2833
   7.400   0.9987   0.01400   0.00674  -0.0420  0.0661  1.0000  -2.8617   0.0000   0.0000   0.0000   0.2818
   7.500   1.0015   0.01449   0.00708  -0.0407  0.0482  1.0000  -2.8843   0.0000   0.0000   0.0000   0.2802
   7.600   1.0061   0.01488   0.00737  -0.0395  0.0415  1.0000  -2.8996   0.0000   0.0000   0.0000   0.2788
   7.700   1.0130   0.01512   0.00759  -0.0388  0.0387  1.0000  -2.9243   0.0000   0.0000   0.0000   0.2776
   7.800   1.0208   0.01530   0.00779  -0.0382  0.0375  1.0000  -2.9557   0.0000   0.0000   0.0000   0.2767
   7.900   1.0288   0.01547   0.00798  -0.0377  0.0368  1.0000  -2.9899   0.0000   0.0000   0.0000   0.2757
   8.000   1.0367   0.01564   0.00817  -0.0372  0.0363  1.0000  -3.0254   0.0000   0.0000   0.0000   0.2748
   8.100   1.0447   0.01581   0.00835  -0.0367  0.0360  1.0000  -3.0618   0.0000   0.0000   0.0000   0.2739
   8.200   1.0526   0.01598   0.00855  -0.0361  0.0358  1.0000  -3.0986   0.0000   0.0000   0.0000   0.2730
   8.300   1.0604   0.01615   0.00874  -0.0356  0.0356  1.0000  -3.1357   0.0000   0.0000   0.0000   0.2721
   8.400   1.0665   0.01640   0.00924  -0.0348  0.0319  1.0000  -3.1966   0.0000   0.0000   0.0000   0.2710
   8.500   1.0729   0.01661   0.00948  -0.0340  0.0308  1.0000  -3.2361   0.0000   0.0000   0.0000   0.2700
   8.600   1.0791   0.01682   0.00972  -0.0332  0.0300  1.0000  -3.2728   0.0000   0.0000   0.0000   0.2689
   8.700   1.0853   0.01704   0.00997  -0.0324  0.0295  1.0000  -3.3086   0.0000   0.0000   0.0000   0.2679
   8.800   1.0914   0.01727   0.01023  -0.0316  0.0290  1.0000  -3.3440   0.0000   0.0000   0.0000   0.2668
   8.900   1.0974   0.01751   0.01050  -0.0309  0.0286  1.0000  -3.3791   0.0000   0.0000   0.0000   0.2658
   9.000   1.1034   0.01775   0.01078  -0.0301  0.0282  1.0000  -3.4140   0.0000   0.0000   0.0000   0.2648
   9.100   1.1093   0.01801   0.01106  -0.0293  0.0279  1.0000  -3.4486   0.0000   0.0000   0.0000   0.2638
   9.200   1.1151   0.01827   0.01137  -0.0285  0.0276  1.0000  -3.4827   0.0000   0.0000   0.0000   0.2628
   9.300   1.1207   0.01855   0.01168  -0.0277  0.0273  1.0000  -3.5164   0.0000   0.0000   0.0000   0.2618
   9.400   1.1260   0.01885   0.01201  -0.0269  0.0271  1.0000  -3.5495   0.0000   0.0000   0.0000   0.2608
   9.500   1.1311   0.01916   0.01236  -0.0261  0.0268  1.0000  -3.5819   0.0000   0.0000   0.0000   0.2598
   9.600   1.1354   0.01949   0.01273  -0.0251  0.0266  1.0000  -3.6124   0.0000   0.0000   0.0000   0.2588
   9.700   1.1388   0.01984   0.01311  -0.0241  0.0265  1.0000  -3.6409   0.0000   0.0000   0.0000   0.2576
   9.800   1.1420   0.02019   0.01350  -0.0230  0.0263  1.0000  -3.6689   0.0000   0.0000   0.0000   0.2564
   9.900   1.1454   0.02057   0.01392  -0.0220  0.0261  1.0000  -3.6970   0.0000   0.0000   0.0000   0.2553
  10.000   1.1488   0.02096   0.01435  -0.0210  0.0260  1.0000  -3.7251   0.0000   0.0000   0.0000   0.2543
  10.100   1.1522   0.02138   0.01481  -0.0201  0.0258  1.0000  -3.7528   0.0000   0.0000   0.0000   0.2532
  10.200   1.1554   0.02182   0.01529  -0.0191  0.0257  1.0000  -3.7800   0.0000   0.0000   0.0000   0.2522
  10.300   1.1582   0.02230   0.01581  -0.0182  0.0255  1.0000  -3.8058   0.0000   0.0000   0.0000   0.2512
  10.400   1.1596   0.02285   0.01640  -0.0171  0.0254  1.0000  -3.8283   0.0000   0.0000   0.0000   0.2500
  10.500   1.1614   0.02340   0.01699  -0.0161  0.0253  1.0000  -3.8515   0.0000   0.0000   0.0000   0.2490
  10.600   1.1638   0.02395   0.01759  -0.0152  0.0252  1.0000  -3.8757   0.0000   0.0000   0.0000   0.2480
  10.700   1.1664   0.02451   0.01819  -0.0144  0.0251  1.0000  -3.9001   0.0000   0.0000   0.0000   0.2471
  10.800   1.1713   0.02492   0.01860  -0.0138  0.0250  1.0000  -3.9366   0.0000   0.0000   0.0000   0.2464
  10.900   1.1787   0.02513   0.01881  -0.0135  0.0250  1.0000  -3.9878   0.0000   0.0000   0.0000   0.2459
  11.000   1.1861   0.02535   0.01903  -0.0133  0.0250  1.0000  -4.0389   0.0000   0.0000   0.0000   0.2454
  11.100   1.1934   0.02557   0.01926  -0.0130  0.0249  1.0000  -4.0898   0.0000   0.0000   0.0000   0.2450
  11.200   1.2006   0.02581   0.01949  -0.0127  0.0249  1.0000  -4.1406   0.0000   0.0000   0.0000   0.2445
  11.300   1.2077   0.02605   0.01973  -0.0124  0.0249  1.0000  -4.1913   0.0000   0.0000   0.0000   0.2441
  11.400   1.2148   0.02630   0.01998  -0.0122  0.0248  1.0000  -4.2421   0.0000   0.0000   0.0000   0.2436
  11.500   1.2217   0.02655   0.02024  -0.0119  0.0248  1.0000  -4.2927   0.0000   0.0000   0.0000   0.2432
  11.600   1.2286   0.02682   0.02050  -0.0116  0.0248  1.0000  -4.3432   0.0000   0.0000   0.0000   0.2427
  11.700   1.2353   0.02709   0.02078  -0.0113  0.0248  1.0000  -4.3937   0.0000   0.0000   0.0000   0.2422
  11.800   1.2420   0.02737   0.02106  -0.0111  0.0247  1.0000  -4.4440   0.0000   0.0000   0.0000   0.2418
  11.900   1.2485   0.02766   0.02135  -0.0108  0.0247  1.0000  -4.4941   0.0000   0.0000   0.0000   0.2413
  12.600   1.2277   0.03525   0.02957  -0.0034  0.0257  1.0000  -4.4231   0.0000   0.0000   0.0000   0.2341
  12.700   1.2303   0.03595   0.03031  -0.0030  0.0257  1.0000  -4.4482   0.0000   0.0000   0.0000   0.2335
  12.800   1.2324   0.03671   0.03110  -0.0025  0.0256  1.0000  -4.4711   0.0000   0.0000   0.0000   0.2329
  12.900   1.2342   0.03751   0.03195  -0.0020  0.0256  1.0000  -4.4922   0.0000   0.0000   0.0000   0.2323
  13.000   1.2355   0.03837   0.03285  -0.0015  0.0255  1.0000  -4.5117   0.0000   0.0000   0.0000   0.2317
  13.100   1.2364   0.03928   0.03381  -0.0010  0.0255  1.0000  -4.5294   0.0000   0.0000   0.0000   0.2312
  13.200   1.2368   0.04024   0.03482  -0.0006  0.0254  1.0000  -4.5453   0.0000   0.0000   0.0000   0.2306
  13.300   1.2351   0.04143   0.03607  -0.0002  0.0253  1.0000  -4.5548   0.0000   0.0000   0.0000   0.2301
  13.400   1.2323   0.04276   0.03745   0.0001  0.0253  1.0000  -4.5606   0.0000   0.0000   0.0000   0.2296
  13.500   1.2310   0.04394   0.03869   0.0005  0.0252  1.0000  -4.5699   0.0000   0.0000   0.0000   0.2291
  13.600   1.2300   0.04509   0.03990   0.0008  0.0251  1.0000  -4.5796   0.0000   0.0000   0.0000   0.2286
  13.700   1.2291   0.04625   0.04112   0.0012  0.0251  1.0000  -4.5885   0.0000   0.0000   0.0000   0.2280
  13.800   1.2331   0.04686   0.04173   0.0013  0.0250  1.0000  -4.6300   0.0000   0.0000   0.0000   0.2278
  13.900   1.2400   0.04716   0.04201   0.0011  0.0250  1.0000  -4.6897   0.0000   0.0000   0.0000   0.2277
  14.000   1.2466   0.04749   0.04234   0.0010  0.0249  1.0000  -4.7482   0.0000   0.0000   0.0000   0.2276
  14.100   1.2531   0.04785   0.04268   0.0009  0.0249  1.0000  -4.8058   0.0000   0.0000   0.0000   0.2275
  14.200   1.2594   0.04823   0.04306   0.0007  0.0248  1.0000  -4.8628   0.0000   0.0000   0.0000   0.2274
  14.300   1.2656   0.04863   0.04346   0.0006  0.0248  1.0000  -4.9195   0.0000   0.0000   0.0000   0.2273
  14.400   1.2716   0.04906   0.04388   0.0005  0.0248  1.0000  -4.9755   0.0000   0.0000   0.0000   0.2272
  14.500   1.2774   0.04953   0.04435   0.0003  0.0247  1.0000  -5.0305   0.0000   0.0000   0.0000   0.2271
  14.600   1.2829   0.05004   0.04485   0.0002  0.0247  1.0000  -5.0844   0.0000   0.0000   0.0000   0.2270
  14.700   1.2879   0.05059   0.04541   0.0000  0.0246  1.0000  -5.1367   0.0000   0.0000   0.0000   0.2269
  14.800   1.2920   0.05128   0.04609  -0.0002  0.0246  1.0000  -5.1848   0.0000   0.0000   0.0000   0.2268
  14.900   1.2874   0.05313   0.04800  -0.0007  0.0246  1.0000  -5.1913   0.0000   0.0000   0.0000   0.2270
  15.000   1.2900   0.05407   0.04895  -0.0010  0.0245  1.0000  -5.2317   0.0000   0.0000   0.0000   0.2270
  15.100   1.2943   0.05477   0.04965  -0.0013  0.0245  1.0000  -5.2809   0.0000   0.0000   0.0000   0.2270
  15.200   1.2993   0.05538   0.05026  -0.0015  0.0244  1.0000  -5.3335   0.0000   0.0000   0.0000   0.2269
  15.300   1.3046   0.05595   0.05082  -0.0017  0.0244  1.0000  -5.3878   0.0000   0.0000   0.0000   0.2268
  15.400   1.3101   0.05650   0.05137  -0.0019  0.0243  1.0000  -5.4429   0.0000   0.0000   0.0000   0.2267
  15.500   1.3155   0.05704   0.05190  -0.0020  0.0242  1.0000  -5.4983   0.0000   0.0000   0.0000   0.2266
  15.600   1.3209   0.05759   0.05245  -0.0022  0.0242  1.0000  -5.5537   0.0000   0.0000   0.0000   0.2265
  15.700   1.3262   0.05815   0.05300  -0.0024  0.0241  1.0000  -5.6087   0.0000   0.0000   0.0000   0.2264
  15.800   1.3314   0.05872   0.05357  -0.0025  0.0240  1.0000  -5.6630   0.0000   0.0000   0.0000   0.2263
  15.900   1.3365   0.05933   0.05417  -0.0027  0.0239  1.0000  -5.7171   0.0000   0.0000   0.0000   0.2262
  16.000   1.3414   0.05996   0.05481  -0.0029  0.0238  1.0000  -5.7700   0.0000   0.0000   0.0000   0.2261
  16.100   1.3457   0.06065   0.05550  -0.0031  0.0238  1.0000  -5.8204   0.0000   0.0000   0.0000   0.2260
  16.200   1.3495   0.06140   0.05626  -0.0033  0.0237  1.0000  -5.8677   0.0000   0.0000   0.0000   0.2259
  16.300   1.3523   0.06225   0.05712  -0.0035  0.0236  1.0000  -5.9108   0.0000   0.0000   0.0000   0.2258
  16.400   1.3539   0.06326   0.05814  -0.0038  0.0235  1.0000  -5.9475   0.0000   0.0000   0.0000   0.2258
  16.500   1.3299   0.06786   0.06288  -0.0053  0.0236  1.0000  -5.8524   0.0000   0.0000   0.0000   0.2267
  16.600   1.3303   0.06906   0.06410  -0.0057  0.0235  1.0000  -5.8824   0.0000   0.0000   0.0000   0.2267
  16.700   1.3327   0.07002   0.06506  -0.0060  0.0234  1.0000  -5.9226   0.0000   0.0000   0.0000   0.2266
  16.800   1.3360   0.07088   0.06593  -0.0062  0.0233  1.0000  -5.9665   0.0000   0.0000   0.0000   0.2266
  16.900   1.3394   0.07170   0.06676  -0.0064  0.0232  1.0000  -6.0116   0.0000   0.0000   0.0000   0.2265
  17.000   1.3429   0.07251   0.06757  -0.0066  0.0230  1.0000  -6.0570   0.0000   0.0000   0.0000   0.2264
  17.100   1.3464   0.07331   0.06837  -0.0068  0.0229  1.0000  -6.1024   0.0000   0.0000   0.0000   0.2263
  17.200   1.3499   0.07411   0.06918  -0.0070  0.0228  1.0000  -6.1475   0.0000   0.0000   0.0000   0.2262
  17.300   1.3532   0.07492   0.07000  -0.0072  0.0226  1.0000  -6.1920   0.0000   0.0000   0.0000   0.2261
  17.400   1.3565   0.07575   0.07084  -0.0074  0.0225  1.0000  -6.2358   0.0000   0.0000   0.0000   0.2259
  17.500   1.3595   0.07660   0.07170  -0.0076  0.0223  1.0000  -6.2785   0.0000   0.0000   0.0000   0.2258
  17.600   1.3623   0.07749   0.07259  -0.0078  0.0222  1.0000  -6.3200   0.0000   0.0000   0.0000   0.2257
  17.700   1.3649   0.07841   0.07352  -0.0080  0.0220  1.0000  -6.3600   0.0000   0.0000   0.0000   0.2256
  17.800   1.3670   0.07939   0.07452  -0.0083  0.0219  1.0000  -6.3979   0.0000   0.0000   0.0000   0.2256
  17.900   1.3687   0.08045   0.07559  -0.0086  0.0217  1.0000  -6.4330   0.0000   0.0000   0.0000   0.2255
  18.000   1.3696   0.08162   0.07678  -0.0089  0.0216  1.0000  -6.4639   0.0000   0.0000   0.0000   0.2255
  18.100   1.3691   0.08301   0.07819  -0.0093  0.0214  1.0000  -6.4874   0.0000   0.0000   0.0000   0.2255
  18.200   1.3666   0.08481   0.08003  -0.0100  0.0213  1.0000  -6.4990   0.0000   0.0000   0.0000   0.2258
  18.300   1.3231   0.09342   0.08886  -0.0139  0.0217  1.0000  -6.2793   0.0000   0.0000   0.0000   0.2286
  18.400   1.3235   0.09470   0.09015  -0.0143  0.0216  1.0000  -6.3059   0.0000   0.0000   0.0000   0.2286
  18.500   1.3245   0.09588   0.09134  -0.0147  0.0214  1.0000  -6.3358   0.0000   0.0000   0.0000   0.2286
  18.600   1.3258   0.09699   0.09247  -0.0151  0.0212  1.0000  -6.3678   0.0000   0.0000   0.0000   0.2287
  18.700   1.3274   0.09806   0.09355  -0.0154  0.0210  1.0000  -6.4012   0.0000   0.0000   0.0000   0.2286
  18.800   1.3292   0.09909   0.09459  -0.0158  0.0208  1.0000  -6.4356   0.0000   0.0000   0.0000   0.2286
  18.900   1.3312   0.10009   0.09560  -0.0161  0.0206  1.0000  -6.4717   0.0000   0.0000   0.0000   0.2286
  19.000   1.3338   0.10105   0.09656  -0.0164  0.0204  1.0000  -6.5103   0.0000   0.0000   0.0000   0.2286
  19.100   1.3363   0.10200   0.09752  -0.0167  0.0202  1.0000  -6.5490   0.0000   0.0000   0.0000   0.2285
  19.200   1.3388   0.10295   0.09847  -0.0170  0.0200  1.0000  -6.5878   0.0000   0.0000   0.0000   0.2285
  19.300   1.3413   0.10391   0.09943  -0.0174  0.0198  1.0000  -6.6265   0.0000   0.0000   0.0000   0.2284
  19.400   1.3437   0.10487   0.10039  -0.0177  0.0195  1.0000  -6.6648   0.0000   0.0000   0.0000   0.2284
  19.500   1.3459   0.10585   0.10138  -0.0181  0.0193  1.0000  -6.7021   0.0000   0.0000   0.0000   0.2284
  19.600   1.3479   0.10687   0.10239  -0.0184  0.0191  1.0000  -6.7384   0.0000   0.0000   0.0000   0.2284
  19.700   1.3518   0.10781   0.10319  -0.0192  0.0169  1.0000  -6.8559   0.0000   0.0000   0.0000   0.2286
  19.800   1.3505   0.10937   0.10470  -0.0199  0.0161  1.0000  -6.8870   0.0000   0.0000   0.0000   0.2288
  19.900   1.3485   0.11102   0.10633  -0.0206  0.0156  1.0000  -6.9058   0.0000   0.0000   0.0000   0.2291
  20.000   1.3457   0.11281   0.10813  -0.0213  0.0152  1.0000  -6.9153   0.0000   0.0000   0.0000   0.2294
  20.100   1.3411   0.11493   0.11029  -0.0223  0.0149  1.0000  -6.9105   0.0000   0.0000   0.0000   0.2300
  20.200   1.3291   0.11847   0.11391  -0.0241  0.0150  1.0000  -6.8521   0.0000   0.0000   0.0000   0.2312
  20.300   1.3246   0.12057   0.11604  -0.0251  0.0147  1.0000  -6.8462   0.0000   0.0000   0.0000   0.2318
  20.400   1.3211   0.12247   0.11795  -0.0260  0.0144  1.0000  -6.8464   0.0000   0.0000   0.0000   0.2322
  20.500   1.3184   0.12426   0.11976  -0.0268  0.0140  1.0000  -6.8504   0.0000   0.0000   0.0000   0.2326
  20.600   1.3157   0.12605   0.12158  -0.0276  0.0136  1.0000  -6.8536   0.0000   0.0000   0.0000   0.2331
  20.700   1.3126   0.12793   0.12348  -0.0285  0.0133  1.0000  -6.8525   0.0000   0.0000   0.0000   0.2335
  20.800   1.3086   0.12995   0.12555  -0.0296  0.0130  1.0000  -6.8447   0.0000   0.0000   0.0000   0.2341
  20.900   1.3025   0.13238   0.12803  -0.0308  0.0129  1.0000  -6.8212   0.0000   0.0000   0.0000   0.2349
  21.000   1.2900   0.13610   0.13182  -0.0329  0.0130  1.0000  -6.7502   0.0000   0.0000   0.0000   0.2365
  21.100   1.2852   0.13817   0.13393  -0.0340  0.0128  1.0000  -6.7340   0.0000   0.0000   0.0000   0.2373
  21.200   1.2812   0.14000   0.13576  -0.0351  0.0125  1.0000  -6.7227   0.0000   0.0000   0.0000   0.2379
  21.300   1.2789   0.14156   0.13735  -0.0360  0.0125  1.0000  -6.7203   0.0000   0.0000   0.0000   0.2384
  21.400   1.2765   0.14314   0.13896  -0.0370  0.0125  1.0000  -6.7169   0.0000   0.0000   0.0000   0.2390
  21.500   1.2737   0.14481   0.14067  -0.0380  0.0125  1.0000  -6.7102   0.0000   0.0000   0.0000   0.2396
  21.600   1.2700   0.14667   0.14257  -0.0392  0.0124  1.0000  -6.6963   0.0000   0.0000   0.0000   0.2403
  21.700   1.2637   0.14905   0.14500  -0.0406  0.0124  1.0000  -6.6628   0.0000   0.0000   0.0000   0.2414
  22.000   1.2311   0.15952   0.15566  -0.0470  0.0124  1.0000  -6.4462   0.0000   0.0000   0.0000   0.2468
  22.100   1.2296   0.16121   0.15738  -0.0480  0.0124  1.0000  -6.4432   0.0000   0.0000   0.0000   0.2473
  22.200   1.2282   0.16287   0.15907  -0.0490  0.0124  1.0000  -6.4415   0.0000   0.0000   0.0000   0.2479
  22.300   1.2269   0.16453   0.16076  -0.0500  0.0124  1.0000  -6.4399   0.0000   0.0000   0.0000   0.2485
  22.400   1.2256   0.16622   0.16247  -0.0509  0.0123  1.0000  -6.4375   0.0000   0.0000   0.0000   0.2491
  22.500   1.2241   0.16796   0.16424  -0.0520  0.0123  1.0000  -6.4333   0.0000   0.0000   0.0000   0.2497
  22.600   1.2225   0.16974   0.16605  -0.0530  0.0123  1.0000  -6.4280   0.0000   0.0000   0.0000   0.2503
  22.700   1.2203   0.17168   0.16804  -0.0541  0.0123  1.0000  -6.4165   0.0000   0.0000   0.0000   0.2510
  22.800   1.2166   0.17399   0.17038  -0.0554  0.0122  1.0000  -6.3944   0.0000   0.0000   0.0000   0.2520
  22.900   1.1718   0.18619   0.18279  -0.0622  0.0123  1.0000  -5.9961   0.0000   0.0000   0.0000   0.2597
  23.000   1.1691   0.18848   0.18511  -0.0634  0.0123  1.0000  -5.9741   0.0000   0.0000   0.0000   0.2607
  23.100   1.1669   0.19066   0.18731  -0.0646  0.0123  1.0000  -5.9640   0.0000   0.0000   0.0000   0.2616
  23.200   1.1650   0.19278   0.18947  -0.0658  0.0122  1.0000  -5.9640   0.0000   0.0000   0.0000   0.2624
  23.300   1.1631   0.19491   0.19163  -0.0669  0.0122  1.0000  -5.9641   0.0000   0.0000   0.0000   0.2632
  23.400   1.1611   0.19708   0.19383  -0.0681  0.0122  1.0000  -5.9624   0.0000   0.0000   0.0000   0.2641
  23.500   1.1589   0.19933   0.19611  -0.0693  0.0122  1.0000  -5.9577   0.0000   0.0000   0.0000   0.2650
  23.600   1.1563   0.20171   0.19851  -0.0705  0.0121  1.0000  -5.9478   0.0000   0.0000   0.0000   0.2659
  23.700   1.1530   0.20429   0.20114  -0.0718  0.0121  1.0000  -5.9291   0.0000   0.0000   0.0000   0.2671
  23.800   1.1484   0.20727   0.20416  -0.0733  0.0121  1.0000  -5.8945   0.0000   0.0000   0.0000   0.2684
  23.900   1.1405   0.21123   0.20817  -0.0753  0.0121  1.0000  -5.8207   0.0000   0.0000   0.0000   0.2704
  24.000   1.1200   0.21904   0.21607  -0.0788  0.0121  1.0000  -5.5941   0.0000   0.0000   0.0000   0.2750
  24.100   1.1128   0.22303   0.22010  -0.0806  0.0121  1.0000  -5.5205   0.0000   0.0000   0.0000   0.2769
  24.200   1.1046   0.22741   0.22453  -0.0825  0.0120  1.0000  -5.4311   0.0000   0.0000   0.0000   0.2791
  24.300   1.0928   0.23306   0.23024  -0.0848  0.0120  1.0000  -5.2925   0.0000   0.0000   0.0000   0.2821
  24.400   1.0369   0.25434   0.25164  -0.0922  0.0120  1.0000  -4.5354   0.0000   0.0000   0.0000   0.2948
  24.500   1.0471   0.25263   0.24991  -0.0920  0.0120  1.0000  -4.6920   0.0000   0.0000   0.0000   0.2931


