xflr5 v6.61

 Calculated polar for: NACA65413a=0.8

 1 1 Reynolds number fixed          Mach number fixed         

 xtrf =   1.000 (top)        1.000 (bottom)
 Mach =   0.000     Re =     0.100 e 6     Ncrit =   9.000

  alpha     CL        CD       CDp       Cm    Top Xtr Bot Xtr   Cpmin    Chinge    XCp    
 ------- -------- --------- --------- -------- ------- ------- -------- --------- ---------
 -10.000  -0.4003   0.10518   0.10042  -0.0460  1.0000  0.1196  -1.5946   0.0000   0.0000   0.0000   0.1230
  -9.900  -0.4113   0.10468   0.09997  -0.0458  1.0000  0.1210  -1.6345   0.0000   0.0000   0.0000   0.1269
  -9.800  -0.4264   0.10436   0.09972  -0.0459  1.0000  0.1221  -1.6947   0.0000   0.0000   0.0000   0.1312
  -9.700  -0.4433   0.10406   0.09949  -0.0460  1.0000  0.1228  -1.7618   0.0000   0.0000   0.0000   0.1356
  -9.600  -0.4596   0.10367   0.09915  -0.0460  1.0000  0.1232  -1.8238   0.0000   0.0000   0.0000   0.1397
  -9.500  -0.4752   0.10314   0.09868  -0.0460  1.0000  0.1234  -1.8801   0.0000   0.0000   0.0000   0.1436
  -9.400  -0.4905   0.10248   0.09808  -0.0458  1.0000  0.1236  -1.9331   0.0000   0.0000   0.0000   0.1473
  -9.300  -0.5056   0.10177   0.09742  -0.0455  1.0000  0.1237  -1.9824   0.0000   0.0000   0.0000   0.1511
  -9.200  -0.5204   0.10114   0.09683  -0.0449  1.0000  0.1237  -2.0255   0.0000   0.0000   0.0000   0.1551
  -9.100  -0.5347   0.10062   0.09634  -0.0440  1.0000  0.1237  -2.0634   0.0000   0.0000   0.0000   0.1595
  -9.000  -0.4858   0.09623   0.09189  -0.0412  1.0000  0.1270  -1.8344   0.0000   0.0000   0.0000   0.1561
  -8.900  -0.4722   0.09550   0.09114  -0.0391  1.0000  0.1286  -1.7400   0.0000   0.0000   0.0000   0.1580
  -8.800  -0.4703   0.09484   0.09048  -0.0378  1.0000  0.1298  -1.7049   0.0000   0.0000   0.0000   0.1606
  -8.700  -0.4718   0.09417   0.08984  -0.0366  1.0000  0.1309  -1.6869   0.0000   0.0000   0.0000   0.1634
  -8.600  -0.4751   0.09350   0.08918  -0.0356  1.0000  0.1320  -1.6783   0.0000   0.0000   0.0000   0.1662
  -8.500  -0.4799   0.09280   0.08851  -0.0347  1.0000  0.1331  -1.6767   0.0000   0.0000   0.0000   0.1691
  -8.400  -0.4861   0.09207   0.08782  -0.0339  1.0000  0.1342  -1.6816   0.0000   0.0000   0.0000   0.1719
  -8.300  -0.4935   0.09133   0.08711  -0.0331  1.0000  0.1352  -1.6926   0.0000   0.0000   0.0000   0.1748
  -8.200  -0.5024   0.09057   0.08638  -0.0324  1.0000  0.1362  -1.7095   0.0000   0.0000   0.0000   0.1777
  -8.100  -0.5127   0.08980   0.08564  -0.0317  1.0000  0.1370  -1.7321   0.0000   0.0000   0.0000   0.1806
  -8.000  -0.5243   0.08901   0.08489  -0.0309  1.0000  0.1377  -1.7594   0.0000   0.0000   0.0000   0.1836
  -7.900  -0.5372   0.08821   0.08414  -0.0301  1.0000  0.1381  -1.7909   0.0000   0.0000   0.0000   0.1867
  -7.800  -0.5510   0.08734   0.08330  -0.0295  1.0000  0.1384  -1.8259   0.0000   0.0000   0.0000   0.1896
  -7.700  -0.5638   0.08560   0.08159  -0.0311  0.9993  0.1394  -1.8758   0.0000   0.0000   0.0000   0.1881
  -7.500  -0.5885   0.07817   0.07385  -0.0450  0.9889  0.1470  -2.0943   0.0000   0.0000   0.0000   0.1673
  -7.400  -0.5724   0.07679   0.07260  -0.0434  0.9887  0.1488  -1.9899   0.0000   0.0000   0.0000   0.1678
  -7.300  -0.5591   0.07595   0.07180  -0.0425  0.9877  0.1510  -1.9065   0.0000   0.0000   0.0000   0.1676
  -7.200  -0.5486   0.07495   0.07080  -0.0427  0.9859  0.1539  -1.8467   0.0000   0.0000   0.0000   0.1659
  -7.100  -0.5412   0.07341   0.06922  -0.0446  0.9836  0.1581  -1.8176   0.0000   0.0000   0.0000   0.1613
  -6.900  -0.5501   0.06865   0.06419  -0.0510  0.9754  0.1706  -1.8928   0.0000   0.0000   0.0000   0.1511
  -6.800  -0.5361   0.06755   0.06318  -0.0505  0.9747  0.1731  -1.8070   0.0000   0.0000   0.0000   0.1498
  -6.700  -0.5274   0.06666   0.06223  -0.0502  0.9729  0.1761  -1.7472   0.0000   0.0000   0.0000   0.1488
  -6.600  -0.5232   0.06571   0.06126  -0.0503  0.9702  0.1801  -1.7177   0.0000   0.0000   0.0000   0.1478
  -6.500  -0.5306   0.06381   0.05908  -0.0538  0.9659  0.1934  -1.7656   0.0000   0.0000   0.0000   0.1428
  -6.400  -0.5182   0.06243   0.05782  -0.0533  0.9651  0.1961  -1.6941   0.0000   0.0000   0.0000   0.1413
  -6.300  -0.5059   0.06151   0.05696  -0.0532  0.9640  0.2001  -1.6305   0.0000   0.0000   0.0000   0.1388
  -6.200  -0.5022   0.06072   0.05613  -0.0531  0.9613  0.2051  -1.6028   0.0000   0.0000   0.0000   0.1384
  -6.100  -0.5072   0.05936   0.05463  -0.0541  0.9575  0.2192  -1.6109   0.0000   0.0000   0.0000   0.1377
  -5.700  -0.4538   0.04330   0.03597  -0.0619  0.9498  0.0846  -2.1637   0.0000   0.0000   0.0000   0.1067
  -5.600  -0.4480   0.04157   0.03420  -0.0617  0.9477  0.0823  -2.1651   0.0000   0.0000   0.0000   0.1055
  -5.500  -0.4393   0.04005   0.03253  -0.0617  0.9456  0.0794  -2.1755   0.0000   0.0000   0.0000   0.1027
  -5.400  -0.4279   0.03824   0.03036  -0.0618  0.9438  0.0749  -2.2267   0.0000   0.0000   0.0000   0.0986
  -5.300  -0.4134   0.03738   0.02895  -0.0618  0.9418  0.0712  -2.2844   0.0000   0.0000   0.0000   0.0933
  -5.200  -0.3985   0.03692   0.02830  -0.0624  0.9401  0.0705  -2.2702   0.0000   0.0000   0.0000   0.0860
  -5.100  -0.3831   0.03618   0.02739  -0.0633  0.9387  0.0702  -2.2541   0.0000   0.0000   0.0000   0.0773
  -5.000  -0.3672   0.03518   0.02624  -0.0643  0.9375  0.0703  -2.2400   0.0000   0.0000   0.0000   0.0672
  -4.900  -0.3632   0.03448   0.02544  -0.0632  0.9343  0.0704  -2.2343   0.0000   0.0000   0.0000   0.0685
  -4.800  -0.3540   0.03357   0.02443  -0.0630  0.9320  0.0708  -2.2227   0.0000   0.0000   0.0000   0.0642
  -4.700  -0.3428   0.03269   0.02347  -0.0632  0.9301  0.0714  -2.2035   0.0000   0.0000   0.0000   0.0578
  -4.600  -0.3307   0.03194   0.02267  -0.0636  0.9284  0.0721  -2.1756   0.0000   0.0000   0.0000   0.0497
  -4.500  -0.3177   0.03133   0.02201  -0.0641  0.9269  0.0730  -2.1408   0.0000   0.0000   0.0000   0.0403
  -4.400  -0.3044   0.03085   0.02152  -0.0647  0.9255  0.0747  -2.0936   0.0000   0.0000   0.0000   0.0291
  -4.300  -0.2904   0.03061   0.02129  -0.0656  0.9241  0.0780  -2.0322   0.0000   0.0000   0.0000   0.0158
  -4.200  -0.2752   0.03045   0.02107  -0.0665  0.9229  0.0817  -1.9744   0.0000   0.0000   0.0000  -0.0003
  -4.100  -0.2657   0.03032   0.02087  -0.0664  0.9210  0.0838  -1.9353   0.0000   0.0000   0.0000  -0.0085
  -4.000  -0.2612   0.03019   0.02068  -0.0653  0.9184  0.0848  -1.9084   0.0000   0.0000   0.0000  -0.0087
  -3.900  -0.2527   0.02997   0.02040  -0.0649  0.9162  0.0855  -1.8755   0.0000   0.0000   0.0000  -0.0157
  -3.800  -0.2423   0.02964   0.02003  -0.0648  0.9144  0.0858  -1.8410   0.0000   0.0000   0.0000  -0.0265
  -3.700  -0.2308   0.02931   0.01967  -0.0649  0.9127  0.0861  -1.8035   0.0000   0.0000   0.0000  -0.0403
  -3.600  -0.2185   0.02900   0.01933  -0.0651  0.9111  0.0864  -1.7628   0.0000   0.0000   0.0000  -0.0575
  -3.500  -0.2058   0.02847   0.01884  -0.0654  0.9098  0.0872  -1.7242   0.0000   0.0000   0.0000  -0.0777
  -3.400  -0.1929   0.02796   0.01838  -0.0658  0.9086  0.0885  -1.6821   0.0000   0.0000   0.0000  -0.1015
  -3.300  -0.1794   0.02758   0.01805  -0.0664  0.9075  0.0902  -1.6335   0.0000   0.0000   0.0000  -0.1306
  -3.200  -0.1652   0.02731   0.01772  -0.0671  0.9064  0.0923  -1.5778   0.0000   0.0000   0.0000  -0.1670
  -3.100  -0.1547   0.02713   0.01756  -0.0671  0.9047  0.0948  -1.5363   0.0000   0.0000   0.0000  -0.1952
  -3.000  -0.1539   0.02703   0.01747  -0.0655  0.9015  0.0964  -1.5155   0.0000   0.0000   0.0000  -0.1869
  -2.900  -0.1467   0.02689   0.01732  -0.0649  0.8988  0.0994  -1.4829   0.0000   0.0000   0.0000  -0.2041
  -2.800  -0.1367   0.02675   0.01713  -0.0648  0.8965  0.1034  -1.4468   0.0000   0.0000   0.0000  -0.2362
  -2.700  -0.1253   0.02639   0.01683  -0.0651  0.8945  0.1109  -1.4109   0.0000   0.0000   0.0000  -0.2821
  -2.500  -0.1022   0.02405   0.01603  -0.0667  0.8918  0.3835  -1.4057   0.0000   0.0000   0.0000  -0.4173
  -2.400  -0.1012   0.02402   0.01707  -0.0631  0.8901  0.6628  -1.4181   0.0000   0.0000   0.0000  -0.3878
  -2.300  -0.0940   0.02454   0.01768  -0.0611  0.8886  0.7090  -1.3924   0.0000   0.0000   0.0000  -0.4145
  -2.200  -0.0882   0.02499   0.01817  -0.0590  0.8871  0.7365  -1.3625   0.0000   0.0000   0.0000  -0.4350
  -2.100  -0.0921   0.02519   0.01836  -0.0564  0.8839  0.7496  -1.3513   0.0000   0.0000   0.0000  -0.3767
  -2.000  -0.0929   0.02541   0.01863  -0.0536  0.8815  0.7630  -1.3323   0.0000   0.0000   0.0000  -0.3409
  -1.900  -0.0905   0.02565   0.01886  -0.0516  0.8793  0.7796  -1.3068   0.0000   0.0000   0.0000  -0.3340
  -1.800  -0.0885   0.02585   0.01909  -0.0492  0.8773  0.7941  -1.2811   0.0000   0.0000   0.0000  -0.3192
  -1.700  -0.0858   0.02601   0.01928  -0.0469  0.8754  0.8089  -1.2533   0.0000   0.0000   0.0000  -0.3107
  -1.600  -0.0836   0.02619   0.01947  -0.0444  0.8737  0.8270  -1.2261   0.0000   0.0000   0.0000  -0.2943
  -1.500  -0.0828   0.02636   0.01966  -0.0414  0.8721  0.8460  -1.2006   0.0000   0.0000   0.0000  -0.2631
  -1.400  -0.0827   0.02648   0.01983  -0.0380  0.8707  0.8636  -1.1762   0.0000   0.0000   0.0000  -0.2214
  -1.300  -0.0807   0.02662   0.01998  -0.0349  0.8693  0.8815  -1.1479   0.0000   0.0000   0.0000  -0.1951
  -1.200  -0.0749   0.02679   0.02015  -0.0327  0.8682  0.8988  -1.1120   0.0000   0.0000   0.0000  -0.1985
  -1.100  -0.0824   0.02671   0.02007  -0.0298  0.8645  0.9069  -1.1077   0.0000   0.0000   0.0000  -0.1222
  -1.000  -0.0796   0.02674   0.02010  -0.0280  0.8617  0.9182  -1.0804   0.0000   0.0000   0.0000  -0.1127
  -0.900  -0.0702   0.02680   0.02012  -0.0277  0.8594  0.9261  -1.0405   0.0000   0.0000   0.0000  -0.1566
  -0.800  -0.0577   0.02686   0.02014  -0.0283  0.8573  0.9306  -0.9949   0.0000   0.0000   0.0000  -0.2538
  -0.700  -0.0451   0.02693   0.02015  -0.0289  0.8555  0.9348  -0.9495   0.0000   0.0000   0.0000  -0.4072
  -0.600  -0.0313   0.02702   0.02018  -0.0298  0.8540  0.9385  -0.9016   0.0000   0.0000   0.0000  -0.7232
  -0.500  -0.0142   0.02714   0.02026  -0.0313  0.8527  0.9413  -0.8464   0.0000   0.0000   0.0000  -2.0001
  -0.400   0.0033   0.02728   0.02029  -0.0329  0.8515  0.9447  -0.7842   0.0000   0.0000   0.0000  10.3522
  -0.300   0.0207   0.02742   0.02038  -0.0344  0.8504  0.9485  -0.7306   0.0000   0.0000   0.0000   1.9313
  -0.200   0.0389   0.02757   0.02048  -0.0360  0.8494  0.9520  -0.6762   0.0000   0.0000   0.0000   1.1881
  -0.100   0.0603   0.02776   0.02062  -0.0383  0.8485  0.9544  -0.6160   0.0000   0.0000   0.0000   0.8905
   0.000   0.0816   0.02796   0.02077  -0.0405  0.8477  0.9569  -0.5569   0.0000   0.0000   0.0000   0.7497
   0.100   0.0868   0.02811   0.02091  -0.0404  0.8453  0.9624  -0.5301   0.0000   0.0000   0.0000   0.7186
   0.200   0.0974   0.02829   0.02107  -0.0413  0.8431  0.9665  -0.4931   0.0000   0.0000   0.0000   0.6758
   0.300   0.1108   0.02846   0.02123  -0.0425  0.8410  0.9704  -0.4511   0.0000   0.0000   0.0000   0.6349
   0.400   0.1252   0.02862   0.02136  -0.0438  0.8389  0.9746  -0.4441   0.0000   0.0000   0.0000   0.6008
   0.500   0.1437   0.02878   0.02150  -0.0458  0.8368  0.9776  -0.4522   0.0000   0.0000   0.0000   0.5689
   0.600   0.1629   0.02894   0.02163  -0.0479  0.8349  0.9811  -0.4608   0.0000   0.0000   0.0000   0.5435
   0.700   0.1834   0.02909   0.02176  -0.0501  0.8332  0.9843  -0.4706   0.0000   0.0000   0.0000   0.5225
   0.800   0.2052   0.02925   0.02189  -0.0525  0.8317  0.9870  -0.4815   0.0000   0.0000   0.0000   0.5051
   0.900   0.2264   0.02940   0.02202  -0.0548  0.8304  0.9903  -0.4922   0.0000   0.0000   0.0000   0.4910
   1.000   0.2480   0.02956   0.02217  -0.0572  0.8292  0.9931  -0.5031   0.0000   0.0000   0.0000   0.4794
   1.100   0.2688   0.02972   0.02232  -0.0595  0.8282  0.9965  -0.5136   0.0000   0.0000   0.0000   0.4697
   1.200   0.2887   0.02989   0.02247  -0.0616  0.8273  1.0000  -0.5241   0.0000   0.0000   0.0000   0.4615
   1.300   0.3008   0.03002   0.02258  -0.0621  0.8263  1.0000  -0.5310   0.0000   0.0000   0.0000   0.4547
   1.500   0.2496   0.03030   0.02285  -0.0523  0.8177  1.0000  -0.4997   0.0000   0.0000   0.0000   0.4572
   1.600   0.2552   0.03046   0.02300  -0.0521  0.8151  1.0000  -0.5020   0.0000   0.0000   0.0000   0.4518
   1.700   0.2650   0.03062   0.02313  -0.0525  0.8127  1.0000  -0.5074   0.0000   0.0000   0.0000   0.4456
   1.800   0.2776   0.03077   0.02327  -0.0533  0.8105  1.0000  -0.5146   0.0000   0.0000   0.0000   0.4392
   1.900   0.2920   0.03092   0.02339  -0.0543  0.8086  1.0000  -0.5231   0.0000   0.0000   0.0000   0.4329
   2.000   0.3078   0.03107   0.02353  -0.0554  0.8070  1.0000  -0.5325   0.0000   0.0000   0.0000   0.4270
   2.100   0.3243   0.03124   0.02369  -0.0566  0.8056  1.0000  -0.5422   0.0000   0.0000   0.0000   0.4215
   2.200   0.3410   0.03143   0.02387  -0.0579  0.8044  1.0000  -0.5522   0.0000   0.0000   0.0000   0.4166
   2.300   0.3581   0.03165   0.02408  -0.0592  0.8034  1.0000  -0.5625   0.0000   0.0000   0.0000   0.4120
   2.400   0.3763   0.03188   0.02432  -0.0606  0.8026  1.0000  -0.5740   0.0000   0.0000   0.0000   0.4078
   2.500   0.3555   0.03242   0.02483  -0.0572  0.7963  1.0000  -0.5596   0.0000   0.0000   0.0000   0.4072
   2.600   0.3613   0.03270   0.02510  -0.0570  0.7930  1.0000  -0.5631   0.0000   0.0000   0.0000   0.4040
   2.700   0.3712   0.03292   0.02531  -0.0573  0.7902  1.0000  -0.5700   0.0000   0.0000   0.0000   0.4005
   2.800   0.3834   0.03312   0.02551  -0.0578  0.7878  1.0000  -0.5784   0.0000   0.0000   0.0000   0.3969
   2.900   0.3970   0.03331   0.02570  -0.0586  0.7858  1.0000  -0.5878   0.0000   0.0000   0.0000   0.3935
   3.000   0.4119   0.03349   0.02588  -0.0594  0.7840  1.0000  -0.5986   0.0000   0.0000   0.0000   0.3902
   3.100   0.4280   0.03364   0.02605  -0.0604  0.7824  1.0000  -0.6106   0.0000   0.0000   0.0000   0.3871
   3.200   0.4457   0.03378   0.02626  -0.0616  0.7810  1.0000  -0.6240   0.0000   0.0000   0.0000   0.3840
   3.300   0.4649   0.03391   0.02639  -0.0629  0.7797  1.0000  -0.6392   0.0000   0.0000   0.0000   0.3811
   3.400   0.4849   0.03404   0.02655  -0.0643  0.7786  1.0000  -0.6555   0.0000   0.0000   0.0000   0.3783
   3.500   0.4610   0.03486   0.02733  -0.0605  0.7707  1.0000  -0.6397   0.0000   0.0000   0.0000   0.3766
   3.600   0.4671   0.03517   0.02765  -0.0602  0.7672  1.0000  -0.6464   0.0000   0.0000   0.0000   0.3742
   3.700   0.4773   0.03541   0.02790  -0.0604  0.7644  1.0000  -0.6664   0.0000   0.0000   0.0000   0.3718
   3.800   0.4904   0.03557   0.02807  -0.0609  0.7619  1.0000  -0.7100   0.0000   0.0000   0.0000   0.3694
   3.900   0.5056   0.03568   0.02820  -0.0617  0.7597  1.0000  -0.7586   0.0000   0.0000   0.0000   0.3670
   4.000   0.5226   0.03575   0.02830  -0.0626  0.7578  1.0000  -0.8114   0.0000   0.0000   0.0000   0.3647
   4.100   0.5410   0.03580   0.02837  -0.0636  0.7562  1.0000  -0.8681   0.0000   0.0000   0.0000   0.3625
   4.200   0.5607   0.03582   0.02843  -0.0648  0.7548  1.0000  -0.9282   0.0000   0.0000   0.0000   0.3605
   4.300   0.5809   0.03586   0.02851  -0.0660  0.7536  1.0000  -0.9904   0.0000   0.0000   0.0000   0.3585
   4.500   0.5616   0.03727   0.02990  -0.0618  0.7403  1.0000  -0.9842   0.0000   0.0000   0.0000   0.3546
   4.600   0.5742   0.03737   0.03003  -0.0621  0.7371  1.0000  -1.0303   0.0000   0.0000   0.0000   0.3526
   4.700   0.5900   0.03737   0.03007  -0.0628  0.7344  1.0000  -1.0845   0.0000   0.0000   0.0000   0.3507
   4.800   0.6081   0.03731   0.03005  -0.0636  0.7323  1.0000  -1.1444   0.0000   0.0000   0.0000   0.3489
   4.900   0.6280   0.03718   0.02998  -0.0646  0.7305  1.0000  -1.2093   0.0000   0.0000   0.0000   0.3471
   5.000   0.6495   0.03698   0.02984  -0.0658  0.7289  1.0000  -1.2789   0.0000   0.0000   0.0000   0.3454
   5.100   0.6729   0.03670   0.02963  -0.0671  0.7276  1.0000  -1.3539   0.0000   0.0000   0.0000   0.3438
   5.300   0.6529   0.03834   0.03126  -0.0628  0.7117  1.0000  -1.3450   0.0000   0.0000   0.0000   0.3400
   5.400   0.6698   0.03817   0.03114  -0.0634  0.7086  1.0000  -1.4056   0.0000   0.0000   0.0000   0.3383
   5.500   0.6902   0.03781   0.03097  -0.0642  0.7060  1.0000  -1.4791   0.0000   0.0000   0.0000   0.3366
   5.600   0.7136   0.03726   0.03051  -0.0652  0.7039  1.0000  -1.5789   0.0000   0.0000   0.0000   0.3349
   5.700   0.7413   0.03644   0.02979  -0.0665  0.7022  1.0000  -1.6935   0.0000   0.0000   0.0000   0.3333
   5.900   0.8949   0.02341   0.01709  -0.0717  0.6748  1.0000  -2.2813   0.0000   0.0000   0.0000   0.3237
   6.000   0.9027   0.02304   0.01678  -0.0705  0.6658  1.0000  -2.3400   0.0000   0.0000   0.0000   0.3216
   6.100   0.9155   0.02214   0.01593  -0.0696  0.6540  1.0000  -2.4164   0.0000   0.0000   0.0000   0.3193
   6.200   0.9434   0.02028   0.01408  -0.0700  0.6384  1.0000  -2.5429   0.0000   0.0000   0.0000   0.3174
   6.300   0.9487   0.02007   0.01393  -0.0686  0.6254  1.0000  -2.5920   0.0000   0.0000   0.0000   0.3153
   6.400   0.9620   0.01933   0.01321  -0.0677  0.6071  1.0000  -2.6658   0.0000   0.0000   0.0000   0.3134
   6.500   0.9698   0.01882   0.01268  -0.0662  0.5806  1.0000  -2.7193   0.0000   0.0000   0.0000   0.3111
   6.600   0.9700   0.01870   0.01251  -0.0638  0.5449  1.0000  -2.7461   0.0000   0.0000   0.0000   0.3084
   6.700   0.9668   0.01862   0.01167  -0.0600  0.4200  1.0000  -2.7597   0.0000   0.0000   0.0000   0.3045
   6.800   0.9551   0.01952   0.01193  -0.0563  0.3386  1.0000  -2.7528   0.0000   0.0000   0.0000   0.3012
   6.900   0.9433   0.02058   0.01252  -0.0530  0.2754  1.0000  -2.7441   0.0000   0.0000   0.0000   0.2984
   7.000   0.9320   0.02180   0.01327  -0.0502  0.2149  1.0000  -2.7341   0.0000   0.0000   0.0000   0.2959
   7.100   0.9222   0.02309   0.01409  -0.0477  0.1651  1.0000  -2.7233   0.0000   0.0000   0.0000   0.2936
   7.200   0.9163   0.02423   0.01491  -0.0456  0.1359  1.0000  -2.7158   0.0000   0.0000   0.0000   0.2915
   7.300   0.9140   0.02517   0.01566  -0.0440  0.1207  1.0000  -2.7187   0.0000   0.0000   0.0000   0.2897
   7.400   0.9152   0.02588   0.01633  -0.0427  0.1113  1.0000  -2.7412   0.0000   0.0000   0.0000   0.2881
   7.500   0.9169   0.02657   0.01696  -0.0416  0.1048  1.0000  -2.7761   0.0000   0.0000   0.0000   0.2867
   7.600   0.9169   0.02739   0.01770  -0.0403  0.1000  1.0000  -2.8045   0.0000   0.0000   0.0000   0.2852
   7.700   0.9215   0.02792   0.01825  -0.0395  0.0958  1.0000  -2.8499   0.0000   0.0000   0.0000   0.2839
   7.800   0.9263   0.02844   0.01891  -0.0387  0.0914  1.0000  -2.9060   0.0000   0.0000   0.0000   0.2827
   7.900   0.9309   0.02899   0.01944  -0.0380  0.0874  1.0000  -2.9664   0.0000   0.0000   0.0000   0.2817
   8.000   0.9343   0.02969   0.02005  -0.0372  0.0837  1.0000  -3.0186   0.0000   0.0000   0.0000   0.2805
   8.100   0.9401   0.03037   0.02068  -0.0365  0.0803  1.0000  -3.0738   0.0000   0.0000   0.0000   0.2795
   8.200   0.9476   0.03079   0.02115  -0.0361  0.0776  1.0000  -3.1375   0.0000   0.0000   0.0000   0.2786
   8.300   0.9560   0.03129   0.02166  -0.0357  0.0755  1.0000  -3.2011   0.0000   0.0000   0.0000   0.2777
   8.400   0.9652   0.03181   0.02218  -0.0353  0.0734  1.0000  -3.2677   0.0000   0.0000   0.0000   0.2769
   8.500   0.9752   0.03235   0.02271  -0.0351  0.0714  1.0000  -3.3378   0.0000   0.0000   0.0000   0.2762
   8.600   0.9865   0.03295   0.02327  -0.0350  0.0694  1.0000  -3.4136   0.0000   0.0000   0.0000   0.2756
   8.700   1.0046   0.03384   0.02407  -0.0357  0.0670  1.0000  -3.5090   0.0000   0.0000   0.0000   0.2755
   8.800   1.0391   0.03546   0.02567  -0.0383  0.0645  1.0000  -3.6350   0.0000   0.0000   0.0000   0.2768
   8.900   1.0552   0.03624   0.02654  -0.0388  0.0635  1.0000  -3.7118   0.0000   0.0000   0.0000   0.2766
   9.000   1.0737   0.03721   0.02762  -0.0396  0.0626  1.0000  -3.7922   0.0000   0.0000   0.0000   0.2767
   9.100   1.0930   0.03838   0.02890  -0.0407  0.0619  1.0000  -3.8712   0.0000   0.0000   0.0000   0.2768
   9.200   1.1102   0.03962   0.03026  -0.0414  0.0615  1.0000  -3.9408   0.0000   0.0000   0.0000   0.2769
   9.300   1.1245   0.04086   0.03164  -0.0418  0.0612  1.0000  -3.9993   0.0000   0.0000   0.0000   0.2766
   9.400   1.1371   0.04215   0.03307  -0.0419  0.0612  1.0000  -4.0500   0.0000   0.0000   0.0000   0.2762
   9.500   1.1484   0.04349   0.03456  -0.0419  0.0613  1.0000  -4.0940   0.0000   0.0000   0.0000   0.2757
   9.600   1.1585   0.04490   0.03612  -0.0418  0.0615  1.0000  -4.1315   0.0000   0.0000   0.0000   0.2752
   9.700   1.1674   0.04637   0.03775  -0.0415  0.0618  1.0000  -4.1630   0.0000   0.0000   0.0000   0.2746
   9.800   1.1753   0.04792   0.03946  -0.0411  0.0622  1.0000  -4.1887   0.0000   0.0000   0.0000   0.2739
   9.900   1.1822   0.04957   0.04126  -0.0407  0.0627  1.0000  -4.2092   0.0000   0.0000   0.0000   0.2732
  10.000   1.1883   0.05133   0.04317  -0.0402  0.0631  1.0000  -4.2248   0.0000   0.0000   0.0000   0.2725
  10.100   1.1921   0.05273   0.04473  -0.0394  0.0632  1.0000  -4.2396   0.0000   0.0000   0.0000   0.2716
  10.200   1.1937   0.05374   0.04590  -0.0383  0.0628  1.0000  -4.2542   0.0000   0.0000   0.0000   0.2705
  10.300   1.1941   0.05457   0.04687  -0.0370  0.0620  1.0000  -4.2683   0.0000   0.0000   0.0000   0.2693
  10.400   1.1940   0.05536   0.04790  -0.0358  0.0611  1.0000  -4.2802   0.0000   0.0000   0.0000   0.2682
  10.500   1.1934   0.05613   0.04880  -0.0345  0.0599  1.0000  -4.2969   0.0000   0.0000   0.0000   0.2670
  10.600   1.1929   0.05690   0.04968  -0.0333  0.0586  1.0000  -4.3188   0.0000   0.0000   0.0000   0.2659
  10.700   1.1926   0.05766   0.05052  -0.0322  0.0573  1.0000  -4.3460   0.0000   0.0000   0.0000   0.2648
  10.800   1.1925   0.05854   0.05147  -0.0311  0.0563  1.0000  -4.3714   0.0000   0.0000   0.0000   0.2638
  10.900   1.1901   0.05982   0.05288  -0.0298  0.0562  1.0000  -4.3658   0.0000   0.0000   0.0000   0.2626
  11.000   1.1860   0.06128   0.05449  -0.0284  0.0565  1.0000  -4.3441   0.0000   0.0000   0.0000   0.2614
  11.100   1.1809   0.06277   0.05612  -0.0269  0.0568  1.0000  -4.3192   0.0000   0.0000   0.0000   0.2601
  11.200   1.1750   0.06428   0.05777  -0.0255  0.0572  1.0000  -4.2919   0.0000   0.0000   0.0000   0.2589
  11.300   1.1685   0.06583   0.05945  -0.0241  0.0576  1.0000  -4.2634   0.0000   0.0000   0.0000   0.2577
  11.400   1.1616   0.06741   0.06116  -0.0228  0.0580  1.0000  -4.2341   0.0000   0.0000   0.0000   0.2566
  11.500   1.1542   0.06903   0.06290  -0.0216  0.0584  1.0000  -4.2045   0.0000   0.0000   0.0000   0.2556
  11.600   1.1466   0.07069   0.06467  -0.0205  0.0589  1.0000  -4.1749   0.0000   0.0000   0.0000   0.2546
  11.700   1.1388   0.07240   0.06648  -0.0195  0.0593  1.0000  -4.1453   0.0000   0.0000   0.0000   0.2537
  11.800   1.1308   0.07416   0.06835  -0.0187  0.0597  1.0000  -4.1157   0.0000   0.0000   0.0000   0.2530
  11.900   1.1227   0.07597   0.07025  -0.0179  0.0602  1.0000  -4.0864   0.0000   0.0000   0.0000   0.2523
  12.000   1.1145   0.07784   0.07221  -0.0173  0.0606  1.0000  -4.0571   0.0000   0.0000   0.0000   0.2517
  12.100   1.1063   0.07978   0.07423  -0.0169  0.0611  1.0000  -4.0280   0.0000   0.0000   0.0000   0.2512
  12.200   1.0980   0.08178   0.07632  -0.0165  0.0615  1.0000  -3.9989   0.0000   0.0000   0.0000   0.2509
  12.300   1.0898   0.08386   0.07847  -0.0163  0.0620  1.0000  -3.9699   0.0000   0.0000   0.0000   0.2506
  12.400   1.0817   0.08604   0.08071  -0.0162  0.0624  1.0000  -3.9408   0.0000   0.0000   0.0000   0.2505
  12.500   1.0741   0.08838   0.08311  -0.0162  0.0630  1.0000  -3.9117   0.0000   0.0000   0.0000   0.2505
  12.600   1.0691   0.09124   0.08600  -0.0164  0.0638  1.0000  -3.8829   0.0000   0.0000   0.0000   0.2506
  13.000   0.9804   0.10469   0.09997  -0.0222  0.0718  1.0000  -3.4507   0.0000   0.0000   0.0000   0.2573
  13.100   0.9600   0.10954   0.10488  -0.0251  0.0734  1.0000  -3.3406   0.0000   0.0000   0.0000   0.2607
  13.200   0.9429   0.11442   0.10979  -0.0281  0.0752  1.0000  -3.2383   0.0000   0.0000   0.0000   0.2642
  13.300   0.9338   0.11843   0.11382  -0.0300  0.0772  1.0000  -3.1699   0.0000   0.0000   0.0000   0.2665
  13.400   0.8813   0.15389   0.14934  -0.0492  0.1608  1.0000  -2.2563   0.0000   0.0000   0.0000   0.2912
  13.500   0.8362   0.15646   0.15176  -0.0577  0.1535  1.0000  -2.0413   0.0000   0.0000   0.0000   0.3043
  13.600   0.8352   0.15830   0.15360  -0.0586  0.1510  1.0000  -2.0299   0.0000   0.0000   0.0000   0.3054
  13.700   0.8365   0.15998   0.15528  -0.0592  0.1488  1.0000  -2.0298   0.0000   0.0000   0.0000   0.3059
  13.800   0.8395   0.16153   0.15684  -0.0595  0.1469  1.0000  -2.0388   0.0000   0.0000   0.0000   0.3058
  13.900   0.8453   0.16287   0.15819  -0.0593  0.1450  1.0000  -2.0618   0.0000   0.0000   0.0000   0.3049
  14.000   0.8739   0.16396   0.15936  -0.0536  0.1385  1.0000  -2.2186   0.0000   0.0000   0.0000   0.2960
  14.100   0.8633   0.16633   0.16168  -0.0566  0.1378  1.0000  -2.1509   0.0000   0.0000   0.0000   0.3001
  14.200   0.8529   0.16861   0.16393  -0.0597  0.1367  1.0000  -2.0823   0.0000   0.0000   0.0000   0.3044
  14.300   0.8443   0.17074   0.16603  -0.0624  0.1345  1.0000  -2.0224   0.0000   0.0000   0.0000   0.3082
  14.400   0.8408   0.17250   0.16777  -0.0641  0.1307  1.0000  -1.9929   0.0000   0.0000   0.0000   0.3103
  14.500   0.8575   0.17168   0.16701  -0.0612  0.1226  1.0000  -2.0984   0.0000   0.0000   0.0000   0.3053
  14.600   0.8833   0.17247   0.16788  -0.0563  0.1199  1.0000  -2.2227   0.0000   0.0000   0.0000   0.2976
  14.700   0.8893   0.17687   0.17226  -0.0556  0.1184  1.0000  -2.2273   0.0000   0.0000   0.0000   0.2962
  14.800   0.8788   0.17899   0.17435  -0.0587  0.1181  1.0000  -2.1569   0.0000   0.0000   0.0000   0.3005
  14.900   0.8646   0.18076   0.17606  -0.0630  0.1170  1.0000  -2.0645   0.0000   0.0000   0.0000   0.3064
  15.000   0.8521   0.18256   0.17782  -0.0670  0.1143  1.0000  -1.9779   0.0000   0.0000   0.0000   0.3120
  15.100   0.8495   0.18436   0.17960  -0.0688  0.1115  1.0000  -1.9441   0.0000   0.0000   0.0000   0.3142
  15.200   0.8502   0.18602   0.18126  -0.0697  0.1090  1.0000  -1.9301   0.0000   0.0000   0.0000   0.3151
  15.300   0.8529   0.18754   0.18278  -0.0702  0.1068  1.0000  -1.9285   0.0000   0.0000   0.0000   0.3152
  15.400   0.8575   0.18892   0.18417  -0.0702  0.1048  1.0000  -1.9399   0.0000   0.0000   0.0000   0.3147
  15.500   0.8648   0.19021   0.18548  -0.0696  0.1031  1.0000  -1.9690   0.0000   0.0000   0.0000   0.3131
  15.600   0.8766   0.19159   0.18689  -0.0678  0.1014  1.0000  -2.0281   0.0000   0.0000   0.0000   0.3099
  15.700   0.8994   0.19664   0.19199  -0.0629  0.0993  1.0000  -2.1675   0.0000   0.0000   0.0000   0.3024
  15.800   0.8940   0.19855   0.19387  -0.0653  0.0991  1.0000  -2.1126   0.0000   0.0000   0.0000   0.3054
  15.900   0.8881   0.20018   0.19547  -0.0680  0.0989  1.0000  -2.0511   0.0000   0.0000   0.0000   0.3087
  16.000   0.8799   0.20142   0.19668  -0.0713  0.0982  1.0000  -1.9689   0.0000   0.0000   0.0000   0.3131
  16.100   0.8696   0.20245   0.19766  -0.0753  0.0965  1.0000  -1.8691   0.0000   0.0000   0.0000   0.3185
  16.200   0.8661   0.20387   0.19906  -0.0776  0.0943  1.0000  -1.8236   0.0000   0.0000   0.0000   0.3212
  16.300   0.8662   0.20541   0.20059  -0.0788  0.0923  1.0000  -1.8098   0.0000   0.0000   0.0000   0.3226
  16.400   0.8678   0.20697   0.20214  -0.0798  0.0905  1.0000  -1.8108   0.0000   0.0000   0.0000   0.3233
  16.500   0.8703   0.20850   0.20368  -0.0804  0.0889  1.0000  -1.8209   0.0000   0.0000   0.0000   0.3237
  16.600   0.8736   0.21000   0.20518  -0.0809  0.0875  1.0000  -1.8397   0.0000   0.0000   0.0000   0.3237
  16.700   0.8780   0.21151   0.20670  -0.0811  0.0861  1.0000  -1.8685   0.0000   0.0000   0.0000   0.3233
  16.800   0.8839   0.21312   0.20832  -0.0810  0.0849  1.0000  -1.9120   0.0000   0.0000   0.0000   0.3224
  16.900   0.8918   0.21490   0.21012  -0.0802  0.0838  1.0000  -1.9758   0.0000   0.0000   0.0000   0.3206
  17.000   0.9028   0.21730   0.21257  -0.0785  0.0827  1.0000  -2.0722   0.0000   0.0000   0.0000   0.3174
  17.100   0.9156   0.22350   0.21878  -0.0758  0.0815  1.0000  -2.1767   0.0000   0.0000   0.0000   0.3132
  17.200   0.9135   0.22500   0.22027  -0.0777  0.0813  1.0000  -2.1383   0.0000   0.0000   0.0000   0.3154
  17.300   0.9113   0.22629   0.22153  -0.0798  0.0812  1.0000  -2.0965   0.0000   0.0000   0.0000   0.3177
  17.400   0.9084   0.22728   0.22250  -0.0822  0.0809  1.0000  -2.0463   0.0000   0.0000   0.0000   0.3204
  17.500   0.9037   0.22774   0.22293  -0.0851  0.0803  1.0000  -1.9779   0.0000   0.0000   0.0000   0.3239
  17.600   0.8986   0.22773   0.22289  -0.0882  0.0792  1.0000  -1.9050   0.0000   0.0000   0.0000   0.3277
  17.700   0.8970   0.22847   0.22360  -0.0903  0.0777  1.0000  -1.8650   0.0000   0.0000   0.0000   0.3301
  17.800   0.8980   0.22974   0.22486  -0.0917  0.0761  1.0000  -1.8513   0.0000   0.0000   0.0000   0.3313
  17.900   0.8999   0.23113   0.22626  -0.0928  0.0748  1.0000  -1.8488   0.0000   0.0000   0.0000   0.3321
  18.000   0.9023   0.23257   0.22769  -0.0937  0.0735  1.0000  -1.8526   0.0000   0.0000   0.0000   0.3327
  18.100   0.9051   0.23401   0.22913  -0.0945  0.0723  1.0000  -1.8613   0.0000   0.0000   0.0000   0.3331
  18.200   0.9082   0.23545   0.23058  -0.0952  0.0712  1.0000  -1.8747   0.0000   0.0000   0.0000   0.3333
  18.300   0.9117   0.23691   0.23204  -0.0957  0.0701  1.0000  -1.8932   0.0000   0.0000   0.0000   0.3333
  18.400   0.9156   0.23841   0.23362  -0.0961  0.0692  1.0000  -1.9228   0.0000   0.0000   0.0000   0.3331
  18.500   0.9202   0.24002   0.23524  -0.0963  0.0683  1.0000  -1.9594   0.0000   0.0000   0.0000   0.3326
  18.600   0.9260   0.24196   0.23720  -0.0960  0.0674  1.0000  -2.0077   0.0000   0.0000   0.0000   0.3316
  18.700   0.9351   0.24504   0.24032  -0.0949  0.0665  1.0000  -2.0884   0.0000   0.0000   0.0000   0.3292
  18.800   0.9499   0.25427   0.24959  -0.0910  0.0652  1.0000  -2.2320   0.0000   0.0000   0.0000   0.3235
  18.900   0.9501   0.25541   0.25072  -0.0926  0.0651  1.0000  -2.2029   0.0000   0.0000   0.0000   0.3251
  19.000   0.9502   0.25640   0.25170  -0.0943  0.0650  1.0000  -2.1723   0.0000   0.0000   0.0000   0.3267
  19.100   0.9501   0.25722   0.25250  -0.0961  0.0649  1.0000  -2.1391   0.0000   0.0000   0.0000   0.3284
  19.200   0.9494   0.25772   0.25299  -0.0981  0.0647  1.0000  -2.0985   0.0000   0.0000   0.0000   0.3303
  19.300   0.9478   0.25781   0.25305  -0.1004  0.0644  1.0000  -2.0494   0.0000   0.0000   0.0000   0.3327
  19.400   0.9452   0.25743   0.25265  -0.1029  0.0640  1.0000  -1.9934   0.0000   0.0000   0.0000   0.3354
  19.500   0.9435   0.25747   0.25266  -0.1053  0.0631  1.0000  -1.9398   0.0000   0.0000   0.0000   0.3379
  19.600   0.9439   0.25833   0.25351  -0.1071  0.0619  1.0000  -1.9050   0.0000   0.0000   0.0000   0.3396
  19.700   0.9456   0.25966   0.25483  -0.1085  0.0605  1.0000  -1.8882   0.0000   0.0000   0.0000   0.3406
  19.800   0.9479   0.26111   0.25628  -0.1096  0.0591  1.0000  -1.8819   0.0000   0.0000   0.0000   0.3413
  19.900   0.9506   0.26257   0.25774  -0.1104  0.0576  1.0000  -1.8838   0.0000   0.0000   0.0000   0.3417
  20.000   0.9537   0.26399   0.25917  -0.1111  0.0560  1.0000  -1.8955   0.0000   0.0000   0.0000   0.3419
  20.100   0.9575   0.26538   0.26057  -0.1115  0.0544  1.0000  -1.9234   0.0000   0.0000   0.0000   0.3416
  20.200   0.9633   0.26704   0.26225  -0.1109  0.0527  1.0000  -1.9899   0.0000   0.0000   0.0000   0.3401
  20.500   0.9822   0.27955   0.27480  -0.1089  0.0502  1.0000  -2.1264   0.0000   0.0000   0.0000   0.3355
  20.600   0.9823   0.28012   0.27535  -0.1107  0.0500  1.0000  -2.0855   0.0000   0.0000   0.0000   0.3371
  20.700   0.9814   0.28023   0.27545  -0.1128  0.0499  1.0000  -2.0385   0.0000   0.0000   0.0000   0.3390
  20.800   0.9803   0.28020   0.27540  -0.1149  0.0496  1.0000  -1.9870   0.0000   0.0000   0.0000   0.3411
  20.900   0.9798   0.28038   0.27556  -0.1172  0.0491  1.0000  -1.9331   0.0000   0.0000   0.0000   0.3433
  21.000   0.9804   0.28113   0.27630  -0.1192  0.0482  1.0000  -1.8880   0.0000   0.0000   0.0000   0.3450
  21.100   0.9822   0.28247   0.27763  -0.1206  0.0472  1.0000  -1.8609   0.0000   0.0000   0.0000   0.3460
  21.200   0.9845   0.28402   0.27919  -0.1218  0.0463  1.0000  -1.8452   0.0000   0.0000   0.0000   0.3467
  21.300   0.9870   0.28563   0.28079  -0.1228  0.0454  1.0000  -1.8355   0.0000   0.0000   0.0000   0.3473
  21.400   0.9896   0.28727   0.28243  -0.1237  0.0446  1.0000  -1.8295   0.0000   0.0000   0.0000   0.3477
  21.500   0.9923   0.28890   0.28407  -0.1246  0.0438  1.0000  -1.8262   0.0000   0.0000   0.0000   0.3481
  21.600   0.9950   0.29053   0.28570  -0.1255  0.0431  1.0000  -1.8253   0.0000   0.0000   0.0000   0.3484
  21.700   0.9978   0.29216   0.28734  -0.1263  0.0424  1.0000  -1.8268   0.0000   0.0000   0.0000   0.3486
  21.800   1.0006   0.29379   0.28896  -0.1271  0.0418  1.0000  -1.8307   0.0000   0.0000   0.0000   0.3488
  21.900   1.0035   0.29541   0.29060  -0.1278  0.0412  1.0000  -1.8371   0.0000   0.0000   0.0000   0.3490
  22.000   1.0065   0.29705   0.29224  -0.1285  0.0406  1.0000  -1.8466   0.0000   0.0000   0.0000   0.3490
  22.100   1.0096   0.29873   0.29392  -0.1290  0.0401  1.0000  -1.8597   0.0000   0.0000   0.0000   0.3490
  22.200   1.0129   0.30048   0.29569  -0.1295  0.0396  1.0000  -1.8771   0.0000   0.0000   0.0000   0.3489
  22.300   1.0163   0.30237   0.29758  -0.1299  0.0392  1.0000  -1.9004   0.0000   0.0000   0.0000   0.3486
  22.400   1.0203   0.30457   0.29980  -0.1300  0.0387  1.0000  -1.9324   0.0000   0.0000   0.0000   0.3480
  22.500   1.0252   0.30761   0.30286  -0.1297  0.0383  1.0000  -1.9804   0.0000   0.0000   0.0000   0.3469
  22.900   1.0422   0.32369   0.31901  -0.1300  0.0373  1.0000  -2.0459   0.0000   0.0000   0.0000   0.3446
  23.000   1.0435   0.32475   0.32006  -0.1313  0.0373  1.0000  -2.0237   0.0000   0.0000   0.0000   0.3454
  23.100   1.0447   0.32562   0.32093  -0.1327  0.0372  1.0000  -1.9995   0.0000   0.0000   0.0000   0.3464
  23.200   1.0454   0.32627   0.32157  -0.1342  0.0371  1.0000  -1.9725   0.0000   0.0000   0.0000   0.3475
  23.300   1.0463   0.32690   0.32219  -0.1357  0.0371  1.0000  -1.9450   0.0000   0.0000   0.0000   0.3486
  23.400   1.0472   0.32751   0.32280  -0.1373  0.0370  1.0000  -1.9168   0.0000   0.0000   0.0000   0.3497
  23.500   1.0482   0.32812   0.32340  -0.1389  0.0369  1.0000  -1.8877   0.0000   0.0000   0.0000   0.3509
  23.600   1.0494   0.32876   0.32403  -0.1405  0.0367  1.0000  -1.8578   0.0000   0.0000   0.0000   0.3520
  23.700   1.0507   0.32950   0.32477  -0.1421  0.0365  1.0000  -1.8276   0.0000   0.0000   0.0000   0.3531
  23.800   1.0524   0.33041   0.32567  -0.1437  0.0362  1.0000  -1.7985   0.0000   0.0000   0.0000   0.3542
  23.900   1.0544   0.33159   0.32685  -0.1452  0.0358  1.0000  -1.7735   0.0000   0.0000   0.0000   0.3550
  24.000   1.0567   0.33302   0.32829  -0.1465  0.0354  1.0000  -1.7546   0.0000   0.0000   0.0000   0.3557
  24.100   1.0591   0.33462   0.32989  -0.1476  0.0349  1.0000  -1.7411   0.0000   0.0000   0.0000   0.3563
  24.200   1.0615   0.33629   0.33156  -0.1487  0.0344  1.0000  -1.7315   0.0000   0.0000   0.0000   0.3567
  24.300   1.0640   0.33802   0.33329  -0.1497  0.0340  1.0000  -1.7245   0.0000   0.0000   0.0000   0.3571
  24.400   1.0665   0.33976   0.33504  -0.1506  0.0335  1.0000  -1.7193   0.0000   0.0000   0.0000   0.3575
  24.500   1.0690   0.34152   0.33680  -0.1516  0.0331  1.0000  -1.7155   0.0000   0.0000   0.0000   0.3578
  24.600   1.0714   0.34328   0.33857  -0.1525  0.0327  1.0000  -1.7127   0.0000   0.0000   0.0000   0.3581
  24.700   1.0739   0.34505   0.34034  -0.1534  0.0323  1.0000  -1.7108   0.0000   0.0000   0.0000   0.3584
  24.800   1.0764   0.34682   0.34212  -0.1543  0.0319  1.0000  -1.7096   0.0000   0.0000   0.0000   0.3587
  24.900   1.0788   0.34859   0.34389  -0.1552  0.0316  1.0000  -1.7092   0.0000   0.0000   0.0000   0.3589
  25.000   1.0813   0.35035   0.34566  -0.1561  0.0312  1.0000  -1.7094   0.0000   0.0000   0.0000   0.3592
  25.100   1.0837   0.35212   0.34744  -0.1570  0.0309  1.0000  -1.7103   0.0000   0.0000   0.0000   0.3594
  25.200   1.0862   0.35389   0.34921  -0.1579  0.0306  1.0000  -1.7118   0.0000   0.0000   0.0000   0.3597
  25.300   1.0886   0.35566   0.35099  -0.1587  0.0303  1.0000  -1.7140   0.0000   0.0000   0.0000   0.3599
  25.400   1.0910   0.35743   0.35277  -0.1596  0.0300  1.0000  -1.7168   0.0000   0.0000   0.0000   0.3601
  25.500   1.0934   0.35920   0.35454  -0.1604  0.0297  1.0000  -1.7204   0.0000   0.0000   0.0000   0.3603
  25.600   1.0958   0.36098   0.35633  -0.1613  0.0294  1.0000  -1.7247   0.0000   0.0000   0.0000   0.3605
  25.700   1.0982   0.36275   0.35811  -0.1621  0.0291  1.0000  -1.7299   0.0000   0.0000   0.0000   0.3607
  25.800   1.1006   0.36454   0.35990  -0.1629  0.0289  1.0000  -1.7359   0.0000   0.0000   0.0000   0.3608
  25.900   1.1030   0.36634   0.36171  -0.1637  0.0286  1.0000  -1.7429   0.0000   0.0000   0.0000   0.3610
  26.000   1.1054   0.36815   0.36353  -0.1644  0.0284  1.0000  -1.7510   0.0000   0.0000   0.0000   0.3611
  26.100   1.1078   0.36998   0.36537  -0.1652  0.0281  1.0000  -1.7603   0.0000   0.0000   0.0000   0.3612
  26.200   1.1102   0.37185   0.36725  -0.1659  0.0279  1.0000  -1.7711   0.0000   0.0000   0.0000   0.3612
  26.300   1.1125   0.37377   0.36918  -0.1666  0.0277  1.0000  -1.7834   0.0000   0.0000   0.0000   0.3613
  26.400   1.1150   0.37576   0.37118  -0.1672  0.0275  1.0000  -1.7978   0.0000   0.0000   0.0000   0.3612
  26.500   1.1174   0.37789   0.37332  -0.1678  0.0273  1.0000  -1.8145   0.0000   0.0000   0.0000   0.3612
  26.600   1.1199   0.38020   0.37564  -0.1682  0.0271  1.0000  -1.8342   0.0000   0.0000   0.0000   0.3610
  26.700   1.1226   0.38283   0.37828  -0.1686  0.0269  1.0000  -1.8580   0.0000   0.0000   0.0000   0.3607
  26.800   1.1255   0.38616   0.38167  -0.1686  0.0267  1.0000  -1.8894   0.0000   0.0000   0.0000   0.3602
  26.900   1.1292   0.39114   0.38668  -0.1682  0.0264  1.0000  -1.9326   0.0000   0.0000   0.0000   0.3591
  29.500   1.1763   0.43636   0.43201  -0.1957  0.0250  1.0000  -1.7342   0.0000   0.0000   0.0000   0.3691
  29.600   1.1782   0.43806   0.43371  -0.1967  0.0248  1.0000  -1.7365   0.0000   0.0000   0.0000   0.3694
  29.700   1.1801   0.43982   0.43547  -0.1978  0.0247  1.0000  -1.7395   0.0000   0.0000   0.0000   0.3697
  29.800   1.1820   0.44163   0.43730  -0.1988  0.0245  1.0000  -1.7433   0.0000   0.0000   0.0000   0.3700
  29.900   1.1839   0.44349   0.43916  -0.1998  0.0243  1.0000  -1.7478   0.0000   0.0000   0.0000   0.3703
  30.000   1.1858   0.44538   0.44107  -0.2008  0.0241  1.0000  -1.7529   0.0000   0.0000   0.0000   0.3705


