xflr5 v6.61

 Calculated polar for: NACA 23012  12%

 1 1 Reynolds number fixed          Mach number fixed         

 xtrf =   1.000 (top)        1.000 (bottom)
 Mach =   0.000     Re =     0.563 e 6     Ncrit =   9.000

  alpha     CL        CD       CDp       Cm    Top Xtr Bot Xtr   Cpmin    Chinge    XCp    
 ------- -------- --------- --------- -------- ------- ------- -------- --------- ---------
 -10.000  -0.5529   0.08081   0.07847  -0.0262  1.0000  0.0308  -2.5608   0.0000   0.0000   0.0000   0.1936
  -9.900  -0.5595   0.07811   0.07574  -0.0286  1.0000  0.0308  -2.6120   0.0000   0.0000   0.0000   0.1900
  -9.800  -0.5668   0.07578   0.07338  -0.0305  1.0000  0.0308  -2.6565   0.0000   0.0000   0.0000   0.1875
  -9.700  -0.5743   0.07373   0.07129  -0.0320  1.0000  0.0308  -2.6944   0.0000   0.0000   0.0000   0.1859
  -9.600  -0.5813   0.07188   0.06940  -0.0330  1.0000  0.0309  -2.7255   0.0000   0.0000   0.0000   0.1851
  -9.500  -0.5884   0.07025   0.06774  -0.0334  1.0000  0.0309  -2.7513   0.0000   0.0000   0.0000   0.1852
  -9.400  -0.5952   0.06880   0.06625  -0.0334  1.0000  0.0309  -2.7722   0.0000   0.0000   0.0000   0.1861
  -9.300  -0.6017   0.06747   0.06488  -0.0329  1.0000  0.0309  -2.7886   0.0000   0.0000   0.0000   0.1876
  -9.200  -0.6072   0.06619   0.06356  -0.0323  1.0000  0.0309  -2.8005   0.0000   0.0000   0.0000   0.1892
  -9.100  -0.6109   0.06479   0.06211  -0.0320  1.0000  0.0309  -2.8070   0.0000   0.0000   0.0000   0.1902
  -9.000  -0.6138   0.06341   0.06068  -0.0317  1.0000  0.0309  -2.8099   0.0000   0.0000   0.0000   0.1911
  -8.900  -0.6162   0.06205   0.05927  -0.0312  1.0000  0.0309  -2.8097   0.0000   0.0000   0.0000   0.1921
  -8.800  -0.6180   0.06071   0.05788  -0.0308  1.0000  0.0309  -2.8065   0.0000   0.0000   0.0000   0.1931
  -8.700  -0.6193   0.05940   0.05651  -0.0302  1.0000  0.0309  -2.8007   0.0000   0.0000   0.0000   0.1942
  -8.600  -0.6201   0.05810   0.05516  -0.0297  1.0000  0.0309  -2.7924   0.0000   0.0000   0.0000   0.1953
  -8.500  -0.6206   0.05683   0.05384  -0.0290  1.0000  0.0309  -2.7819   0.0000   0.0000   0.0000   0.1964
  -8.400  -0.6207   0.05559   0.05254  -0.0283  1.0000  0.0309  -2.7695   0.0000   0.0000   0.0000   0.1976
  -8.300  -0.6206   0.05438   0.05127  -0.0276  1.0000  0.0309  -2.7554   0.0000   0.0000   0.0000   0.1989
  -8.200  -0.6202   0.05320   0.05004  -0.0267  1.0000  0.0309  -2.7396   0.0000   0.0000   0.0000   0.2003
  -8.100  -0.6198   0.05205   0.04883  -0.0258  1.0000  0.0309  -2.7225   0.0000   0.0000   0.0000   0.2019
  -8.000  -0.6193   0.05094   0.04767  -0.0248  1.0000  0.0309  -2.7043   0.0000   0.0000   0.0000   0.2035
  -7.900  -0.6186   0.04986   0.04653  -0.0238  1.0000  0.0309  -2.6849   0.0000   0.0000   0.0000   0.2052
  -7.800  -0.6178   0.04880   0.04541  -0.0227  1.0000  0.0310  -2.6642   0.0000   0.0000   0.0000   0.2069
  -7.700  -0.6168   0.04776   0.04431  -0.0216  1.0000  0.0310  -2.6426   0.0000   0.0000   0.0000   0.2087
  -7.600  -0.6158   0.04675   0.04325  -0.0205  1.0000  0.0310  -2.6312   0.0000   0.0000   0.0000   0.2106
  -7.400  -0.6466   0.03870   0.03474  -0.0150  1.0000  0.0317  -2.9015   0.0000   0.0000   0.0000   0.2207
  -7.300  -0.6510   0.03650   0.03240  -0.0132  1.0000  0.0320  -2.9487   0.0000   0.0000   0.0000   0.2238
  -7.200  -0.6509   0.03509   0.03090  -0.0117  1.0000  0.0321  -2.9599   0.0000   0.0000   0.0000   0.2261
  -7.100  -0.6499   0.03385   0.02956  -0.0103  1.0000  0.0322  -2.9637   0.0000   0.0000   0.0000   0.2283
  -6.100  -0.5490   0.02319   0.01810  -0.0111  0.9921  0.0292  -2.7799   0.0000   0.0000   0.0000   0.2242
  -6.000  -0.5380   0.02124   0.01596  -0.0112  0.9911  0.0285  -2.8142   0.0000   0.0000   0.0000   0.2234
  -5.900  -0.5254   0.01985   0.01443  -0.0116  0.9903  0.0280  -2.8203   0.0000   0.0000   0.0000   0.2223
  -5.800  -0.5121   0.01869   0.01315  -0.0120  0.9896  0.0277  -2.8147   0.0000   0.0000   0.0000   0.2208
  -5.700  -0.4991   0.01769   0.01206  -0.0124  0.9885  0.0273  -2.8023   0.0000   0.0000   0.0000   0.2195
  -5.600  -0.4868   0.01683   0.01113  -0.0125  0.9868  0.0271  -2.7857   0.0000   0.0000   0.0000   0.2185
  -5.500  -0.4740   0.01605   0.01028  -0.0128  0.9852  0.0269  -2.7648   0.0000   0.0000   0.0000   0.2172
  -5.400  -0.4608   0.01533   0.00950  -0.0132  0.9837  0.0268  -2.7405   0.0000   0.0000   0.0000   0.2156
  -5.300  -0.4475   0.01469   0.00881  -0.0136  0.9824  0.0268  -2.7136   0.0000   0.0000   0.0000   0.2139
  -5.200  -0.4344   0.01404   0.00801  -0.0139  0.9811  0.0270  -2.7017   0.0000   0.0000   0.0000   0.2122
  -5.100  -0.4208   0.01350   0.00742  -0.0144  0.9799  0.0271  -2.6690   0.0000   0.0000   0.0000   0.2100
  -5.000  -0.4067   0.01300   0.00689  -0.0150  0.9788  0.0274  -2.6333   0.0000   0.0000   0.0000   0.2074
  -4.900  -0.3922   0.01256   0.00641  -0.0157  0.9778  0.0279  -2.5951   0.0000   0.0000   0.0000   0.2042
  -4.800  -0.3773   0.01219   0.00600  -0.0164  0.9767  0.0287  -2.5532   0.0000   0.0000   0.0000   0.2006
  -4.700  -0.3625   0.01198   0.00577  -0.0171  0.9753  0.0296  -2.5006   0.0000   0.0000   0.0000   0.1968
  -4.600  -0.3511   0.01193   0.00574  -0.0171  0.9715  0.0303  -2.4420   0.0000   0.0000   0.0000   0.1955
  -4.500  -0.3415   0.01127   0.00507  -0.0168  0.9679  0.0382  -2.4457   0.0000   0.0000   0.0000   0.1949
  -4.400  -0.3277   0.01120   0.00503  -0.0173  0.9650  0.0402  -2.3735   0.0000   0.0000   0.0000   0.1913
  -4.300  -0.3136   0.01111   0.00496  -0.0179  0.9618  0.0417  -2.3007   0.0000   0.0000   0.0000   0.1870
  -4.200  -0.2988   0.01101   0.00486  -0.0186  0.9586  0.0431  -2.2281   0.0000   0.0000   0.0000   0.1819
  -4.100  -0.2871   0.01090   0.00475  -0.0186  0.9535  0.0441  -2.1652   0.0000   0.0000   0.0000   0.1793
  -4.000  -0.2770   0.01080   0.00464  -0.0182  0.9466  0.0450  -2.1074   0.0000   0.0000   0.0000   0.1781
  -3.900  -0.2651   0.01069   0.00451  -0.0183  0.9407  0.0458  -2.0456   0.0000   0.0000   0.0000   0.1751
  -3.800  -0.2529   0.01057   0.00438  -0.0184  0.9356  0.0466  -1.9835   0.0000   0.0000   0.0000   0.1713
  -3.700  -0.2421   0.01048   0.00427  -0.0182  0.9301  0.0472  -1.9259   0.0000   0.0000   0.0000   0.1688
  -3.600  -0.2321   0.01038   0.00417  -0.0178  0.9234  0.0477  -1.8706   0.0000   0.0000   0.0000   0.1670
  -3.500  -0.2215   0.01029   0.00406  -0.0176  0.9167  0.0483  -1.8142   0.0000   0.0000   0.0000   0.1644
  -3.400  -0.2106   0.01021   0.00396  -0.0174  0.9102  0.0487  -1.7573   0.0000   0.0000   0.0000   0.1611
  -3.300  -0.1997   0.01014   0.00386  -0.0172  0.9043  0.0491  -1.7005   0.0000   0.0000   0.0000   0.1574
  -3.200  -0.1893   0.01007   0.00379  -0.0170  0.8981  0.0495  -1.6457   0.0000   0.0000   0.0000   0.1539
  -3.100  -0.1788   0.01001   0.00372  -0.0167  0.8910  0.0497  -1.5907   0.0000   0.0000   0.0000   0.1498
  -3.000  -0.1699   0.00964   0.00326  -0.0161  0.8835  0.0548  -1.5595   0.0000   0.0000   0.0000   0.1485
  -2.900  -0.1601   0.00945   0.00308  -0.0157  0.8761  0.0621  -1.5140   0.0000   0.0000   0.0000   0.1449
  -2.800  -0.1496   0.00937   0.00300  -0.0155  0.8693  0.0663  -1.4609   0.0000   0.0000   0.0000   0.1394
  -2.700  -0.1390   0.00931   0.00293  -0.0153  0.8620  0.0693  -1.4077   0.0000   0.0000   0.0000   0.1327
  -2.600  -0.1284   0.00926   0.00286  -0.0151  0.8536  0.0712  -1.3544   0.0000   0.0000   0.0000   0.1250
  -2.500  -0.1177   0.00924   0.00280  -0.0149  0.8449  0.0724  -1.3010   0.0000   0.0000   0.0000   0.1161
  -2.300  -0.0975   0.00897   0.00255  -0.0143  0.8283  0.0913  -1.2069   0.0000   0.0000   0.0000   0.0955
  -2.200  -0.0871   0.00888   0.00247  -0.0141  0.8185  0.0992  -1.1567   0.0000   0.0000   0.0000   0.0803
  -2.100  -0.0776   0.00870   0.00236  -0.0137  0.8072  0.1271  -1.1099   0.0000   0.0000   0.0000   0.0647
  -2.000  -0.0728   0.00789   0.00213  -0.0128  0.7960  0.2954  -1.0752   0.0000   0.0000   0.0000   0.0646
  -1.900  -0.0653   0.00744   0.00205  -0.0123  0.7869  0.3910  -1.0328   0.0000   0.0000   0.0000   0.0519
  -1.800  -0.0567   0.00718   0.00199  -0.0118  0.7758  0.4526  -0.9876   0.0000   0.0000   0.0000   0.0310
  -1.700  -0.0479   0.00700   0.00195  -0.0113  0.7636  0.4999  -0.9419   0.0000   0.0000   0.0000   0.0023
  -1.500  -0.0297   0.00672   0.00189  -0.0104  0.7434  0.5776  -0.8499   0.0000   0.0000   0.0000  -0.1151
  -1.400  -0.0198   0.00663   0.00188  -0.0101  0.7339  0.6086  -0.8196   0.0000   0.0000   0.0000  -0.2785
  -1.300  -0.0108   0.00651   0.00184  -0.0095  0.7232  0.6469  -0.7955   0.0000   0.0000   0.0000  -0.6635
  -1.200  -0.0013   0.00647   0.00182  -0.0091  0.7116  0.6686  -0.7639   0.0000   0.0000   0.0000  -7.1755
  -1.100   0.0085   0.00643   0.00182  -0.0087  0.7016  0.6934  -0.7322   0.0000   0.0000   0.0000   1.3054
  -1.000   0.0184   0.00636   0.00182  -0.0083  0.6934  0.7175  -0.7005   0.0000   0.0000   0.0000   0.7134
  -0.900   0.0282   0.00631   0.00183  -0.0079  0.6833  0.7414  -0.6691   0.0000   0.0000   0.0000   0.5354
  -0.800   0.0381   0.00630   0.00183  -0.0075  0.6719  0.7594  -0.6380   0.0000   0.0000   0.0000   0.4498
  -0.700   0.0477   0.00631   0.00183  -0.0070  0.6594  0.7770  -0.6075   0.0000   0.0000   0.0000   0.3987
  -0.600   0.0583   0.00632   0.00183  -0.0068  0.6506  0.7894  -0.5962   0.0000   0.0000   0.0000   0.3671
  -0.500   0.0689   0.00631   0.00184  -0.0066  0.6417  0.8005  -0.6088   0.0000   0.0000   0.0000   0.3450
  -0.400   0.0791   0.00631   0.00185  -0.0063  0.6309  0.8128  -0.6212   0.0000   0.0000   0.0000   0.3279
  -0.300   0.0893   0.00636   0.00185  -0.0059  0.6189  0.8240  -0.6336   0.0000   0.0000   0.0000   0.3149
  -0.100   0.1102   0.00641   0.00187  -0.0054  0.5981  0.8431  -0.6588   0.0000   0.0000   0.0000   0.2970
   0.000   0.1206   0.00643   0.00189  -0.0051  0.5888  0.8545  -0.6715   0.0000   0.0000   0.0000   0.2900
   0.100   0.1307   0.00647   0.00191  -0.0048  0.5777  0.8662  -0.6841   0.0000   0.0000   0.0000   0.2839
   0.200   0.1407   0.00653   0.00193  -0.0044  0.5651  0.8764  -0.6965   0.0000   0.0000   0.0000   0.2784
   0.300   0.1508   0.00659   0.00197  -0.0040  0.5525  0.8866  -0.7098   0.0000   0.0000   0.0000   0.2736
   0.400   0.1612   0.00663   0.00200  -0.0037  0.5454  0.8972  -0.7253   0.0000   0.0000   0.0000   0.2697
   0.500   0.1712   0.00667   0.00202  -0.0033  0.5359  0.9069  -0.7406   0.0000   0.0000   0.0000   0.2660
   0.600   0.1819   0.00675   0.00208  -0.0030  0.5245  0.9164  -0.7565   0.0000   0.0000   0.0000   0.2629
   0.700   0.1915   0.00685   0.00212  -0.0025  0.5114  0.9258  -0.7716   0.0000   0.0000   0.0000   0.2595
   0.800   0.2007   0.00693   0.00215  -0.0019  0.4993  0.9335  -0.7863   0.0000   0.0000   0.0000   0.2561
   0.900   0.2133   0.00699   0.00219  -0.0021  0.4902  0.9380  -0.8039   0.0000   0.0000   0.0000   0.2563
   1.000   0.2254   0.00707   0.00222  -0.0022  0.4774  0.9421  -0.8211   0.0000   0.0000   0.0000   0.2561
   1.100   0.2365   0.00719   0.00225  -0.0021  0.4621  0.9463  -0.8375   0.0000   0.0000   0.0000   0.2552
   1.200   0.2471   0.00729   0.00228  -0.0020  0.4474  0.9509  -0.8535   0.0000   0.0000   0.0000   0.2541
   1.300   0.2568   0.00734   0.00231  -0.0016  0.4394  0.9560  -0.8689   0.0000   0.0000   0.0000   0.2521
   1.400   0.2702   0.00742   0.00234  -0.0020  0.4278  0.9586  -0.8874   0.0000   0.0000   0.0000   0.2533
   1.500   0.2838   0.00754   0.00238  -0.0025  0.4145  0.9608  -0.9062   0.0000   0.0000   0.0000   0.2547
   1.600   0.2973   0.00766   0.00242  -0.0030  0.3986  0.9631  -0.9247   0.0000   0.0000   0.0000   0.2559
   1.700   0.3112   0.00772   0.00246  -0.0036  0.3914  0.9654  -0.9438   0.0000   0.0000   0.0000   0.2572
   1.800   0.3246   0.00780   0.00250  -0.0040  0.3822  0.9677  -0.9626   0.0000   0.0000   0.0000   0.2581
   1.900   0.3374   0.00790   0.00253  -0.0044  0.3710  0.9702  -0.9808   0.0000   0.0000   0.0000   0.2586
   2.000   0.3491   0.00802   0.00257  -0.0045  0.3578  0.9730  -0.9982   0.0000   0.0000   0.0000   0.2585
   2.100   0.3609   0.00812   0.00262  -0.0046  0.3458  0.9758  -1.0157   0.0000   0.0000   0.0000   0.2584
   2.200   0.3769   0.00819   0.00266  -0.0057  0.3393  0.9767  -1.0369   0.0000   0.0000   0.0000   0.2605
   2.300   0.3928   0.00827   0.00270  -0.0067  0.3305  0.9776  -1.0581   0.0000   0.0000   0.0000   0.2625
   2.400   0.4084   0.00839   0.00277  -0.0077  0.3202  0.9786  -1.0792   0.0000   0.0000   0.0000   0.2643
   2.500   0.4236   0.00852   0.00282  -0.0087  0.3076  0.9797  -1.0998   0.0000   0.0000   0.0000   0.2658
   2.600   0.4387   0.00862   0.00288  -0.0095  0.2973  0.9809  -1.1202   0.0000   0.0000   0.0000   0.2670
   2.700   0.4536   0.00866   0.00291  -0.0104  0.2939  0.9821  -1.1408   0.0000   0.0000   0.0000   0.2680
   2.800   0.4680   0.00873   0.00295  -0.0111  0.2894  0.9835  -1.1611   0.0000   0.0000   0.0000   0.2688
   2.900   0.4820   0.00880   0.00299  -0.0117  0.2841  0.9850  -1.1811   0.0000   0.0000   0.0000   0.2694
   3.000   0.4958   0.00889   0.00303  -0.0123  0.2785  0.9867  -1.2052   0.0000   0.0000   0.0000   0.2699
   3.100   0.5090   0.00900   0.00308  -0.0128  0.2723  0.9886  -1.2290   0.0000   0.0000   0.0000   0.2701
   3.200   0.5240   0.00911   0.00314  -0.0137  0.2641  0.9897  -1.2546   0.0000   0.0000   0.0000   0.2710
   3.300   0.5392   0.00924   0.00322  -0.0146  0.2549  0.9905  -1.2802   0.0000   0.0000   0.0000   0.2719
   3.400   0.5546   0.00931   0.00327  -0.0156  0.2509  0.9915  -1.3065   0.0000   0.0000   0.0000   0.2728
   3.500   0.5699   0.00933   0.00330  -0.0165  0.2496  0.9925  -1.3333   0.0000   0.0000   0.0000   0.2736
   3.600   0.5848   0.00936   0.00333  -0.0173  0.2479  0.9936  -1.3599   0.0000   0.0000   0.0000   0.2742
   3.700   0.5993   0.00940   0.00337  -0.0181  0.2458  0.9947  -1.3860   0.0000   0.0000   0.0000   0.2747
   3.800   0.6138   0.00946   0.00341  -0.0189  0.2434  0.9958  -1.4121   0.0000   0.0000   0.0000   0.2751
   3.900   0.6284   0.00952   0.00346  -0.0196  0.2407  0.9969  -1.4384   0.0000   0.0000   0.0000   0.2756
   4.000   0.6434   0.00958   0.00350  -0.0205  0.2377  0.9978  -1.4654   0.0000   0.0000   0.0000   0.2761
   4.100   0.6585   0.00965   0.00354  -0.0214  0.2344  0.9987  -1.4926   0.0000   0.0000   0.0000   0.2767
   4.200   0.6736   0.00973   0.00359  -0.0224  0.2307  0.9996  -1.5197   0.0000   0.0000   0.0000   0.2772
   4.300   0.6853   0.00982   0.00364  -0.0226  0.2270  1.0000  -1.5432   0.0000   0.0000   0.0000   0.2769
   4.400   0.6942   0.00990   0.00371  -0.0222  0.2230  1.0000  -1.5635   0.0000   0.0000   0.0000   0.2759
   4.500   0.7031   0.01001   0.00379  -0.0218  0.2187  1.0000  -1.5867   0.0000   0.0000   0.0000   0.2748
   4.600   0.7118   0.01012   0.00389  -0.0214  0.2142  1.0000  -1.6116   0.0000   0.0000   0.0000   0.2737
   4.700   0.7204   0.01027   0.00403  -0.0210  0.2098  1.0000  -1.6360   0.0000   0.0000   0.0000   0.2727
   4.800   0.7293   0.01037   0.00414  -0.0205  0.2074  1.0000  -1.6613   0.0000   0.0000   0.0000   0.2717
   4.900   0.7386   0.01040   0.00418  -0.0202  0.2071  1.0000  -1.6882   0.0000   0.0000   0.0000   0.2707
   5.000   0.7478   0.01043   0.00422  -0.0199  0.2067  1.0000  -1.7151   0.0000   0.0000   0.0000   0.2699
   5.100   0.7571   0.01047   0.00426  -0.0195  0.2062  1.0000  -1.7422   0.0000   0.0000   0.0000   0.2690
   5.200   0.7664   0.01050   0.00430  -0.0192  0.2056  1.0000  -1.7693   0.0000   0.0000   0.0000   0.2681
   5.300   0.7757   0.01054   0.00435  -0.0188  0.2050  1.0000  -1.7966   0.0000   0.0000   0.0000   0.2673
   5.400   0.7850   0.01058   0.00440  -0.0185  0.2041  1.0000  -1.8240   0.0000   0.0000   0.0000   0.2664
   5.500   0.7943   0.01062   0.00444  -0.0181  0.2031  1.0000  -1.8517   0.0000   0.0000   0.0000   0.2656
   5.600   0.8036   0.01066   0.00448  -0.0178  0.2018  1.0000  -1.8795   0.0000   0.0000   0.0000   0.2648
   5.700   0.8130   0.01068   0.00461  -0.0175  0.1997  1.0000  -1.9033   0.0000   0.0000   0.0000   0.2641
   5.800   0.8222   0.01073   0.00467  -0.0171  0.1980  1.0000  -1.9296   0.0000   0.0000   0.0000   0.2633
   5.900   0.8314   0.01080   0.00474  -0.0167  0.1963  1.0000  -1.9663   0.0000   0.0000   0.0000   0.2625
   6.000   0.8405   0.01087   0.00480  -0.0164  0.1945  1.0000  -2.0029   0.0000   0.0000   0.0000   0.2617
   6.100   0.8496   0.01094   0.00487  -0.0160  0.1926  1.0000  -2.0394   0.0000   0.0000   0.0000   0.2609
   6.200   0.8586   0.01102   0.00494  -0.0156  0.1906  1.0000  -2.0758   0.0000   0.0000   0.0000   0.2602
   6.300   0.8676   0.01110   0.00501  -0.0152  0.1885  1.0000  -2.1122   0.0000   0.0000   0.0000   0.2594
   6.400   0.8765   0.01119   0.00508  -0.0148  0.1861  1.0000  -2.1486   0.0000   0.0000   0.0000   0.2587
   6.500   0.8853   0.01130   0.00517  -0.0144  0.1835  1.0000  -2.1848   0.0000   0.0000   0.0000   0.2579
   6.600   0.8940   0.01142   0.00527  -0.0140  0.1802  1.0000  -2.2207   0.0000   0.0000   0.0000   0.2572
   6.700   0.9024   0.01156   0.00540  -0.0135  0.1758  1.0000  -2.2561   0.0000   0.0000   0.0000   0.2564
   6.800   0.9104   0.01176   0.00559  -0.0129  0.1708  1.0000  -2.2902   0.0000   0.0000   0.0000   0.2555
   6.900   0.9182   0.01200   0.00584  -0.0123  0.1662  1.0000  -2.3331   0.0000   0.0000   0.0000   0.2547
   7.000   0.9281   0.01200   0.00585  -0.0121  0.1658  1.0000  -2.3857   0.0000   0.0000   0.0000   0.2541
   7.100   0.9379   0.01201   0.00586  -0.0119  0.1653  1.0000  -2.4387   0.0000   0.0000   0.0000   0.2536
   7.200   0.9477   0.01203   0.00589  -0.0116  0.1647  1.0000  -2.4919   0.0000   0.0000   0.0000   0.2531
   7.300   0.9575   0.01205   0.00593  -0.0114  0.1638  1.0000  -2.5453   0.0000   0.0000   0.0000   0.2526
   7.400   0.9672   0.01209   0.00597  -0.0111  0.1628  1.0000  -2.5988   0.0000   0.0000   0.0000   0.2521
   7.500   0.9768   0.01213   0.00603  -0.0109  0.1614  1.0000  -2.6525   0.0000   0.0000   0.0000   0.2516
   7.600   0.9864   0.01219   0.00609  -0.0106  0.1599  1.0000  -2.7063   0.0000   0.0000   0.0000   0.2511
   7.700   0.9958   0.01226   0.00616  -0.0103  0.1581  1.0000  -2.7601   0.0000   0.0000   0.0000   0.2505
   7.800   1.0052   0.01234   0.00624  -0.0100  0.1562  1.0000  -2.8138   0.0000   0.0000   0.0000   0.2500
   7.900   1.0144   0.01242   0.00633  -0.0097  0.1542  1.0000  -2.8677   0.0000   0.0000   0.0000   0.2495
   8.000   1.0236   0.01252   0.00641  -0.0093  0.1521  1.0000  -2.9218   0.0000   0.0000   0.0000   0.2489
   8.100   1.0328   0.01262   0.00650  -0.0090  0.1498  1.0000  -2.9761   0.0000   0.0000   0.0000   0.2484
   8.200   1.0419   0.01273   0.00659  -0.0087  0.1473  1.0000  -3.0305   0.0000   0.0000   0.0000   0.2479
   8.300   1.0509   0.01285   0.00669  -0.0083  0.1445  1.0000  -3.0849   0.0000   0.0000   0.0000   0.2474
   8.400   1.0598   0.01299   0.00681  -0.0080  0.1414  1.0000  -3.1393   0.0000   0.0000   0.0000   0.2468
   8.500   1.0686   0.01314   0.00695  -0.0076  0.1378  1.0000  -3.1933   0.0000   0.0000   0.0000   0.2463
   8.600   1.0771   0.01332   0.00712  -0.0072  0.1339  1.0000  -3.2467   0.0000   0.0000   0.0000   0.2457
   8.700   1.0854   0.01353   0.00734  -0.0067  0.1301  1.0000  -3.2990   0.0000   0.0000   0.0000   0.2451
   8.800   1.0940   0.01371   0.00754  -0.0063  0.1275  1.0000  -3.3530   0.0000   0.0000   0.0000   0.2445
   8.900   1.1040   0.01376   0.00761  -0.0062  0.1271  1.0000  -3.4128   0.0000   0.0000   0.0000   0.2442
   9.000   1.1139   0.01382   0.00769  -0.0060  0.1266  1.0000  -3.4729   0.0000   0.0000   0.0000   0.2439
   9.100   1.1234   0.01393   0.00792  -0.0057  0.1263  1.0000  -3.5458   0.0000   0.0000   0.0000   0.2434
   9.200   1.1333   0.01400   0.00801  -0.0056  0.1256  1.0000  -3.6233   0.0000   0.0000   0.0000   0.2431
   9.300   1.1436   0.01403   0.00804  -0.0055  0.1238  1.0000  -3.7078   0.0000   0.0000   0.0000   0.2428
   9.400   1.1534   0.01410   0.00810  -0.0053  0.1210  1.0000  -3.7915   0.0000   0.0000   0.0000   0.2425
   9.500   1.1627   0.01421   0.00819  -0.0051  0.1175  1.0000  -3.8738   0.0000   0.0000   0.0000   0.2421
   9.600   1.1717   0.01436   0.00831  -0.0048  0.1139  1.0000  -3.9552   0.0000   0.0000   0.0000   0.2417
   9.700   1.1805   0.01452   0.00844  -0.0045  0.1104  1.0000  -4.0363   0.0000   0.0000   0.0000   0.2413
   9.800   1.1892   0.01470   0.00858  -0.0042  0.1066  1.0000  -4.1172   0.0000   0.0000   0.0000   0.2408
   9.900   1.1977   0.01491   0.00875  -0.0039  0.1021  1.0000  -4.1976   0.0000   0.0000   0.0000   0.2404
  10.000   1.2061   0.01512   0.00896  -0.0035  0.0974  1.0000  -4.2778   0.0000   0.0000   0.0000   0.2399
  10.100   1.2142   0.01534   0.00920  -0.0031  0.0931  1.0000  -4.3567   0.0000   0.0000   0.0000   0.2394
  10.200   1.2236   0.01546   0.00934  -0.0029  0.0922  1.0000  -4.4437   0.0000   0.0000   0.0000   0.2390
  10.300   1.2332   0.01557   0.00947  -0.0027  0.0914  1.0000  -4.5319   0.0000   0.0000   0.0000   0.2387
  10.400   1.2425   0.01569   0.00962  -0.0025  0.0904  1.0000  -4.6199   0.0000   0.0000   0.0000   0.2383
  10.500   1.2515   0.01583   0.00977  -0.0022  0.0888  1.0000  -4.7073   0.0000   0.0000   0.0000   0.2380
  10.600   1.2604   0.01600   0.00994  -0.0019  0.0867  1.0000  -4.7942   0.0000   0.0000   0.0000   0.2376
  10.700   1.2689   0.01618   0.01011  -0.0016  0.0841  1.0000  -4.8802   0.0000   0.0000   0.0000   0.2372
  10.800   1.2770   0.01640   0.01031  -0.0013  0.0811  1.0000  -4.9651   0.0000   0.0000   0.0000   0.2367
  10.900   1.2848   0.01665   0.01051  -0.0009  0.0777  1.0000  -5.0486   0.0000   0.0000   0.0000   0.2363
  11.000   1.2923   0.01691   0.01074  -0.0005  0.0740  1.0000  -5.1313   0.0000   0.0000   0.0000   0.2358
  11.100   1.2999   0.01718   0.01098  -0.0000  0.0695  1.0000  -5.2139   0.0000   0.0000   0.0000   0.2353
  11.200   1.3073   0.01746   0.01126   0.0004  0.0650  1.0000  -5.2952   0.0000   0.0000   0.0000   0.2348
  11.300   1.3149   0.01770   0.01153   0.0009  0.0622  1.0000  -5.3786   0.0000   0.0000   0.0000   0.2343
  11.400   1.3236   0.01786   0.01171   0.0011  0.0616  1.0000  -5.4698   0.0000   0.0000   0.0000   0.2339
  11.500   1.3320   0.01803   0.01191   0.0015  0.0607  1.0000  -5.5597   0.0000   0.0000   0.0000   0.2335
  11.600   1.3400   0.01824   0.01213   0.0018  0.0593  1.0000  -5.6481   0.0000   0.0000   0.0000   0.2331
  11.700   1.3476   0.01847   0.01237   0.0022  0.0574  1.0000  -5.7348   0.0000   0.0000   0.0000   0.2326
  11.800   1.3546   0.01874   0.01263   0.0027  0.0551  1.0000  -5.8192   0.0000   0.0000   0.0000   0.2321
  11.900   1.3609   0.01906   0.01292   0.0032  0.0525  1.0000  -5.9003   0.0000   0.0000   0.0000   0.2315
  12.000   1.3667   0.01942   0.01324   0.0038  0.0497  1.0000  -5.9782   0.0000   0.0000   0.0000   0.2309
  12.100   1.3721   0.01981   0.01359   0.0045  0.0463  1.0000  -6.0541   0.0000   0.0000   0.0000   0.2303
  12.200   1.3774   0.02020   0.01397   0.0052  0.0420  1.0000  -6.1275   0.0000   0.0000   0.0000   0.2296
  12.300   1.3809   0.02069   0.01448   0.0062  0.0377  1.0000  -6.1871   0.0000   0.0000   0.0000   0.2288
  12.400   1.3885   0.02087   0.01469   0.0065  0.0374  1.0000  -6.2782   0.0000   0.0000   0.0000   0.2283
  12.500   1.3942   0.02114   0.01508   0.0072  0.0369  1.0000  -6.3660   0.0000   0.0000   0.0000   0.2277
  12.600   1.4001   0.02139   0.01535   0.0079  0.0362  1.0000  -6.4488   0.0000   0.0000   0.0000   0.2271
  12.700   1.4051   0.02168   0.01567   0.0086  0.0351  1.0000  -6.5264   0.0000   0.0000   0.0000   0.2264
  12.800   1.4090   0.02203   0.01603   0.0095  0.0338  1.0000  -6.5972   0.0000   0.0000   0.0000   0.2256
  12.900   1.4120   0.02244   0.01645   0.0105  0.0325  1.0000  -6.6627   0.0000   0.0000   0.0000   0.2248
  13.000   1.4146   0.02289   0.01690   0.0114  0.0312  1.0000  -6.7248   0.0000   0.0000   0.0000   0.2239
  13.100   1.4166   0.02338   0.01740   0.0124  0.0300  1.0000  -6.7841   0.0000   0.0000   0.0000   0.2230
  13.200   1.4184   0.02390   0.01792   0.0134  0.0289  1.0000  -6.8411   0.0000   0.0000   0.0000   0.2222
  13.300   1.4199   0.02444   0.01847   0.0143  0.0279  1.0000  -6.8966   0.0000   0.0000   0.0000   0.2214
  13.400   1.4212   0.02500   0.01905   0.0152  0.0269  1.0000  -6.9498   0.0000   0.0000   0.0000   0.2205
  13.500   1.4225   0.02558   0.01967   0.0161  0.0261  1.0000  -7.0021   0.0000   0.0000   0.0000   0.2197
  13.600   1.4234   0.02621   0.02034   0.0169  0.0252  1.0000  -7.0517   0.0000   0.0000   0.0000   0.2189
  13.700   1.4241   0.02687   0.02105   0.0177  0.0245  1.0000  -7.0996   0.0000   0.0000   0.0000   0.2182
  13.800   1.4243   0.02759   0.02182   0.0184  0.0238  1.0000  -7.1444   0.0000   0.0000   0.0000   0.2175
  13.900   1.4240   0.02837   0.02266   0.0191  0.0232  1.0000  -7.1857   0.0000   0.0000   0.0000   0.2168
  14.000   1.4233   0.02922   0.02358   0.0198  0.0226  1.0000  -7.2233   0.0000   0.0000   0.0000   0.2161
  14.100   1.4216   0.03016   0.02460   0.0203  0.0221  1.0000  -7.2550   0.0000   0.0000   0.0000   0.2155
  14.200   1.4191   0.03117   0.02568   0.0209  0.0215  1.0000  -7.2813   0.0000   0.0000   0.0000   0.2149
  14.300   1.4155   0.03233   0.02692   0.0213  0.0211  1.0000  -7.2995   0.0000   0.0000   0.0000   0.2143
  14.400   1.4113   0.03362   0.02830   0.0216  0.0206  1.0000  -7.3123   0.0000   0.0000   0.0000   0.2138
  14.500   1.4056   0.03514   0.02992   0.0218  0.0201  1.0000  -7.3144   0.0000   0.0000   0.0000   0.2134
  14.600   1.3987   0.03687   0.03176   0.0218  0.0196  1.0000  -7.3061   0.0000   0.0000   0.0000   0.2131
  14.700   1.3901   0.03890   0.03390   0.0216  0.0192  1.0000  -7.2836   0.0000   0.0000   0.0000   0.2129
  14.800   1.3954   0.03942   0.03441   0.0214  0.0191  1.0000  -7.3697   0.0000   0.0000   0.0000   0.2128
  14.900   1.4018   0.03983   0.03482   0.0213  0.0190  1.0000  -7.4644   0.0000   0.0000   0.0000   0.2128
  15.000   1.4079   0.04028   0.03527   0.0211  0.0189  1.0000  -7.5584   0.0000   0.0000   0.0000   0.2128
  15.100   1.4142   0.04072   0.03571   0.0209  0.0188  1.0000  -7.6534   0.0000   0.0000   0.0000   0.2128
  15.200   1.4205   0.04115   0.03613   0.0207  0.0187  1.0000  -7.7498   0.0000   0.0000   0.0000   0.2127
  15.300   1.4269   0.04157   0.03655   0.0206  0.0185  1.0000  -7.8468   0.0000   0.0000   0.0000   0.2127
  15.400   1.4330   0.04202   0.03699   0.0204  0.0183  1.0000  -7.9417   0.0000   0.0000   0.0000   0.2127
  15.500   1.4382   0.04257   0.03756   0.0202  0.0179  1.0000  -8.0287   0.0000   0.0000   0.0000   0.2126
  15.600   1.4417   0.04333   0.03832   0.0200  0.0174  1.0000  -8.1017   0.0000   0.0000   0.0000   0.2126
  15.700   1.4413   0.04461   0.03963   0.0195  0.0167  1.0000  -8.1418   0.0000   0.0000   0.0000   0.2127
  15.800   1.4380   0.04627   0.04133   0.0189  0.0159  1.0000  -8.1559   0.0000   0.0000   0.0000   0.2128
  15.900   1.4321   0.04828   0.04337   0.0181  0.0151  1.0000  -8.1469   0.0000   0.0000   0.0000   0.2130
  16.000   1.4239   0.05070   0.04585   0.0170  0.0147  1.0000  -8.1229   0.0000   0.0000   0.0000   0.2134
  16.100   1.4161   0.05301   0.04821   0.0161  0.0143  1.0000  -8.1004   0.0000   0.0000   0.0000   0.2138
  16.200   1.4067   0.05566   0.05094   0.0149  0.0142  1.0000  -8.0687   0.0000   0.0000   0.0000   0.2143
  16.300   1.3980   0.05811   0.05344   0.0138  0.0139  1.0000  -8.0402   0.0000   0.0000   0.0000   0.2147
  16.400   1.3878   0.06077   0.05617   0.0127  0.0139  1.0000  -8.0035   0.0000   0.0000   0.0000   0.2153
  16.500   1.3778   0.06342   0.05889   0.0115  0.0138  1.0000  -7.9673   0.0000   0.0000   0.0000   0.2158
  16.600   1.3685   0.06601   0.06154   0.0105  0.0137  1.0000  -7.9332   0.0000   0.0000   0.0000   0.2163
  16.700   1.3573   0.06912   0.06471   0.0090  0.0137  1.0000  -7.8859   0.0000   0.0000   0.0000   0.2171
  16.800   1.3476   0.07190   0.06756   0.0077  0.0136  1.0000  -7.8472   0.0000   0.0000   0.0000   0.2177
  16.900   1.3379   0.07472   0.07044   0.0065  0.0135  1.0000  -7.8076   0.0000   0.0000   0.0000   0.2183
  17.000   1.3261   0.07806   0.07385   0.0048  0.0135  1.0000  -7.7523   0.0000   0.0000   0.0000   0.2193
  17.100   1.3163   0.08096   0.07680   0.0035  0.0135  1.0000  -7.7095   0.0000   0.0000   0.0000   0.2201
  17.200   1.3069   0.08382   0.07971   0.0022  0.0134  1.0000  -7.6676   0.0000   0.0000   0.0000   0.2208
  17.300   1.2951   0.08720   0.08317   0.0005  0.0134  1.0000  -7.6081   0.0000   0.0000   0.0000   0.2219
  17.400   1.2847   0.09032   0.08633  -0.0010  0.0134  1.0000  -7.5566   0.0000   0.0000   0.0000   0.2228
  17.500   1.2757   0.09315   0.08922  -0.0023  0.0133  1.0000  -7.5134   0.0000   0.0000   0.0000   0.2236
  17.600   1.2668   0.09597   0.09209  -0.0037  0.0133  1.0000  -7.4700   0.0000   0.0000   0.0000   0.2245
  17.700   1.2560   0.09920   0.09538  -0.0053  0.0133  1.0000  -7.4112   0.0000   0.0000   0.0000   0.2256
  17.800   1.2447   0.10256   0.09880  -0.0070  0.0133  1.0000  -7.3465   0.0000   0.0000   0.0000   0.2269
  17.900   1.2362   0.10534   0.10163  -0.0084  0.0132  1.0000  -7.3017   0.0000   0.0000   0.0000   0.2278
  18.000   1.2285   0.10798   0.10431  -0.0098  0.0131  1.0000  -7.2612   0.0000   0.0000   0.0000   0.2287
  18.100   1.2209   0.11062   0.10699  -0.0111  0.0130  1.0000  -7.2202   0.0000   0.0000   0.0000   0.2297
  18.200   1.2127   0.11337   0.10980  -0.0126  0.0130  1.0000  -7.1731   0.0000   0.0000   0.0000   0.2308
  18.300   1.1990   0.11726   0.11375  -0.0148  0.0131  1.0000  -7.0802   0.0000   0.0000   0.0000   0.2325
  18.400   1.1908   0.12005   0.11659  -0.0163  0.0130  1.0000  -7.0295   0.0000   0.0000   0.0000   0.2337
  18.500   1.1846   0.12245   0.11903  -0.0176  0.0129  1.0000  -6.9933   0.0000   0.0000   0.0000   0.2347
  18.600   1.1791   0.12472   0.12134  -0.0188  0.0128  1.0000  -6.9613   0.0000   0.0000   0.0000   0.2356
  18.700   1.1740   0.12682   0.12348  -0.0200  0.0127  1.0000  -6.9327   0.0000   0.0000   0.0000   0.2365
  18.800   1.1689   0.12883   0.12553  -0.0212  0.0126  1.0000  -6.9023   0.0000   0.0000   0.0000   0.2374
  18.900   1.1633   0.13092   0.12766  -0.0225  0.0126  1.0000  -6.8670   0.0000   0.0000   0.0000   0.2384
  19.000   1.1567   0.13326   0.13005  -0.0239  0.0125  1.0000  -6.8211   0.0000   0.0000   0.0000   0.2395
  19.100   1.1396   0.13778   0.13466  -0.0267  0.0126  1.0000  -6.6783   0.0000   0.0000   0.0000   0.2422
  19.200   1.1318   0.14063   0.13755  -0.0284  0.0126  1.0000  -6.6155   0.0000   0.0000   0.0000   0.2437
  19.300   1.1269   0.14294   0.13991  -0.0298  0.0125  1.0000  -6.5773   0.0000   0.0000   0.0000   0.2449
  19.400   1.1227   0.14516   0.14217  -0.0311  0.0125  1.0000  -6.5441   0.0000   0.0000   0.0000   0.2459
  19.500   1.1186   0.14738   0.14444  -0.0324  0.0124  1.0000  -6.5112   0.0000   0.0000   0.0000   0.2470
  19.600   1.1144   0.14967   0.14677  -0.0337  0.0124  1.0000  -6.4754   0.0000   0.0000   0.0000   0.2481
  19.700   1.1097   0.15211   0.14926  -0.0351  0.0123  1.0000  -6.4332   0.0000   0.0000   0.0000   0.2493
  19.800   1.1041   0.15482   0.15202  -0.0366  0.0123  1.0000  -6.3793   0.0000   0.0000   0.0000   0.2507
  19.900   1.0967   0.15803   0.15529  -0.0384  0.0123  1.0000  -6.3038   0.0000   0.0000   0.0000   0.2524
  20.000   1.0702   0.16608   0.16345  -0.0428  0.0125  1.0000  -6.0156   0.0000   0.0000   0.0000   0.2576
  20.100   1.0618   0.16979   0.16721  -0.0447  0.0125  1.0000  -5.9180   0.0000   0.0000   0.0000   0.2597
  20.200   1.0544   0.17332   0.17079  -0.0466  0.0125  1.0000  -5.8268   0.0000   0.0000   0.0000   0.2616
  20.300   1.0461   0.17718   0.17471  -0.0485  0.0125  1.0000  -5.7190   0.0000   0.0000   0.0000   0.2637
  20.400   1.0333   0.18236   0.17995  -0.0510  0.0125  1.0000  -5.5485   0.0000   0.0000   0.0000   0.2668
  21.300   0.8372   0.27755   0.27522  -0.0750  0.0190  1.0000  -1.7173   0.0000   0.0000   0.0000   0.3131
  21.400   0.8375   0.27971   0.27738  -0.0756  0.0190  1.0000  -1.7054   0.0000   0.0000   0.0000   0.3135
  21.500   0.8378   0.28185   0.27952  -0.0761  0.0190  1.0000  -1.6936   0.0000   0.0000   0.0000   0.3140
  21.600   0.8381   0.28397   0.28164  -0.0766  0.0190  1.0000  -1.6821   0.0000   0.0000   0.0000   0.3145
  21.700   0.8382   0.28607   0.28375  -0.0770  0.0190  1.0000  -1.6708   0.0000   0.0000   0.0000   0.3149
  21.800   0.8383   0.28815   0.28583  -0.0775  0.0190  1.0000  -1.6595   0.0000   0.0000   0.0000   0.3154
  21.900   0.8384   0.29021   0.28789  -0.0780  0.0190  1.0000  -1.6484   0.0000   0.0000   0.0000   0.3158
  22.000   0.8384   0.29224   0.28993  -0.0784  0.0190  1.0000  -1.6374   0.0000   0.0000   0.0000   0.3162
  22.100   0.8383   0.29425   0.29195  -0.0789  0.0190  1.0000  -1.6264   0.0000   0.0000   0.0000   0.3166
  22.200   0.8381   0.29624   0.29394  -0.0793  0.0190  1.0000  -1.6154   0.0000   0.0000   0.0000   0.3170
  22.300   0.8378   0.29819   0.29590  -0.0797  0.0190  1.0000  -1.6045   0.0000   0.0000   0.0000   0.3174
  22.400   0.8375   0.30011   0.29782  -0.0801  0.0190  1.0000  -1.5936   0.0000   0.0000   0.0000   0.3178
  22.500   0.8370   0.30200   0.29972  -0.0804  0.0190  1.0000  -1.5827   0.0000   0.0000   0.0000   0.3182
  22.600   0.8364   0.30386   0.30157  -0.0808  0.0190  1.0000  -1.5717   0.0000   0.0000   0.0000   0.3186
  22.700   0.8357   0.30567   0.30339  -0.0811  0.0190  1.0000  -1.5606   0.0000   0.0000   0.0000   0.3189
  22.800   0.8349   0.30743   0.30516  -0.0814  0.0190  1.0000  -1.5494   0.0000   0.0000   0.0000   0.3193
  22.900   0.8339   0.30914   0.30687  -0.0817  0.0190  1.0000  -1.5380   0.0000   0.0000   0.0000   0.3196
  23.000   0.8327   0.31079   0.30853  -0.0819  0.0190  1.0000  -1.5266   0.0000   0.0000   0.0000   0.3200
  23.100   0.8314   0.31237   0.31011  -0.0822  0.0190  1.0000  -1.5150   0.0000   0.0000   0.0000   0.3203
  23.200   0.8299   0.31387   0.31162  -0.0823  0.0189  1.0000  -1.5032   0.0000   0.0000   0.0000   0.3206
  23.300   0.8281   0.31528   0.31304  -0.0825  0.0189  1.0000  -1.4911   0.0000   0.0000   0.0000   0.3209
  23.400   0.8261   0.31658   0.31434  -0.0826  0.0189  1.0000  -1.4786   0.0000   0.0000   0.0000   0.3212
  23.500   0.8237   0.31776   0.31553  -0.0826  0.0189  1.0000  -1.4656   0.0000   0.0000   0.0000   0.3215
  23.600   0.8153   0.31722   0.31500  -0.0817  0.0189  1.0000  -1.4401   0.0000   0.0000   0.0000   0.3215
  23.700   0.7930   0.31218   0.30999  -0.0785  0.0189  1.0000  -1.3860   0.0000   0.0000   0.0000   0.3208
  23.800   0.7850   0.31110   0.30892  -0.0777  0.0189  1.0000  -1.3618   0.0000   0.0000   0.0000   0.3208
  23.900   0.7791   0.31060   0.30843  -0.0771  0.0189  1.0000  -1.3424   0.0000   0.0000   0.0000   0.3210
  24.000   0.7744   0.31036   0.30820  -0.0768  0.0189  1.0000  -1.3254   0.0000   0.0000   0.0000   0.3211
  24.100   0.7703   0.31028   0.30812  -0.0765  0.0189  1.0000  -1.3100   0.0000   0.0000   0.0000   0.3213
  24.200   0.7667   0.31030   0.30815  -0.0763  0.0189  1.0000  -1.2957   0.0000   0.0000   0.0000   0.3216
  24.300   0.7635   0.31039   0.30825  -0.0762  0.0188  1.0000  -1.2824   0.0000   0.0000   0.0000   0.3218
  24.400   0.7606   0.31053   0.30840  -0.0761  0.0188  1.0000  -1.2697   0.0000   0.0000   0.0000   0.3221
  24.500   0.7578   0.31072   0.30859  -0.0761  0.0188  1.0000  -1.2576   0.0000   0.0000   0.0000   0.3223
  24.600   0.7553   0.31094   0.30883  -0.0761  0.0188  1.0000  -1.2457   0.0000   0.0000   0.0000   0.3226
  24.700   0.7529   0.31120   0.30909  -0.0760  0.0188  1.0000  -1.2342   0.0000   0.0000   0.0000   0.3229
  24.800   0.7507   0.31148   0.30938  -0.0761  0.0188  1.0000  -1.2233   0.0000   0.0000   0.0000   0.3231
  24.900   0.7486   0.31179   0.30969  -0.0761  0.0188  1.0000  -1.2247   0.0000   0.0000   0.0000   0.3234
  25.000   0.7467   0.31211   0.31002  -0.0762  0.0188  1.0000  -1.2275   0.0000   0.0000   0.0000   0.3237
  25.100   0.7449   0.31245   0.31037  -0.0763  0.0187  1.0000  -1.2307   0.0000   0.0000   0.0000   0.3240
  25.200   0.7432   0.31280   0.31072  -0.0764  0.0187  1.0000  -1.2341   0.0000   0.0000   0.0000   0.3243
  25.300   0.7417   0.31315   0.31112  -0.0765  0.0187  1.0000  -1.2341   0.0000   0.0000   0.0000   0.3247
  25.400   0.7402   0.31352   0.31150  -0.0766  0.0187  1.0000  -1.2368   0.0000   0.0000   0.0000   0.3250
  25.500   0.7388   0.31390   0.31188  -0.0768  0.0187  1.0000  -1.2398   0.0000   0.0000   0.0000   0.3253
  25.600   0.7374   0.31429   0.31227  -0.0769  0.0186  1.0000  -1.2431   0.0000   0.0000   0.0000   0.3256
  25.700   0.7362   0.31468   0.31267  -0.0771  0.0186  1.0000  -1.2466   0.0000   0.0000   0.0000   0.3260
  25.800   0.7349   0.31508   0.31308  -0.0773  0.0186  1.0000  -1.2502   0.0000   0.0000   0.0000   0.3263
  25.900   0.7338   0.31549   0.31350  -0.0775  0.0186  1.0000  -1.2540   0.0000   0.0000   0.0000   0.3267
  26.000   0.7328   0.31591   0.31392  -0.0777  0.0185  1.0000  -1.2577   0.0000   0.0000   0.0000   0.3270
  26.100   0.7318   0.31633   0.31434  -0.0779  0.0185  1.0000  -1.2614   0.0000   0.0000   0.0000   0.3274
  26.200   0.7308   0.31675   0.31477  -0.0781  0.0185  1.0000  -1.2650   0.0000   0.0000   0.0000   0.3277
  26.300   0.7300   0.31718   0.31521  -0.0784  0.0184  1.0000  -1.2683   0.0000   0.0000   0.0000   0.3281
  26.400   0.7293   0.31761   0.31565  -0.0786  0.0184  1.0000  -1.2711   0.0000   0.0000   0.0000   0.3284
  26.500   0.7287   0.31805   0.31610  -0.0789  0.0183  1.0000  -1.2732   0.0000   0.0000   0.0000   0.3288
  26.600   0.7282   0.31850   0.31655  -0.0792  0.0182  1.0000  -1.2726   0.0000   0.0000   0.0000   0.3292
  26.700   0.7281   0.31899   0.31704  -0.0797  0.0180  1.0000  -1.2661   0.0000   0.0000   0.0000   0.3297
  26.800   0.7333   0.32025   0.31830  -0.0812  0.0157  1.0000  -1.2596   0.0000   0.0000   0.0000   0.3308
  26.900   0.7346   0.32083   0.31888  -0.0817  0.0128  1.0000  -1.2833   0.0000   0.0000   0.0000   0.3311
  27.000   0.7351   0.32104   0.31910  -0.0821  0.0114  1.0000  -1.3142   0.0000   0.0000   0.0000   0.3313
  27.100   0.7357   0.32117   0.31924  -0.0824  0.0105  1.0000  -1.3492   0.0000   0.0000   0.0000   0.3314
  27.200   0.7364   0.32125   0.31932  -0.0828  0.0099  1.0000  -1.3872   0.0000   0.0000   0.0000   0.3315
  27.300   0.7372   0.32129   0.31937  -0.0831  0.0094  1.0000  -1.4275   0.0000   0.0000   0.0000   0.3315
  27.400   0.7380   0.32130   0.31938  -0.0834  0.0090  1.0000  -1.4700   0.0000   0.0000   0.0000   0.3315
  27.500   0.7388   0.32128   0.31937  -0.0837  0.0087  1.0000  -1.5143   0.0000   0.0000   0.0000   0.3314
  27.600   0.7397   0.32123   0.31933  -0.0840  0.0085  1.0000  -1.5604   0.0000   0.0000   0.0000   0.3314
  27.700   0.7407   0.32115   0.31926  -0.0842  0.0083  1.0000  -1.6082   0.0000   0.0000   0.0000   0.3312
  27.800   0.7416   0.32105   0.31916  -0.0845  0.0081  1.0000  -1.6577   0.0000   0.0000   0.0000   0.3311
  27.900   0.7422   0.32098   0.31910  -0.0847  0.0078  1.0000  -1.7044   0.0000   0.0000   0.0000   0.3310
  28.000   0.7422   0.32086   0.31898  -0.0848  0.0075  1.0000  -1.7475   0.0000   0.0000   0.0000   0.3309
  28.100   0.7328   0.32341   0.32151  -0.0853  0.0058  1.0000  -1.5653   0.0000   0.0000   0.0000   0.3336
  28.200   0.7321   0.32431   0.32241  -0.0856  0.0055  1.0000  -1.5331   0.0000   0.0000   0.0000   0.3341
  28.300   0.7303   0.32531   0.32342  -0.0857  0.0053  1.0000  -1.4783   0.0000   0.0000   0.0000   0.3347
  28.400   0.7286   0.32616   0.32427  -0.0859  0.0053  1.0000  -1.4329   0.0000   0.0000   0.0000   0.3352
  28.500   0.7269   0.32692   0.32503  -0.0861  0.0053  1.0000  -1.3953   0.0000   0.0000   0.0000   0.3357
  28.600   0.7254   0.32761   0.32573  -0.0862  0.0054  1.0000  -1.3625   0.0000   0.0000   0.0000   0.3361
  28.700   0.7237   0.32825   0.32637  -0.0863  0.0055  1.0000  -1.3318   0.0000   0.0000   0.0000   0.3365
  28.800   0.7217   0.32885   0.32697  -0.0864  0.0057  1.0000  -1.2989   0.0000   0.0000   0.0000   0.3369
  28.900   0.7157   0.32970   0.32783  -0.0859  0.0063  1.0000  -1.1981   0.0000   0.0000   0.0000   0.3375
  29.000   0.7138   0.33043   0.32856  -0.0859  0.0064  1.0000  -1.1647   0.0000   0.0000   0.0000   0.3379
  29.100   0.7127   0.33110   0.32924  -0.0861  0.0065  1.0000  -1.1444   0.0000   0.0000   0.0000   0.3382
  29.200   0.7118   0.33176   0.32990  -0.0863  0.0065  1.0000  -1.1282   0.0000   0.0000   0.0000   0.3386
  29.300   0.7109   0.33241   0.33055  -0.0865  0.0065  1.0000  -1.1153   0.0000   0.0000   0.0000   0.3390
  29.400   0.7102   0.33305   0.33120  -0.0868  0.0065  1.0000  -1.1036   0.0000   0.0000   0.0000   0.3394
  29.500   0.7096   0.33368   0.33184  -0.0870  0.0065  1.0000  -1.0928   0.0000   0.0000   0.0000   0.3397
  29.600   0.7089   0.33432   0.33248  -0.0873  0.0065  1.0000  -1.0826   0.0000   0.0000   0.0000   0.3401
  29.700   0.7084   0.33495   0.33311  -0.0876  0.0065  1.0000  -1.0730   0.0000   0.0000   0.0000   0.3405
  29.800   0.7078   0.33558   0.33375  -0.0879  0.0065  1.0000  -1.0638   0.0000   0.0000   0.0000   0.3409
  29.900   0.7073   0.33621   0.33438  -0.0881  0.0065  1.0000  -1.0550   0.0000   0.0000   0.0000   0.3413
  30.000   0.7068   0.33684   0.33501  -0.0884  0.0065  1.0000  -1.0465   0.0000   0.0000   0.0000   0.3416


