xflr5 v6.61

 Calculated polar for: NACA 65(1)-212

 1 1 Reynolds number fixed          Mach number fixed         

 xtrf =   1.000 (top)        1.000 (bottom)
 Mach =   0.000     Re =     0.688 e 6     Ncrit =   9.000

  alpha     CL        CD       CDp       Cm    Top Xtr Bot Xtr   Cpmin    Chinge    XCp    
 ------- -------- --------- --------- -------- ------- ------- -------- --------- ---------
 -10.000  -0.8207   0.02222   0.01728  -0.0479  0.9857  0.0068  -7.4928   0.0000   0.0000   0.0000   0.1821
  -9.900  -0.8110   0.02184   0.01687  -0.0481  0.9835  0.0069  -7.3475   0.0000   0.0000   0.0000   0.1813
  -9.800  -0.8011   0.02147   0.01646  -0.0484  0.9814  0.0069  -7.2009   0.0000   0.0000   0.0000   0.1803
  -9.700  -0.7909   0.02110   0.01607  -0.0487  0.9793  0.0071  -7.0530   0.0000   0.0000   0.0000   0.1793
  -9.600  -0.7803   0.02074   0.01567  -0.0490  0.9773  0.0072  -6.9041   0.0000   0.0000   0.0000   0.1782
  -9.500  -0.7696   0.02040   0.01529  -0.0493  0.9752  0.0073  -6.7545   0.0000   0.0000   0.0000   0.1770
  -9.400  -0.7586   0.02007   0.01494  -0.0497  0.9729  0.0075  -6.6042   0.0000   0.0000   0.0000   0.1757
  -9.300  -0.7473   0.01977   0.01460  -0.0501  0.9707  0.0076  -6.4529   0.0000   0.0000   0.0000   0.1743
  -9.200  -0.7357   0.01951   0.01432  -0.0505  0.9683  0.0078  -6.2998   0.0000   0.0000   0.0000   0.1727
  -9.100  -0.7238   0.01930   0.01408  -0.0510  0.9659  0.0080  -6.1453   0.0000   0.0000   0.0000   0.1710
  -9.000  -0.7117   0.01914   0.01391  -0.0515  0.9633  0.0081  -5.9897   0.0000   0.0000   0.0000   0.1692
  -8.900  -0.6994   0.01903   0.01379  -0.0520  0.9603  0.0082  -5.8336   0.0000   0.0000   0.0000   0.1673
  -8.800  -0.6872   0.01897   0.01372  -0.0525  0.9567  0.0083  -5.6782   0.0000   0.0000   0.0000   0.1653
  -8.700  -0.6752   0.01895   0.01370  -0.0530  0.9523  0.0084  -5.5250   0.0000   0.0000   0.0000   0.1634
  -8.600  -0.6734   0.01756   0.01218  -0.0518  0.9487  0.0090  -5.5235   0.0000   0.0000   0.0000   0.1650
  -8.500  -0.6671   0.01731   0.01192  -0.0511  0.9465  0.0093  -5.4244   0.0000   0.0000   0.0000   0.1654
  -8.400  -0.6597   0.01721   0.01183  -0.0506  0.9440  0.0095  -5.3093   0.0000   0.0000   0.0000   0.1654
  -8.300  -0.6518   0.01718   0.01181  -0.0501  0.9411  0.0096  -5.1875   0.0000   0.0000   0.0000   0.1653
  -8.200  -0.6437   0.01718   0.01183  -0.0497  0.9380  0.0098  -5.0630   0.0000   0.0000   0.0000   0.1651
  -8.100  -0.6354   0.01720   0.01186  -0.0494  0.9345  0.0100  -4.9365   0.0000   0.0000   0.0000   0.1648
  -8.000  -0.6267   0.01724   0.01192  -0.0490  0.9308  0.0101  -4.8079   0.0000   0.0000   0.0000   0.1643
  -7.900  -0.6181   0.01729   0.01199  -0.0487  0.9270  0.0104  -4.6785   0.0000   0.0000   0.0000   0.1638
  -7.800  -0.6093   0.01737   0.01208  -0.0484  0.9230  0.0106  -4.5473   0.0000   0.0000   0.0000   0.1634
  -7.700  -0.6005   0.01750   0.01221  -0.0480  0.9188  0.0109  -4.4101   0.0000   0.0000   0.0000   0.1628
  -7.600  -0.5912   0.01780   0.01254  -0.0478  0.9141  0.0114  -4.2471   0.0000   0.0000   0.0000   0.1621
  -7.500  -0.5794   0.01904   0.01386  -0.0480  0.9090  0.0125  -3.9540   0.0000   0.0000   0.0000   0.1603
  -7.400  -0.5701   0.01898   0.01377  -0.0478  0.9031  0.0127  -3.8616   0.0000   0.0000   0.0000   0.1593
  -7.300  -0.5608   0.01891   0.01369  -0.0476  0.8997  0.0128  -3.7699   0.0000   0.0000   0.0000   0.1583
  -7.200  -0.5517   0.01885   0.01362  -0.0474  0.8983  0.0130  -3.6796   0.0000   0.0000   0.0000   0.1575
  -7.100  -0.5424   0.01881   0.01357  -0.0471  0.8966  0.0131  -3.5888   0.0000   0.0000   0.0000   0.1565
  -7.000  -0.5331   0.01880   0.01355  -0.0469  0.8946  0.0132  -3.4971   0.0000   0.0000   0.0000   0.1554
  -6.900  -0.5237   0.01882   0.01356  -0.0467  0.8923  0.0133  -3.4037   0.0000   0.0000   0.0000   0.1543
  -6.800  -0.5141   0.01891   0.01364  -0.0465  0.8899  0.0134  -3.3069   0.0000   0.0000   0.0000   0.1531
  -6.700  -0.5044   0.01911   0.01384  -0.0464  0.8872  0.0135  -3.2022   0.0000   0.0000   0.0000   0.1517
  -6.600  -0.4981   0.01757   0.01217  -0.0457  0.8843  0.0138  -3.2409   0.0000   0.0000   0.0000   0.1519
  -6.500  -0.4907   0.01656   0.01107  -0.0452  0.8812  0.0140  -3.2411   0.0000   0.0000   0.0000   0.1516
  -6.400  -0.4828   0.01584   0.01028  -0.0447  0.8781  0.0142  -3.2217   0.0000   0.0000   0.0000   0.1512
  -6.300  -0.4748   0.01527   0.00965  -0.0443  0.8749  0.0145  -3.1918   0.0000   0.0000   0.0000   0.1507
  -6.200  -0.4668   0.01480   0.00913  -0.0438  0.8715  0.0147  -3.1553   0.0000   0.0000   0.0000   0.1501
  -6.100  -0.4586   0.01440   0.00868  -0.0433  0.8678  0.0148  -3.1144   0.0000   0.0000   0.0000   0.1495
  -6.000  -0.4503   0.01405   0.00829  -0.0429  0.8638  0.0150  -3.0703   0.0000   0.0000   0.0000   0.1488
  -5.900  -0.4418   0.01374   0.00794  -0.0425  0.8593  0.0152  -3.0235   0.0000   0.0000   0.0000   0.1479
  -5.800  -0.4329   0.01347   0.00762  -0.0422  0.8543  0.0154  -2.9745   0.0000   0.0000   0.0000   0.1467
  -5.700  -0.4238   0.01322   0.00734  -0.0420  0.8502  0.0155  -2.9245   0.0000   0.0000   0.0000   0.1451
  -5.600  -0.4142   0.01301   0.00710  -0.0418  0.8491  0.0154  -2.8757   0.0000   0.0000   0.0000   0.1434
  -5.500  -0.4052   0.01274   0.00681  -0.0415  0.8478  0.0156  -2.8252   0.0000   0.0000   0.0000   0.1419
  -5.400  -0.3960   0.01249   0.00654  -0.0412  0.8463  0.0158  -2.7726   0.0000   0.0000   0.0000   0.1402
  -5.300  -0.3867   0.01226   0.00630  -0.0410  0.8445  0.0161  -2.7174   0.0000   0.0000   0.0000   0.1383
  -5.200  -0.3773   0.01206   0.00608  -0.0408  0.8426  0.0164  -2.6588   0.0000   0.0000   0.0000   0.1362
  -5.100  -0.3676   0.01188   0.00590  -0.0407  0.8404  0.0168  -2.5952   0.0000   0.0000   0.0000   0.1338
  -5.000  -0.3577   0.01175   0.00577  -0.0406  0.8382  0.0173  -2.5224   0.0000   0.0000   0.0000   0.1310
  -4.900  -0.3417   0.01271   0.00681  -0.0418  0.8361  0.0216  -2.2285   0.0000   0.0000   0.0000   0.1221
  -4.800  -0.3327   0.01237   0.00643  -0.0415  0.8335  0.0215  -2.1997   0.0000   0.0000   0.0000   0.1198
  -4.700  -0.3236   0.01205   0.00608  -0.0411  0.8307  0.0215  -2.1701   0.0000   0.0000   0.0000   0.1174
  -4.600  -0.3146   0.01176   0.00574  -0.0408  0.8279  0.0215  -2.1396   0.0000   0.0000   0.0000   0.1149
  -4.500  -0.3055   0.01149   0.00542  -0.0404  0.8250  0.0215  -2.1082   0.0000   0.0000   0.0000   0.1122
  -4.400  -0.2963   0.01123   0.00512  -0.0401  0.8220  0.0215  -2.0757   0.0000   0.0000   0.0000   0.1092
  -4.300  -0.2871   0.01100   0.00483  -0.0398  0.8188  0.0216  -2.0423   0.0000   0.0000   0.0000   0.1058
  -4.200  -0.2776   0.01079   0.00457  -0.0396  0.8153  0.0217  -2.0081   0.0000   0.0000   0.0000   0.1020
  -4.100  -0.2679   0.01059   0.00432  -0.0393  0.8113  0.0219  -1.9729   0.0000   0.0000   0.0000   0.0977
  -4.000  -0.2580   0.01042   0.00410  -0.0392  0.8070  0.0221  -1.9367   0.0000   0.0000   0.0000   0.0926
  -3.900  -0.2478   0.01027   0.00390  -0.0391  0.8025  0.0224  -1.8996   0.0000   0.0000   0.0000   0.0867
  -3.800  -0.2374   0.01012   0.00371  -0.0390  0.8001  0.0228  -1.8617   0.0000   0.0000   0.0000   0.0800
  -3.700  -0.2270   0.00996   0.00353  -0.0390  0.7993  0.0232  -1.8228   0.0000   0.0000   0.0000   0.0726
  -3.600  -0.2164   0.00982   0.00337  -0.0390  0.7983  0.0238  -1.7823   0.0000   0.0000   0.0000   0.0643
  -3.500  -0.2056   0.00971   0.00324  -0.0390  0.7971  0.0245  -1.7388   0.0000   0.0000   0.0000   0.0548
  -3.400  -0.1948   0.00961   0.00314  -0.0390  0.7958  0.0252  -1.6908   0.0000   0.0000   0.0000   0.0441
  -3.300  -0.1839   0.00954   0.00307  -0.0390  0.7943  0.0257  -1.6381   0.0000   0.0000   0.0000   0.0318
  -3.200  -0.1729   0.00948   0.00302  -0.0391  0.7927  0.0261  -1.5824   0.0000   0.0000   0.0000   0.0178
  -3.100  -0.1628   0.00915   0.00254  -0.0388  0.7909  0.0386  -1.6113   0.0000   0.0000   0.0000   0.0053
  -3.000  -0.1520   0.00902   0.00245  -0.0388  0.7890  0.0450  -1.5629   0.0000   0.0000   0.0000  -0.0118
  -2.900  -0.1412   0.00892   0.00238  -0.0389  0.7870  0.0541  -1.5101   0.0000   0.0000   0.0000  -0.0319
  -2.800  -0.1317   0.00857   0.00224  -0.0389  0.7847  0.0965  -1.4593   0.0000   0.0000   0.0000  -0.0519
  -2.700  -0.1225   0.00815   0.00210  -0.0389  0.7822  0.1728  -1.4088   0.0000   0.0000   0.0000  -0.0745
  -2.600  -0.1133   0.00771   0.00194  -0.0389  0.7796  0.2533  -1.3576   0.0000   0.0000   0.0000  -0.1009
  -2.500  -0.1046   0.00715   0.00176  -0.0390  0.7769  0.3591  -1.3079   0.0000   0.0000   0.0000  -0.1303
  -2.400  -0.0961   0.00655   0.00162  -0.0390  0.7742  0.4783  -1.2582   0.0000   0.0000   0.0000  -0.1636
  -2.300  -0.0861   0.00632   0.00160  -0.0390  0.7714  0.5403  -1.2038   0.0000   0.0000   0.0000  -0.2106
  -2.200  -0.0752   0.00625   0.00158  -0.0390  0.7685  0.5618  -1.1476   0.0000   0.0000   0.0000  -0.2768
  -2.100  -0.0645   0.00619   0.00158  -0.0390  0.7654  0.5822  -1.0919   0.0000   0.0000   0.0000  -0.3644
  -2.000  -0.0533   0.00619   0.00158  -0.0391  0.7620  0.5931  -1.0358   0.0000   0.0000   0.0000  -0.4941
  -1.900  -0.0419   0.00621   0.00157  -0.0392  0.7584  0.5988  -0.9800   0.0000   0.0000   0.0000  -0.6982
  -1.800  -0.0307   0.00620   0.00159  -0.0392  0.7545  0.6120  -0.9254   0.0000   0.0000   0.0000  -1.0433
  -1.700  -0.0198   0.00618   0.00164  -0.0393  0.7506  0.6291  -0.8717   0.0000   0.0000   0.0000  -1.7572
  -1.600  -0.0086   0.00617   0.00167  -0.0393  0.7499  0.6426  -0.8179   0.0000   0.0000   0.0000  -4.3732
  -1.500   0.0029   0.00619   0.00168  -0.0394  0.7492  0.6495  -0.7641   0.0000   0.0000   0.0000  14.0683
  -1.400   0.0138   0.00613   0.00170  -0.0394  0.7484  0.6653  -0.7126   0.0000   0.0000   0.0000   3.1414
  -1.300   0.0247   0.00611   0.00174  -0.0394  0.7474  0.6755  -0.6614   0.0000   0.0000   0.0000   1.8560
  -1.200   0.0359   0.00611   0.00177  -0.0394  0.7464  0.6821  -0.6105   0.0000   0.0000   0.0000   1.3549
  -1.100   0.0473   0.00612   0.00178  -0.0395  0.7452  0.6869  -0.5601   0.0000   0.0000   0.0000   1.0905
  -1.000   0.0587   0.00613   0.00179  -0.0396  0.7439  0.6903  -0.5103   0.0000   0.0000   0.0000   0.9280
  -0.900   0.0702   0.00614   0.00179  -0.0397  0.7425  0.6928  -0.4612   0.0000   0.0000   0.0000   0.8184
  -0.800   0.0817   0.00615   0.00180  -0.0398  0.7410  0.6948  -0.4176   0.0000   0.0000   0.0000   0.7396
  -0.700   0.0932   0.00616   0.00181  -0.0399  0.7395  0.6967  -0.4226   0.0000   0.0000   0.0000   0.6801
  -0.600   0.1046   0.00619   0.00182  -0.0400  0.7379  0.6985  -0.4276   0.0000   0.0000   0.0000   0.6337
  -0.500   0.1160   0.00620   0.00184  -0.0401  0.7362  0.7010  -0.4325   0.0000   0.0000   0.0000   0.5965
  -0.400   0.1272   0.00616   0.00182  -0.0402  0.7344  0.7085  -0.4374   0.0000   0.0000   0.0000   0.5664
  -0.300   0.1383   0.00614   0.00183  -0.0402  0.7325  0.7149  -0.4422   0.0000   0.0000   0.0000   0.5410
  -0.200   0.1494   0.00613   0.00184  -0.0403  0.7305  0.7199  -0.4471   0.0000   0.0000   0.0000   0.5193
  -0.100   0.1605   0.00613   0.00186  -0.0403  0.7283  0.7238  -0.4523   0.0000   0.0000   0.0000   0.5005
   0.000   0.1717   0.00614   0.00187  -0.0403  0.7261  0.7268  -0.4578   0.0000   0.0000   0.0000   0.4843
   0.100   0.1829   0.00615   0.00188  -0.0404  0.7236  0.7292  -0.4634   0.0000   0.0000   0.0000   0.4700
   0.200   0.1942   0.00616   0.00188  -0.0405  0.7211  0.7314  -0.4689   0.0000   0.0000   0.0000   0.4574
   0.300   0.2054   0.00618   0.00189  -0.0405  0.7183  0.7335  -0.4745   0.0000   0.0000   0.0000   0.4463
   0.400   0.2167   0.00620   0.00190  -0.0406  0.7154  0.7355  -0.4800   0.0000   0.0000   0.0000   0.4363
   0.500   0.2281   0.00623   0.00191  -0.0407  0.7124  0.7373  -0.4855   0.0000   0.0000   0.0000   0.4274
   0.600   0.2395   0.00627   0.00193  -0.0409  0.7084  0.7390  -0.4910   0.0000   0.0000   0.0000   0.4193
   0.700   0.2509   0.00632   0.00196  -0.0410  0.7034  0.7406  -0.4965   0.0000   0.0000   0.0000   0.4120
   0.800   0.2623   0.00635   0.00198  -0.0411  0.7001  0.7421  -0.5020   0.0000   0.0000   0.0000   0.4053
   0.900   0.2737   0.00632   0.00197  -0.0412  0.6989  0.7435  -0.5079   0.0000   0.0000   0.0000   0.3990
   1.000   0.2851   0.00630   0.00195  -0.0413  0.6973  0.7448  -0.5137   0.0000   0.0000   0.0000   0.3932
   1.100   0.2964   0.00628   0.00193  -0.0414  0.6948  0.7460  -0.5195   0.0000   0.0000   0.0000   0.3878
   1.200   0.3077   0.00626   0.00191  -0.0414  0.6914  0.7470  -0.5452   0.0000   0.0000   0.0000   0.3828
   1.300   0.3190   0.00625   0.00189  -0.0415  0.6870  0.7479  -0.5984   0.0000   0.0000   0.0000   0.3781
   1.400   0.3302   0.00625   0.00187  -0.0415  0.6814  0.7487  -0.6523   0.0000   0.0000   0.0000   0.3737
   1.500   0.3412   0.00627   0.00185  -0.0415  0.6753  0.7494  -0.7067   0.0000   0.0000   0.0000   0.3696
   1.600   0.3521   0.00626   0.00181  -0.0415  0.6684  0.7529  -0.7614   0.0000   0.0000   0.0000   0.3658
   1.700   0.3628   0.00628   0.00179  -0.0415  0.6594  0.7567  -0.8163   0.0000   0.0000   0.0000   0.3621
   1.800   0.3737   0.00631   0.00179  -0.0415  0.6501  0.7605  -0.8724   0.0000   0.0000   0.0000   0.3588
   1.900   0.3848   0.00628   0.00179  -0.0416  0.6472  0.7639  -0.9304   0.0000   0.0000   0.0000   0.3556
   2.000   0.3960   0.00626   0.00179  -0.0416  0.6426  0.7670  -0.9889   0.0000   0.0000   0.0000   0.3526
   2.100   0.4069   0.00626   0.00180  -0.0416  0.6354  0.7698  -1.0479   0.0000   0.0000   0.0000   0.3497
   2.200   0.4175   0.00628   0.00180  -0.0415  0.6251  0.7724  -1.1068   0.0000   0.0000   0.0000   0.3468
   2.300   0.4276   0.00635   0.00179  -0.0413  0.6115  0.7750  -1.1650   0.0000   0.0000   0.0000   0.3440
   2.400   0.4381   0.00641   0.00182  -0.0412  0.5989  0.7776  -1.2246   0.0000   0.0000   0.0000   0.3414
   2.500   0.4491   0.00642   0.00184  -0.0413  0.5919  0.7802  -1.2868   0.0000   0.0000   0.0000   0.3391
   2.600   0.4600   0.00646   0.00186  -0.0413  0.5823  0.7828  -1.3490   0.0000   0.0000   0.0000   0.3368
   2.700   0.4705   0.00652   0.00189  -0.0412  0.5705  0.7853  -1.4111   0.0000   0.0000   0.0000   0.3346
   2.800   0.4803   0.00663   0.00192  -0.0410  0.5525  0.7876  -1.4717   0.0000   0.0000   0.0000   0.3324
   2.900   0.4911   0.00669   0.00195  -0.0410  0.5406  0.7897  -1.5356   0.0000   0.0000   0.0000   0.3304
   3.000   0.5006   0.00684   0.00200  -0.0408  0.5122  0.7917  -1.5964   0.0000   0.0000   0.0000   0.3283
   3.300   0.5216   0.00803   0.00241  -0.0392  0.3365  0.7966  -1.7569   0.0000   0.0000   0.0000   0.3217
   3.400   0.5264   0.00865   0.00267  -0.0384  0.2567  0.7979  -1.8031   0.0000   0.0000   0.0000   0.3194
   3.500   0.5330   0.00909   0.00286  -0.0378  0.1990  0.7989  -1.8552   0.0000   0.0000   0.0000   0.3174
   3.600   0.5398   0.00947   0.00303  -0.0373  0.1492  0.8012  -1.9080   0.0000   0.0000   0.0000   0.3155
   3.700   0.5465   0.00983   0.00320  -0.0367  0.1058  0.8062  -1.9598   0.0000   0.0000   0.0000   0.3135
   3.800   0.5529   0.01019   0.00338  -0.0361  0.0695  0.8109  -2.0105   0.0000   0.0000   0.0000   0.3115
   3.900   0.5606   0.01043   0.00353  -0.0356  0.0463  0.8150  -2.0645   0.0000   0.0000   0.0000   0.3096
   4.000   0.5693   0.01059   0.00365  -0.0352  0.0384  0.8186  -2.1182   0.0000   0.0000   0.0000   0.3079
   4.100   0.5772   0.01084   0.00394  -0.0345  0.0234  0.8220  -2.1132   0.0000   0.0000   0.0000   0.3058
   4.200   0.5867   0.01092   0.00404  -0.0342  0.0225  0.8251  -2.1697   0.0000   0.0000   0.0000   0.3043
   4.300   0.5959   0.01103   0.00418  -0.0339  0.0213  0.8281  -2.2167   0.0000   0.0000   0.0000   0.3028
   4.400   0.6050   0.01116   0.00434  -0.0336  0.0202  0.8311  -2.2606   0.0000   0.0000   0.0000   0.3013
   4.500   0.6140   0.01130   0.00451  -0.0332  0.0195  0.8340  -2.3042   0.0000   0.0000   0.0000   0.2998
   4.600   0.6229   0.01144   0.00469  -0.0328  0.0190  0.8368  -2.3480   0.0000   0.0000   0.0000   0.2983
   4.700   0.6317   0.01160   0.00487  -0.0324  0.0186  0.8394  -2.3918   0.0000   0.0000   0.0000   0.2968
   4.800   0.6404   0.01177   0.00507  -0.0320  0.0182  0.8417  -2.4353   0.0000   0.0000   0.0000   0.2954
   4.900   0.6488   0.01195   0.00528  -0.0315  0.0180  0.8439  -2.4780   0.0000   0.0000   0.0000   0.2939
   5.000   0.6570   0.01214   0.00551  -0.0310  0.0178  0.8459  -2.5201   0.0000   0.0000   0.0000   0.2925
   5.100   0.6650   0.01234   0.00575  -0.0305  0.0177  0.8476  -2.5613   0.0000   0.0000   0.0000   0.2910
   5.200   0.6728   0.01256   0.00600  -0.0299  0.0176  0.8490  -2.6016   0.0000   0.0000   0.0000   0.2895
   5.300   0.6801   0.01276   0.00625  -0.0292  0.0175  0.8528  -2.6405   0.0000   0.0000   0.0000   0.2880
   5.400   0.6868   0.01297   0.00651  -0.0284  0.0175  0.8587  -2.6773   0.0000   0.0000   0.0000   0.2863
   5.500   0.6928   0.01319   0.00679  -0.0275  0.0174  0.8642  -2.7122   0.0000   0.0000   0.0000   0.2845
   5.600   0.6983   0.01342   0.00708  -0.0264  0.0174  0.8690  -2.7455   0.0000   0.0000   0.0000   0.2826
   5.800   0.7155   0.01348   0.00726  -0.0257  0.0147  0.8768  -2.9827   0.0000   0.0000   0.0000   0.2805
   5.900   0.7212   0.01369   0.00749  -0.0248  0.0140  0.8810  -3.0413   0.0000   0.0000   0.0000   0.2788
   6.000   0.7266   0.01392   0.00776  -0.0237  0.0137  0.8851  -3.0876   0.0000   0.0000   0.0000   0.2771
   6.100   0.7317   0.01417   0.00805  -0.0227  0.0135  0.8890  -3.1317   0.0000   0.0000   0.0000   0.2753
   6.200   0.7368   0.01444   0.00835  -0.0216  0.0133  0.8924  -3.1744   0.0000   0.0000   0.0000   0.2736
   6.300   0.7417   0.01472   0.00867  -0.0206  0.0131  0.8955  -3.2157   0.0000   0.0000   0.0000   0.2718
   6.400   0.7466   0.01502   0.00900  -0.0195  0.0129  0.8980  -3.2559   0.0000   0.0000   0.0000   0.2701
   6.500   0.7516   0.01531   0.00933  -0.0184  0.0128  0.9012  -3.2966   0.0000   0.0000   0.0000   0.2685
   6.600   0.7551   0.01557   0.00964  -0.0171  0.0127  0.9096  -3.3327   0.0000   0.0000   0.0000   0.2665
   6.700   0.7572   0.01581   0.00993  -0.0154  0.0126  0.9174  -3.3644   0.0000   0.0000   0.0000   0.2641
   6.800   0.7583   0.01605   0.01022  -0.0135  0.0125  0.9249  -3.3930   0.0000   0.0000   0.0000   0.2614
   6.900   0.7584   0.01628   0.01048  -0.0114  0.0125  0.9326  -3.4188   0.0000   0.0000   0.0000   0.2586
   7.000   0.7592   0.01654   0.01079  -0.0095  0.0124  0.9396  -3.4458   0.0000   0.0000   0.0000   0.2560
   7.100   0.7610   0.01685   0.01113  -0.0078  0.0123  0.9454  -3.4742   0.0000   0.0000   0.0000   0.2536
   7.200   0.7636   0.01720   0.01151  -0.0063  0.0123  0.9496  -3.5038   0.0000   0.0000   0.0000   0.2515
   7.300   0.7744   0.01779   0.01215  -0.0065  0.0121  0.9558  -3.5499   0.0000   0.0000   0.0000   0.2515
   7.400   0.7878   0.01854   0.01294  -0.0072  0.0120  0.9604  -3.5980   0.0000   0.0000   0.0000   0.2522
   7.500   0.8026   0.01946   0.01392  -0.0082  0.0119  0.9637  -3.6430   0.0000   0.0000   0.0000   0.2532
   7.600   0.8159   0.02046   0.01499  -0.0089  0.0118  0.9682  -3.6772   0.0000   0.0000   0.0000   0.2538
   7.700   0.8291   0.02167   0.01628  -0.0096  0.0116  0.9722  -3.7000   0.0000   0.0000   0.0000   0.2544
   7.800   0.8406   0.02242   0.01708  -0.0100  0.0115  0.9787  -3.7524   0.0000   0.0000   0.0000   0.2546
   7.900   0.8508   0.02243   0.01712  -0.0101  0.0115  0.9878  -3.8509   0.0000   0.0000   0.0000   0.2545
   8.000   0.8605   0.02254   0.01724  -0.0102  0.0114  0.9979  -3.9412   0.0000   0.0000   0.0000   0.2543
   8.100   0.8686   0.02269   0.01741  -0.0099  0.0114  1.0000  -4.0228   0.0000   0.0000   0.0000   0.2538
   8.200   0.8764   0.02287   0.01761  -0.0096  0.0113  1.0000  -4.1018   0.0000   0.0000   0.0000   0.2532
   8.300   0.8841   0.02307   0.01783  -0.0092  0.0112  1.0000  -4.1796   0.0000   0.0000   0.0000   0.2526
   8.400   0.8916   0.02329   0.01806  -0.0088  0.0112  1.0000  -4.2566   0.0000   0.0000   0.0000   0.2520
   8.500   0.8860   0.02178   0.01648  -0.0059  0.0107  1.0000  -4.4452   0.0000   0.0000   0.0000   0.2485
   8.600   0.8887   0.02152   0.01621  -0.0046  0.0104  1.0000  -4.5593   0.0000   0.0000   0.0000   0.2469
   8.700   0.8937   0.02154   0.01623  -0.0038  0.0102  1.0000  -4.6566   0.0000   0.0000   0.0000   0.2459
   8.800   0.8994   0.02166   0.01635  -0.0030  0.0100  1.0000  -4.7474   0.0000   0.0000   0.0000   0.2449
   8.900   0.9052   0.02181   0.01651  -0.0024  0.0098  1.0000  -4.8351   0.0000   0.0000   0.0000   0.2441
   9.000   0.9108   0.02199   0.01670  -0.0017  0.0097  1.0000  -4.9198   0.0000   0.0000   0.0000   0.2432
   9.100   0.9161   0.02218   0.01690  -0.0009  0.0096  1.0000  -5.0021   0.0000   0.0000   0.0000   0.2422
   9.200   0.9211   0.02238   0.01711  -0.0002  0.0094  1.0000  -5.0835   0.0000   0.0000   0.0000   0.2413
   9.300   0.9261   0.02258   0.01733   0.0006  0.0093  1.0000  -5.1647   0.0000   0.0000   0.0000   0.2403
   9.400   0.9310   0.02279   0.01755   0.0013  0.0092  1.0000  -5.2468   0.0000   0.0000   0.0000   0.2394
   9.500   0.9360   0.02300   0.01777   0.0021  0.0091  1.0000  -5.3302   0.0000   0.0000   0.0000   0.2385
   9.600   0.9410   0.02320   0.01798   0.0028  0.0090  1.0000  -5.4151   0.0000   0.0000   0.0000   0.2376
   9.700   0.9459   0.02340   0.01819   0.0035  0.0088  1.0000  -5.5014   0.0000   0.0000   0.0000   0.2367
   9.800   0.9508   0.02359   0.01840   0.0042  0.0087  1.0000  -5.5892   0.0000   0.0000   0.0000   0.2359
   9.900   0.9557   0.02378   0.01860   0.0049  0.0086  1.0000  -5.6783   0.0000   0.0000   0.0000   0.2350
  10.000   0.9603   0.02397   0.01880   0.0057  0.0085  1.0000  -5.7677   0.0000   0.0000   0.0000   0.2341
  10.100   0.9643   0.02417   0.01900   0.0065  0.0084  1.0000  -5.8550   0.0000   0.0000   0.0000   0.2332
  10.200   0.9680   0.02436   0.01921   0.0073  0.0084  1.0000  -5.9423   0.0000   0.0000   0.0000   0.2322
  10.300   0.9719   0.02456   0.01941   0.0081  0.0083  1.0000  -6.0314   0.0000   0.0000   0.0000   0.2313
  10.400   0.9759   0.02475   0.01960   0.0088  0.0082  1.0000  -6.1230   0.0000   0.0000   0.0000   0.2304
  10.500   0.9800   0.02493   0.01979   0.0096  0.0081  1.0000  -6.2166   0.0000   0.0000   0.0000   0.2296
  10.600   0.9842   0.02511   0.01997   0.0103  0.0080  1.0000  -6.3119   0.0000   0.0000   0.0000   0.2287
  10.700   0.9884   0.02530   0.02016   0.0110  0.0079  1.0000  -6.4081   0.0000   0.0000   0.0000   0.2279
  10.800   0.9926   0.02550   0.02037   0.0117  0.0079  1.0000  -6.5047   0.0000   0.0000   0.0000   0.2271
  10.900   0.9964   0.02572   0.02059   0.0124  0.0078  1.0000  -6.5992   0.0000   0.0000   0.0000   0.2263
  11.000   0.9996   0.02598   0.02085   0.0131  0.0077  1.0000  -6.6883   0.0000   0.0000   0.0000   0.2254
  11.100   1.0025   0.02626   0.02114   0.0139  0.0076  1.0000  -6.7751   0.0000   0.0000   0.0000   0.2245
  11.200   1.0055   0.02658   0.02147   0.0147  0.0075  1.0000  -6.8606   0.0000   0.0000   0.0000   0.2237
  11.300   1.0085   0.02695   0.02185   0.0154  0.0074  1.0000  -6.9425   0.0000   0.0000   0.0000   0.2228
  11.400   1.0111   0.02740   0.02232   0.0162  0.0073  1.0000  -7.0166   0.0000   0.0000   0.0000   0.2220
  11.500   1.0127   0.02804   0.02300   0.0170  0.0071  1.0000  -7.0720   0.0000   0.0000   0.0000   0.2210
  11.600   1.0042   0.03052   0.02570   0.0187  0.0067  1.0000  -6.9411   0.0000   0.0000   0.0000   0.2192
  11.700   1.0081   0.03072   0.02592   0.0192  0.0066  1.0000  -7.0444   0.0000   0.0000   0.0000   0.2185
  11.800   1.0121   0.03095   0.02615   0.0198  0.0066  1.0000  -7.1480   0.0000   0.0000   0.0000   0.2178
  11.900   1.0153   0.03121   0.02642   0.0204  0.0066  1.0000  -7.2460   0.0000   0.0000   0.0000   0.2171
  12.000   1.0180   0.03150   0.02673   0.0211  0.0065  1.0000  -7.3405   0.0000   0.0000   0.0000   0.2164
  12.100   1.0209   0.03180   0.02705   0.0217  0.0065  1.0000  -7.4362   0.0000   0.0000   0.0000   0.2157
  12.200   1.0241   0.03210   0.02737   0.0223  0.0065  1.0000  -7.5346   0.0000   0.0000   0.0000   0.2150
  12.300   1.0274   0.03241   0.02769   0.0229  0.0064  1.0000  -7.6347   0.0000   0.0000   0.0000   0.2144
  12.400   1.0308   0.03273   0.02803   0.0234  0.0064  1.0000  -7.7356   0.0000   0.0000   0.0000   0.2137
  12.500   1.0342   0.03307   0.02838   0.0239  0.0063  1.0000  -7.8365   0.0000   0.0000   0.0000   0.2132
  12.600   1.0375   0.03342   0.02875   0.0244  0.0063  1.0000  -7.9368   0.0000   0.0000   0.0000   0.2126
  12.700   1.0345   0.03459   0.03010   0.0253  0.0064  1.0000  -7.8751   0.0000   0.0000   0.0000   0.2115
  12.800   1.0346   0.03523   0.03079   0.0260  0.0064  1.0000  -7.9218   0.0000   0.0000   0.0000   0.2106
  12.900   1.0354   0.03579   0.03138   0.0266  0.0063  1.0000  -7.9883   0.0000   0.0000   0.0000   0.2099
  13.000   1.0370   0.03629   0.03191   0.0272  0.0063  1.0000  -8.0671   0.0000   0.0000   0.0000   0.2092
  13.100   1.0390   0.03678   0.03242   0.0276  0.0063  1.0000  -8.1537   0.0000   0.0000   0.0000   0.2086
  13.200   1.0412   0.03726   0.03293   0.0281  0.0062  1.0000  -8.2448   0.0000   0.0000   0.0000   0.2081
  13.300   1.0435   0.03774   0.03344   0.0285  0.0061  1.0000  -8.3380   0.0000   0.0000   0.0000   0.2076
  13.400   1.0457   0.03825   0.03397   0.0290  0.0061  1.0000  -8.4318   0.0000   0.0000   0.0000   0.2070
  13.500   1.0476   0.03879   0.03453   0.0294  0.0060  1.0000  -8.5236   0.0000   0.0000   0.0000   0.2065
  13.600   1.0480   0.03941   0.03519   0.0298  0.0059  1.0000  -8.6026   0.0000   0.0000   0.0000   0.2059
  13.700   1.0481   0.04008   0.03589   0.0303  0.0059  1.0000  -8.6784   0.0000   0.0000   0.0000   0.2053
  13.800   1.0487   0.04075   0.03658   0.0307  0.0058  1.0000  -8.7591   0.0000   0.0000   0.0000   0.2047
  13.900   1.0496   0.04141   0.03728   0.0310  0.0057  1.0000  -8.8431   0.0000   0.0000   0.0000   0.2042
  14.000   1.0506   0.04208   0.03797   0.0314  0.0056  1.0000  -8.9289   0.0000   0.0000   0.0000   0.2037
  14.100   1.0515   0.04276   0.03869   0.0317  0.0056  1.0000  -9.0150   0.0000   0.0000   0.0000   0.2033
  14.200   1.0524   0.04346   0.03942   0.0320  0.0055  1.0000  -9.1005   0.0000   0.0000   0.0000   0.2028
  14.300   1.0524   0.04423   0.04022   0.0323  0.0055  1.0000  -9.1773   0.0000   0.0000   0.0000   0.2023
  14.400   1.0510   0.04511   0.04113   0.0325  0.0054  1.0000  -9.2402   0.0000   0.0000   0.0000   0.2018
  14.500   1.0503   0.04596   0.04201   0.0328  0.0054  1.0000  -9.3099   0.0000   0.0000   0.0000   0.2014
  14.600   1.0503   0.04678   0.04286   0.0330  0.0053  1.0000  -9.3866   0.0000   0.0000   0.0000   0.2010
  14.700   1.0505   0.04759   0.04370   0.0331  0.0053  1.0000  -9.4665   0.0000   0.0000   0.0000   0.2007
  14.800   1.0509   0.04840   0.04453   0.0332  0.0052  1.0000  -9.5477   0.0000   0.0000   0.0000   0.2004
  14.900   1.0512   0.04923   0.04539   0.0333  0.0052  1.0000  -9.6286   0.0000   0.0000   0.0000   0.2001
  15.000   1.0504   0.05017   0.04636   0.0334  0.0051  1.0000  -9.6963   0.0000   0.0000   0.0000   0.1998
  15.100   1.0481   0.05128   0.04750   0.0334  0.0051  1.0000  -9.7463   0.0000   0.0000   0.0000   0.1995
  15.200   1.0469   0.05231   0.04856   0.0334  0.0051  1.0000  -9.8088   0.0000   0.0000   0.0000   0.1993
  15.300   1.0465   0.05330   0.04957   0.0333  0.0050  1.0000  -9.8801   0.0000   0.0000   0.0000   0.1991
  15.400   1.0463   0.05428   0.05059   0.0332  0.0050  1.0000  -9.9541   0.0000   0.0000   0.0000   0.1989
  15.500   1.0461   0.05529   0.05162   0.0331  0.0050  1.0000  -10.0271   0.0000   0.0000   0.0000   0.1988
  15.600   1.0456   0.05636   0.05272   0.0330  0.0049  1.0000  -10.0954   0.0000   0.0000   0.0000   0.1987
  15.700   1.0420   0.05778   0.05418   0.0327  0.0049  1.0000  -10.1255   0.0000   0.0000   0.0000   0.1986
  15.800   1.0393   0.05916   0.05560   0.0324  0.0049  1.0000  -10.1646   0.0000   0.0000   0.0000   0.1986
  15.900   1.0377   0.06045   0.05691   0.0321  0.0049  1.0000  -10.2173   0.0000   0.0000   0.0000   0.1987
  16.000   1.0364   0.06172   0.05822   0.0317  0.0048  1.0000  -10.2723   0.0000   0.0000   0.0000   0.1987
  16.100   1.0349   0.06305   0.05958   0.0314  0.0048  1.0000  -10.3237   0.0000   0.0000   0.0000   0.1988
  16.200   1.0317   0.06464   0.06120   0.0308  0.0048  1.0000  -10.3513   0.0000   0.0000   0.0000   0.1990
  16.300   1.0259   0.06662   0.06324   0.0301  0.0048  1.0000  -10.3423   0.0000   0.0000   0.0000   0.1993
  16.400   1.0223   0.06837   0.06503   0.0294  0.0048  1.0000  -10.3594   0.0000   0.0000   0.0000   0.1997
  16.500   1.0190   0.07011   0.06681   0.0287  0.0048  1.0000  -10.3791   0.0000   0.0000   0.0000   0.2000
  16.600   1.0147   0.07205   0.06880   0.0279  0.0048  1.0000  -10.3832   0.0000   0.0000   0.0000   0.2005
  16.700   1.0058   0.07479   0.07161   0.0265  0.0048  1.0000  -10.3162   0.0000   0.0000   0.0000   0.2013
  16.800   0.9997   0.07716   0.07404   0.0254  0.0047  1.0000  -10.2857   0.0000   0.0000   0.0000   0.2021
  16.900   0.9932   0.07967   0.07661   0.0241  0.0047  1.0000  -10.2446   0.0000   0.0000   0.0000   0.2030
  17.000   0.9796   0.08358   0.08062   0.0219  0.0048  1.0000  -10.0860   0.0000   0.0000   0.0000   0.2047
  17.100   0.9686   0.08713   0.08425   0.0199  0.0048  1.0000  -9.9597   0.0000   0.0000   0.0000   0.2063
  17.200   0.9392   0.09473   0.09204   0.0153  0.0048  1.0000  -9.5022   0.0000   0.0000   0.0000   0.2104


