xflr5 v6.61

 Calculated polar for: NACA6409 9%

 1 1 Reynolds number fixed          Mach number fixed         

 xtrf =   1.000 (top)        1.000 (bottom)
 Mach =   0.000     Re =     1.000 e 6     Ncrit =   9.000

  alpha     CL        CD       CDp       Cm    Top Xtr Bot Xtr   Cpmin    Chinge    XCp    
 ------- -------- --------- --------- -------- ------- ------- -------- --------- ---------
 -10.000  -0.1598   0.10841   0.10665  -0.0676  0.9885  0.0146  -1.2607   0.0000   0.0000   0.0000  -0.1960
  -9.900  -0.1558   0.10698   0.10522  -0.0685  0.9871  0.0145  -1.2662   0.0000   0.0000   0.0000  -0.2130
  -9.800  -0.1513   0.10550   0.10373  -0.0695  0.9859  0.0145  -1.2721   0.0000   0.0000   0.0000  -0.2336
  -9.700  -0.1464   0.10400   0.10223  -0.0706  0.9848  0.0145  -1.2781   0.0000   0.0000   0.0000  -0.2571
  -9.600  -0.1412   0.10256   0.10073  -0.0718  0.9838  0.0145  -1.2828   0.0000   0.0000   0.0000  -0.2844
  -9.500  -0.1362   0.10101   0.09918  -0.0731  0.9828  0.0145  -1.2905   0.0000   0.0000   0.0000  -0.3130
  -9.400  -0.1311   0.09943   0.09760  -0.0743  0.9819  0.0145  -1.2992   0.0000   0.0000   0.0000  -0.3441
  -9.300  -0.1261   0.09784   0.09601  -0.0756  0.9810  0.0145  -1.3096   0.0000   0.0000   0.0000  -0.3777
  -9.200  -0.1212   0.09620   0.09437  -0.0769  0.9802  0.0144  -1.3226   0.0000   0.0000   0.0000  -0.4139
  -9.100  -0.1165   0.09449   0.09266  -0.0783  0.9794  0.0144  -1.3407   0.0000   0.0000   0.0000  -0.4520
  -9.000  -0.1126   0.09248   0.09065  -0.0797  0.9787  0.0142  -1.3770   0.0000   0.0000   0.0000  -0.4887
  -8.900  -0.1167   0.08860   0.08677  -0.0814  0.9779  0.0120  -1.5355   0.0000   0.0000   0.0000  -0.4772
  -8.800  -0.1125   0.08638   0.08455  -0.0833  0.9772  0.0107  -1.6085   0.0000   0.0000   0.0000  -0.5216
  -8.700  -0.1082   0.08388   0.08204  -0.0857  0.9765  0.0096  -1.7170   0.0000   0.0000   0.0000  -0.5744
  -8.600  -0.1071   0.08120   0.07936  -0.0877  0.9742  0.0087  -1.8728   0.0000   0.0000   0.0000  -0.6018
  -8.500  -0.1095   0.07756   0.07580  -0.0903  0.9704  0.0080  -2.1143   0.0000   0.0000   0.0000  -0.6073
  -8.400  -0.1077   0.07412   0.07236  -0.0937  0.9675  0.0078  -2.3147   0.0000   0.0000   0.0000  -0.6529
  -8.300  -0.1026   0.07149   0.06972  -0.0969  0.9650  0.0080  -2.4331   0.0000   0.0000   0.0000  -0.7295
  -8.200  -0.0953   0.06933   0.06756  -0.1000  0.9628  0.0084  -2.4916   0.0000   0.0000   0.0000  -0.8362
  -8.100  -0.0867   0.06746   0.06568  -0.1029  0.9606  0.0092  -2.5127   0.0000   0.0000   0.0000  -0.9780
  -8.000  -0.0773   0.06578   0.06399  -0.1058  0.9583  0.0102  -2.5064   0.0000   0.0000   0.0000  -1.1644
  -7.900  -0.0746   0.06464   0.06285  -0.1067  0.9535  0.0107  -2.5039   0.0000   0.0000   0.0000  -1.2255
  -7.800  -0.0697   0.06335   0.06156  -0.1082  0.9490  0.0113  -2.4944   0.0000   0.0000   0.0000  -1.3502
  -7.700  -0.0629   0.06183   0.06002  -0.1104  0.9449  0.0116  -2.4858   0.0000   0.0000   0.0000  -1.5590
  -7.300  -0.0405   0.05393   0.05198  -0.1211  0.9271  0.0120  -2.6094   0.0000   0.0000   0.0000  -2.8212
  -7.200  -0.0336   0.05283   0.05087  -0.1224  0.9229  0.0123  -2.5695   0.0000   0.0000   0.0000  -3.4856
  -7.100  -0.0257   0.05180   0.04982  -0.1239  0.9188  0.0127  -2.5181   0.0000   0.0000   0.0000  -4.6958
  -5.100   0.1478   0.01496   0.01119  -0.1555  0.8427  0.0184  -2.8945   0.0000   0.0000   0.0000   1.3183
  -5.000   0.1574   0.01393   0.00996  -0.1555  0.8383  0.0182  -2.9021   0.0000   0.0000   0.0000   1.2527
  -4.900   0.1674   0.01319   0.00910  -0.1555  0.8360  0.0180  -2.8829   0.0000   0.0000   0.0000   1.1924
  -4.800   0.1774   0.01259   0.00839  -0.1554  0.8343  0.0179  -2.8535   0.0000   0.0000   0.0000   1.1384
  -4.700   0.1876   0.01207   0.00778  -0.1553  0.8323  0.0178  -2.8177   0.0000   0.0000   0.0000   1.0894
  -4.600   0.1979   0.01161   0.00724  -0.1552  0.8299  0.0178  -2.7777   0.0000   0.0000   0.0000   1.0450
  -4.500   0.2083   0.01120   0.00675  -0.1550  0.8272  0.0177  -2.7345   0.0000   0.0000   0.0000   1.0046
  -4.400   0.2187   0.01083   0.00630  -0.1549  0.8241  0.0176  -2.6889   0.0000   0.0000   0.0000   0.9679
  -4.300   0.2292   0.01048   0.00588  -0.1548  0.8207  0.0175  -2.6417   0.0000   0.0000   0.0000   0.9343
  -4.200   0.2396   0.01017   0.00550  -0.1546  0.8171  0.0175  -2.5933   0.0000   0.0000   0.0000   0.9036
  -4.100   0.2501   0.00989   0.00513  -0.1545  0.8132  0.0174  -2.5441   0.0000   0.0000   0.0000   0.8754
  -4.000   0.2605   0.00962   0.00479  -0.1543  0.8090  0.0174  -2.4944   0.0000   0.0000   0.0000   0.8496
  -3.900   0.2708   0.00938   0.00447  -0.1541  0.8043  0.0173  -2.4446   0.0000   0.0000   0.0000   0.8258
  -3.800   0.2813   0.00915   0.00417  -0.1539  0.7992  0.0173  -2.3944   0.0000   0.0000   0.0000   0.8036
  -3.700   0.2920   0.00892   0.00388  -0.1538  0.7958  0.0173  -2.3438   0.0000   0.0000   0.0000   0.7827
  -3.600   0.3027   0.00867   0.00358  -0.1537  0.7942  0.0175  -2.2950   0.0000   0.0000   0.0000   0.7634
  -3.500   0.3133   0.00843   0.00329  -0.1536  0.7920  0.0178  -2.2466   0.0000   0.0000   0.0000   0.7453
  -3.400   0.3240   0.00821   0.00303  -0.1534  0.7894  0.0182  -2.1977   0.0000   0.0000   0.0000   0.7284
  -3.300   0.3347   0.00802   0.00279  -0.1533  0.7863  0.0187  -2.1483   0.0000   0.0000   0.0000   0.7126
  -3.200   0.3454   0.00786   0.00257  -0.1532  0.7828  0.0193  -2.0994   0.0000   0.0000   0.0000   0.6977
  -3.100   0.3561   0.00770   0.00236  -0.1530  0.7789  0.0200  -2.0532   0.0000   0.0000   0.0000   0.6836
  -3.000   0.3669   0.00755   0.00224  -0.1528  0.7746  0.0297  -2.0723   0.0000   0.0000   0.0000   0.6700
  -2.900   0.3778   0.00771   0.00243  -0.1527  0.7699  0.0300  -1.9799   0.0000   0.0000   0.0000   0.6576
  -2.800   0.3877   0.00743   0.00204  -0.1524  0.7647  0.0360  -1.9415   0.0000   0.0000   0.0000   0.6463
  -2.700   0.3980   0.00738   0.00195  -0.1522  0.7588  0.0377  -1.8769   0.0000   0.0000   0.0000   0.6354
  -2.600   0.4087   0.00734   0.00187  -0.1521  0.7528  0.0389  -1.8105   0.0000   0.0000   0.0000   0.6249
  -2.500   0.4197   0.00727   0.00179  -0.1520  0.7511  0.0400  -1.7434   0.0000   0.0000   0.0000   0.6148
  -2.400   0.4306   0.00720   0.00171  -0.1519  0.7489  0.0412  -1.6772   0.0000   0.0000   0.0000   0.6052
  -2.300   0.4415   0.00711   0.00162  -0.1518  0.7461  0.0433  -1.6125   0.0000   0.0000   0.0000   0.5961
  -2.200   0.4524   0.00702   0.00145  -0.1517  0.7428  0.0462  -1.5391   0.0000   0.0000   0.0000   0.5874
  -2.100   0.4632   0.00700   0.00143  -0.1516  0.7388  0.0487  -1.4720   0.0000   0.0000   0.0000   0.5792
  -2.000   0.4739   0.00700   0.00141  -0.1515  0.7342  0.0497  -1.4051   0.0000   0.0000   0.0000   0.5714
  -1.900   0.4845   0.00700   0.00137  -0.1514  0.7292  0.0518  -1.3410   0.0000   0.0000   0.0000   0.5639
  -1.800   0.4948   0.00698   0.00133  -0.1512  0.7237  0.0582  -1.2800   0.0000   0.0000   0.0000   0.5568
  -1.700   0.5049   0.00697   0.00132  -0.1509  0.7173  0.0635  -1.2188   0.0000   0.0000   0.0000   0.5501
  -1.600   0.5150   0.00697   0.00130  -0.1507  0.7099  0.0678  -1.1577   0.0000   0.0000   0.0000   0.5437
  -1.500   0.5257   0.00696   0.00129  -0.1506  0.7052  0.0713  -1.0955   0.0000   0.0000   0.0000   0.5374
  -1.400   0.5367   0.00694   0.00127  -0.1506  0.7028  0.0735  -1.0332   0.0000   0.0000   0.0000   0.5313
  -1.300   0.5476   0.00693   0.00125  -0.1505  0.6994  0.0746  -0.9718   0.0000   0.0000   0.0000   0.5254
  -1.200   0.5584   0.00692   0.00123  -0.1504  0.6950  0.0811  -0.9129   0.0000   0.0000   0.0000   0.5198
  -1.100   0.5689   0.00690   0.00122  -0.1503  0.6897  0.0882  -0.8548   0.0000   0.0000   0.0000   0.5145
  -1.000   0.5792   0.00690   0.00122  -0.1501  0.6835  0.0939  -0.7997   0.0000   0.0000   0.0000   0.5093
  -0.900   0.5893   0.00692   0.00121  -0.1499  0.6767  0.0985  -0.8066   0.0000   0.0000   0.0000   0.5044
  -0.800   0.5991   0.00695   0.00121  -0.1496  0.6690  0.1019  -0.8133   0.0000   0.0000   0.0000   0.4996
  -0.700   0.6091   0.00699   0.00120  -0.1493  0.6608  0.1049  -0.8209   0.0000   0.0000   0.0000   0.4950
  -0.600   0.6198   0.00698   0.00120  -0.1493  0.6562  0.1138  -0.8291   0.0000   0.0000   0.0000   0.4905
  -0.500   0.6307   0.00695   0.00121  -0.1492  0.6539  0.1218  -0.8374   0.0000   0.0000   0.0000   0.4861
  -0.400   0.6415   0.00694   0.00121  -0.1492  0.6509  0.1285  -0.8458   0.0000   0.0000   0.0000   0.4819
  -0.300   0.6523   0.00694   0.00121  -0.1491  0.6471  0.1334  -0.8541   0.0000   0.0000   0.0000   0.4779
  -0.200   0.6629   0.00695   0.00121  -0.1490  0.6426  0.1370  -0.8624   0.0000   0.0000   0.0000   0.4739
  -0.100   0.6733   0.00695   0.00122  -0.1488  0.6373  0.1498  -0.8705   0.0000   0.0000   0.0000   0.4701
   0.000   0.6834   0.00696   0.00124  -0.1486  0.6316  0.1615  -0.8785   0.0000   0.0000   0.0000   0.4665
   0.100   0.6934   0.00699   0.00125  -0.1484  0.6251  0.1702  -0.8864   0.0000   0.0000   0.0000   0.4629
   0.200   0.7031   0.00702   0.00127  -0.1481  0.6174  0.1818  -0.8941   0.0000   0.0000   0.0000   0.4594
   0.300   0.7130   0.00703   0.00130  -0.1479  0.6093  0.1982  -0.9020   0.0000   0.0000   0.0000   0.4561
   0.400   0.7237   0.00703   0.00132  -0.1478  0.6053  0.2097  -0.9102   0.0000   0.0000   0.0000   0.4528
   0.500   0.7346   0.00701   0.00133  -0.1478  0.6032  0.2250  -0.9187   0.0000   0.0000   0.0000   0.4496
   0.600   0.7453   0.00699   0.00136  -0.1477  0.6005  0.2426  -0.9270   0.0000   0.0000   0.0000   0.4465
   0.700   0.7559   0.00699   0.00138  -0.1477  0.5971  0.2538  -0.9353   0.0000   0.0000   0.0000   0.4435
   0.800   0.7664   0.00698   0.00140  -0.1476  0.5929  0.2728  -0.9436   0.0000   0.0000   0.0000   0.4406
   0.900   0.7767   0.00699   0.00142  -0.1474  0.5879  0.2892  -0.9517   0.0000   0.0000   0.0000   0.4377
   1.000   0.7867   0.00702   0.00145  -0.1472  0.5822  0.3002  -0.9597   0.0000   0.0000   0.0000   0.4350
   1.100   0.7964   0.00704   0.00148  -0.1469  0.5757  0.3232  -0.9674   0.0000   0.0000   0.0000   0.4322
   1.200   0.8059   0.00708   0.00151  -0.1466  0.5678  0.3419  -0.9751   0.0000   0.0000   0.0000   0.4296
   1.300   0.8156   0.00709   0.00155  -0.1464  0.5591  0.3708  -0.9828   0.0000   0.0000   0.0000   0.4270
   1.400   0.8256   0.00704   0.00159  -0.1462  0.5537  0.4179  -0.9907   0.0000   0.0000   0.0000   0.4245
   1.500   0.8285   0.00625   0.00176  -0.1447  0.5525  0.8173  -0.9948   0.0000   0.0000   0.0000   0.4220
   1.700   0.8623   0.00605   0.00184  -0.1473  0.5483  1.0000  -1.0210   0.0000   0.0000   0.0000   0.4179
   1.800   0.8730   0.00608   0.00185  -0.1472  0.5457  1.0000  -1.0307   0.0000   0.0000   0.0000   0.4156
   1.900   0.8835   0.00612   0.00188  -0.1471  0.5428  1.0000  -1.0403   0.0000   0.0000   0.0000   0.4133
   2.000   0.8940   0.00617   0.00190  -0.1469  0.5396  1.0000  -1.0498   0.0000   0.0000   0.0000   0.4111
   2.100   0.9043   0.00622   0.00193  -0.1468  0.5362  1.0000  -1.0593   0.0000   0.0000   0.0000   0.4090
   2.200   0.9145   0.00628   0.00195  -0.1466  0.5325  1.0000  -1.0687   0.0000   0.0000   0.0000   0.4069
   2.300   0.9246   0.00635   0.00198  -0.1464  0.5286  1.0000  -1.0781   0.0000   0.0000   0.0000   0.4048
   2.400   0.9345   0.00642   0.00202  -0.1462  0.5242  1.0000  -1.0873   0.0000   0.0000   0.0000   0.4028
   2.500   0.9444   0.00649   0.00205  -0.1460  0.5192  1.0000  -1.0965   0.0000   0.0000   0.0000   0.4008
   2.600   0.9543   0.00656   0.00209  -0.1457  0.5137  1.0000  -1.1057   0.0000   0.0000   0.0000   0.3988
   2.700   0.9643   0.00664   0.00213  -0.1455  0.5081  1.0000  -1.1149   0.0000   0.0000   0.0000   0.3969
   2.800   0.9744   0.00671   0.00218  -0.1453  0.5030  1.0000  -1.1241   0.0000   0.0000   0.0000   0.3950
   2.900   0.9850   0.00675   0.00222  -0.1452  0.5009  1.0000  -1.1338   0.0000   0.0000   0.0000   0.3932
   3.000   0.9959   0.00677   0.00224  -0.1452  0.5003  1.0000  -1.1438   0.0000   0.0000   0.0000   0.3915
   3.100   1.0067   0.00679   0.00227  -0.1452  0.4995  1.0000  -1.1538   0.0000   0.0000   0.0000   0.3898
   3.200   1.0175   0.00682   0.00230  -0.1451  0.4984  1.0000  -1.1637   0.0000   0.0000   0.0000   0.3881
   3.300   1.0282   0.00685   0.00233  -0.1451  0.4970  1.0000  -1.1737   0.0000   0.0000   0.0000   0.3864
   3.400   1.0389   0.00688   0.00236  -0.1450  0.4951  1.0000  -1.1849   0.0000   0.0000   0.0000   0.3848
   3.500   1.0494   0.00692   0.00240  -0.1449  0.4927  1.0000  -1.1962   0.0000   0.0000   0.0000   0.3831
   3.600   1.0597   0.00697   0.00243  -0.1447  0.4896  1.0000  -1.2074   0.0000   0.0000   0.0000   0.3816
   3.700   1.0698   0.00703   0.00247  -0.1446  0.4859  1.0000  -1.2185   0.0000   0.0000   0.0000   0.3800
   3.800   1.0796   0.00710   0.00252  -0.1443  0.4812  1.0000  -1.2293   0.0000   0.0000   0.0000   0.3784
   3.900   1.0889   0.00720   0.00257  -0.1440  0.4752  1.0000  -1.2399   0.0000   0.0000   0.0000   0.3768
   4.000   1.0979   0.00732   0.00262  -0.1436  0.4672  1.0000  -1.2501   0.0000   0.0000   0.0000   0.3753
   4.100   1.1069   0.00743   0.00269  -0.1432  0.4577  1.0000  -1.2604   0.0000   0.0000   0.0000   0.3738
   4.200   1.1162   0.00754   0.00276  -0.1429  0.4492  1.0000  -1.2708   0.0000   0.0000   0.0000   0.3723
   4.300   1.1270   0.00756   0.00279  -0.1428  0.4475  1.0000  -1.2913   0.0000   0.0000   0.0000   0.3709
   4.400   1.1378   0.00758   0.00282  -0.1428  0.4462  1.0000  -1.3380   0.0000   0.0000   0.0000   0.3695
   4.500   1.1484   0.00760   0.00286  -0.1427  0.4447  1.0000  -1.3848   0.0000   0.0000   0.0000   0.3682
   4.600   1.1590   0.00764   0.00290  -0.1427  0.4432  1.0000  -1.4318   0.0000   0.0000   0.0000   0.3669
   4.700   1.1694   0.00768   0.00295  -0.1426  0.4413  1.0000  -1.4791   0.0000   0.0000   0.0000   0.3655
   4.800   1.1797   0.00773   0.00299  -0.1424  0.4387  1.0000  -1.5341   0.0000   0.0000   0.0000   0.3642
   4.900   1.1897   0.00779   0.00305  -0.1422  0.4343  1.0000  -1.6054   0.0000   0.0000   0.0000   0.3629
   5.000   1.1991   0.00788   0.00311  -0.1419  0.4276  1.0000  -1.6758   0.0000   0.0000   0.0000   0.3616
   5.100   1.2077   0.00802   0.00318  -0.1415  0.4185  1.0000  -1.7441   0.0000   0.0000   0.0000   0.3603
   5.200   1.2158   0.00818   0.00326  -0.1410  0.4062  1.0000  -1.8116   0.0000   0.0000   0.0000   0.3589
   5.300   1.2317   0.00795   0.00340  -0.1419  0.4331  1.0000  -1.9242   0.0000   0.0000   0.0000   0.3580
   5.400   1.2405   0.00807   0.00347  -0.1414  0.4243  1.0000  -2.0009   0.0000   0.0000   0.0000   0.3568
   5.500   1.2491   0.00820   0.00355  -0.1410  0.4165  1.0000  -2.0755   0.0000   0.0000   0.0000   0.3555
   5.600   1.2579   0.00832   0.00363  -0.1406  0.4084  1.0000  -2.1507   0.0000   0.0000   0.0000   0.3543
   5.700   1.2669   0.00843   0.00371  -0.1403  0.4002  1.0000  -2.2275   0.0000   0.0000   0.0000   0.3530
   5.800   1.2766   0.00851   0.00379  -0.1400  0.3955  1.0000  -2.3073   0.0000   0.0000   0.0000   0.3519
   5.900   1.2869   0.00855   0.00385  -0.1399  0.3940  1.0000  -2.3902   0.0000   0.0000   0.0000   0.3508
   6.000   1.2970   0.00860   0.00391  -0.1398  0.3918  1.0000  -2.4734   0.0000   0.0000   0.0000   0.3497
   6.100   1.3070   0.00866   0.00398  -0.1396  0.3885  1.0000  -2.5566   0.0000   0.0000   0.0000   0.3486
   6.200   1.3164   0.00875   0.00405  -0.1393  0.3830  1.0000  -2.6390   0.0000   0.0000   0.0000   0.3475
   6.300   1.3246   0.00890   0.00415  -0.1388  0.3716  1.0000  -2.7169   0.0000   0.0000   0.0000   0.3463
   6.400   1.3306   0.00918   0.00429  -0.1379  0.3527  1.0000  -2.7870   0.0000   0.0000   0.0000   0.3450
   6.500   1.3386   0.00934   0.00440  -0.1374  0.3387  1.0000  -2.8656   0.0000   0.0000   0.0000   0.3439
   6.600   1.3447   0.00962   0.00456  -0.1365  0.3195  1.0000  -2.9373   0.0000   0.0000   0.0000   0.3426
   6.700   1.3491   0.01001   0.00478  -0.1354  0.2906  1.0000  -3.0021   0.0000   0.0000   0.0000   0.3413
   6.800   1.3530   0.01043   0.00504  -0.1342  0.2646  1.0000  -3.0653   0.0000   0.0000   0.0000   0.3400
   7.000   1.3576   0.01151   0.00569  -0.1313  0.1963  1.0000  -3.1784   0.0000   0.0000   0.0000   0.3373
   7.100   1.3584   0.01213   0.00609  -0.1295  0.1632  1.0000  -3.2284   0.0000   0.0000   0.0000   0.3358
   7.200   1.3601   0.01265   0.00644  -0.1280  0.1360  1.0000  -3.2829   0.0000   0.0000   0.0000   0.3344
   7.300   1.3621   0.01311   0.00675  -0.1264  0.1116  1.0000  -3.3387   0.0000   0.0000   0.0000   0.3330
   7.400   1.3628   0.01362   0.00712  -0.1246  0.0878  1.0000  -3.3892   0.0000   0.0000   0.0000   0.3315
   7.500   1.3658   0.01401   0.00740  -0.1233  0.0743  1.0000  -3.4503   0.0000   0.0000   0.0000   0.3302
   7.600   1.3686   0.01439   0.00769  -0.1219  0.0588  1.0000  -3.5111   0.0000   0.0000   0.0000   0.3288
   7.700   1.3737   0.01466   0.00792  -0.1209  0.0528  1.0000  -3.5825   0.0000   0.0000   0.0000   0.3276
   7.800   1.3781   0.01496   0.00816  -0.1198  0.0467  1.0000  -3.6513   0.0000   0.0000   0.0000   0.3264
   7.900   1.3835   0.01520   0.00837  -0.1188  0.0397  1.0000  -3.7251   0.0000   0.0000   0.0000   0.3253
   8.000   1.3902   0.01539   0.00855  -0.1181  0.0362  1.0000  -3.8052   0.0000   0.0000   0.0000   0.3242
   8.100   1.3966   0.01558   0.00874  -0.1174  0.0343  1.0000  -3.8850   0.0000   0.0000   0.0000   0.3231
   8.200   1.4025   0.01579   0.00894  -0.1165  0.0323  1.0000  -3.9634   0.0000   0.0000   0.0000   0.3220
   8.300   1.4081   0.01602   0.00916  -0.1157  0.0302  1.0000  -4.0404   0.0000   0.0000   0.0000   0.3209
   8.400   1.4136   0.01627   0.00938  -0.1148  0.0282  1.0000  -4.1166   0.0000   0.0000   0.0000   0.3198
   8.500   1.4192   0.01650   0.00960  -0.1139  0.0258  1.0000  -4.1932   0.0000   0.0000   0.0000   0.3188
   8.600   1.4252   0.01673   0.00981  -0.1131  0.0228  1.0000  -4.2698   0.0000   0.0000   0.0000   0.3177
   8.700   1.4302   0.01700   0.01011  -0.1121  0.0195  1.0000  -4.3323   0.0000   0.0000   0.0000   0.3166
   8.800   1.4371   0.01716   0.01028  -0.1115  0.0194  1.0000  -4.4216   0.0000   0.0000   0.0000   0.3156
   8.900   1.4441   0.01732   0.01046  -0.1109  0.0192  1.0000  -4.5114   0.0000   0.0000   0.0000   0.3147
   9.000   1.4508   0.01749   0.01065  -0.1103  0.0189  1.0000  -4.6008   0.0000   0.0000   0.0000   0.3137
   9.100   1.4565   0.01773   0.01088  -0.1096  0.0175  1.0000  -4.6833   0.0000   0.0000   0.0000   0.3128
   9.300   1.4194   0.02116   0.01479  -0.0999  0.0078  1.0000  -4.2319   0.0000   0.0000   0.0000   0.3076
   9.400   1.4199   0.02174   0.01542  -0.0984  0.0078  1.0000  -4.2661   0.0000   0.0000   0.0000   0.3064
   9.500   1.4203   0.02233   0.01607  -0.0970  0.0078  1.0000  -4.3006   0.0000   0.0000   0.0000   0.3052
   9.600   1.4209   0.02294   0.01673  -0.0956  0.0078  1.0000  -4.3359   0.0000   0.0000   0.0000   0.3041
   9.700   1.4215   0.02357   0.01741  -0.0943  0.0078  1.0000  -4.3714   0.0000   0.0000   0.0000   0.3030
   9.800   1.4215   0.02423   0.01812  -0.0929  0.0078  1.0000  -4.4050   0.0000   0.0000   0.0000   0.3019
   9.900   1.4208   0.02491   0.01885  -0.0915  0.0078  1.0000  -4.4363   0.0000   0.0000   0.0000   0.3007
  10.000   1.4206   0.02559   0.01958  -0.0902  0.0078  1.0000  -4.4693   0.0000   0.0000   0.0000   0.2996
  10.100   1.4207   0.02630   0.02033  -0.0890  0.0078  1.0000  -4.5036   0.0000   0.0000   0.0000   0.2986
  10.200   1.4426   0.02545   0.01948  -0.0903  0.0091  1.0000  -4.6558   0.0000   0.0000   0.0000   0.2984
  10.300   1.4445   0.02602   0.02008  -0.0893  0.0091  1.0000  -4.7029   0.0000   0.0000   0.0000   0.2974
  10.400   1.4464   0.02661   0.02071  -0.0883  0.0092  1.0000  -4.7500   0.0000   0.0000   0.0000   0.2965
  10.500   1.4477   0.02725   0.02139  -0.0872  0.0092  1.0000  -4.7948   0.0000   0.0000   0.0000   0.2955
  10.600   1.4484   0.02795   0.02213  -0.0862  0.0093  1.0000  -4.8370   0.0000   0.0000   0.0000   0.2946
  10.700   1.4495   0.02864   0.02286  -0.0852  0.0093  1.0000  -4.8808   0.0000   0.0000   0.0000   0.2937
  10.800   1.4509   0.02933   0.02359  -0.0843  0.0094  1.0000  -4.9260   0.0000   0.0000   0.0000   0.2928
  10.900   1.4524   0.03003   0.02434  -0.0834  0.0094  1.0000  -4.9715   0.0000   0.0000   0.0000   0.2920
  11.000   1.4539   0.03075   0.02509  -0.0825  0.0094  1.0000  -5.0171   0.0000   0.0000   0.0000   0.2911
  11.100   1.4549   0.03151   0.02589  -0.0816  0.0095  1.0000  -5.0606   0.0000   0.0000   0.0000   0.2903
  11.200   1.4552   0.03233   0.02676  -0.0807  0.0095  1.0000  -5.1005   0.0000   0.0000   0.0000   0.2895
  11.300   1.4558   0.03314   0.02761  -0.0798  0.0095  1.0000  -5.1420   0.0000   0.0000   0.0000   0.2887
  11.400   1.4568   0.03394   0.02844  -0.0790  0.0096  1.0000  -5.1851   0.0000   0.0000   0.0000   0.2879
  11.500   1.4581   0.03472   0.02927  -0.0782  0.0096  1.0000  -5.2290   0.0000   0.0000   0.0000   0.2871
  11.600   1.4594   0.03551   0.03010  -0.0774  0.0096  1.0000  -5.2731   0.0000   0.0000   0.0000   0.2864
  11.700   1.4607   0.03631   0.03094  -0.0767  0.0096  1.0000  -5.3170   0.0000   0.0000   0.0000   0.2856
  11.800   1.4617   0.03713   0.03181  -0.0759  0.0097  1.0000  -5.3594   0.0000   0.0000   0.0000   0.2849
  11.900   1.4618   0.03804   0.03276  -0.0752  0.0097  1.0000  -5.3974   0.0000   0.0000   0.0000   0.2842
  12.000   1.4622   0.03894   0.03370  -0.0744  0.0097  1.0000  -5.4363   0.0000   0.0000   0.0000   0.2835
  12.100   1.4630   0.03980   0.03460  -0.0737  0.0097  1.0000  -5.4773   0.0000   0.0000   0.0000   0.2828
  12.200   1.4641   0.04064   0.03549  -0.0730  0.0098  1.0000  -5.5192   0.0000   0.0000   0.0000   0.2821
  12.300   1.4650   0.04145   0.03634  -0.0723  0.0098  1.0000  -5.5602   0.0000   0.0000   0.0000   0.2814
  12.400   1.4660   0.04227   0.03720  -0.0716  0.0098  1.0000  -5.6012   0.0000   0.0000   0.0000   0.2807
  12.500   1.4671   0.04310   0.03807  -0.0710  0.0098  1.0000  -5.6428   0.0000   0.0000   0.0000   0.2800
  12.600   1.4684   0.04394   0.03896  -0.0703  0.0098  1.0000  -5.6849   0.0000   0.0000   0.0000   0.2794
  12.700   1.4698   0.04482   0.03988  -0.0697  0.0098  1.0000  -5.7272   0.0000   0.0000   0.0000   0.2787
  12.800   1.4706   0.04577   0.04089  -0.0692  0.0098  1.0000  -5.7664   0.0000   0.0000   0.0000   0.2781
  12.900   1.4710   0.04679   0.04195  -0.0686  0.0098  1.0000  -5.8041   0.0000   0.0000   0.0000   0.2775
  13.000   1.4718   0.04779   0.04300  -0.0681  0.0098  1.0000  -5.8431   0.0000   0.0000   0.0000   0.2769
  13.100   1.4729   0.04879   0.04405  -0.0676  0.0098  1.0000  -5.8836   0.0000   0.0000   0.0000   0.2764
  13.200   1.4741   0.04979   0.04509  -0.0671  0.0098  1.0000  -5.9251   0.0000   0.0000   0.0000   0.2758
  13.300   1.4754   0.05080   0.04615  -0.0666  0.0098  1.0000  -5.9669   0.0000   0.0000   0.0000   0.2753
  13.400   1.4768   0.05182   0.04722  -0.0662  0.0097  1.0000  -6.0088   0.0000   0.0000   0.0000   0.2747
  13.500   1.4780   0.05286   0.04831  -0.0657  0.0097  1.0000  -6.0505   0.0000   0.0000   0.0000   0.2742
  13.600   1.4791   0.05393   0.04943  -0.0653  0.0096  1.0000  -6.0916   0.0000   0.0000   0.0000   0.2737
  13.700   1.4800   0.05503   0.05058  -0.0649  0.0096  1.0000  -6.1320   0.0000   0.0000   0.0000   0.2732
  13.800   1.4807   0.05616   0.05176  -0.0645  0.0095  1.0000  -6.1713   0.0000   0.0000   0.0000   0.2727
  13.900   1.4812   0.05734   0.05299  -0.0642  0.0095  1.0000  -6.2089   0.0000   0.0000   0.0000   0.2723
  14.000   1.4805   0.05864   0.05434  -0.0639  0.0094  1.0000  -6.2406   0.0000   0.0000   0.0000   0.2719
  14.100   1.4792   0.06004   0.05580  -0.0636  0.0093  1.0000  -6.2680   0.0000   0.0000   0.0000   0.2716
  14.200   1.4780   0.06144   0.05725  -0.0634  0.0093  1.0000  -6.2954   0.0000   0.0000   0.0000   0.2712
  14.300   1.4769   0.06283   0.05870  -0.0631  0.0092  1.0000  -6.3223   0.0000   0.0000   0.0000   0.2709
  14.400   1.4756   0.06425   0.06018  -0.0629  0.0091  1.0000  -6.3472   0.0000   0.0000   0.0000   0.2706
  14.500   1.4741   0.06572   0.06170  -0.0627  0.0090  1.0000  -6.3692   0.0000   0.0000   0.0000   0.2703
  14.600   1.4722   0.06724   0.06329  -0.0625  0.0089  1.0000  -6.3874   0.0000   0.0000   0.0000   0.2700
  14.700   1.4698   0.06883   0.06494  -0.0624  0.0089  1.0000  -6.4013   0.0000   0.0000   0.0000   0.2698
  14.800   1.4669   0.07049   0.06667  -0.0623  0.0088  1.0000  -6.4246   0.0000   0.0000   0.0000   0.2696
  14.900   1.4624   0.07233   0.06859  -0.0623  0.0087  1.0000  -6.4429   0.0000   0.0000   0.0000   0.2695
  15.000   1.4572   0.07427   0.07060  -0.0624  0.0086  1.0000  -6.4542   0.0000   0.0000   0.0000   0.2696
  15.100   1.4523   0.07619   0.07259  -0.0626  0.0086  1.0000  -6.4654   0.0000   0.0000   0.0000   0.2696
  15.200   1.4473   0.07815   0.07462  -0.0627  0.0085  1.0000  -6.4736   0.0000   0.0000   0.0000   0.2697
  15.300   1.4419   0.08015   0.07670  -0.0630  0.0084  1.0000  -6.4770   0.0000   0.0000   0.0000   0.2698
  15.400   1.4361   0.08221   0.07883  -0.0633  0.0084  1.0000  -6.4751   0.0000   0.0000   0.0000   0.2700
  15.500   1.4295   0.08437   0.08107  -0.0637  0.0083  1.0000  -6.4666   0.0000   0.0000   0.0000   0.2703
  15.600   1.4220   0.08657   0.08334  -0.0644  0.0083  1.0000  -6.4522   0.0000   0.0000   0.0000   0.2708
  15.700   1.4150   0.08861   0.08546  -0.0650  0.0083  1.0000  -6.4379   0.0000   0.0000   0.0000   0.2712
  15.800   1.4081   0.09067   0.08759  -0.0656  0.0082  1.0000  -6.4216   0.0000   0.0000   0.0000   0.2717
  15.900   1.4010   0.09281   0.08981  -0.0664  0.0082  1.0000  -6.4023   0.0000   0.0000   0.0000   0.2722
  16.000   1.3937   0.09509   0.09217  -0.0672  0.0081  1.0000  -6.3802   0.0000   0.0000   0.0000   0.2729
  16.100   1.3859   0.09760   0.09474  -0.0684  0.0081  1.0000  -6.3561   0.0000   0.0000   0.0000   0.2738
  16.200   1.3784   0.10009   0.09730  -0.0695  0.0081  1.0000  -6.3306   0.0000   0.0000   0.0000   0.2747
  16.300   1.3710   0.10262   0.09989  -0.0706  0.0081  1.0000  -6.3031   0.0000   0.0000   0.0000   0.2756
  16.400   1.3637   0.10523   0.10258  -0.0718  0.0080  1.0000  -6.2736   0.0000   0.0000   0.0000   0.2765
  16.500   1.3563   0.10794   0.10536  -0.0732  0.0080  1.0000  -6.2433   0.0000   0.0000   0.0000   0.2776
  16.600   1.3486   0.11080   0.10827  -0.0748  0.0080  1.0000  -6.2144   0.0000   0.0000   0.0000   0.2789
  16.700   1.3413   0.11364   0.11117  -0.0763  0.0080  1.0000  -6.1823   0.0000   0.0000   0.0000   0.2801
  16.800   1.3342   0.11655   0.11415  -0.0778  0.0080  1.0000  -6.1477   0.0000   0.0000   0.0000   0.2813
  16.900   1.3270   0.11951   0.11718  -0.0793  0.0080  1.0000  -6.1119   0.0000   0.0000   0.0000   0.2827
  17.000   1.3199   0.12256   0.12028  -0.0810  0.0080  1.0000  -6.0773   0.0000   0.0000   0.0000   0.2841
  17.100   1.3128   0.12573   0.12350  -0.0829  0.0080  1.0000  -6.0452   0.0000   0.0000   0.0000   0.2857
  17.200   1.3060   0.12892   0.12675  -0.0848  0.0080  1.0000  -6.0081   0.0000   0.0000   0.0000   0.2872
  17.300   1.2993   0.13215   0.13004  -0.0866  0.0080  1.0000  -5.9687   0.0000   0.0000   0.0000   0.2888
  17.400   1.2927   0.13543   0.13337  -0.0884  0.0079  1.0000  -5.9284   0.0000   0.0000   0.0000   0.2904
  17.500   1.2861   0.13882   0.13682  -0.0904  0.0080  1.0000  -5.8911   0.0000   0.0000   0.0000   0.2921
  17.600   1.2798   0.14232   0.14036  -0.0925  0.0080  1.0000  -5.8543   0.0000   0.0000   0.0000   0.2939
  17.700   1.2736   0.14582   0.14391  -0.0946  0.0080  1.0000  -5.8122   0.0000   0.0000   0.0000   0.2957
  17.800   1.2674   0.14936   0.14749  -0.0966  0.0080  1.0000  -5.7682   0.0000   0.0000   0.0000   0.2975
  17.900   1.2614   0.15300   0.15118  -0.0986  0.0080  1.0000  -5.7238   0.0000   0.0000   0.0000   0.2994
  18.000   1.2557   0.15678   0.15500  -0.1009  0.0080  1.0000  -5.6839   0.0000   0.0000   0.0000   0.3014
  18.100   1.2500   0.16055   0.15881  -0.1030  0.0080  1.0000  -5.6377   0.0000   0.0000   0.0000   0.3033
  18.200   1.2443   0.16436   0.16266  -0.1051  0.0080  1.0000  -5.5883   0.0000   0.0000   0.0000   0.3053
  18.300   1.2389   0.16828   0.16662  -0.1073  0.0080  1.0000  -5.5377   0.0000   0.0000   0.0000   0.3072
  18.400   1.2336   0.17235   0.17073  -0.1096  0.0081  1.0000  -5.4894   0.0000   0.0000   0.0000   0.3094
  18.500   1.2283   0.17641   0.17483  -0.1118  0.0081  1.0000  -5.4346   0.0000   0.0000   0.0000   0.3114
  18.600   1.2231   0.18052   0.17897  -0.1139  0.0081  1.0000  -5.3759   0.0000   0.0000   0.0000   0.3134
  18.700   1.2181   0.18483   0.18331  -0.1161  0.0081  1.0000  -5.3158   0.0000   0.0000   0.0000   0.3155
  18.800   1.2130   0.18923   0.18774  -0.1183  0.0082  1.0000  -5.2505   0.0000   0.0000   0.0000   0.3177
  18.900   1.2079   0.19365   0.19219  -0.1204  0.0082  1.0000  -5.1790   0.0000   0.0000   0.0000   0.3197
  19.000   1.2028   0.19830   0.19687  -0.1226  0.0083  1.0000  -5.1008   0.0000   0.0000   0.0000   0.3219
  19.100   1.1977   0.20312   0.20171  -0.1247  0.0084  1.0000  -5.0132   0.0000   0.0000   0.0000   0.3241
  19.200   1.1923   0.20806   0.20668  -0.1268  0.0084  1.0000  -4.9151   0.0000   0.0000   0.0000   0.3262
  19.300   1.1864   0.21353   0.21216  -0.1289  0.0085  1.0000  -4.7927   0.0000   0.0000   0.0000   0.3286
  19.400   1.1799   0.21937   0.21802  -0.1310  0.0087  1.0000  -4.6443   0.0000   0.0000   0.0000   0.3310
  19.500   1.1720   0.22608   0.22475  -0.1332  0.0088  1.0000  -4.4435   0.0000   0.0000   0.0000   0.3337
  19.600   1.1643   0.23260   0.23126  -0.1352  0.0088  1.0000  -4.2511   0.0000   0.0000   0.0000   0.3362
  19.700   1.1586   0.23781   0.23648  -0.1369  0.0087  1.0000  -4.1309   0.0000   0.0000   0.0000   0.3383
  19.800   1.1525   0.24314   0.24180  -0.1386  0.0085  1.0000  -4.0059   0.0000   0.0000   0.0000   0.3404
  19.900   1.1445   0.24933   0.24798  -0.1406  0.0083  1.0000  -3.8371   0.0000   0.0000   0.0000   0.3430
  20.100   1.5391   0.12924   0.12619  -0.0899  0.0032  1.0000  -12.0886   0.0000   0.0000   0.0000   0.2719
  20.200   1.5388   0.13080   0.12776  -0.0907  0.0031  1.0000  -12.1721   0.0000   0.0000   0.0000   0.2722
  20.300   1.5400   0.13206   0.12901  -0.0914  0.0030  1.0000  -12.2807   0.0000   0.0000   0.0000   0.2723
  20.400   1.5420   0.13318   0.13013  -0.0920  0.0029  1.0000  -12.4030   0.0000   0.0000   0.0000   0.2724
  20.500   1.5442   0.13428   0.13121  -0.0926  0.0028  1.0000  -12.5280   0.0000   0.0000   0.0000   0.2724
  20.600   1.5460   0.13543   0.13235  -0.0933  0.0027  1.0000  -12.6480   0.0000   0.0000   0.0000   0.2724
  20.700   1.5473   0.13670   0.13360  -0.0939  0.0025  1.0000  -12.7565   0.0000   0.0000   0.0000   0.2725
  20.800   1.5475   0.13816   0.13506  -0.0947  0.0024  1.0000  -12.8453   0.0000   0.0000   0.0000   0.2727
  20.900   1.5461   0.13996   0.13687  -0.0957  0.0023  1.0000  -12.9019   0.0000   0.0000   0.0000   0.2731
  21.000   1.5423   0.14224   0.13919  -0.0969  0.0021  1.0000  -12.9141   0.0000   0.0000   0.0000   0.2737
  21.100   1.5338   0.14564   0.14266  -0.0988  0.0021  1.0000  -12.8496   0.0000   0.0000   0.0000   0.2751
  21.200   1.5256   0.14906   0.14614  -0.1006  0.0020  1.0000  -12.7847   0.0000   0.0000   0.0000   0.2764
  21.300   1.5188   0.15215   0.14928  -0.1022  0.0019  1.0000  -12.7271   0.0000   0.0000   0.0000   0.2775
  21.400   1.5097   0.15574   0.15296  -0.1041  0.0018  1.0000  -12.6183   0.0000   0.0000   0.0000   0.2789
  21.500   1.4994   0.15970   0.15702  -0.1061  0.0017  1.0000  -12.4840   0.0000   0.0000   0.0000   0.2805
  21.600   1.4894   0.16374   0.16114  -0.1082  0.0016  1.0000  -12.3590   0.0000   0.0000   0.0000   0.2821
  21.700   1.4806   0.16777   0.16523  -0.1104  0.0016  1.0000  -12.2793   0.0000   0.0000   0.0000   0.2839
  21.800   1.4713   0.17191   0.16945  -0.1125  0.0016  1.0000  -12.1671   0.0000   0.0000   0.0000   0.2856
  21.900   1.4617   0.17615   0.17377  -0.1146  0.0016  1.0000  -12.0374   0.0000   0.0000   0.0000   0.2873
  22.000   1.4524   0.18041   0.17811  -0.1168  0.0015  1.0000  -11.9114   0.0000   0.0000   0.0000   0.2891
  22.100   1.4433   0.18471   0.18249  -0.1189  0.0015  1.0000  -11.7936   0.0000   0.0000   0.0000   0.2909
  22.200   1.4348   0.18916   0.18699  -0.1212  0.0015  1.0000  -11.6985   0.0000   0.0000   0.0000   0.2928
  22.300   1.4261   0.19363   0.19152  -0.1234  0.0015  1.0000  -11.5870   0.0000   0.0000   0.0000   0.2947
  22.400   1.4172   0.19819   0.19614  -0.1255  0.0015  1.0000  -11.4603   0.0000   0.0000   0.0000   0.2965
  22.500   1.4084   0.20280   0.20082  -0.1277  0.0015  1.0000  -11.3334   0.0000   0.0000   0.0000   0.2984
  22.600   1.3997   0.20752   0.20560  -0.1299  0.0015  1.0000  -11.2083   0.0000   0.0000   0.0000   0.3004
  22.700   1.3908   0.21252   0.21065  -0.1322  0.0015  1.0000  -11.0912   0.0000   0.0000   0.0000   0.3025
  22.800   1.3819   0.21747   0.21564  -0.1344  0.0016  1.0000  -10.9566   0.0000   0.0000   0.0000   0.3046
  22.900   1.3729   0.22251   0.22074  -0.1365  0.0016  1.0000  -10.8125   0.0000   0.0000   0.0000   0.3066
  23.000   1.3636   0.22770   0.22599  -0.1387  0.0016  1.0000  -10.6639   0.0000   0.0000   0.0000   0.3088
  23.100   1.3538   0.23329   0.23162  -0.1410  0.0016  1.0000  -10.5101   0.0000   0.0000   0.0000   0.3111
  23.200   1.3438   0.23887   0.23725  -0.1433  0.0016  1.0000  -10.3443   0.0000   0.0000   0.0000   0.3135
  23.300   1.3335   0.24458   0.24300  -0.1454  0.0016  1.0000  -10.1634   0.0000   0.0000   0.0000   0.3158
  23.400   1.3225   0.25056   0.24904  -0.1476  0.0016  1.0000  -9.9667   0.0000   0.0000   0.0000   0.3183
  23.500   1.3093   0.25742   0.25595  -0.1500  0.0017  1.0000  -9.7303   0.0000   0.0000   0.0000   0.3213
  23.600   1.2957   0.26423   0.26280  -0.1523  0.0018  1.0000  -9.4749   0.0000   0.0000   0.0000   0.3243
  23.700   1.2796   0.27172   0.27034  -0.1547  0.0018  1.0000  -9.1639   0.0000   0.0000   0.0000   0.3277


