xflr5 v6.61

 Calculated polar for: NACA 65-209

 1 1 Reynolds number fixed          Mach number fixed         

 xtrf =   1.000 (top)        1.000 (bottom)
 Mach =   0.000     Re =     0.450 e 6     Ncrit =   9.000

  alpha     CL        CD       CDp       Cm    Top Xtr Bot Xtr   Cpmin    Chinge    XCp    
 ------- -------- --------- --------- -------- ------- ------- -------- --------- ---------
 -10.000  -0.4392   0.09597   0.09330  -0.0318  1.0000  0.0162  -1.8314   0.0000   0.0000   0.0000   0.1718
  -9.900  -0.4392   0.09456   0.09190  -0.0322  1.0000  0.0163  -1.8377   0.0000   0.0000   0.0000   0.1708
  -9.800  -0.4394   0.09314   0.09048  -0.0327  1.0000  0.0164  -1.8449   0.0000   0.0000   0.0000   0.1699
  -9.700  -0.4396   0.09170   0.08906  -0.0332  1.0000  0.0165  -1.8530   0.0000   0.0000   0.0000   0.1689
  -9.600  -0.4400   0.09027   0.08763  -0.0337  1.0000  0.0166  -1.8622   0.0000   0.0000   0.0000   0.1679
  -9.500  -0.4405   0.08882   0.08619  -0.0342  1.0000  0.0167  -1.8724   0.0000   0.0000   0.0000   0.1669
  -9.400  -0.4412   0.08736   0.08475  -0.0347  1.0000  0.0168  -1.8838   0.0000   0.0000   0.0000   0.1659
  -9.300  -0.4421   0.08590   0.08329  -0.0353  1.0000  0.0169  -1.8964   0.0000   0.0000   0.0000   0.1649
  -9.200  -0.4431   0.08441   0.08181  -0.0359  1.0000  0.0170  -1.9104   0.0000   0.0000   0.0000   0.1638
  -9.100  -0.4443   0.08289   0.08030  -0.0365  1.0000  0.0170  -1.9256   0.0000   0.0000   0.0000   0.1627
  -9.000  -0.4456   0.08134   0.07877  -0.0372  1.0000  0.0171  -1.9425   0.0000   0.0000   0.0000   0.1615
  -8.900  -0.4473   0.07976   0.07720  -0.0379  1.0000  0.0172  -1.9613   0.0000   0.0000   0.0000   0.1603
  -8.800  -0.4492   0.07815   0.07560  -0.0387  1.0000  0.0172  -1.9826   0.0000   0.0000   0.0000   0.1590
  -8.700  -0.4516   0.07648   0.07395  -0.0396  1.0000  0.0173  -2.0070   0.0000   0.0000   0.0000   0.1575
  -8.600  -0.4544   0.07474   0.07222  -0.0407  1.0000  0.0173  -2.0360   0.0000   0.0000   0.0000   0.1558
  -8.500  -0.4582   0.07286   0.07035  -0.0421  1.0000  0.0173  -2.0727   0.0000   0.0000   0.0000   0.1537
  -8.400  -0.4635   0.07078   0.06827  -0.0440  1.0000  0.0172  -2.1226   0.0000   0.0000   0.0000   0.1508
  -8.300  -0.4699   0.06895   0.06644  -0.0454  1.0000  0.0172  -2.1692   0.0000   0.0000   0.0000   0.1493
  -8.200  -0.4773   0.06743   0.06491  -0.0460  1.0000  0.0171  -2.2103   0.0000   0.0000   0.0000   0.1495
  -8.100  -0.4856   0.06618   0.06366  -0.0461  1.0000  0.0171  -2.2476   0.0000   0.0000   0.0000   0.1512
  -8.000  -0.4941   0.06530   0.06279  -0.0454  1.0000  0.0170  -2.2749   0.0000   0.0000   0.0000   0.1544
  -7.900  -0.5043   0.06459   0.06207  -0.0440  1.0000  0.0170  -2.3054   0.0000   0.0000   0.0000   0.1591
  -7.800  -0.5145   0.06394   0.06142  -0.0423  1.0000  0.0169  -2.3331   0.0000   0.0000   0.0000   0.1643
  -7.700  -0.5221   0.06302   0.06049  -0.0410  1.0000  0.0169  -2.3556   0.0000   0.0000   0.0000   0.1679
  -7.600  -0.5293   0.06213   0.05959  -0.0397  1.0000  0.0169  -2.3757   0.0000   0.0000   0.0000   0.1715
  -7.500  -0.5364   0.06129   0.05874  -0.0383  1.0000  0.0169  -2.3940   0.0000   0.0000   0.0000   0.1752
  -7.400  -0.5432   0.06048   0.05791  -0.0369  1.0000  0.0170  -2.4104   0.0000   0.0000   0.0000   0.1788
  -7.300  -0.5459   0.05926   0.05666  -0.0364  0.9997  0.0170  -2.4203   0.0000   0.0000   0.0000   0.1801
  -7.200  -0.5423   0.05745   0.05479  -0.0374  0.9987  0.0172  -2.4207   0.0000   0.0000   0.0000   0.1778
  -7.100  -0.5385   0.05566   0.05295  -0.0384  0.9976  0.0174  -2.4188   0.0000   0.0000   0.0000   0.1756
  -7.000  -0.5345   0.05376   0.05096  -0.0393  0.9962  0.0176  -2.4205   0.0000   0.0000   0.0000   0.1735
  -6.900  -0.5293   0.05203   0.04916  -0.0401  0.9946  0.0179  -2.4140   0.0000   0.0000   0.0000   0.1713
  -6.800  -0.5234   0.05032   0.04738  -0.0408  0.9929  0.0182  -2.4055   0.0000   0.0000   0.0000   0.1690
  -6.700  -0.5170   0.04864   0.04562  -0.0415  0.9910  0.0185  -2.3949   0.0000   0.0000   0.0000   0.1668
  -6.600  -0.5102   0.04700   0.04390  -0.0421  0.9889  0.0189  -2.3828   0.0000   0.0000   0.0000   0.1645
  -6.500  -0.5030   0.04539   0.04221  -0.0427  0.9867  0.0193  -2.3689   0.0000   0.0000   0.0000   0.1621
  -6.400  -0.4951   0.04382   0.04055  -0.0432  0.9844  0.0198  -2.3526   0.0000   0.0000   0.0000   0.1597
  -6.300  -0.4864   0.04230   0.03893  -0.0437  0.9822  0.0204  -2.3327   0.0000   0.0000   0.0000   0.1572
  -6.200  -0.4769   0.04082   0.03737  -0.0441  0.9800  0.0211  -2.3086   0.0000   0.0000   0.0000   0.1545
  -6.100  -0.4665   0.03945   0.03589  -0.0445  0.9779  0.0220  -2.2769   0.0000   0.0000   0.0000   0.1516
  -6.000  -0.4550   0.03808   0.03441  -0.0446  0.9758  0.0234  -2.2276   0.0000   0.0000   0.0000   0.1490
  -5.300  -0.3872   0.01691   0.01096  -0.0438  0.9623  0.0161  -3.0510   0.0000   0.0000   0.0000   0.1332
  -5.200  -0.3730   0.01720   0.01131  -0.0449  0.9606  0.0177  -2.8396   0.0000   0.0000   0.0000   0.1262
  -5.100  -0.3588   0.01732   0.01147  -0.0458  0.9587  0.0192  -2.6529   0.0000   0.0000   0.0000   0.1188
  -5.000  -0.3448   0.01720   0.01135  -0.0466  0.9565  0.0204  -2.4929   0.0000   0.0000   0.0000   0.1113
  -4.900  -0.3311   0.01697   0.01109  -0.0473  0.9536  0.0212  -2.3477   0.0000   0.0000   0.0000   0.1036
  -4.800  -0.3184   0.01671   0.01080  -0.0478  0.9500  0.0219  -2.2144   0.0000   0.0000   0.0000   0.0964
  -4.700  -0.3083   0.01638   0.01045  -0.0476  0.9486  0.0223  -2.0987   0.0000   0.0000   0.0000   0.0920
  -4.600  -0.2980   0.01605   0.01009  -0.0475  0.9470  0.0227  -2.0366   0.0000   0.0000   0.0000   0.0872
  -4.500  -0.2877   0.01571   0.00971  -0.0474  0.9451  0.0230  -1.9901   0.0000   0.0000   0.0000   0.0820
  -4.400  -0.2773   0.01538   0.00936  -0.0473  0.9430  0.0233  -1.9439   0.0000   0.0000   0.0000   0.0762
  -4.300  -0.2664   0.01542   0.00940  -0.0473  0.9407  0.0242  -1.8650   0.0000   0.0000   0.0000   0.0690
  -4.200  -0.2540   0.01700   0.01109  -0.0477  0.9382  0.0261  -1.6787   0.0000   0.0000   0.0000   0.0588
  -4.100  -0.2448   0.01537   0.00932  -0.0475  0.9357  0.0271  -1.7073   0.0000   0.0000   0.0000   0.0528
  -4.000  -0.2348   0.01451   0.00840  -0.0473  0.9331  0.0278  -1.6968   0.0000   0.0000   0.0000   0.0452
  -3.900  -0.2241   0.01416   0.00804  -0.0472  0.9305  0.0276  -1.6613   0.0000   0.0000   0.0000   0.0360
  -3.800  -0.2133   0.01397   0.00783  -0.0471  0.9278  0.0273  -1.6186   0.0000   0.0000   0.0000   0.0256
  -3.200  -0.1499   0.01215   0.00589  -0.0464  0.9102  0.0257  -1.4271   0.0000   0.0000   0.0000  -0.0630
  -3.100  -0.1399   0.01173   0.00544  -0.0462  0.9062  0.0256  -1.4098   0.0000   0.0000   0.0000  -0.0839
  -3.000  -0.1296   0.01142   0.00509  -0.0461  0.9013  0.0256  -1.3874   0.0000   0.0000   0.0000  -0.1097
  -2.900  -0.1199   0.01112   0.00476  -0.0459  0.8991  0.0256  -1.3625   0.0000   0.0000   0.0000  -0.1371
  -2.800  -0.1101   0.01085   0.00447  -0.0457  0.8974  0.0257  -1.3354   0.0000   0.0000   0.0000  -0.1690
  -2.700  -0.1003   0.01061   0.00421  -0.0455  0.8954  0.0258  -1.3060   0.0000   0.0000   0.0000  -0.2081
  -2.600  -0.0903   0.01038   0.00397  -0.0453  0.8932  0.0259  -1.2776   0.0000   0.0000   0.0000  -0.2563
  -2.500  -0.0807   0.01000   0.00352  -0.0450  0.8906  0.0266  -1.2740   0.0000   0.0000   0.0000  -0.3131
  -2.400  -0.0708   0.00965   0.00306  -0.0448  0.8879  0.0283  -1.2807   0.0000   0.0000   0.0000  -0.3886
  -2.300  -0.0605   0.00927   0.00256  -0.0445  0.8851  0.0404  -1.3436   0.0000   0.0000   0.0000  -0.4917
  -2.200  -0.0506   0.00893   0.00239  -0.0444  0.8823  0.0811  -1.3289   0.0000   0.0000   0.0000  -0.6342
  -2.100  -0.0430   0.00797   0.00215  -0.0445  0.8792  0.2812  -1.2927   0.0000   0.0000   0.0000  -0.7938
  -2.000  -0.0356   0.00706   0.00199  -0.0445  0.8762  0.4884  -1.2501   0.0000   0.0000   0.0000  -1.0107
  -1.900  -0.0268   0.00671   0.00200  -0.0442  0.8732  0.5870  -1.2001   0.0000   0.0000   0.0000  -1.4137
  -1.800  -0.0174   0.00656   0.00203  -0.0438  0.8702  0.6388  -1.1474   0.0000   0.0000   0.0000  -2.2936
  -1.700  -0.0078   0.00647   0.00207  -0.0434  0.8672  0.6732  -1.0942   0.0000   0.0000   0.0000  -5.3234
  -1.600   0.0023   0.00645   0.00209  -0.0432  0.8639  0.6952  -1.0396   0.0000   0.0000   0.0000  19.1908
  -1.500   0.0124   0.00644   0.00210  -0.0429  0.8604  0.7107  -0.9853   0.0000   0.0000   0.0000   3.7183
  -1.400   0.0224   0.00643   0.00216  -0.0426  0.8561  0.7258  -0.9318   0.0000   0.0000   0.0000   2.1640
  -1.300   0.0329   0.00649   0.00222  -0.0425  0.8511  0.7377  -0.8775   0.0000   0.0000   0.0000   1.5464
  -1.200   0.0437   0.00651   0.00224  -0.0424  0.8492  0.7461  -0.8232   0.0000   0.0000   0.0000   1.2257
  -1.100   0.0542   0.00650   0.00224  -0.0423  0.8475  0.7538  -0.7700   0.0000   0.0000   0.0000   1.0329
  -1.000   0.0639   0.00646   0.00226  -0.0419  0.8455  0.7655  -0.7193   0.0000   0.0000   0.0000   0.9080
  -0.900   0.0735   0.00646   0.00231  -0.0415  0.8432  0.7763  -0.6694   0.0000   0.0000   0.0000   0.8161
  -0.800   0.0833   0.00648   0.00236  -0.0411  0.8406  0.7861  -0.6195   0.0000   0.0000   0.0000   0.7446
  -0.700   0.0934   0.00652   0.00241  -0.0408  0.8380  0.7937  -0.5696   0.0000   0.0000   0.0000   0.6877
  -0.600   0.1037   0.00657   0.00245  -0.0406  0.8354  0.7986  -0.5201   0.0000   0.0000   0.0000   0.6418
  -0.500   0.1139   0.00654   0.00244  -0.0404  0.8327  0.8066  -0.4718   0.0000   0.0000   0.0000   0.6047
  -0.400   0.1239   0.00652   0.00244  -0.0401  0.8301  0.8132  -0.4248   0.0000   0.0000   0.0000   0.5738
  -0.300   0.1342   0.00651   0.00244  -0.0399  0.8274  0.8171  -0.3778   0.0000   0.0000   0.0000   0.5475
  -0.200   0.1446   0.00650   0.00243  -0.0398  0.8246  0.8204  -0.3466   0.0000   0.0000   0.0000   0.5250
  -0.100   0.1551   0.00650   0.00243  -0.0396  0.8218  0.8235  -0.3511   0.0000   0.0000   0.0000   0.5054
   0.000   0.1656   0.00651   0.00243  -0.0395  0.8189  0.8265  -0.3555   0.0000   0.0000   0.0000   0.4884
   0.100   0.1762   0.00652   0.00243  -0.0394  0.8159  0.8294  -0.3600   0.0000   0.0000   0.0000   0.4735
   0.200   0.1869   0.00653   0.00244  -0.0394  0.8127  0.8322  -0.3644   0.0000   0.0000   0.0000   0.4602
   0.300   0.1977   0.00656   0.00246  -0.0393  0.8090  0.8350  -0.3691   0.0000   0.0000   0.0000   0.4486
   0.400   0.2086   0.00661   0.00249  -0.0394  0.8046  0.8378  -0.3742   0.0000   0.0000   0.0000   0.4382
   0.500   0.2196   0.00667   0.00254  -0.0395  0.8002  0.8404  -0.4082   0.0000   0.0000   0.0000   0.4290
   0.600   0.2305   0.00666   0.00254  -0.0395  0.7988  0.8428  -0.4599   0.0000   0.0000   0.0000   0.4205
   0.700   0.2413   0.00665   0.00253  -0.0394  0.7967  0.8451  -0.5125   0.0000   0.0000   0.0000   0.4127
   0.800   0.2520   0.00664   0.00252  -0.0394  0.7939  0.8471  -0.5659   0.0000   0.0000   0.0000   0.4054
   0.900   0.2626   0.00663   0.00250  -0.0393  0.7902  0.8488  -0.6200   0.0000   0.0000   0.0000   0.3987
   1.000   0.2732   0.00659   0.00247  -0.0392  0.7858  0.8523  -0.6748   0.0000   0.0000   0.0000   0.3924
   1.100   0.2833   0.00653   0.00242  -0.0389  0.7807  0.8578  -0.7293   0.0000   0.0000   0.0000   0.3864
   1.200   0.2928   0.00649   0.00236  -0.0385  0.7740  0.8623  -0.7835   0.0000   0.0000   0.0000   0.3804
   1.300   0.3020   0.00648   0.00231  -0.0379  0.7654  0.8663  -0.8376   0.0000   0.0000   0.0000   0.3745
   1.400   0.3113   0.00652   0.00228  -0.0374  0.7532  0.8699  -0.8924   0.0000   0.0000   0.0000   0.3690
   1.500   0.3209   0.00649   0.00226  -0.0370  0.7461  0.8734  -0.9489   0.0000   0.0000   0.0000   0.3641
   1.600   0.3305   0.00646   0.00224  -0.0366  0.7375  0.8768  -1.0064   0.0000   0.0000   0.0000   0.3596
   1.700   0.3402   0.00645   0.00221  -0.0362  0.7269  0.8800  -1.0644   0.0000   0.0000   0.0000   0.3552
   1.800   0.3498   0.00648   0.00218  -0.0359  0.7165  0.8832  -1.1230   0.0000   0.0000   0.0000   0.3511
   1.900   0.3595   0.00652   0.00218  -0.0356  0.7068  0.8863  -1.1824   0.0000   0.0000   0.0000   0.3474
   2.000   0.3697   0.00656   0.00219  -0.0354  0.6987  0.8893  -1.2433   0.0000   0.0000   0.0000   0.3441
   2.100   0.3800   0.00656   0.00221  -0.0352  0.6923  0.8921  -1.3055   0.0000   0.0000   0.0000   0.3411
   2.200   0.3901   0.00658   0.00221  -0.0350  0.6810  0.8947  -1.3676   0.0000   0.0000   0.0000   0.3381
   2.300   0.3996   0.00664   0.00220  -0.0346  0.6639  0.8969  -1.4284   0.0000   0.0000   0.0000   0.3350
   2.400   0.4091   0.00672   0.00220  -0.0343  0.6460  0.8989  -1.4894   0.0000   0.0000   0.0000   0.3321
   2.500   0.4184   0.00678   0.00217  -0.0339  0.6182  0.9025  -1.5501   0.0000   0.0000   0.0000   0.3293
   2.600   0.4260   0.00692   0.00214  -0.0333  0.5753  0.9081  -1.6058   0.0000   0.0000   0.0000   0.3262
   2.700   0.4322   0.00717   0.00214  -0.0323  0.5159  0.9132  -1.6566   0.0000   0.0000   0.0000   0.3228
   2.800   0.4355   0.00769   0.00224  -0.0310  0.4164  0.9183  -1.6981   0.0000   0.0000   0.0000   0.3190
   2.900   0.4378   0.00843   0.00246  -0.0296  0.2985  0.9237  -1.7343   0.0000   0.0000   0.0000   0.3156
   3.000   0.4408   0.00913   0.00270  -0.0284  0.1838  0.9291  -1.7696   0.0000   0.0000   0.0000   0.3124
   3.100   0.4429   0.00993   0.00298  -0.0271  0.0689  0.9345  -1.7969   0.0000   0.0000   0.0000   0.3091
   3.200   0.4471   0.01067   0.00372  -0.0255  0.0241  0.9396  -1.6642   0.0000   0.0000   0.0000   0.3048
   3.300   0.4558   0.01079   0.00386  -0.0250  0.0238  0.9434  -1.7066   0.0000   0.0000   0.0000   0.3026
   3.400   0.4644   0.01093   0.00402  -0.0245  0.0236  0.9466  -1.7465   0.0000   0.0000   0.0000   0.3005
   3.500   0.4726   0.01108   0.00420  -0.0240  0.0233  0.9492  -1.7840   0.0000   0.0000   0.0000   0.2983
   3.600   0.4833   0.01127   0.00443  -0.0240  0.0230  0.9544  -1.8241   0.0000   0.0000   0.0000   0.2972
   3.700   0.4950   0.01150   0.00470  -0.0243  0.0228  0.9605  -1.8646   0.0000   0.0000   0.0000   0.2966
   3.800   0.5069   0.01177   0.00501  -0.0246  0.0227  0.9662  -1.9040   0.0000   0.0000   0.0000   0.2960
   3.900   0.5189   0.01208   0.00535  -0.0250  0.0226  0.9713  -1.9422   0.0000   0.0000   0.0000   0.2955
   4.000   0.5308   0.01241   0.00573  -0.0253  0.0225  0.9759  -1.9791   0.0000   0.0000   0.0000   0.2950
   4.100   0.5426   0.01278   0.00614  -0.0256  0.0225  0.9803  -2.0144   0.0000   0.0000   0.0000   0.2944
   4.200   0.5542   0.01318   0.00657  -0.0258  0.0225  0.9848  -2.0481   0.0000   0.0000   0.0000   0.2938
   4.300   0.5656   0.01362   0.00705  -0.0261  0.0225  0.9893  -2.0800   0.0000   0.0000   0.0000   0.2932
   4.400   0.5771   0.01410   0.00756  -0.0262  0.0226  0.9941  -2.1102   0.0000   0.0000   0.0000   0.2925
   4.500   0.5885   0.01463   0.00812  -0.0264  0.0227  0.9994  -2.1384   0.0000   0.0000   0.0000   0.2919
   4.600   0.5965   0.01513   0.00865  -0.0259  0.0228  1.0000  -2.1600   0.0000   0.0000   0.0000   0.2904
   4.700   0.6052   0.01571   0.00926  -0.0255  0.0230  1.0000  -2.1799   0.0000   0.0000   0.0000   0.2890
   4.800   0.6145   0.01638   0.00996  -0.0252  0.0231  1.0000  -2.1969   0.0000   0.0000   0.0000   0.2879
   4.900   0.6242   0.01721   0.01083  -0.0250  0.0233  1.0000  -2.2073   0.0000   0.0000   0.0000   0.2868
   5.300   0.6646   0.01962   0.01340  -0.0246  0.0233  1.0000  -2.3390   0.0000   0.0000   0.0000   0.2834
   5.400   0.6749   0.01914   0.01288  -0.0246  0.0225  1.0000  -2.4505   0.0000   0.0000   0.0000   0.2829
   5.500   0.6851   0.01898   0.01270  -0.0247  0.0216  1.0000  -2.5464   0.0000   0.0000   0.0000   0.2823
   5.600   0.6951   0.01902   0.01275  -0.0247  0.0209  1.0000  -2.6310   0.0000   0.0000   0.0000   0.2817
   5.700   0.7052   0.01936   0.01310  -0.0246  0.0204  1.0000  -2.6922   0.0000   0.0000   0.0000   0.2810
   5.800   0.7152   0.01986   0.01364  -0.0245  0.0202  1.0000  -2.7399   0.0000   0.0000   0.0000   0.2803
   5.900   0.7252   0.02036   0.01417  -0.0244  0.0200  1.0000  -2.7895   0.0000   0.0000   0.0000   0.2796
   6.000   0.7350   0.02084   0.01470  -0.0243  0.0197  1.0000  -2.8417   0.0000   0.0000   0.0000   0.2789
   6.100   0.7448   0.02132   0.01521  -0.0241  0.0194  1.0000  -2.9319   0.0000   0.0000   0.0000   0.2782
   6.300   0.7590   0.02539   0.01986  -0.0216  0.0134  1.0000  -3.4044   0.0000   0.0000   0.0000   0.2741
   6.400   0.7670   0.02847   0.02336  -0.0197  0.0160  1.0000  -3.1011   0.0000   0.0000   0.0000   0.2714
   6.500   0.7708   0.03144   0.02664  -0.0181  0.0186  1.0000  -2.9081   0.0000   0.0000   0.0000   0.2691
   6.600   0.7713   0.03429   0.02971  -0.0166  0.0209  1.0000  -2.7896   0.0000   0.0000   0.0000   0.2671
   8.000   0.7875   0.05488   0.05173  -0.0003  0.0199  1.0000  -2.8245   0.0000   0.0000   0.0000   0.2453
   8.100   0.7898   0.05564   0.05253   0.0006  0.0191  1.0000  -2.8573   0.0000   0.0000   0.0000   0.2441
   8.200   0.7905   0.05646   0.05340   0.0016  0.0185  1.0000  -2.8806   0.0000   0.0000   0.0000   0.2428
   8.300   0.7894   0.05738   0.05436   0.0026  0.0181  1.0000  -2.8942   0.0000   0.0000   0.0000   0.2414
   8.400   0.7871   0.05833   0.05536   0.0037  0.0178  1.0000  -2.9012   0.0000   0.0000   0.0000   0.2399
   8.500   0.7835   0.05930   0.05637   0.0050  0.0176  1.0000  -2.9026   0.0000   0.0000   0.0000   0.2383
   8.600   0.7778   0.06017   0.05727   0.0065  0.0175  1.0000  -2.8964   0.0000   0.0000   0.0000   0.2362
   8.700   0.7697   0.06092   0.05806   0.0085  0.0175  1.0000  -2.8826   0.0000   0.0000   0.0000   0.2335
   8.800   0.7614   0.06172   0.05889   0.0103  0.0175  1.0000  -2.8664   0.0000   0.0000   0.0000   0.2309
   8.900   0.7527   0.06259   0.05979   0.0119  0.0175  1.0000  -2.8467   0.0000   0.0000   0.0000   0.2285
   9.000   0.7440   0.06355   0.06079   0.0133  0.0175  1.0000  -2.8247   0.0000   0.0000   0.0000   0.2263
   9.100   0.7350   0.06460   0.06187   0.0145  0.0176  1.0000  -2.7991   0.0000   0.0000   0.0000   0.2245
   9.200   0.7258   0.06573   0.06303   0.0154  0.0177  1.0000  -2.7700   0.0000   0.0000   0.0000   0.2228
   9.300   0.7165   0.06697   0.06430   0.0161  0.0179  1.0000  -2.7373   0.0000   0.0000   0.0000   0.2215
   9.400   0.7071   0.06836   0.06572   0.0165  0.0180  1.0000  -2.7003   0.0000   0.0000   0.0000   0.2205
   9.500   0.6979   0.06987   0.06726   0.0167  0.0183  1.0000  -2.6606   0.0000   0.0000   0.0000   0.2198
   9.600   0.6890   0.07145   0.06886   0.0167  0.0185  1.0000  -2.6200   0.0000   0.0000   0.0000   0.2195
   9.700   0.6818   0.07292   0.07036   0.0164  0.0186  1.0000  -2.5891   0.0000   0.0000   0.0000   0.2196
  10.700   0.6306   0.09424   0.09172   0.0043  0.0189  1.0000  -2.1864   0.0000   0.0000   0.0000   0.2359
  10.800   0.6286   0.09630   0.09377   0.0033  0.0188  1.0000  -2.1572   0.0000   0.0000   0.0000   0.2375
  10.900   0.6269   0.09832   0.09578   0.0022  0.0187  1.0000  -2.1305   0.0000   0.0000   0.0000   0.2391
  11.000   0.6254   0.10031   0.09776   0.0012  0.0186  1.0000  -2.1058   0.0000   0.0000   0.0000   0.2406
  11.100   0.6241   0.10227   0.09971   0.0003  0.0184  1.0000  -2.0828   0.0000   0.0000   0.0000   0.2420
  11.200   0.6231   0.10420   0.10164  -0.0007  0.0183  1.0000  -2.0614   0.0000   0.0000   0.0000   0.2435
  11.300   0.6223   0.10612   0.10355  -0.0016  0.0181  1.0000  -2.0415   0.0000   0.0000   0.0000   0.2449
  11.400   0.6216   0.10802   0.10544  -0.0025  0.0179  1.0000  -2.0228   0.0000   0.0000   0.0000   0.2462
  11.500   0.6211   0.10990   0.10732  -0.0034  0.0177  1.0000  -2.0055   0.0000   0.0000   0.0000   0.2476
  11.600   0.6208   0.11176   0.10917  -0.0042  0.0175  1.0000  -1.9895   0.0000   0.0000   0.0000   0.2489
  11.700   0.6206   0.11361   0.11101  -0.0051  0.0174  1.0000  -1.9747   0.0000   0.0000   0.0000   0.2502
  11.800   0.6206   0.11544   0.11284  -0.0059  0.0172  1.0000  -1.9611   0.0000   0.0000   0.0000   0.2515
  11.900   0.6207   0.11726   0.11465  -0.0068  0.0170  1.0000  -1.9486   0.0000   0.0000   0.0000   0.2528
  12.000   0.6209   0.11906   0.11645  -0.0076  0.0168  1.0000  -1.9370   0.0000   0.0000   0.0000   0.2540
  12.100   0.6212   0.12085   0.11823  -0.0084  0.0166  1.0000  -1.9268   0.0000   0.0000   0.0000   0.2553
  12.200   0.6217   0.12262   0.11999  -0.0092  0.0164  1.0000  -1.9178   0.0000   0.0000   0.0000   0.2565
  12.300   0.6223   0.12437   0.12174  -0.0101  0.0162  1.0000  -1.9099   0.0000   0.0000   0.0000   0.2577
  12.400   0.6230   0.12610   0.12347  -0.0109  0.0160  1.0000  -1.9033   0.0000   0.0000   0.0000   0.2589
  12.500   0.6239   0.12782   0.12518  -0.0117  0.0159  1.0000  -1.8979   0.0000   0.0000   0.0000   0.2601
  12.600   0.6249   0.12953   0.12689  -0.0124  0.0157  1.0000  -1.8939   0.0000   0.0000   0.0000   0.2612
  12.900   0.6268   0.13519   0.13254  -0.0150  0.0154  1.0000  -1.8547   0.0000   0.0000   0.0000   0.2649
  13.000   0.6283   0.13681   0.13416  -0.0157  0.0152  1.0000  -1.8593   0.0000   0.0000   0.0000   0.2660
  13.100   0.6300   0.13839   0.13573  -0.0164  0.0150  1.0000  -1.8669   0.0000   0.0000   0.0000   0.2669
  13.200   0.6318   0.13995   0.13729  -0.0171  0.0148  1.0000  -1.8757   0.0000   0.0000   0.0000   0.2679
  13.300   0.6337   0.14150   0.13884  -0.0178  0.0146  1.0000  -1.8854   0.0000   0.0000   0.0000   0.2688
  13.400   0.6357   0.14305   0.14038  -0.0185  0.0144  1.0000  -1.8959   0.0000   0.0000   0.0000   0.2697
  13.500   0.6378   0.14460   0.14193  -0.0192  0.0142  1.0000  -1.9074   0.0000   0.0000   0.0000   0.2705
  13.600   0.6400   0.14614   0.14347  -0.0198  0.0141  1.0000  -1.9198   0.0000   0.0000   0.0000   0.2714
  13.700   0.6422   0.14769   0.14501  -0.0205  0.0139  1.0000  -1.9332   0.0000   0.0000   0.0000   0.2722
  13.800   0.6445   0.14923   0.14655  -0.0211  0.0138  1.0000  -1.9476   0.0000   0.0000   0.0000   0.2730
  13.900   0.6469   0.15078   0.14810  -0.0218  0.0137  1.0000  -1.9625   0.0000   0.0000   0.0000   0.2737
  14.000   0.6493   0.15232   0.14964  -0.0224  0.0135  1.0000  -1.9783   0.0000   0.0000   0.0000   0.2745
  14.100   0.6517   0.15389   0.15120  -0.0231  0.0134  1.0000  -1.9935   0.0000   0.0000   0.0000   0.2752
  14.200   0.6541   0.15547   0.15278  -0.0237  0.0133  1.0000  -2.0076   0.0000   0.0000   0.0000   0.2760
  14.300   0.6565   0.15706   0.15437  -0.0244  0.0132  1.0000  -2.0219   0.0000   0.0000   0.0000   0.2767
  14.400   0.6590   0.15867   0.15598  -0.0250  0.0131  1.0000  -2.0363   0.0000   0.0000   0.0000   0.2774
  14.500   0.6615   0.16030   0.15761  -0.0256  0.0130  1.0000  -2.0503   0.0000   0.0000   0.0000   0.2782
  14.600   0.6641   0.16197   0.15928  -0.0263  0.0129  1.0000  -2.0636   0.0000   0.0000   0.0000   0.2789
  14.700   0.6660   0.16375   0.16106  -0.0270  0.0128  1.0000  -2.0631   0.0000   0.0000   0.0000   0.2798
  14.800   0.6677   0.16562   0.16292  -0.0278  0.0126  1.0000  -2.0610   0.0000   0.0000   0.0000   0.2807
  15.100   0.6637   0.17588   0.17315  -0.0315  0.0117  1.0000  -1.7641   0.0000   0.0000   0.0000   0.2865
  15.200   0.6656   0.17741   0.17467  -0.0323  0.0117  1.0000  -1.7534   0.0000   0.0000   0.0000   0.2875
  15.300   0.6675   0.17889   0.17615  -0.0331  0.0117  1.0000  -1.7440   0.0000   0.0000   0.0000   0.2885
  15.400   0.6695   0.18031   0.17756  -0.0339  0.0117  1.0000  -1.7364   0.0000   0.0000   0.0000   0.2894
  15.500   0.6716   0.18163   0.17888  -0.0347  0.0116  1.0000  -1.7313   0.0000   0.0000   0.0000   0.2903
  15.600   0.6738   0.18282   0.18007  -0.0355  0.0115  1.0000  -1.7297   0.0000   0.0000   0.0000   0.2912
  15.700   0.6762   0.18381   0.18106  -0.0363  0.0113  1.0000  -1.7330   0.0000   0.0000   0.0000   0.2920
  15.800   0.6788   0.18468   0.18193  -0.0370  0.0111  1.0000  -1.7369   0.0000   0.0000   0.0000   0.2928
  15.900   0.6800   0.18574   0.18298  -0.0379  0.0108  1.0000  -1.7161   0.0000   0.0000   0.0000   0.2939
  16.000   0.6818   0.18694   0.18418  -0.0388  0.0105  1.0000  -1.6940   0.0000   0.0000   0.0000   0.2950
  16.100   0.6840   0.18831   0.18555  -0.0396  0.0101  1.0000  -1.6750   0.0000   0.0000   0.0000   0.2959
  16.200   0.6864   0.18976   0.18700  -0.0403  0.0097  1.0000  -1.6626   0.0000   0.0000   0.0000   0.2967
  16.300   0.6889   0.19124   0.18848  -0.0410  0.0094  1.0000  -1.6570   0.0000   0.0000   0.0000   0.2974
  16.400   0.6914   0.19272   0.18995  -0.0418  0.0091  1.0000  -1.6572   0.0000   0.0000   0.0000   0.2981
  16.500   0.6939   0.19417   0.19140  -0.0425  0.0088  1.0000  -1.6626   0.0000   0.0000   0.0000   0.2988
  16.600   0.6965   0.19559   0.19282  -0.0431  0.0085  1.0000  -1.6729   0.0000   0.0000   0.0000   0.2994
  16.700   0.6991   0.19698   0.19421  -0.0438  0.0083  1.0000  -1.6881   0.0000   0.0000   0.0000   0.3000
  16.800   0.7018   0.19833   0.19556  -0.0445  0.0081  1.0000  -1.7088   0.0000   0.0000   0.0000   0.3006
  16.900   0.7045   0.19966   0.19688  -0.0451  0.0079  1.0000  -1.7355   0.0000   0.0000   0.0000   0.3011
  17.000   0.7074   0.20095   0.19817  -0.0457  0.0077  1.0000  -1.7694   0.0000   0.0000   0.0000   0.3016
  17.100   0.7104   0.20221   0.19943  -0.0463  0.0075  1.0000  -1.8122   0.0000   0.0000   0.0000   0.3020
  17.200   0.7137   0.20346   0.20068  -0.0469  0.0074  1.0000  -1.8676   0.0000   0.0000   0.0000   0.3023
  17.300   0.7178   0.20477   0.20199  -0.0473  0.0072  1.0000  -1.9456   0.0000   0.0000   0.0000   0.3023


