xflr5 v6.61

 Calculated polar for: NACA 65-209

 1 1 Reynolds number fixed          Mach number fixed         

 xtrf =   1.000 (top)        1.000 (bottom)
 Mach =   0.000     Re =     0.300 e 6     Ncrit =   9.000

  alpha     CL        CD       CDp       Cm    Top Xtr Bot Xtr   Cpmin    Chinge    XCp    
 ------- -------- --------- --------- -------- ------- ------- -------- --------- ---------
 -10.000  -0.4158   0.10158   0.09830  -0.0337  1.0000  0.0251  -1.5743   0.0000   0.0000   0.0000   0.1631
  -9.900  -0.4150   0.10032   0.09705  -0.0342  1.0000  0.0252  -1.5808   0.0000   0.0000   0.0000   0.1617
  -9.800  -0.4144   0.09901   0.09575  -0.0347  1.0000  0.0253  -1.5888   0.0000   0.0000   0.0000   0.1604
  -9.700  -0.4140   0.09766   0.09441  -0.0353  1.0000  0.0254  -1.5980   0.0000   0.0000   0.0000   0.1590
  -9.600  -0.4137   0.09628   0.09304  -0.0359  1.0000  0.0254  -1.6084   0.0000   0.0000   0.0000   0.1577
  -9.500  -0.4136   0.09487   0.09165  -0.0365  1.0000  0.0255  -1.6199   0.0000   0.0000   0.0000   0.1563
  -9.400  -0.4137   0.09344   0.09023  -0.0371  1.0000  0.0255  -1.6325   0.0000   0.0000   0.0000   0.1549
  -9.300  -0.4139   0.09199   0.08878  -0.0377  1.0000  0.0255  -1.6462   0.0000   0.0000   0.0000   0.1535
  -9.200  -0.4142   0.09050   0.08730  -0.0384  1.0000  0.0255  -1.6612   0.0000   0.0000   0.0000   0.1520
  -9.100  -0.4147   0.08897   0.08579  -0.0392  1.0000  0.0256  -1.6776   0.0000   0.0000   0.0000   0.1504
  -9.000  -0.4154   0.08740   0.08423  -0.0400  1.0000  0.0256  -1.6956   0.0000   0.0000   0.0000   0.1487
  -8.900  -0.4163   0.08577   0.08261  -0.0409  1.0000  0.0256  -1.7158   0.0000   0.0000   0.0000   0.1467
  -8.800  -0.4175   0.08408   0.08093  -0.0420  1.0000  0.0256  -1.7390   0.0000   0.0000   0.0000   0.1445
  -8.700  -0.4192   0.08232   0.07918  -0.0433  1.0000  0.0256  -1.7658   0.0000   0.0000   0.0000   0.1420
  -8.600  -0.4215   0.08062   0.07748  -0.0445  1.0000  0.0256  -1.7932   0.0000   0.0000   0.0000   0.1398
  -8.500  -0.4245   0.07908   0.07594  -0.0454  1.0000  0.0256  -1.8184   0.0000   0.0000   0.0000   0.1384
  -8.400  -0.4282   0.07767   0.07452  -0.0462  1.0000  0.0256  -1.8423   0.0000   0.0000   0.0000   0.1378
  -8.300  -0.4325   0.07637   0.07321  -0.0466  1.0000  0.0256  -1.8649   0.0000   0.0000   0.0000   0.1379
  -8.200  -0.4376   0.07518   0.07201  -0.0468  1.0000  0.0256  -1.8864   0.0000   0.0000   0.0000   0.1388
  -8.100  -0.4434   0.07412   0.07095  -0.0467  1.0000  0.0256  -1.9066   0.0000   0.0000   0.0000   0.1406
  -8.000  -0.4499   0.07320   0.07002  -0.0462  1.0000  0.0256  -1.9256   0.0000   0.0000   0.0000   0.1434
  -7.900  -0.4572   0.07243   0.06925  -0.0453  1.0000  0.0256  -1.9434   0.0000   0.0000   0.0000   0.1472
  -7.800  -0.4650   0.07177   0.06859  -0.0439  1.0000  0.0256  -1.9598   0.0000   0.0000   0.0000   0.1518
  -7.700  -0.4723   0.07108   0.06789  -0.0426  1.0000  0.0256  -1.9750   0.0000   0.0000   0.0000   0.1563
  -7.600  -0.4778   0.07018   0.06698  -0.0415  1.0000  0.0256  -1.9885   0.0000   0.0000   0.0000   0.1595
  -7.500  -0.4831   0.06931   0.06609  -0.0405  1.0000  0.0257  -2.0012   0.0000   0.0000   0.0000   0.1628
  -7.400  -0.4885   0.06847   0.06524  -0.0393  1.0000  0.0257  -2.0130   0.0000   0.0000   0.0000   0.1662
  -7.300  -0.4937   0.06764   0.06440  -0.0381  1.0000  0.0257  -2.0239   0.0000   0.0000   0.0000   0.1696
  -7.200  -0.4989   0.06683   0.06357  -0.0368  1.0000  0.0257  -2.0340   0.0000   0.0000   0.0000   0.1731
  -7.100  -0.5039   0.06603   0.06275  -0.0354  1.0000  0.0257  -2.0433   0.0000   0.0000   0.0000   0.1766
  -7.000  -0.5088   0.06523   0.06193  -0.0340  1.0000  0.0257  -2.0519   0.0000   0.0000   0.0000   0.1801
  -6.900  -0.5136   0.06443   0.06111  -0.0326  1.0000  0.0257  -2.0598   0.0000   0.0000   0.0000   0.1835
  -6.800  -0.5180   0.06361   0.06027  -0.0312  1.0000  0.0257  -2.0670   0.0000   0.0000   0.0000   0.1868
  -6.700  -0.5222   0.06278   0.05941  -0.0298  1.0000  0.0257  -2.0734   0.0000   0.0000   0.0000   0.1900
  -6.600  -0.5171   0.06097   0.05751  -0.0307  0.9989  0.0257  -2.0738   0.0000   0.0000   0.0000   0.1878
  -5.500  -0.4473   0.03515   0.03011  -0.0371  0.9752  0.0266  -2.1885   0.0000   0.0000   0.0000   0.1643
  -5.300  -0.4347   0.02603   0.02035  -0.0372  0.9707  0.0196  -2.5096   0.0000   0.0000   0.0000   0.1613
  -5.200  -0.4230   0.02303   0.01695  -0.0368  0.9689  0.0183  -2.6700   0.0000   0.0000   0.0000   0.1598
  -5.100  -0.4095   0.02186   0.01562  -0.0371  0.9674  0.0197  -2.6607   0.0000   0.0000   0.0000   0.1561
  -5.000  -0.3946   0.02164   0.01536  -0.0378  0.9659  0.0223  -2.5592   0.0000   0.0000   0.0000   0.1510
  -4.900  -0.3788   0.02204   0.01578  -0.0387  0.9645  0.0244  -2.3930   0.0000   0.0000   0.0000   0.1447
  -4.800  -0.3631   0.02251   0.01621  -0.0397  0.9630  0.0266  -2.2191   0.0000   0.0000   0.0000   0.1375
  -4.700  -0.3507   0.02049   0.01398  -0.0403  0.9617  0.0275  -2.1798   0.0000   0.0000   0.0000   0.1320
  -4.600  -0.3370   0.01925   0.01263  -0.0410  0.9604  0.0282  -2.0926   0.0000   0.0000   0.0000   0.1251
  -4.500  -0.3226   0.01836   0.01166  -0.0418  0.9591  0.0288  -1.9890   0.0000   0.0000   0.0000   0.1172
  -4.400  -0.3085   0.01744   0.01071  -0.0427  0.9579  0.0307  -1.9487   0.0000   0.0000   0.0000   0.1084
  -4.300  -0.2940   0.01714   0.01047  -0.0439  0.9565  0.0341  -1.8485   0.0000   0.0000   0.0000   0.0975
  -4.200  -0.2792   0.01697   0.01032  -0.0450  0.9549  0.0369  -1.7633   0.0000   0.0000   0.0000   0.0856
  -4.100  -0.2644   0.01650   0.00981  -0.0458  0.9531  0.0372  -1.7278   0.0000   0.0000   0.0000   0.0736
  -4.000  -0.2502   0.01593   0.00918  -0.0464  0.9509  0.0362  -1.7149   0.0000   0.0000   0.0000   0.0614
  -3.900  -0.2392   0.01544   0.00863  -0.0463  0.9491  0.0355  -1.7013   0.0000   0.0000   0.0000   0.0533
  -3.800  -0.2291   0.01498   0.00813  -0.0460  0.9474  0.0350  -1.6858   0.0000   0.0000   0.0000   0.0460
  -3.700  -0.2188   0.01456   0.00767  -0.0457  0.9455  0.0345  -1.6678   0.0000   0.0000   0.0000   0.0377
  -3.600  -0.2084   0.01417   0.00724  -0.0456  0.9433  0.0342  -1.6474   0.0000   0.0000   0.0000   0.0280
  -3.500  -0.1977   0.01381   0.00685  -0.0454  0.9411  0.0339  -1.6249   0.0000   0.0000   0.0000   0.0167
  -3.400  -0.1868   0.01347   0.00649  -0.0454  0.9387  0.0338  -1.6007   0.0000   0.0000   0.0000   0.0034
  -3.300  -0.1757   0.01315   0.00614  -0.0455  0.9362  0.0338  -1.5753   0.0000   0.0000   0.0000  -0.0123
  -3.200  -0.1643   0.01284   0.00581  -0.0456  0.9338  0.0338  -1.5491   0.0000   0.0000   0.0000  -0.0310
  -3.100  -0.1527   0.01255   0.00549  -0.0457  0.9314  0.0341  -1.5223   0.0000   0.0000   0.0000  -0.0531
  -3.000  -0.1410   0.01227   0.00519  -0.0459  0.9290  0.0345  -1.4956   0.0000   0.0000   0.0000  -0.0796
  -2.900  -0.1290   0.01201   0.00490  -0.0461  0.9266  0.0352  -1.4695   0.0000   0.0000   0.0000  -0.1116
  -2.800  -0.1170   0.01176   0.00462  -0.0464  0.9243  0.0363  -1.4446   0.0000   0.0000   0.0000  -0.1505
  -2.700  -0.1049   0.01152   0.00435  -0.0466  0.9220  0.0379  -1.4214   0.0000   0.0000   0.0000  -0.1986
  -2.600  -0.0929   0.01130   0.00409  -0.0468  0.9198  0.0406  -1.4013   0.0000   0.0000   0.0000  -0.2590
  -2.500  -0.0809   0.01109   0.00384  -0.0470  0.9175  0.0450  -1.3862   0.0000   0.0000   0.0000  -0.3363
  -2.400  -0.0690   0.01089   0.00359  -0.0471  0.9153  0.0529  -1.3751   0.0000   0.0000   0.0000  -0.4394
  -2.300  -0.0614   0.00953   0.00318  -0.0474  0.9125  0.2978  -1.3770   0.0000   0.0000   0.0000  -0.5290
  -2.200  -0.0555   0.00837   0.00312  -0.0472  0.9096  0.5731  -1.3435   0.0000   0.0000   0.0000  -0.6071
  -2.100  -0.0460   0.00820   0.00323  -0.0467  0.9066  0.6540  -1.2941   0.0000   0.0000   0.0000  -0.7736
  -2.000  -0.0364   0.00820   0.00339  -0.0462  0.9030  0.7012  -1.2415   0.0000   0.0000   0.0000  -1.0290
  -1.900  -0.0282   0.00824   0.00360  -0.0453  0.8996  0.7325  -1.1913   0.0000   0.0000   0.0000  -1.3655
  -1.800  -0.0193   0.00830   0.00367  -0.0447  0.8978  0.7529  -1.1391   0.0000   0.0000   0.0000  -2.0803
  -1.700  -0.0119   0.00830   0.00379  -0.0435  0.8956  0.7703  -1.0906   0.0000   0.0000   0.0000  -3.4280
  -1.600  -0.0032   0.00836   0.00387  -0.0428  0.8932  0.7817  -1.0393   0.0000   0.0000   0.0000  -13.0648
  -1.500   0.0063   0.00840   0.00391  -0.0423  0.8906  0.7900  -0.9865   0.0000   0.0000   0.0000   6.9920
  -1.400   0.0164   0.00844   0.00393  -0.0420  0.8879  0.7957  -0.9329   0.0000   0.0000   0.0000   2.8267
  -1.300   0.0263   0.00847   0.00395  -0.0417  0.8852  0.8021  -0.8802   0.0000   0.0000   0.0000   1.8428
  -1.200   0.0347   0.00845   0.00397  -0.0409  0.8823  0.8120  -0.8313   0.0000   0.0000   0.0000   1.4328
  -1.100   0.0429   0.00849   0.00404  -0.0399  0.8793  0.8200  -0.7831   0.0000   0.0000   0.0000   1.1842
  -1.000   0.0517   0.00854   0.00410  -0.0392  0.8764  0.8269  -0.7344   0.0000   0.0000   0.0000   1.0111
  -0.900   0.0610   0.00857   0.00413  -0.0386  0.8735  0.8328  -0.6850   0.0000   0.0000   0.0000   0.8850
  -0.800   0.0709   0.00858   0.00412  -0.0382  0.8706  0.8374  -0.6351   0.0000   0.0000   0.0000   0.7905
  -0.700   0.0814   0.00856   0.00409  -0.0380  0.8678  0.8406  -0.5847   0.0000   0.0000   0.0000   0.7184
  -0.600   0.0921   0.00856   0.00406  -0.0379  0.8650  0.8435  -0.5347   0.0000   0.0000   0.0000   0.6625
  -0.500   0.1029   0.00856   0.00404  -0.0378  0.8621  0.8459  -0.4851   0.0000   0.0000   0.0000   0.6183
  -0.400   0.1138   0.00858   0.00404  -0.0378  0.8590  0.8480  -0.4362   0.0000   0.0000   0.0000   0.5825
  -0.300   0.1248   0.00862   0.00406  -0.0378  0.8556  0.8496  -0.3878   0.0000   0.0000   0.0000   0.5533
  -0.200   0.1356   0.00862   0.00405  -0.0379  0.8515  0.8542  -0.3411   0.0000   0.0000   0.0000   0.5297
  -0.100   0.1457   0.00859   0.00404  -0.0378  0.8493  0.8581  -0.3429   0.0000   0.0000   0.0000   0.5093
   0.000   0.1555   0.00856   0.00403  -0.0375  0.8476  0.8616  -0.3469   0.0000   0.0000   0.0000   0.4913
   0.100   0.1653   0.00855   0.00403  -0.0373  0.8456  0.8648  -0.3512   0.0000   0.0000   0.0000   0.4753
   0.200   0.1750   0.00854   0.00403  -0.0370  0.8434  0.8680  -0.3557   0.0000   0.0000   0.0000   0.4611
   0.300   0.1848   0.00854   0.00405  -0.0367  0.8411  0.8711  -0.3603   0.0000   0.0000   0.0000   0.4483
   0.400   0.1947   0.00855   0.00406  -0.0365  0.8386  0.8742  -0.3650   0.0000   0.0000   0.0000   0.4369
   0.500   0.2046   0.00855   0.00407  -0.0363  0.8360  0.8774  -0.3696   0.0000   0.0000   0.0000   0.4266
   0.600   0.2146   0.00855   0.00408  -0.0361  0.8333  0.8807  -0.4112   0.0000   0.0000   0.0000   0.4173
   0.700   0.2246   0.00856   0.00408  -0.0358  0.8305  0.8842  -0.4607   0.0000   0.0000   0.0000   0.4087
   0.800   0.2347   0.00856   0.00408  -0.0356  0.8277  0.8877  -0.5112   0.0000   0.0000   0.0000   0.4008
   0.900   0.2448   0.00855   0.00407  -0.0353  0.8248  0.8910  -0.5627   0.0000   0.0000   0.0000   0.3935
   1.000   0.2549   0.00855   0.00406  -0.0351  0.8219  0.8941  -0.6152   0.0000   0.0000   0.0000   0.3868
   1.100   0.2651   0.00855   0.00406  -0.0349  0.8191  0.8967  -0.6687   0.0000   0.0000   0.0000   0.3807
   1.200   0.2754   0.00856   0.00406  -0.0347  0.8164  0.8989  -0.7233   0.0000   0.0000   0.0000   0.3750
   1.300   0.2859   0.00853   0.00403  -0.0346  0.8137  0.9025  -0.7790   0.0000   0.0000   0.0000   0.3701
   1.400   0.2962   0.00849   0.00399  -0.0345  0.8109  0.9070  -0.8350   0.0000   0.0000   0.0000   0.3653
   1.500   0.3064   0.00849   0.00400  -0.0343  0.8076  0.9108  -0.8914   0.0000   0.0000   0.0000   0.3607
   1.600   0.3166   0.00855   0.00406  -0.0341  0.8036  0.9144  -0.9487   0.0000   0.0000   0.0000   0.3565
   1.700   0.3266   0.00860   0.00413  -0.0339  0.7995  0.9179  -1.0061   0.0000   0.0000   0.0000   0.3524
   1.800   0.3362   0.00851   0.00406  -0.0335  0.7963  0.9216  -1.0637   0.0000   0.0000   0.0000   0.3481
   1.900   0.3457   0.00840   0.00396  -0.0329  0.7907  0.9253  -1.1224   0.0000   0.0000   0.0000   0.3438
   2.000   0.3554   0.00826   0.00381  -0.0323  0.7824  0.9290  -1.1824   0.0000   0.0000   0.0000   0.3395
   2.100   0.3650   0.00812   0.00363  -0.0317  0.7723  0.9326  -1.2434   0.0000   0.0000   0.0000   0.3353
   2.200   0.3749   0.00802   0.00345  -0.0310  0.7601  0.9361  -1.3056   0.0000   0.0000   0.0000   0.3312
   2.300   0.3849   0.00800   0.00338  -0.0306  0.7478  0.9395  -1.3680   0.0000   0.0000   0.0000   0.3279
   2.400   0.3946   0.00792   0.00332  -0.0302  0.7382  0.9429  -1.4299   0.0000   0.0000   0.0000   0.3248
   2.500   0.4042   0.00786   0.00323  -0.0297  0.7244  0.9458  -1.4922   0.0000   0.0000   0.0000   0.3218
   2.600   0.4134   0.00786   0.00311  -0.0291  0.7066  0.9483  -1.5537   0.0000   0.0000   0.0000   0.3185
   2.700   0.4234   0.00784   0.00306  -0.0288  0.6887  0.9516  -1.6170   0.0000   0.0000   0.0000   0.3161
   2.800   0.4349   0.00784   0.00292  -0.0288  0.6587  0.9568  -1.6851   0.0000   0.0000   0.0000   0.3143
   2.900   0.4468   0.00792   0.00284  -0.0290  0.6163  0.9614  -1.7530   0.0000   0.0000   0.0000   0.3129
   3.000   0.4576   0.00816   0.00278  -0.0290  0.5529  0.9655  -1.8158   0.0000   0.0000   0.0000   0.3114
   3.100   0.4635   0.00902   0.00288  -0.0286  0.3889  0.9704  -1.8596   0.0000   0.0000   0.0000   0.3094
   3.200   0.4662   0.01057   0.00338  -0.0282  0.1558  0.9757  -1.8843   0.0000   0.0000   0.0000   0.3083
   3.300   0.4743   0.01158   0.00387  -0.0282  0.0435  0.9799  -1.8710   0.0000   0.0000   0.0000   0.3073
   3.400   0.4871   0.01190   0.00421  -0.0287  0.0355  0.9832  -1.8717   0.0000   0.0000   0.0000   0.3066
   3.500   0.5001   0.01220   0.00456  -0.0291  0.0321  0.9862  -1.8836   0.0000   0.0000   0.0000   0.3059
   3.600   0.5127   0.01251   0.00493  -0.0296  0.0304  0.9893  -1.9040   0.0000   0.0000   0.0000   0.3052
   3.700   0.5249   0.01283   0.00530  -0.0299  0.0295  0.9924  -1.9299   0.0000   0.0000   0.0000   0.3045
   3.800   0.5369   0.01319   0.00570  -0.0303  0.0289  0.9954  -1.9587   0.0000   0.0000   0.0000   0.3038
   3.900   0.5489   0.01355   0.00610  -0.0306  0.0285  0.9982  -1.9901   0.0000   0.0000   0.0000   0.3031
   4.000   0.5579   0.01387   0.00645  -0.0304  0.0284  1.0000  -2.0187   0.0000   0.0000   0.0000   0.3018
   4.100   0.5598   0.01408   0.00667  -0.0288  0.0283  1.0000  -2.0369   0.0000   0.0000   0.0000   0.2987
   4.200   0.5632   0.01432   0.00693  -0.0275  0.0283  1.0000  -2.0582   0.0000   0.0000   0.0000   0.2960
   4.300   0.5686   0.01461   0.00723  -0.0265  0.0283  1.0000  -2.0833   0.0000   0.0000   0.0000   0.2938
   4.400   0.5755   0.01492   0.00756  -0.0258  0.0283  1.0000  -2.1117   0.0000   0.0000   0.0000   0.2919
   4.500   0.5833   0.01526   0.00791  -0.0253  0.0284  1.0000  -2.1421   0.0000   0.0000   0.0000   0.2904
   4.600   0.5917   0.01561   0.00828  -0.0249  0.0286  1.0000  -2.1738   0.0000   0.0000   0.0000   0.2890
   4.700   0.6006   0.01597   0.00866  -0.0245  0.0288  1.0000  -2.2064   0.0000   0.0000   0.0000   0.2877
   4.800   0.6099   0.01636   0.00907  -0.0242  0.0291  1.0000  -2.2392   0.0000   0.0000   0.0000   0.2865
   4.900   0.6194   0.01676   0.00950  -0.0240  0.0294  1.0000  -2.2713   0.0000   0.0000   0.0000   0.2854
   5.000   0.6293   0.01720   0.00997  -0.0238  0.0298  1.0000  -2.3018   0.0000   0.0000   0.0000   0.2844
   5.100   0.6395   0.01768   0.01049  -0.0236  0.0303  1.0000  -2.3293   0.0000   0.0000   0.0000   0.2834
   5.200   0.6499   0.01823   0.01108  -0.0234  0.0309  1.0000  -2.3517   0.0000   0.0000   0.0000   0.2825
   5.300   0.6607   0.01886   0.01178  -0.0232  0.0317  1.0000  -2.3671   0.0000   0.0000   0.0000   0.2815
   5.400   0.6718   0.01962   0.01262  -0.0230  0.0327  1.0000  -2.3739   0.0000   0.0000   0.0000   0.2806
   5.500   0.6826   0.02036   0.01344  -0.0228  0.0333  1.0000  -2.3894   0.0000   0.0000   0.0000   0.2798
   5.600   0.6923   0.02078   0.01387  -0.0227  0.0323  1.0000  -2.4455   0.0000   0.0000   0.0000   0.2791
   5.700   0.7011   0.02107   0.01412  -0.0227  0.0303  1.0000  -2.5284   0.0000   0.0000   0.0000   0.2785
   5.800   0.7098   0.02178   0.01481  -0.0227  0.0281  1.0000  -2.5951   0.0000   0.0000   0.0000   0.2780
   5.900   0.7185   0.02329   0.01640  -0.0225  0.0264  1.0000  -2.6093   0.0000   0.0000   0.0000   0.2774
   6.000   0.7272   0.02466   0.01788  -0.0222  0.0258  1.0000  -2.6178   0.0000   0.0000   0.0000   0.2765
   6.100   0.7360   0.02573   0.01904  -0.0219  0.0256  1.0000  -2.6730   0.0000   0.0000   0.0000   0.2757
   6.200   0.7441   0.02697   0.02039  -0.0216  0.0254  1.0000  -2.7488   0.0000   0.0000   0.0000   0.2748
   6.500   0.7638   0.03188   0.02633  -0.0172  0.0194  1.0000  -2.9012   0.0000   0.0000   0.0000   0.2681
   6.600   0.7661   0.03446   0.02914  -0.0157  0.0208  1.0000  -2.8298   0.0000   0.0000   0.0000   0.2661
   6.700   0.7661   0.03712   0.03201  -0.0144  0.0221  1.0000  -2.7556   0.0000   0.0000   0.0000   0.2644
   6.800   0.7637   0.04014   0.03519  -0.0132  0.0233  1.0000  -2.6575   0.0000   0.0000   0.0000   0.2629
  14.200   0.6417   0.16064   0.15735  -0.0253  0.0208  1.0000  -1.5882   0.0000   0.0000   0.0000   0.2795
  14.300   0.6434   0.16210   0.15881  -0.0261  0.0204  1.0000  -1.5792   0.0000   0.0000   0.0000   0.2806
  14.400   0.6452   0.16359   0.16028  -0.0269  0.0201  1.0000  -1.5711   0.0000   0.0000   0.0000   0.2816
  14.500   0.6471   0.16509   0.16178  -0.0277  0.0198  1.0000  -1.5637   0.0000   0.0000   0.0000   0.2826
  14.600   0.6491   0.16660   0.16329  -0.0285  0.0195  1.0000  -1.5572   0.0000   0.0000   0.0000   0.2835
  14.700   0.6511   0.16812   0.16481  -0.0292  0.0192  1.0000  -1.5513   0.0000   0.0000   0.0000   0.2845
  14.800   0.6532   0.16965   0.16634  -0.0300  0.0189  1.0000  -1.5462   0.0000   0.0000   0.0000   0.2854
  14.900   0.6553   0.17119   0.16787  -0.0308  0.0187  1.0000  -1.5417   0.0000   0.0000   0.0000   0.2863
  15.000   0.6574   0.17272   0.16941  -0.0315  0.0184  1.0000  -1.5377   0.0000   0.0000   0.0000   0.2872
  15.100   0.6596   0.17426   0.17094  -0.0322  0.0182  1.0000  -1.5342   0.0000   0.0000   0.0000   0.2881
  15.200   0.6618   0.17580   0.17248  -0.0330  0.0179  1.0000  -1.5312   0.0000   0.0000   0.0000   0.2889
  15.300   0.6640   0.17734   0.17401  -0.0337  0.0177  1.0000  -1.5287   0.0000   0.0000   0.0000   0.2898
  15.400   0.6663   0.17887   0.17554  -0.0344  0.0175  1.0000  -1.5265   0.0000   0.0000   0.0000   0.2906
  15.500   0.6685   0.18040   0.17707  -0.0351  0.0173  1.0000  -1.5248   0.0000   0.0000   0.0000   0.2914
  15.600   0.6708   0.18193   0.17860  -0.0359  0.0171  1.0000  -1.5234   0.0000   0.0000   0.0000   0.2921
  15.700   0.6731   0.18345   0.18012  -0.0366  0.0169  1.0000  -1.5223   0.0000   0.0000   0.0000   0.2929
  15.800   0.6755   0.18498   0.18164  -0.0373  0.0167  1.0000  -1.5215   0.0000   0.0000   0.0000   0.2937
  15.900   0.6778   0.18649   0.18315  -0.0380  0.0165  1.0000  -1.5210   0.0000   0.0000   0.0000   0.2944
  16.000   0.6802   0.18800   0.18466  -0.0387  0.0164  1.0000  -1.5208   0.0000   0.0000   0.0000   0.2951
  16.100   0.6827   0.18948   0.18614  -0.0394  0.0161  1.0000  -1.5240   0.0000   0.0000   0.0000   0.2958
  16.200   0.6853   0.19088   0.18753  -0.0400  0.0157  1.0000  -1.5364   0.0000   0.0000   0.0000   0.2965
  16.300   0.6880   0.19226   0.18891  -0.0407  0.0153  1.0000  -1.5521   0.0000   0.0000   0.0000   0.2970
  16.400   0.6907   0.19362   0.19027  -0.0413  0.0149  1.0000  -1.5717   0.0000   0.0000   0.0000   0.2976
  16.500   0.6937   0.19496   0.19161  -0.0419  0.0145  1.0000  -1.5962   0.0000   0.0000   0.0000   0.2980
  16.600   0.6968   0.19630   0.19295  -0.0424  0.0141  1.0000  -1.6274   0.0000   0.0000   0.0000   0.2984
  16.700   0.7002   0.19764   0.19429  -0.0429  0.0137  1.0000  -1.6675   0.0000   0.0000   0.0000   0.2987
  16.800   0.7043   0.19904   0.19568  -0.0433  0.0134  1.0000  -1.7213   0.0000   0.0000   0.0000   0.2988
  16.900   0.7098   0.20067   0.19732  -0.0435  0.0130  1.0000  -1.8027   0.0000   0.0000   0.0000   0.2984
  17.000   0.7166   0.20363   0.20029  -0.0436  0.0124  1.0000  -1.8931   0.0000   0.0000   0.0000   0.2978
  17.100   0.7143   0.20969   0.20632  -0.0451  0.0118  1.0000  -1.7076   0.0000   0.0000   0.0000   0.3001
  17.200   0.7162   0.21100   0.20762  -0.0459  0.0117  1.0000  -1.6983   0.0000   0.0000   0.0000   0.3009
  17.300   0.7181   0.21225   0.20887  -0.0466  0.0117  1.0000  -1.6898   0.0000   0.0000   0.0000   0.3017
  17.400   0.7200   0.21344   0.21005  -0.0474  0.0117  1.0000  -1.6820   0.0000   0.0000   0.0000   0.3024
  17.500   0.7219   0.21454   0.21115  -0.0481  0.0116  1.0000  -1.6751   0.0000   0.0000   0.0000   0.3032
  17.600   0.7237   0.21552   0.21213  -0.0489  0.0116  1.0000  -1.6690   0.0000   0.0000   0.0000   0.3039
  17.700   0.7255   0.21638   0.21299  -0.0496  0.0115  1.0000  -1.6640   0.0000   0.0000   0.0000   0.3047
  17.800   0.7272   0.21710   0.21370  -0.0504  0.0113  1.0000  -1.6584   0.0000   0.0000   0.0000   0.3054
  17.900   0.7283   0.21773   0.21433  -0.0512  0.0111  1.0000  -1.6404   0.0000   0.0000   0.0000   0.3063
  18.000   0.7295   0.21843   0.21502  -0.0521  0.0109  1.0000  -1.6177   0.0000   0.0000   0.0000   0.3073
  18.100   0.7313   0.21932   0.21591  -0.0529  0.0106  1.0000  -1.5950   0.0000   0.0000   0.0000   0.3081
  18.200   0.7336   0.22043   0.21702  -0.0536  0.0103  1.0000  -1.5756   0.0000   0.0000   0.0000   0.3088
  18.300   0.7361   0.22170   0.21829  -0.0543  0.0099  1.0000  -1.5623   0.0000   0.0000   0.0000   0.3094
  18.400   0.7386   0.22304   0.21963  -0.0550  0.0096  1.0000  -1.5547   0.0000   0.0000   0.0000   0.3100
  18.500   0.7413   0.22439   0.22100  -0.0557  0.0092  1.0000  -1.5538   0.0000   0.0000   0.0000   0.3105
  18.600   0.7439   0.22574   0.22235  -0.0564  0.0089  1.0000  -1.5579   0.0000   0.0000   0.0000   0.3110
  18.700   0.7465   0.22707   0.22368  -0.0570  0.0086  1.0000  -1.5654   0.0000   0.0000   0.0000   0.3115
  18.800   0.7491   0.22839   0.22500  -0.0576  0.0084  1.0000  -1.5764   0.0000   0.0000   0.0000   0.3119
  18.900   0.7517   0.22969   0.22629  -0.0583  0.0081  1.0000  -1.5908   0.0000   0.0000   0.0000   0.3123
  19.000   0.7544   0.23096   0.22757  -0.0589  0.0080  1.0000  -1.6092   0.0000   0.0000   0.0000   0.3128
  19.100   0.7571   0.23223   0.22883  -0.0595  0.0078  1.0000  -1.6319   0.0000   0.0000   0.0000   0.3132
  19.200   0.7599   0.23347   0.23007  -0.0601  0.0076  1.0000  -1.6597   0.0000   0.0000   0.0000   0.3135
  19.300   0.7628   0.23470   0.23129  -0.0607  0.0075  1.0000  -1.6939   0.0000   0.0000   0.0000   0.3138
  19.400   0.7658   0.23594   0.23253  -0.0612  0.0073  1.0000  -1.7364   0.0000   0.0000   0.0000   0.3140
  19.500   0.7693   0.23731   0.23390  -0.0617  0.0072  1.0000  -1.7923   0.0000   0.0000   0.0000   0.3141
  19.600   0.7763   0.24210   0.23868  -0.0617  0.0068  1.0000  -1.8590   0.0000   0.0000   0.0000   0.3132
  19.700   0.7781   0.24313   0.23971  -0.0624  0.0068  1.0000  -1.8427   0.0000   0.0000   0.0000   0.3138
  19.800   0.7798   0.24409   0.24067  -0.0631  0.0068  1.0000  -1.8260   0.0000   0.0000   0.0000   0.3144
  19.900   0.7815   0.24503   0.24160  -0.0638  0.0068  1.0000  -1.8096   0.0000   0.0000   0.0000   0.3150
  20.000   0.7830   0.24585   0.24242  -0.0645  0.0068  1.0000  -1.7864   0.0000   0.0000   0.0000   0.3157
  20.100   0.7840   0.24657   0.24313  -0.0653  0.0067  1.0000  -1.7523   0.0000   0.0000   0.0000   0.3164
  20.200   0.7851   0.24728   0.24384  -0.0661  0.0067  1.0000  -1.7149   0.0000   0.0000   0.0000   0.3172
  20.300   0.7865   0.24800   0.24456  -0.0669  0.0066  1.0000  -1.6696   0.0000   0.0000   0.0000   0.3180
  20.400   0.7884   0.24890   0.24546  -0.0677  0.0063  1.0000  -1.6147   0.0000   0.0000   0.0000   0.3186
  20.500   0.7911   0.25009   0.24666  -0.0683  0.0060  1.0000  -1.5845   0.0000   0.0000   0.0000   0.3191
  20.600   0.7937   0.25132   0.24789  -0.0689  0.0058  1.0000  -1.5757   0.0000   0.0000   0.0000   0.3194
  20.700   0.7962   0.25253   0.24909  -0.0695  0.0056  1.0000  -1.5754   0.0000   0.0000   0.0000   0.3198
  20.800   0.7988   0.25372   0.25028  -0.0702  0.0054  1.0000  -1.5800   0.0000   0.0000   0.0000   0.3201
  20.900   0.8013   0.25489   0.25145  -0.0708  0.0053  1.0000  -1.5883   0.0000   0.0000   0.0000   0.3204
  21.000   0.8038   0.25605   0.25261  -0.0714  0.0051  1.0000  -1.6001   0.0000   0.0000   0.0000   0.3208
  21.100   0.8063   0.25719   0.25375  -0.0720  0.0050  1.0000  -1.6153   0.0000   0.0000   0.0000   0.3211
  21.200   0.8089   0.25831   0.25487  -0.0726  0.0049  1.0000  -1.6341   0.0000   0.0000   0.0000   0.3214
  21.300   0.8114   0.25943   0.25599  -0.0732  0.0048  1.0000  -1.6566   0.0000   0.0000   0.0000   0.3217
  21.400   0.8139   0.26054   0.25710  -0.0738  0.0047  1.0000  -1.6834   0.0000   0.0000   0.0000   0.3220
  21.500   0.8164   0.26166   0.25821  -0.0744  0.0046  1.0000  -1.7151   0.0000   0.0000   0.0000   0.3223
  21.600   0.8190   0.26280   0.25935  -0.0750  0.0046  1.0000  -1.7528   0.0000   0.0000   0.0000   0.3226
  21.700   0.8217   0.26402   0.26058  -0.0756  0.0045  1.0000  -1.7998   0.0000   0.0000   0.0000   0.3227
  21.800   0.8251   0.26559   0.26215  -0.0760  0.0045  1.0000  -1.8689   0.0000   0.0000   0.0000   0.3227
  21.900   0.8291   0.26788   0.26441  -0.0764  0.0044  1.0000  -1.9168   0.0000   0.0000   0.0000   0.3225
  22.000   0.8311   0.26906   0.26559  -0.0771  0.0044  1.0000  -1.8961   0.0000   0.0000   0.0000   0.3230
  22.100   0.8331   0.27026   0.26679  -0.0777  0.0044  1.0000  -1.8767   0.0000   0.0000   0.0000   0.3234
  22.200   0.8351   0.27147   0.26799  -0.0784  0.0044  1.0000  -1.8583   0.0000   0.0000   0.0000   0.3239
  22.300   0.8371   0.27268   0.26921  -0.0791  0.0044  1.0000  -1.8410   0.0000   0.0000   0.0000   0.3243
  22.400   0.8392   0.27390   0.27043  -0.0797  0.0044  1.0000  -1.8246   0.0000   0.0000   0.0000   0.3247
  22.500   0.8413   0.27512   0.27165  -0.0804  0.0044  1.0000  -1.8090   0.0000   0.0000   0.0000   0.3251
  22.600   0.8435   0.27636   0.27289  -0.0811  0.0044  1.0000  -1.7943   0.0000   0.0000   0.0000   0.3255
  22.700   0.8456   0.27759   0.27412  -0.0817  0.0044  1.0000  -1.7804   0.0000   0.0000   0.0000   0.3259
  22.800   0.8478   0.27884   0.27537  -0.0824  0.0044  1.0000  -1.7672   0.0000   0.0000   0.0000   0.3262
  22.900   0.8499   0.28008   0.27661  -0.0830  0.0044  1.0000  -1.7546   0.0000   0.0000   0.0000   0.3266
  23.000   0.8521   0.28133   0.27787  -0.0836  0.0044  1.0000  -1.7427   0.0000   0.0000   0.0000   0.3269
  23.100   0.8543   0.28258   0.27912  -0.0843  0.0044  1.0000  -1.7314   0.0000   0.0000   0.0000   0.3273
  23.200   0.8565   0.28384   0.28038  -0.0849  0.0044  1.0000  -1.7207   0.0000   0.0000   0.0000   0.3276
  23.300   0.8587   0.28510   0.28164  -0.0856  0.0043  1.0000  -1.7105   0.0000   0.0000   0.0000   0.3280
  23.400   0.8610   0.28636   0.28290  -0.0862  0.0043  1.0000  -1.7008   0.0000   0.0000   0.0000   0.3283
  23.500   0.8632   0.28763   0.28417  -0.0868  0.0043  1.0000  -1.6915   0.0000   0.0000   0.0000   0.3286
  23.600   0.8654   0.28889   0.28544  -0.0875  0.0043  1.0000  -1.6827   0.0000   0.0000   0.0000   0.3289
  23.700   0.8676   0.29016   0.28671  -0.0881  0.0043  1.0000  -1.6744   0.0000   0.0000   0.0000   0.3293
  23.800   0.8699   0.29143   0.28798  -0.0888  0.0043  1.0000  -1.6664   0.0000   0.0000   0.0000   0.3296
  23.900   0.8721   0.29271   0.28925  -0.0894  0.0043  1.0000  -1.6589   0.0000   0.0000   0.0000   0.3299
  24.000   0.8743   0.29398   0.29053  -0.0900  0.0043  1.0000  -1.6517   0.0000   0.0000   0.0000   0.3302
  24.100   0.8766   0.29525   0.29180  -0.0907  0.0043  1.0000  -1.6448   0.0000   0.0000   0.0000   0.3305
  24.200   0.8788   0.29653   0.29308  -0.0913  0.0043  1.0000  -1.6383   0.0000   0.0000   0.0000   0.3308
  24.300   0.8810   0.29781   0.29436  -0.0919  0.0043  1.0000  -1.6321   0.0000   0.0000   0.0000   0.3311
  24.400   0.8832   0.29908   0.29564  -0.0925  0.0043  1.0000  -1.6262   0.0000   0.0000   0.0000   0.3313
  24.500   0.8854   0.30036   0.29692  -0.0932  0.0043  1.0000  -1.6205   0.0000   0.0000   0.0000   0.3316
  24.600   0.8876   0.30164   0.29820  -0.0938  0.0043  1.0000  -1.6152   0.0000   0.0000   0.0000   0.3319
  24.700   0.8898   0.30292   0.29948  -0.0944  0.0043  1.0000  -1.6101   0.0000   0.0000   0.0000   0.3322
  24.800   0.8920   0.30420   0.30076  -0.0951  0.0043  1.0000  -1.6052   0.0000   0.0000   0.0000   0.3325
  24.900   0.8942   0.30548   0.30205  -0.0957  0.0043  1.0000  -1.6006   0.0000   0.0000   0.0000   0.3327
  25.000   0.8964   0.30676   0.30333  -0.0963  0.0043  1.0000  -1.5962   0.0000   0.0000   0.0000   0.3330
  25.100   0.8986   0.30804   0.30468  -0.0969  0.0043  1.0000  -1.5947   0.0000   0.0000   0.0000   0.3332
  25.200   0.9008   0.30932   0.30596  -0.0976  0.0043  1.0000  -1.5912   0.0000   0.0000   0.0000   0.3335
  25.300   0.9029   0.31060   0.30725  -0.0982  0.0043  1.0000  -1.5876   0.0000   0.0000   0.0000   0.3338
  25.400   0.9051   0.31188   0.30853  -0.0988  0.0043  1.0000  -1.5841   0.0000   0.0000   0.0000   0.3340
  25.500   0.9072   0.31316   0.30981  -0.0995  0.0042  1.0000  -1.5808   0.0000   0.0000   0.0000   0.3343
  25.600   0.9093   0.31444   0.31110  -0.1001  0.0042  1.0000  -1.5775   0.0000   0.0000   0.0000   0.3345
  25.700   0.9115   0.31572   0.31238  -0.1007  0.0042  1.0000  -1.5744   0.0000   0.0000   0.0000   0.3348
  25.800   0.9136   0.31700   0.31366  -0.1013  0.0042  1.0000  -1.5714   0.0000   0.0000   0.0000   0.3350
  25.900   0.9157   0.31829   0.31495  -0.1020  0.0042  1.0000  -1.5686   0.0000   0.0000   0.0000   0.3353
  26.000   0.9178   0.31957   0.31623  -0.1026  0.0042  1.0000  -1.5659   0.0000   0.0000   0.0000   0.3355
  26.100   0.9198   0.32085   0.31751  -0.1032  0.0042  1.0000  -1.5633   0.0000   0.0000   0.0000   0.3358
  26.200   0.9219   0.32213   0.31880  -0.1038  0.0042  1.0000  -1.5608   0.0000   0.0000   0.0000   0.3360
  26.300   0.9240   0.32341   0.32008  -0.1045  0.0042  1.0000  -1.5585   0.0000   0.0000   0.0000   0.3363
  26.400   0.9260   0.32468   0.32136  -0.1051  0.0042  1.0000  -1.5563   0.0000   0.0000   0.0000   0.3365
  26.500   0.9281   0.32596   0.32264  -0.1057  0.0042  1.0000  -1.5541   0.0000   0.0000   0.0000   0.3367
  26.600   0.9301   0.32724   0.32392  -0.1064  0.0042  1.0000  -1.5521   0.0000   0.0000   0.0000   0.3370
  26.700   0.9321   0.32852   0.32521  -0.1070  0.0042  1.0000  -1.5502   0.0000   0.0000   0.0000   0.3372
  26.800   0.9341   0.32980   0.32649  -0.1076  0.0042  1.0000  -1.5484   0.0000   0.0000   0.0000   0.3374
  26.900   0.9361   0.33107   0.32777  -0.1082  0.0042  1.0000  -1.5467   0.0000   0.0000   0.0000   0.3377
  27.000   0.9381   0.33235   0.32905  -0.1089  0.0042  1.0000  -1.5450   0.0000   0.0000   0.0000   0.3379
  27.100   0.9401   0.33363   0.33032  -0.1095  0.0042  1.0000  -1.5435   0.0000   0.0000   0.0000   0.3381
  27.200   0.9420   0.33490   0.33160  -0.1101  0.0042  1.0000  -1.5420   0.0000   0.0000   0.0000   0.3384
  27.300   0.9440   0.33617   0.33288  -0.1107  0.0042  1.0000  -1.5406   0.0000   0.0000   0.0000   0.3386
  27.400   0.9459   0.33745   0.33416  -0.1114  0.0042  1.0000  -1.5393   0.0000   0.0000   0.0000   0.3388
  27.500   0.9478   0.33872   0.33543  -0.1120  0.0042  1.0000  -1.5381   0.0000   0.0000   0.0000   0.3390
  27.600   0.9497   0.33999   0.33671  -0.1126  0.0042  1.0000  -1.5369   0.0000   0.0000   0.0000   0.3392
  27.700   0.9516   0.34127   0.33798  -0.1133  0.0042  1.0000  -1.5358   0.0000   0.0000   0.0000   0.3395
  27.800   0.9535   0.34254   0.33926  -0.1139  0.0042  1.0000  -1.5348   0.0000   0.0000   0.0000   0.3397
  27.900   0.9554   0.34381   0.34053  -0.1145  0.0042  1.0000  -1.5338   0.0000   0.0000   0.0000   0.3399
  28.000   0.9573   0.34507   0.34180  -0.1151  0.0041  1.0000  -1.5328   0.0000   0.0000   0.0000   0.3401
  28.100   0.9591   0.34634   0.34308  -0.1158  0.0041  1.0000  -1.5320   0.0000   0.0000   0.0000   0.3403
  28.200   0.9609   0.34761   0.34435  -0.1164  0.0041  1.0000  -1.5312   0.0000   0.0000   0.0000   0.3406
  28.300   0.9628   0.34888   0.34562  -0.1170  0.0041  1.0000  -1.5304   0.0000   0.0000   0.0000   0.3408
  28.400   0.9646   0.35014   0.34689  -0.1177  0.0041  1.0000  -1.5297   0.0000   0.0000   0.0000   0.3410
  28.500   0.9664   0.35141   0.34816  -0.1183  0.0041  1.0000  -1.5290   0.0000   0.0000   0.0000   0.3412
  28.600   0.9681   0.35267   0.34942  -0.1189  0.0041  1.0000  -1.5284   0.0000   0.0000   0.0000   0.3414
  28.700   0.9699   0.35393   0.35069  -0.1196  0.0041  1.0000  -1.5278   0.0000   0.0000   0.0000   0.3416
  28.800   0.9717   0.35519   0.35195  -0.1202  0.0041  1.0000  -1.5273   0.0000   0.0000   0.0000   0.3418
  28.900   0.9734   0.35645   0.35322  -0.1208  0.0041  1.0000  -1.5268   0.0000   0.0000   0.0000   0.3420
  29.000   0.9752   0.35771   0.35448  -0.1214  0.0041  1.0000  -1.5263   0.0000   0.0000   0.0000   0.3422
  29.100   0.9769   0.35897   0.35575  -0.1221  0.0041  1.0000  -1.5259   0.0000   0.0000   0.0000   0.3424
  29.200   0.9786   0.36023   0.35701  -0.1227  0.0041  1.0000  -1.5255   0.0000   0.0000   0.0000   0.3426
  29.300   0.9803   0.36149   0.35827  -0.1233  0.0041  1.0000  -1.5251   0.0000   0.0000   0.0000   0.3428
  29.400   0.9819   0.36274   0.35953  -0.1240  0.0041  1.0000  -1.5248   0.0000   0.0000   0.0000   0.3430
  29.500   0.9836   0.36399   0.36078  -0.1246  0.0041  1.0000  -1.5245   0.0000   0.0000   0.0000   0.3433
  29.600   0.9853   0.36525   0.36204  -0.1252  0.0041  1.0000  -1.5243   0.0000   0.0000   0.0000   0.3435
  29.700   0.9869   0.36650   0.36330  -0.1259  0.0041  1.0000  -1.5240   0.0000   0.0000   0.0000   0.3437
  29.800   0.9885   0.36775   0.36455  -0.1265  0.0041  1.0000  -1.5238   0.0000   0.0000   0.0000   0.3438
  29.900   0.9901   0.36900   0.36580  -0.1271  0.0041  1.0000  -1.5236   0.0000   0.0000   0.0000   0.3440
  30.000   0.9917   0.37024   0.36706  -0.1277  0.0041  1.0000  -1.5235   0.0000   0.0000   0.0000   0.3442


