xflr5 v6.61

 Calculated polar for: NACA 65-210

 1 1 Reynolds number fixed          Mach number fixed         

 xtrf =   1.000 (top)        1.000 (bottom)
 Mach =   0.000     Re =     1.000 e 6     Ncrit =   9.000

  alpha     CL        CD       CDp       Cm    Top Xtr Bot Xtr   Cpmin    Chinge    XCp    
 ------- -------- --------- --------- -------- ------- ------- -------- --------- ---------
 -10.000  -0.4579   0.08533   0.08358  -0.0382  1.0000  0.0100  -2.3557   0.0000   0.0000   0.0000   0.1593
  -9.900  -0.4589   0.08373   0.08198  -0.0389  1.0000  0.0101  -2.3670   0.0000   0.0000   0.0000   0.1580
  -9.800  -0.4602   0.08207   0.08032  -0.0397  1.0000  0.0102  -2.3835   0.0000   0.0000   0.0000   0.1566
  -9.700  -0.4618   0.08033   0.07859  -0.0406  1.0000  0.0103  -2.4056   0.0000   0.0000   0.0000   0.1551
  -9.600  -0.4639   0.07849   0.07677  -0.0416  1.0000  0.0104  -2.4336   0.0000   0.0000   0.0000   0.1534
  -9.500  -0.4664   0.07651   0.07479  -0.0428  1.0000  0.0105  -2.4690   0.0000   0.0000   0.0000   0.1515
  -9.400  -0.4697   0.07429   0.07258  -0.0444  1.0000  0.0105  -2.5161   0.0000   0.0000   0.0000   0.1490
  -9.300  -0.4751   0.07141   0.06970  -0.0468  1.0000  0.0104  -2.5960   0.0000   0.0000   0.0000   0.1450
  -9.200  -0.4836   0.06820   0.06649  -0.0497  1.0000  0.0102  -2.7054   0.0000   0.0000   0.0000   0.1409
  -9.100  -0.4926   0.06575   0.06402  -0.0515  1.0000  0.0101  -2.7929   0.0000   0.0000   0.0000   0.1394
  -9.000  -0.5024   0.06374   0.06199  -0.0525  1.0000  0.0100  -2.8713   0.0000   0.0000   0.0000   0.1395
  -8.900  -0.5125   0.06208   0.06031  -0.0529  1.0000  0.0099  -2.9392   0.0000   0.0000   0.0000   0.1411
  -8.800  -0.5241   0.06072   0.05893  -0.0525  1.0000  0.0098  -3.0054   0.0000   0.0000   0.0000   0.1443
  -8.700  -0.5318   0.05919   0.05736  -0.0529  0.9997  0.0098  -3.0508   0.0000   0.0000   0.0000   0.1451
  -8.600  -0.5369   0.05771   0.05585  -0.0534  0.9990  0.0098  -3.0768   0.0000   0.0000   0.0000   0.1453
  -8.500  -0.5413   0.05642   0.05452  -0.0534  0.9981  0.0099  -3.0913   0.0000   0.0000   0.0000   0.1462
  -7.500  -0.5941   0.01818   0.01367  -0.0464  0.9492  0.0064  -5.8615   0.0000   0.0000   0.0000   0.1661
  -7.400  -0.5842   0.01850   0.01404  -0.0463  0.9479  0.0065  -5.6396   0.0000   0.0000   0.0000   0.1650
  -7.300  -0.5742   0.01886   0.01445  -0.0463  0.9463  0.0066  -5.4161   0.0000   0.0000   0.0000   0.1638
  -7.200  -0.5639   0.01930   0.01496  -0.0463  0.9443  0.0068  -5.1847   0.0000   0.0000   0.0000   0.1624
  -7.100  -0.5529   0.02000   0.01574  -0.0464  0.9421  0.0070  -4.9261   0.0000   0.0000   0.0000   0.1607
  -7.000  -0.5398   0.02130   0.01718  -0.0469  0.9399  0.0075  -4.6009   0.0000   0.0000   0.0000   0.1579
  -6.900  -0.5243   0.02297   0.01901  -0.0476  0.9379  0.0080  -4.2588   0.0000   0.0000   0.0000   0.1542
  -6.800  -0.5125   0.02357   0.01963  -0.0476  0.9350  0.0082  -4.0611   0.0000   0.0000   0.0000   0.1522
  -6.600  -0.5261   0.01235   0.00694  -0.0407  0.9215  0.0057  -5.2852   0.0000   0.0000   0.0000   0.1674
  -6.500  -0.5181   0.01191   0.00643  -0.0402  0.9170  0.0057  -5.2008   0.0000   0.0000   0.0000   0.1673
  -6.400  -0.5098   0.01152   0.00597  -0.0397  0.9122  0.0058  -5.1086   0.0000   0.0000   0.0000   0.1670
  -6.300  -0.5008   0.01122   0.00562  -0.0394  0.9069  0.0060  -5.0017   0.0000   0.0000   0.0000   0.1662
  -6.200  -0.4909   0.01100   0.00537  -0.0393  0.9017  0.0061  -4.8809   0.0000   0.0000   0.0000   0.1649
  -6.100  -0.4809   0.01083   0.00520  -0.0392  0.8996  0.0063  -4.7509   0.0000   0.0000   0.0000   0.1635
  -6.000  -0.4707   0.01071   0.00508  -0.0392  0.8985  0.0064  -4.6142   0.0000   0.0000   0.0000   0.1619
  -5.900  -0.4603   0.01062   0.00501  -0.0392  0.8972  0.0065  -4.4738   0.0000   0.0000   0.0000   0.1602
  -5.800  -0.4498   0.01055   0.00495  -0.0392  0.8957  0.0067  -4.3335   0.0000   0.0000   0.0000   0.1583
  -5.700  -0.4393   0.01048   0.00490  -0.0391  0.8939  0.0069  -4.1947   0.0000   0.0000   0.0000   0.1563
  -5.600  -0.4288   0.01042   0.00485  -0.0391  0.8918  0.0071  -4.0563   0.0000   0.0000   0.0000   0.1541
  -5.500  -0.4182   0.01036   0.00479  -0.0391  0.8894  0.0074  -3.8944   0.0000   0.0000   0.0000   0.1520
  -5.400  -0.4076   0.01032   0.00476  -0.0391  0.8869  0.0077  -3.7496   0.0000   0.0000   0.0000   0.1496
  -5.300  -0.3967   0.01035   0.00481  -0.0391  0.8841  0.0080  -3.5905   0.0000   0.0000   0.0000   0.1469
  -5.200  -0.3850   0.01054   0.00505  -0.0393  0.8813  0.0082  -3.3923   0.0000   0.0000   0.0000   0.1436
  -5.100  -0.3770   0.00998   0.00442  -0.0389  0.8779  0.0093  -3.3353   0.0000   0.0000   0.0000   0.1426
  -5.000  -0.3608   0.01139   0.00604  -0.0401  0.8754  0.0149  -2.6571   0.0000   0.0000   0.0000   0.1346
  -4.900  -0.3514   0.01110   0.00571  -0.0399  0.8718  0.0151  -2.6099   0.0000   0.0000   0.0000   0.1324
  -4.800  -0.3418   0.01083   0.00541  -0.0397  0.8678  0.0153  -2.5607   0.0000   0.0000   0.0000   0.1299
  -4.700  -0.3322   0.01060   0.00513  -0.0394  0.8634  0.0155  -2.5103   0.0000   0.0000   0.0000   0.1272
  -4.600  -0.3223   0.01039   0.00488  -0.0393  0.8584  0.0157  -2.4590   0.0000   0.0000   0.0000   0.1241
  -4.500  -0.3122   0.01019   0.00465  -0.0392  0.8534  0.0158  -2.4071   0.0000   0.0000   0.0000   0.1205
  -4.400  -0.3019   0.00999   0.00443  -0.0391  0.8501  0.0160  -2.3549   0.0000   0.0000   0.0000   0.1164
  -4.300  -0.2915   0.00982   0.00425  -0.0391  0.8491  0.0164  -2.2944   0.0000   0.0000   0.0000   0.1119
  -4.200  -0.2809   0.00970   0.00415  -0.0392  0.8480  0.0169  -2.2220   0.0000   0.0000   0.0000   0.1067
  -4.100  -0.2701   0.00963   0.00409  -0.0392  0.8467  0.0175  -2.1445   0.0000   0.0000   0.0000   0.1009
  -4.000  -0.2593   0.00953   0.00401  -0.0393  0.8451  0.0179  -2.0735   0.0000   0.0000   0.0000   0.0947
  -3.900  -0.2488   0.00938   0.00383  -0.0392  0.8433  0.0182  -2.0199   0.0000   0.0000   0.0000   0.0884
  -3.800  -0.2385   0.00915   0.00357  -0.0392  0.8412  0.0181  -1.9851   0.0000   0.0000   0.0000   0.0819
  -3.700  -0.2280   0.00895   0.00333  -0.0391  0.8389  0.0181  -1.9492   0.0000   0.0000   0.0000   0.0747
  -3.600  -0.2175   0.00876   0.00311  -0.0390  0.8363  0.0181  -1.9116   0.0000   0.0000   0.0000   0.0667
  -3.500  -0.2069   0.00860   0.00291  -0.0390  0.8336  0.0181  -1.8724   0.0000   0.0000   0.0000   0.0577
  -3.400  -0.1963   0.00846   0.00273  -0.0389  0.8307  0.0182  -1.8318   0.0000   0.0000   0.0000   0.0477
  -3.300  -0.1856   0.00833   0.00257  -0.0389  0.8277  0.0183  -1.7899   0.0000   0.0000   0.0000   0.0365
  -3.200  -0.1749   0.00822   0.00242  -0.0388  0.8245  0.0184  -1.7473   0.0000   0.0000   0.0000   0.0238
  -3.100  -0.1642   0.00812   0.00228  -0.0388  0.8211  0.0187  -1.7044   0.0000   0.0000   0.0000   0.0094
  -3.000  -0.1534   0.00803   0.00215  -0.0388  0.8173  0.0191  -1.6612   0.0000   0.0000   0.0000  -0.0071
  -2.900  -0.1426   0.00795   0.00203  -0.0388  0.8131  0.0197  -1.6181   0.0000   0.0000   0.0000  -0.0263
  -2.800  -0.1317   0.00788   0.00193  -0.0388  0.8084  0.0205  -1.5755   0.0000   0.0000   0.0000  -0.0491
  -2.700  -0.1207   0.00781   0.00184  -0.0388  0.8038  0.0220  -1.5337   0.0000   0.0000   0.0000  -0.0766
  -2.600  -0.1095   0.00775   0.00176  -0.0389  0.8003  0.0241  -1.4891   0.0000   0.0000   0.0000  -0.1103
  -2.500  -0.0984   0.00770   0.00171  -0.0390  0.7995  0.0254  -1.4324   0.0000   0.0000   0.0000  -0.1520
  -2.400  -0.0872   0.00767   0.00169  -0.0392  0.7985  0.0259  -1.3702   0.0000   0.0000   0.0000  -0.2047
  -2.300  -0.0760   0.00755   0.00153  -0.0392  0.7973  0.0361  -1.3451   0.0000   0.0000   0.0000  -0.2717
  -2.200  -0.0649   0.00746   0.00149  -0.0393  0.7958  0.0447  -1.2919   0.0000   0.0000   0.0000  -0.3620
  -2.100  -0.0537   0.00738   0.00145  -0.0394  0.7941  0.0516  -1.2350   0.0000   0.0000   0.0000  -0.4900
  -2.000  -0.0432   0.00711   0.00136  -0.0395  0.7921  0.0940  -1.1801   0.0000   0.0000   0.0000  -0.6728
  -1.900  -0.0326   0.00686   0.00129  -0.0396  0.7898  0.1474  -1.1251   0.0000   0.0000   0.0000  -0.9759
  -1.800  -0.0225   0.00646   0.00118  -0.0398  0.7873  0.2386  -1.0720   0.0000   0.0000   0.0000  -1.5369
  -1.700  -0.0121   0.00615   0.00110  -0.0400  0.7846  0.3124  -1.0181   0.0000   0.0000   0.0000  -3.0863
  -1.600  -0.0018   0.00580   0.00101  -0.0402  0.7819  0.3903  -0.9648   0.0000   0.0000   0.0000  -22.0856
  -1.500   0.0084   0.00545   0.00094  -0.0404  0.7792  0.4736  -0.9119   0.0000   0.0000   0.0000   5.0688
  -1.400   0.0189   0.00522   0.00092  -0.0404  0.7763  0.5369  -0.8585   0.0000   0.0000   0.0000   2.4046
  -1.300   0.0297   0.00513   0.00091  -0.0405  0.7733  0.5664  -0.8045   0.0000   0.0000   0.0000   1.6191
  -1.200   0.0405   0.00506   0.00091  -0.0405  0.7700  0.5942  -0.7512   0.0000   0.0000   0.0000   1.2547
  -1.100   0.0515   0.00501   0.00091  -0.0406  0.7663  0.6149  -0.6984   0.0000   0.0000   0.0000   1.0419
  -1.000   0.0623   0.00496   0.00092  -0.0406  0.7622  0.6360  -0.6465   0.0000   0.0000   0.0000   0.9044
  -0.900   0.0734   0.00496   0.00093  -0.0407  0.7579  0.6462  -0.5946   0.0000   0.0000   0.0000   0.8057
  -0.800   0.0847   0.00498   0.00093  -0.0408  0.7535  0.6517  -0.5431   0.0000   0.0000   0.0000   0.7327
  -0.700   0.0959   0.00496   0.00095  -0.0409  0.7503  0.6632  -0.4928   0.0000   0.0000   0.0000   0.6772
  -0.600   0.1071   0.00493   0.00095  -0.0410  0.7496  0.6718  -0.4431   0.0000   0.0000   0.0000   0.6331
  -0.500   0.1184   0.00490   0.00096  -0.0410  0.7484  0.6783  -0.3941   0.0000   0.0000   0.0000   0.5972
  -0.400   0.1296   0.00488   0.00095  -0.0411  0.7463  0.6842  -0.3751   0.0000   0.0000   0.0000   0.5675
  -0.300   0.1407   0.00486   0.00095  -0.0411  0.7426  0.6894  -0.3801   0.0000   0.0000   0.0000   0.5424
  -0.200   0.1518   0.00486   0.00093  -0.0412  0.7363  0.6937  -0.3851   0.0000   0.0000   0.0000   0.5210
  -0.100   0.1626   0.00488   0.00091  -0.0411  0.7272  0.6970  -0.3900   0.0000   0.0000   0.0000   0.5025
   0.000   0.1732   0.00494   0.00089  -0.0410  0.7145  0.6994  -0.3948   0.0000   0.0000   0.0000   0.4865
   0.100   0.1837   0.00496   0.00089  -0.0410  0.7001  0.7099  -0.3995   0.0000   0.0000   0.0000   0.4724
   0.200   0.1946   0.00492   0.00090  -0.0409  0.6957  0.7216  -0.4045   0.0000   0.0000   0.0000   0.4598
   0.300   0.2053   0.00491   0.00092  -0.0409  0.6870  0.7304  -0.4094   0.0000   0.0000   0.0000   0.4484
   0.400   0.2161   0.00493   0.00093  -0.0408  0.6790  0.7388  -0.4142   0.0000   0.0000   0.0000   0.4381
   0.500   0.2270   0.00497   0.00095  -0.0408  0.6734  0.7446  -0.4194   0.0000   0.0000   0.0000   0.4289
   0.600   0.2381   0.00501   0.00096  -0.0409  0.6690  0.7480  -0.4248   0.0000   0.0000   0.0000   0.4206
   0.700   0.2491   0.00505   0.00098  -0.0409  0.6635  0.7506  -0.4496   0.0000   0.0000   0.0000   0.4131
   0.800   0.2600   0.00505   0.00098  -0.0409  0.6568  0.7585  -0.5017   0.0000   0.0000   0.0000   0.4063
   0.900   0.2710   0.00506   0.00099  -0.0410  0.6502  0.7639  -0.5550   0.0000   0.0000   0.0000   0.4000
   1.000   0.2822   0.00505   0.00100  -0.0410  0.6479  0.7678  -0.6098   0.0000   0.0000   0.0000   0.3942
   1.100   0.2933   0.00505   0.00101  -0.0411  0.6443  0.7712  -0.6654   0.0000   0.0000   0.0000   0.3889
   1.200   0.3044   0.00505   0.00103  -0.0412  0.6391  0.7744  -0.7217   0.0000   0.0000   0.0000   0.3839
   1.300   0.3154   0.00508   0.00104  -0.0412  0.6314  0.7774  -0.7785   0.0000   0.0000   0.0000   0.3792
   1.400   0.3261   0.00513   0.00105  -0.0412  0.6206  0.7802  -0.8356   0.0000   0.0000   0.0000   0.3748
   1.500   0.3365   0.00521   0.00106  -0.0411  0.6047  0.7830  -0.8927   0.0000   0.0000   0.0000   0.3707
   1.600   0.3475   0.00524   0.00108  -0.0412  0.5947  0.7856  -0.9521   0.0000   0.0000   0.0000   0.3669
   1.700   0.3580   0.00532   0.00110  -0.0411  0.5748  0.7880  -1.0110   0.0000   0.0000   0.0000   0.3632
   1.800   0.3680   0.00548   0.00112  -0.0410  0.5456  0.7905  -1.0691   0.0000   0.0000   0.0000   0.3597
   1.900   0.3772   0.00572   0.00117  -0.0408  0.4980  0.7927  -1.1258   0.0000   0.0000   0.0000   0.3564
   2.000   0.3857   0.00609   0.00127  -0.0405  0.4287  0.7946  -1.1803   0.0000   0.0000   0.0000   0.3533
   2.100   0.3939   0.00652   0.00141  -0.0403  0.3609  0.7964  -1.2344   0.0000   0.0000   0.0000   0.3503
   2.200   0.4030   0.00682   0.00152  -0.0401  0.3126  0.7978  -1.2917   0.0000   0.0000   0.0000   0.3476
   2.300   0.4128   0.00704   0.00160  -0.0400  0.2759  0.7989  -1.3513   0.0000   0.0000   0.0000   0.3450
   2.400   0.4223   0.00727   0.00170  -0.0399  0.2385  0.8009  -1.4106   0.0000   0.0000   0.0000   0.3425
   2.500   0.4308   0.00760   0.00182  -0.0397  0.1827  0.8063  -1.4665   0.0000   0.0000   0.0000   0.3400
   2.600   0.4397   0.00787   0.00194  -0.0395  0.1387  0.8115  -1.5239   0.0000   0.0000   0.0000   0.3376
   2.700   0.4484   0.00815   0.00207  -0.0392  0.0938  0.8161  -1.5805   0.0000   0.0000   0.0000   0.3352
   2.800   0.4567   0.00847   0.00222  -0.0389  0.0586  0.8203  -1.6354   0.0000   0.0000   0.0000   0.3328
   2.900   0.4664   0.00861   0.00231  -0.0387  0.0423  0.8240  -1.6941   0.0000   0.0000   0.0000   0.3307
   3.000   0.4763   0.00874   0.00240  -0.0386  0.0301  0.8274  -1.7495   0.0000   0.0000   0.0000   0.3285
   3.100   0.4865   0.00883   0.00250  -0.0384  0.0217  0.8306  -1.7982   0.0000   0.0000   0.0000   0.3265
   3.200   0.4965   0.00896   0.00260  -0.0383  0.0182  0.8337  -1.8409   0.0000   0.0000   0.0000   0.3246
   3.300   0.5067   0.00907   0.00271  -0.0381  0.0164  0.8366  -1.8818   0.0000   0.0000   0.0000   0.3227
   3.400   0.5171   0.00917   0.00284  -0.0380  0.0156  0.8393  -1.9262   0.0000   0.0000   0.0000   0.3209
   3.500   0.5274   0.00927   0.00297  -0.0379  0.0151  0.8417  -1.9738   0.0000   0.0000   0.0000   0.3191
   3.600   0.5377   0.00938   0.00310  -0.0378  0.0149  0.8438  -2.0235   0.0000   0.0000   0.0000   0.3175
   3.700   0.5480   0.00950   0.00324  -0.0377  0.0147  0.8456  -2.0747   0.0000   0.0000   0.0000   0.3159
   3.800   0.5582   0.00962   0.00339  -0.0375  0.0146  0.8472  -2.1268   0.0000   0.0000   0.0000   0.3143
   3.900   0.5683   0.00975   0.00354  -0.0374  0.0145  0.8485  -2.1797   0.0000   0.0000   0.0000   0.3128
   4.000   0.5784   0.00988   0.00369  -0.0373  0.0145  0.8495  -2.2330   0.0000   0.0000   0.0000   0.3114
   4.100   0.5882   0.01000   0.00385  -0.0371  0.0145  0.8545  -2.2861   0.0000   0.0000   0.0000   0.3099
   4.200   0.5977   0.01013   0.00402  -0.0368  0.0145  0.8601  -2.3389   0.0000   0.0000   0.0000   0.3084
   4.300   0.6070   0.01026   0.00419  -0.0365  0.0145  0.8654  -2.3912   0.0000   0.0000   0.0000   0.3068
   4.400   0.6160   0.01041   0.00438  -0.0361  0.0145  0.8701  -2.4430   0.0000   0.0000   0.0000   0.3052
   4.500   0.6249   0.01056   0.00457  -0.0357  0.0146  0.8743  -2.4944   0.0000   0.0000   0.0000   0.3037
   4.600   0.6337   0.01072   0.00478  -0.0353  0.0146  0.8783  -2.5453   0.0000   0.0000   0.0000   0.3021
   4.700   0.6424   0.01090   0.00499  -0.0348  0.0147  0.8821  -2.5953   0.0000   0.0000   0.0000   0.3006
   4.800   0.6510   0.01109   0.00522  -0.0344  0.0148  0.8856  -2.6441   0.0000   0.0000   0.0000   0.2991
   4.900   0.6595   0.01130   0.00547  -0.0339  0.0148  0.8889  -2.6914   0.0000   0.0000   0.0000   0.2977
   5.000   0.6680   0.01154   0.00574  -0.0334  0.0149  0.8920  -2.7364   0.0000   0.0000   0.0000   0.2962
   5.100   0.6762   0.01180   0.00603  -0.0329  0.0150  0.8947  -2.7782   0.0000   0.0000   0.0000   0.2948
   5.200   0.6846   0.01205   0.00632  -0.0324  0.0151  0.8968  -2.8250   0.0000   0.0000   0.0000   0.2934
   5.300   0.6935   0.01225   0.00653  -0.0321  0.0148  0.8986  -2.8892   0.0000   0.0000   0.0000   0.2922
   5.400   0.7022   0.01245   0.00673  -0.0318  0.0144  0.9009  -2.9579   0.0000   0.0000   0.0000   0.2911
   5.500   0.7101   0.01266   0.00697  -0.0312  0.0140  0.9077  -3.0190   0.0000   0.0000   0.0000   0.2898
   5.600   0.7167   0.01293   0.00727  -0.0304  0.0136  0.9144  -3.0698   0.0000   0.0000   0.0000   0.2881
   5.700   0.7229   0.01322   0.00760  -0.0295  0.0134  0.9203  -3.1150   0.0000   0.0000   0.0000   0.2864
   5.800   0.7420   0.01202   0.00632  -0.0316  0.0081  0.9224  -3.8131   0.0000   0.0000   0.0000   0.2880
   5.900   0.7486   0.01222   0.00650  -0.0308  0.0074  0.9276  -3.9305   0.0000   0.0000   0.0000   0.2865
   6.000   0.7522   0.01271   0.00706  -0.0293  0.0069  0.9333  -3.9637   0.0000   0.0000   0.0000   0.2843
   6.100   0.7604   0.01277   0.00712  -0.0289  0.0067  0.9375  -4.0979   0.0000   0.0000   0.0000   0.2831
   6.200   0.7712   0.01259   0.00691  -0.0289  0.0063  0.9406  -4.3554   0.0000   0.0000   0.0000   0.2825
   6.300   0.7802   0.01259   0.00688  -0.0286  0.0061  0.9436  -4.4879   0.0000   0.0000   0.0000   0.2816
   6.400   0.7888   0.01262   0.00690  -0.0282  0.0060  0.9462  -4.6095   0.0000   0.0000   0.0000   0.2806
   6.500   0.7971   0.01266   0.00693  -0.0277  0.0058  0.9483  -4.7273   0.0000   0.0000   0.0000   0.2795
   6.600   0.8053   0.01272   0.00698  -0.0272  0.0057  0.9500  -4.8442   0.0000   0.0000   0.0000   0.2785
   6.700   0.8164   0.01279   0.00704  -0.0274  0.0056  0.9563  -4.9806   0.0000   0.0000   0.0000   0.2782
   6.800   0.8276   0.01287   0.00711  -0.0277  0.0054  0.9632  -5.1203   0.0000   0.0000   0.0000   0.2779
   6.900   0.8389   0.01295   0.00717  -0.0279  0.0053  0.9708  -5.2639   0.0000   0.0000   0.0000   0.2777
   7.000   0.8504   0.01303   0.00725  -0.0282  0.0052  0.9783  -5.4125   0.0000   0.0000   0.0000   0.2774
   7.100   0.8619   0.01311   0.00732  -0.0285  0.0051  0.9851  -5.5649   0.0000   0.0000   0.0000   0.2773
   7.200   0.8731   0.01321   0.00741  -0.0288  0.0050  0.9917  -5.7168   0.0000   0.0000   0.0000   0.2770
   7.300   0.8837   0.01334   0.00753  -0.0289  0.0049  0.9987  -5.8641   0.0000   0.0000   0.0000   0.2766
   7.400   0.8932   0.01350   0.00768  -0.0288  0.0048  1.0000  -6.0012   0.0000   0.0000   0.0000   0.2761
   7.500   0.9021   0.01370   0.00789  -0.0286  0.0047  1.0000  -6.1298   0.0000   0.0000   0.0000   0.2754
   7.600   0.9104   0.01395   0.00815  -0.0283  0.0046  1.0000  -6.2490   0.0000   0.0000   0.0000   0.2746
   7.700   0.9180   0.01428   0.00850  -0.0278  0.0045  1.0000  -6.3567   0.0000   0.0000   0.0000   0.2738
   8.000   0.9334   0.01611   0.01061  -0.0250  0.0043  1.0000  -6.6667   0.0000   0.0000   0.0000   0.2699
   8.100   0.9401   0.01660   0.01115  -0.0244  0.0043  1.0000  -6.7657   0.0000   0.0000   0.0000   0.2690
   8.200   0.9468   0.01710   0.01170  -0.0237  0.0043  1.0000  -6.8629   0.0000   0.0000   0.0000   0.2680
   8.300   0.9536   0.01762   0.01228  -0.0231  0.0043  1.0000  -6.9582   0.0000   0.0000   0.0000   0.2671
   8.400   0.9604   0.01816   0.01288  -0.0225  0.0043  1.0000  -7.0514   0.0000   0.0000   0.0000   0.2662
   8.500   0.9671   0.01875   0.01353  -0.0219  0.0043  1.0000  -7.1421   0.0000   0.0000   0.0000   0.2653
   8.600   0.9737   0.01937   0.01423  -0.0213  0.0043  1.0000  -7.2297   0.0000   0.0000   0.0000   0.2644
   8.700   0.9802   0.02005   0.01498  -0.0207  0.0043  1.0000  -7.3132   0.0000   0.0000   0.0000   0.2635
   8.800   0.9864   0.02079   0.01580  -0.0201  0.0043  1.0000  -7.3917   0.0000   0.0000   0.0000   0.2626
   8.900   0.9923   0.02160   0.01670  -0.0194  0.0043  1.0000  -7.4643   0.0000   0.0000   0.0000   0.2617
   9.000   0.9976   0.02248   0.01768  -0.0186  0.0043  1.0000  -7.5295   0.0000   0.0000   0.0000   0.2607
   9.100   1.0022   0.02344   0.01874  -0.0177  0.0043  1.0000  -7.5853   0.0000   0.0000   0.0000   0.2596
   9.300   0.9999   0.02937   0.02540  -0.0137  0.0052  1.0000  -7.0703   0.0000   0.0000   0.0000   0.2556
   9.400   1.0073   0.02918   0.02518  -0.0134  0.0051  1.0000  -7.2779   0.0000   0.0000   0.0000   0.2550
   9.500   1.0145   0.02901   0.02498  -0.0130  0.0050  1.0000  -7.4832   0.0000   0.0000   0.0000   0.2544
   9.600   1.0211   0.02890   0.02485  -0.0125  0.0049  1.0000  -7.6796   0.0000   0.0000   0.0000   0.2537
   9.700   1.0273   0.02881   0.02475  -0.0119  0.0049  1.0000  -7.8726   0.0000   0.0000   0.0000   0.2530
   9.800   1.0331   0.02873   0.02464  -0.0114  0.0048  1.0000  -8.0657   0.0000   0.0000   0.0000   0.2522
   9.900   1.0386   0.02862   0.02450  -0.0107  0.0047  1.0000  -8.2637   0.0000   0.0000   0.0000   0.2514


