xflr5 v6.61

 Calculated polar for: NACA 65(1)-212 a=0.6

 1 1 Reynolds number fixed          Mach number fixed         

 xtrf =   1.000 (top)        1.000 (bottom)
 Mach =   0.000     Re =     0.500 e 6     Ncrit =   9.000

  alpha     CL        CD       CDp       Cm    Top Xtr Bot Xtr   Cpmin    Chinge    XCp    
 ------- -------- --------- --------- -------- ------- ------- -------- --------- ---------
 -10.000  -0.3465   0.02471   0.02300   0.0269  0.7413  0.0153  -1.3460   0.0000   0.0000   0.0000   0.3331
  -9.900  -0.3413   0.02404   0.02233   0.0266  0.7398  0.0160  -1.2638   0.0000   0.0000   0.0000   0.3337
  -9.600  -0.6234   0.03555   0.03174  -0.0688  0.9452  0.0089  -5.2901   0.0000   0.0000   0.0000   0.1308
  -9.500  -0.6275   0.03516   0.03130  -0.0666  0.9390  0.0088  -5.2695   0.0000   0.0000   0.0000   0.1351
  -9.400  -0.6296   0.03467   0.03074  -0.0649  0.9328  0.0088  -5.2398   0.0000   0.0000   0.0000   0.1384
  -9.000  -0.6493   0.03072   0.02630  -0.0564  0.9038  0.0086  -5.3186   0.0000   0.0000   0.0000   0.1550
  -8.900  -0.6550   0.02904   0.02442  -0.0544  0.8992  0.0086  -5.3870   0.0000   0.0000   0.0000   0.1589
  -8.800  -0.6561   0.02780   0.02304  -0.0528  0.8970  0.0086  -5.3953   0.0000   0.0000   0.0000   0.1616
  -8.700  -0.6544   0.02686   0.02197  -0.0515  0.8946  0.0086  -5.3671   0.0000   0.0000   0.0000   0.1634
  -8.600  -0.6508   0.02614   0.02115  -0.0505  0.8921  0.0087  -5.3123   0.0000   0.0000   0.0000   0.1646
  -8.500  -0.6583   0.02316   0.01781  -0.0480  0.8886  0.0089  -5.4568   0.0000   0.0000   0.0000   0.1692
  -8.400  -0.6577   0.02150   0.01596  -0.0466  0.8855  0.0093  -5.4590   0.0000   0.0000   0.0000   0.1714
  -8.300  -0.6515   0.02107   0.01548  -0.0459  0.8827  0.0095  -5.3588   0.0000   0.0000   0.0000   0.1718
  -8.200  -0.6443   0.02086   0.01526  -0.0454  0.8799  0.0096  -5.2409   0.0000   0.0000   0.0000   0.1719
  -8.100  -0.6367   0.02075   0.01514  -0.0449  0.8771  0.0098  -5.1165   0.0000   0.0000   0.0000   0.1719
  -8.000  -0.6289   0.02069   0.01507  -0.0445  0.8743  0.0100  -4.9891   0.0000   0.0000   0.0000   0.1719
  -7.900  -0.6209   0.02065   0.01503  -0.0441  0.8714  0.0101  -4.8605   0.0000   0.0000   0.0000   0.1718
  -7.800  -0.6127   0.02063   0.01500  -0.0436  0.8686  0.0104  -4.7313   0.0000   0.0000   0.0000   0.1716
  -7.700  -0.6045   0.02062   0.01498  -0.0432  0.8656  0.0106  -4.6014   0.0000   0.0000   0.0000   0.1714
  -7.600  -0.5961   0.02062   0.01498  -0.0429  0.8623  0.0109  -4.4701   0.0000   0.0000   0.0000   0.1711
  -7.500  -0.5873   0.02066   0.01501  -0.0426  0.8586  0.0112  -4.3349   0.0000   0.0000   0.0000   0.1706
  -7.300  -0.5638   0.02245   0.01692  -0.0429  0.8504  0.0131  -3.8307   0.0000   0.0000   0.0000   0.1673
  -7.200  -0.5540   0.02254   0.01701  -0.0427  0.8494  0.0134  -3.7174   0.0000   0.0000   0.0000   0.1663
  -7.100  -0.5441   0.02272   0.01719  -0.0426  0.8481  0.0136  -3.6015   0.0000   0.0000   0.0000   0.1652
  -7.000  -0.5339   0.02300   0.01748  -0.0425  0.8466  0.0137  -3.4813   0.0000   0.0000   0.0000   0.1640
  -6.900  -0.5320   0.02037   0.01459  -0.0414  0.8449  0.0146  -3.5746   0.0000   0.0000   0.0000   0.1659
  -6.800  -0.5253   0.01921   0.01332  -0.0408  0.8431  0.0152  -3.5643   0.0000   0.0000   0.0000   0.1659
  -6.700  -0.5170   0.01868   0.01275  -0.0405  0.8412  0.0156  -3.5079   0.0000   0.0000   0.0000   0.1653
  -6.600  -0.5082   0.01834   0.01240  -0.0403  0.8392  0.0160  -3.4375   0.0000   0.0000   0.0000   0.1645
  -6.500  -0.4991   0.01809   0.01214  -0.0401  0.8372  0.0163  -3.3615   0.0000   0.0000   0.0000   0.1635
  -6.400  -0.4899   0.01789   0.01192  -0.0399  0.8353  0.0166  -3.2842   0.0000   0.0000   0.0000   0.1625
  -6.300  -0.4806   0.01770   0.01171  -0.0397  0.8333  0.0169  -3.2079   0.0000   0.0000   0.0000   0.1613
  -6.200  -0.4712   0.01750   0.01151  -0.0395  0.8313  0.0172  -3.1339   0.0000   0.0000   0.0000   0.1601
  -6.100  -0.4617   0.01731   0.01129  -0.0393  0.8293  0.0175  -3.0629   0.0000   0.0000   0.0000   0.1589
  -6.000  -0.4523   0.01710   0.01105  -0.0391  0.8272  0.0178  -2.9952   0.0000   0.0000   0.0000   0.1576
  -5.900  -0.4428   0.01687   0.01080  -0.0389  0.8252  0.0180  -2.9307   0.0000   0.0000   0.0000   0.1562
  -5.800  -0.4333   0.01664   0.01054  -0.0387  0.8231  0.0183  -2.8693   0.0000   0.0000   0.0000   0.1548
  -5.700  -0.4237   0.01640   0.01027  -0.0385  0.8209  0.0185  -2.8107   0.0000   0.0000   0.0000   0.1534
  -5.600  -0.4142   0.01614   0.00998  -0.0383  0.8187  0.0188  -2.7550   0.0000   0.0000   0.0000   0.1518
  -5.500  -0.4046   0.01587   0.00967  -0.0380  0.8164  0.0189  -2.7036   0.0000   0.0000   0.0000   0.1502
  -5.400  -0.3952   0.01544   0.00916  -0.0377  0.8139  0.0187  -2.6831   0.0000   0.0000   0.0000   0.1488
  -5.300  -0.3855   0.01523   0.00892  -0.0376  0.8111  0.0190  -2.6258   0.0000   0.0000   0.0000   0.1468
  -5.200  -0.3756   0.01503   0.00870  -0.0374  0.8081  0.0193  -2.5691   0.0000   0.0000   0.0000   0.1447
  -5.100  -0.3657   0.01484   0.00849  -0.0373  0.8049  0.0196  -2.5127   0.0000   0.0000   0.0000   0.1423
  -5.000  -0.3556   0.01468   0.00830  -0.0372  0.8015  0.0199  -2.4560   0.0000   0.0000   0.0000   0.1396
  -4.900  -0.3455   0.01448   0.00809  -0.0371  0.8004  0.0203  -2.3986   0.0000   0.0000   0.0000   0.1368
  -4.800  -0.3355   0.01429   0.00788  -0.0370  0.7997  0.0208  -2.3391   0.0000   0.0000   0.0000   0.1339
  -4.700  -0.3209   0.01659   0.01027  -0.0382  0.7989  0.0259  -1.9968   0.0000   0.0000   0.0000   0.1255
  -4.600  -0.3110   0.01590   0.00953  -0.0379  0.7981  0.0257  -1.9848   0.0000   0.0000   0.0000   0.1223
  -4.500  -0.3011   0.01533   0.00893  -0.0377  0.7971  0.0257  -1.9663   0.0000   0.0000   0.0000   0.1190
  -4.400  -0.2912   0.01484   0.00840  -0.0375  0.7961  0.0256  -1.9446   0.0000   0.0000   0.0000   0.1154
  -4.300  -0.2814   0.01439   0.00792  -0.0373  0.7950  0.0256  -1.9205   0.0000   0.0000   0.0000   0.1117
  -4.200  -0.2717   0.01399   0.00749  -0.0371  0.7937  0.0256  -1.8946   0.0000   0.0000   0.0000   0.1079
  -4.100  -0.2620   0.01363   0.00710  -0.0368  0.7924  0.0256  -1.8672   0.0000   0.0000   0.0000   0.1037
  -4.000  -0.2524   0.01330   0.00675  -0.0366  0.7910  0.0257  -1.8384   0.0000   0.0000   0.0000   0.0994
  -3.900  -0.2428   0.01300   0.00642  -0.0363  0.7896  0.0257  -1.8080   0.0000   0.0000   0.0000   0.0946
  -3.800  -0.2332   0.01273   0.00613  -0.0361  0.7881  0.0258  -1.7762   0.0000   0.0000   0.0000   0.0894
  -3.700  -0.2235   0.01249   0.00586  -0.0358  0.7866  0.0260  -1.7426   0.0000   0.0000   0.0000   0.0836
  -3.600  -0.2137   0.01227   0.00562  -0.0356  0.7850  0.0261  -1.7072   0.0000   0.0000   0.0000   0.0772
  -3.500  -0.2038   0.01208   0.00541  -0.0355  0.7834  0.0262  -1.6697   0.0000   0.0000   0.0000   0.0698
  -3.400  -0.1937   0.01192   0.00522  -0.0353  0.7819  0.0264  -1.6301   0.0000   0.0000   0.0000   0.0614
  -3.300  -0.1842   0.01166   0.00495  -0.0351  0.7803  0.0268  -1.6024   0.0000   0.0000   0.0000   0.0533
  -3.200  -0.1766   0.01109   0.00425  -0.0344  0.7787  0.0286  -1.6259   0.0000   0.0000   0.0000   0.0487
  -3.100  -0.1678   0.01067   0.00369  -0.0339  0.7771  0.0329  -1.6526   0.0000   0.0000   0.0000   0.0412
  -3.000  -0.1577   0.01044   0.00341  -0.0337  0.7755  0.0391  -1.6433   0.0000   0.0000   0.0000   0.0296
  -2.900  -0.1472   0.01031   0.00329  -0.0336  0.7739  0.0434  -1.6033   0.0000   0.0000   0.0000   0.0148
  -2.800  -0.1367   0.01021   0.00318  -0.0335  0.7723  0.0471  -1.5568   0.0000   0.0000   0.0000  -0.0027
  -2.700  -0.1260   0.01013   0.00308  -0.0335  0.7707  0.0513  -1.5084   0.0000   0.0000   0.0000  -0.0235
  -2.600  -0.1162   0.00991   0.00296  -0.0334  0.7690  0.0788  -1.4645   0.0000   0.0000   0.0000  -0.0453
  -2.500  -0.1088   0.00930   0.00278  -0.0331  0.7670  0.1813  -1.4230   0.0000   0.0000   0.0000  -0.0626
  -2.400  -0.1015   0.00870   0.00260  -0.0329  0.7649  0.2995  -1.3796   0.0000   0.0000   0.0000  -0.0826
  -2.300  -0.0953   0.00798   0.00245  -0.0325  0.7625  0.4478  -1.3378   0.0000   0.0000   0.0000  -0.0995
  -2.200  -0.0873   0.00764   0.00247  -0.0321  0.7598  0.5419  -1.2896   0.0000   0.0000   0.0000  -0.1267
  -2.100  -0.0775   0.00755   0.00252  -0.0319  0.7568  0.5782  -1.2366   0.0000   0.0000   0.0000  -0.1720
  -2.000  -0.0666   0.00759   0.00258  -0.0320  0.7536  0.5990  -1.1811   0.0000   0.0000   0.0000  -0.2411
  -1.900  -0.0564   0.00755   0.00266  -0.0318  0.7510  0.6203  -1.1278   0.0000   0.0000   0.0000  -0.3274
  -1.800  -0.0456   0.00750   0.00266  -0.0318  0.7505  0.6356  -1.0732   0.0000   0.0000   0.0000  -0.4613
  -1.700  -0.0345   0.00750   0.00266  -0.0318  0.7499  0.6461  -1.0181   0.0000   0.0000   0.0000  -0.6920
  -1.600  -0.0237   0.00745   0.00267  -0.0318  0.7493  0.6599  -0.9646   0.0000   0.0000   0.0000  -1.1156
  -1.500  -0.0134   0.00740   0.00271  -0.0316  0.7487  0.6749  -0.9125   0.0000   0.0000   0.0000  -2.1584
  -1.400  -0.0026   0.00740   0.00274  -0.0315  0.7479  0.6867  -0.8599   0.0000   0.0000   0.0000  -12.2203
  -1.300   0.0086   0.00742   0.00276  -0.0315  0.7471  0.6944  -0.8071   0.0000   0.0000   0.0000   3.9787
  -1.200   0.0199   0.00745   0.00277  -0.0316  0.7462  0.6983  -0.7548   0.0000   0.0000   0.0000   1.8601
  -1.100   0.0309   0.00741   0.00277  -0.0316  0.7453  0.7056  -0.7039   0.0000   0.0000   0.0000   1.2849
  -1.000   0.0418   0.00738   0.00277  -0.0316  0.7443  0.7125  -0.6541   0.0000   0.0000   0.0000   1.0144
  -0.900   0.0527   0.00736   0.00278  -0.0315  0.7432  0.7175  -0.6049   0.0000   0.0000   0.0000   0.8550
  -0.800   0.0637   0.00735   0.00279  -0.0315  0.7421  0.7217  -0.5561   0.0000   0.0000   0.0000   0.7500
  -0.700   0.0746   0.00734   0.00281  -0.0315  0.7409  0.7265  -0.5082   0.0000   0.0000   0.0000   0.6760
  -0.600   0.0856   0.00735   0.00284  -0.0315  0.7396  0.7319  -0.4609   0.0000   0.0000   0.0000   0.6208
  -0.500   0.0966   0.00737   0.00287  -0.0314  0.7384  0.7370  -0.4464   0.0000   0.0000   0.0000   0.5779
  -0.400   0.1076   0.00739   0.00290  -0.0314  0.7370  0.7415  -0.4512   0.0000   0.0000   0.0000   0.5439
  -0.300   0.1188   0.00742   0.00292  -0.0314  0.7357  0.7450  -0.4561   0.0000   0.0000   0.0000   0.5162
  -0.200   0.1300   0.00745   0.00295  -0.0315  0.7343  0.7476  -0.4609   0.0000   0.0000   0.0000   0.4933
  -0.100   0.1412   0.00745   0.00295  -0.0316  0.7330  0.7502  -0.4658   0.0000   0.0000   0.0000   0.4741
   0.000   0.1521   0.00739   0.00291  -0.0316  0.7316  0.7556  -0.4711   0.0000   0.0000   0.0000   0.4580
   0.100   0.1629   0.00736   0.00288  -0.0316  0.7302  0.7595  -0.4765   0.0000   0.0000   0.0000   0.4439
   0.200   0.1738   0.00732   0.00286  -0.0316  0.7288  0.7629  -0.4819   0.0000   0.0000   0.0000   0.4315
   0.300   0.1846   0.00729   0.00283  -0.0316  0.7273  0.7661  -0.4873   0.0000   0.0000   0.0000   0.4205
   0.400   0.1955   0.00727   0.00281  -0.0316  0.7257  0.7692  -0.4928   0.0000   0.0000   0.0000   0.4108
   0.500   0.2065   0.00725   0.00278  -0.0316  0.7241  0.7721  -0.4983   0.0000   0.0000   0.0000   0.4021
   0.600   0.2176   0.00723   0.00275  -0.0316  0.7224  0.7749  -0.5038   0.0000   0.0000   0.0000   0.3944
   0.700   0.2287   0.00721   0.00273  -0.0317  0.7207  0.7776  -0.5094   0.0000   0.0000   0.0000   0.3874
   0.800   0.2398   0.00720   0.00271  -0.0317  0.7189  0.7804  -0.5150   0.0000   0.0000   0.0000   0.3811
   0.900   0.2510   0.00720   0.00269  -0.0318  0.7171  0.7831  -0.5205   0.0000   0.0000   0.0000   0.3754
   1.000   0.2621   0.00721   0.00268  -0.0319  0.7154  0.7857  -0.5260   0.0000   0.0000   0.0000   0.3702
   1.100   0.2733   0.00722   0.00268  -0.0320  0.7135  0.7882  -0.5315   0.0000   0.0000   0.0000   0.3655
   1.200   0.2846   0.00724   0.00269  -0.0321  0.7115  0.7905  -0.5369   0.0000   0.0000   0.0000   0.3611
   1.300   0.2958   0.00728   0.00272  -0.0322  0.7093  0.7926  -0.5423   0.0000   0.0000   0.0000   0.3572
   1.400   0.3070   0.00734   0.00277  -0.0323  0.7068  0.7944  -0.5476   0.0000   0.0000   0.0000   0.3536
   1.500   0.3182   0.00742   0.00285  -0.0325  0.7041  0.7959  -0.5528   0.0000   0.0000   0.0000   0.3503
   1.600   0.3292   0.00753   0.00296  -0.0326  0.7011  0.7972  -0.5641   0.0000   0.0000   0.0000   0.3472
   1.700   0.3406   0.00749   0.00291  -0.0327  0.7004  0.7983  -0.6179   0.0000   0.0000   0.0000   0.3440
   1.800   0.3519   0.00742   0.00284  -0.0328  0.6993  0.7995  -0.6727   0.0000   0.0000   0.0000   0.3410
   1.900   0.3635   0.00734   0.00277  -0.0329  0.6977  0.8045  -0.7289   0.0000   0.0000   0.0000   0.3383
   2.000   0.3749   0.00725   0.00268  -0.0329  0.6950  0.8095  -0.7858   0.0000   0.0000   0.0000   0.3356
   2.100   0.3862   0.00715   0.00258  -0.0330  0.6912  0.8145  -0.8434   0.0000   0.0000   0.0000   0.3330
   2.200   0.3974   0.00706   0.00249  -0.0329  0.6864  0.8196  -0.9015   0.0000   0.0000   0.0000   0.3304
   2.300   0.4084   0.00697   0.00241  -0.0328  0.6809  0.8249  -0.9600   0.0000   0.0000   0.0000   0.3279
   2.400   0.4191   0.00691   0.00235  -0.0327  0.6749  0.8305  -1.0186   0.0000   0.0000   0.0000   0.3254
   2.500   0.4293   0.00689   0.00232  -0.0324  0.6688  0.8363  -1.0767   0.0000   0.0000   0.0000   0.3228
   2.600   0.4390   0.00692   0.00235  -0.0320  0.6615  0.8418  -1.1337   0.0000   0.0000   0.0000   0.3201
   2.700   0.4481   0.00704   0.00247  -0.0314  0.6523  0.8466  -1.1900   0.0000   0.0000   0.0000   0.3173
   2.800   0.4571   0.00707   0.00257  -0.0308  0.6486  0.8501  -1.2469   0.0000   0.0000   0.0000   0.3143
   2.900   0.4665   0.00708   0.00263  -0.0302  0.6430  0.8542  -1.3058   0.0000   0.0000   0.0000   0.3117
   3.000   0.4760   0.00709   0.00267  -0.0297  0.6348  0.8580  -1.3653   0.0000   0.0000   0.0000   0.3093
   3.100   0.4853   0.00713   0.00269  -0.0292  0.6247  0.8616  -1.4250   0.0000   0.0000   0.0000   0.3069
   3.200   0.4943   0.00718   0.00271  -0.0286  0.6134  0.8650  -1.4844   0.0000   0.0000   0.0000   0.3046
   3.300   0.5031   0.00727   0.00275  -0.0281  0.6018  0.8683  -1.5436   0.0000   0.0000   0.0000   0.3024
   3.400   0.5129   0.00730   0.00281  -0.0277  0.5972  0.8715  -1.6058   0.0000   0.0000   0.0000   0.3005
   3.500   0.5225   0.00733   0.00286  -0.0273  0.5901  0.8747  -1.6682   0.0000   0.0000   0.0000   0.2987
   3.600   0.5316   0.00738   0.00289  -0.0268  0.5782  0.8779  -1.7296   0.0000   0.0000   0.0000   0.2967
   4.000   0.5658   0.00857   0.00317  -0.0263  0.3990  0.9039  -1.9674   0.0000   0.0000   0.0000   0.2925
   4.100   0.5697   0.00907   0.00338  -0.0254  0.3323  0.9078  -2.0119   0.0000   0.0000   0.0000   0.2904
   4.200   0.5721   0.00965   0.00364  -0.0241  0.2636  0.9117  -2.0515   0.0000   0.0000   0.0000   0.2880
   4.300   0.5742   0.01018   0.00388  -0.0228  0.2010  0.9154  -2.0899   0.0000   0.0000   0.0000   0.2855
   4.400   0.5766   0.01064   0.00411  -0.0215  0.1461  0.9189  -2.1285   0.0000   0.0000   0.0000   0.2829
   4.500   0.5784   0.01110   0.00434  -0.0200  0.0951  0.9222  -2.1640   0.0000   0.0000   0.0000   0.2801
   4.600   0.5798   0.01155   0.00457  -0.0184  0.0603  0.9253  -2.1971   0.0000   0.0000   0.0000   0.2771
   4.700   0.5842   0.01180   0.00474  -0.0172  0.0423  0.9280  -2.2332   0.0000   0.0000   0.0000   0.2747
   4.900   0.5900   0.01249   0.00553  -0.0138  0.0230  0.9333  -2.1747   0.0000   0.0000   0.0000   0.2686
   5.000   0.5967   0.01262   0.00567  -0.0130  0.0226  0.9355  -2.2178   0.0000   0.0000   0.0000   0.2669
   5.100   0.6030   0.01276   0.00584  -0.0121  0.0222  0.9375  -2.2576   0.0000   0.0000   0.0000   0.2652
   5.200   0.6088   0.01292   0.00603  -0.0112  0.0218  0.9395  -2.2943   0.0000   0.0000   0.0000   0.2633
   5.300   0.6142   0.01309   0.00624  -0.0101  0.0215  0.9413  -2.3288   0.0000   0.0000   0.0000   0.2613
   5.400   0.6190   0.01327   0.00645  -0.0090  0.0212  0.9430  -2.3615   0.0000   0.0000   0.0000   0.2593
   5.500   0.6233   0.01346   0.00668  -0.0078  0.0210  0.9446  -2.3923   0.0000   0.0000   0.0000   0.2571
   5.600   0.6270   0.01366   0.00691  -0.0064  0.0208  0.9460  -2.4214   0.0000   0.0000   0.0000   0.2548
   5.700   0.6294   0.01385   0.00713  -0.0048  0.0207  0.9473  -2.4476   0.0000   0.0000   0.0000   0.2521
   5.800   0.6296   0.01402   0.00733  -0.0028  0.0206  0.9485  -2.4691   0.0000   0.0000   0.0000   0.2488
   5.900   0.6297   0.01420   0.00755  -0.0007  0.0205  0.9496  -2.4899   0.0000   0.0000   0.0000   0.2455
   6.100   0.6335   0.01465   0.00806   0.0024  0.0203  0.9531  -2.5381   0.0000   0.0000   0.0000   0.2403
   6.200   0.6358   0.01491   0.00836   0.0039  0.0202  0.9551  -2.5623   0.0000   0.0000   0.0000   0.2379
   6.300   0.6383   0.01518   0.00867   0.0052  0.0202  0.9570  -2.5869   0.0000   0.0000   0.0000   0.2357
   6.400   0.6416   0.01549   0.00900   0.0064  0.0201  0.9588  -2.6123   0.0000   0.0000   0.0000   0.2338
   6.500   0.6455   0.01581   0.00936   0.0075  0.0201  0.9606  -2.6387   0.0000   0.0000   0.0000   0.2321
   6.600   0.6502   0.01615   0.00974   0.0085  0.0201  0.9623  -2.6662   0.0000   0.0000   0.0000   0.2306
   6.700   0.6557   0.01652   0.01015   0.0093  0.0201  0.9639  -2.6946   0.0000   0.0000   0.0000   0.2294
   6.800   0.6614   0.01742   0.01134   0.0103  0.0204  0.9653  -2.6886   0.0000   0.0000   0.0000   0.2279
   6.900   0.6698   0.01714   0.01102   0.0103  0.0185  0.9670  -2.8286   0.0000   0.0000   0.0000   0.2279
   7.000   0.6801   0.01700   0.01084   0.0100  0.0170  0.9687  -2.9598   0.0000   0.0000   0.0000   0.2284
   7.100   0.6897   0.01707   0.01090   0.0099  0.0162  0.9703  -3.0607   0.0000   0.0000   0.0000   0.2287
   7.200   0.6981   0.01730   0.01114   0.0101  0.0158  0.9720  -3.1316   0.0000   0.0000   0.0000   0.2286
   7.300   0.7061   0.01760   0.01145   0.0103  0.0156  0.9736  -3.1921   0.0000   0.0000   0.0000   0.2283
   7.400   0.7143   0.01789   0.01178   0.0105  0.0153  0.9751  -3.2547   0.0000   0.0000   0.0000   0.2281
   7.500   0.7224   0.01820   0.01211   0.0107  0.0151  0.9766  -3.3142   0.0000   0.0000   0.0000   0.2279
   7.600   0.7306   0.01852   0.01245   0.0109  0.0150  0.9779  -3.3727   0.0000   0.0000   0.0000   0.2277
   7.700   0.7388   0.01884   0.01279   0.0111  0.0148  0.9791  -3.4309   0.0000   0.0000   0.0000   0.2275
   7.800   0.7469   0.01917   0.01314   0.0113  0.0147  0.9801  -3.4889   0.0000   0.0000   0.0000   0.2272
   7.900   0.7549   0.01950   0.01349   0.0116  0.0146  0.9811  -3.5468   0.0000   0.0000   0.0000   0.2270
   8.000   0.7629   0.01984   0.01385   0.0118  0.0145  0.9819  -3.6046   0.0000   0.0000   0.0000   0.2267
   8.100   0.7708   0.02018   0.01421   0.0121  0.0143  0.9827  -3.6625   0.0000   0.0000   0.0000   0.2264
   8.200   0.7788   0.02052   0.01458   0.0124  0.0142  0.9834  -3.7210   0.0000   0.0000   0.0000   0.2261
   8.300   0.7869   0.02088   0.01495   0.0126  0.0141  0.9841  -3.7801   0.0000   0.0000   0.0000   0.2258
   8.400   0.7951   0.02124   0.01534   0.0129  0.0140  0.9847  -3.8395   0.0000   0.0000   0.0000   0.2256
   8.500   0.8032   0.02161   0.01574   0.0131  0.0139  0.9853  -3.8993   0.0000   0.0000   0.0000   0.2253
   8.600   0.8114   0.02200   0.01615   0.0134  0.0137  0.9859  -3.9593   0.0000   0.0000   0.0000   0.2251
   8.700   0.8196   0.02239   0.01657   0.0136  0.0136  0.9865  -4.0193   0.0000   0.0000   0.0000   0.2249
   8.800   0.8278   0.02281   0.01701   0.0138  0.0135  0.9870  -4.0792   0.0000   0.0000   0.0000   0.2246
   8.900   0.8359   0.02324   0.01747   0.0141  0.0134  0.9875  -4.1387   0.0000   0.0000   0.0000   0.2244
   9.000   0.8440   0.02369   0.01796   0.0143  0.0132  0.9880  -4.1975   0.0000   0.0000   0.0000   0.2242
   9.100   0.8521   0.02418   0.01848   0.0145  0.0131  0.9885  -4.2553   0.0000   0.0000   0.0000   0.2240
   9.200   0.8602   0.02470   0.01904   0.0148  0.0129  0.9890  -4.3117   0.0000   0.0000   0.0000   0.2238
   9.300   0.8850   0.02989   0.02463   0.0117  0.0112  0.9888  -4.2099   0.0000   0.0000   0.0000   0.2277
   9.400   0.8842   0.02918   0.02390   0.0135  0.0111  0.9895  -4.3228   0.0000   0.0000   0.0000   0.2256
   9.500   0.8864   0.02891   0.02362   0.0146  0.0110  0.9900  -4.4213   0.0000   0.0000   0.0000   0.2241
   9.600   0.8897   0.02885   0.02357   0.0156  0.0108  0.9906  -4.5113   0.0000   0.0000   0.0000   0.2230
   9.700   0.8933   0.02892   0.02366   0.0164  0.0107  0.9911  -4.5943   0.0000   0.0000   0.0000   0.2220
   9.800   0.8972   0.02908   0.02384   0.0172  0.0106  0.9916  -4.6737   0.0000   0.0000   0.0000   0.2211
   9.900   0.9015   0.02929   0.02407   0.0179  0.0105  0.9923  -4.7519   0.0000   0.0000   0.0000   0.2203
  10.000   0.9059   0.02954   0.02434   0.0185  0.0103  0.9929  -4.8292   0.0000   0.0000   0.0000   0.2196
  10.100   0.9104   0.02981   0.02464   0.0191  0.0102  0.9934  -4.9053   0.0000   0.0000   0.0000   0.2188
  10.200   0.9146   0.03010   0.02496   0.0198  0.0100  0.9939  -4.9800   0.0000   0.0000   0.0000   0.2181
  10.300   0.9188   0.03040   0.02529   0.0204  0.0099  0.9943  -5.0541   0.0000   0.0000   0.0000   0.2174
  10.400   0.9230   0.03072   0.02563   0.0210  0.0098  0.9948  -5.1288   0.0000   0.0000   0.0000   0.2167
  10.500   0.9273   0.03104   0.02599   0.0216  0.0096  0.9952  -5.2043   0.0000   0.0000   0.0000   0.2160
  10.600   0.9313   0.03139   0.02637   0.0222  0.0095  0.9957  -5.2792   0.0000   0.0000   0.0000   0.2153
  10.700   0.9350   0.03175   0.02676   0.0228  0.0093  0.9962  -5.3535   0.0000   0.0000   0.0000   0.2147
  10.800   0.9386   0.03212   0.02716   0.0233  0.0092  0.9967  -5.4286   0.0000   0.0000   0.0000   0.2140
  10.900   0.9426   0.03250   0.02756   0.0238  0.0091  0.9973  -5.5076   0.0000   0.0000   0.0000   0.2135
  11.000   0.9472   0.03288   0.02797   0.0241  0.0089  0.9979  -5.5921   0.0000   0.0000   0.0000   0.2131
  11.100   0.9521   0.03327   0.02839   0.0244  0.0088  0.9985  -5.6811   0.0000   0.0000   0.0000   0.2128
  11.200   0.9572   0.03366   0.02880   0.0245  0.0086  0.9990  -5.7729   0.0000   0.0000   0.0000   0.2126
  11.300   0.9621   0.03405   0.02922   0.0248  0.0085  0.9995  -5.8643   0.0000   0.0000   0.0000   0.2124
  11.400   0.9663   0.03444   0.02963   0.0251  0.0084  0.9999  -5.9543   0.0000   0.0000   0.0000   0.2120
  11.500   0.9684   0.03482   0.03004   0.0257  0.0083  1.0000  -6.0312   0.0000   0.0000   0.0000   0.2112
  11.600   0.9690   0.03519   0.03043   0.0266  0.0082  1.0000  -6.1000   0.0000   0.0000   0.0000   0.2102
  11.700   0.9698   0.03556   0.03082   0.0275  0.0081  1.0000  -6.1712   0.0000   0.0000   0.0000   0.2091
  11.800   0.9709   0.03592   0.03120   0.0283  0.0080  1.0000  -6.2450   0.0000   0.0000   0.0000   0.2081
  11.900   0.9720   0.03627   0.03157   0.0291  0.0080  1.0000  -6.3208   0.0000   0.0000   0.0000   0.2072
  12.000   0.9732   0.03663   0.03194   0.0299  0.0079  1.0000  -6.3981   0.0000   0.0000   0.0000   0.2063
  12.100   0.9744   0.03698   0.03231   0.0307  0.0078  1.0000  -6.4761   0.0000   0.0000   0.0000   0.2053
  12.200   0.9752   0.03735   0.03270   0.0315  0.0077  1.0000  -6.5521   0.0000   0.0000   0.0000   0.2044
  12.300   0.9753   0.03777   0.03314   0.0322  0.0077  1.0000  -6.6224   0.0000   0.0000   0.0000   0.2034
  12.400   0.9754   0.03820   0.03358   0.0330  0.0076  1.0000  -6.6930   0.0000   0.0000   0.0000   0.2025
  12.500   0.9757   0.03862   0.03403   0.0337  0.0075  1.0000  -6.7663   0.0000   0.0000   0.0000   0.2015
  12.600   0.9763   0.03906   0.03447   0.0345  0.0075  1.0000  -6.8413   0.0000   0.0000   0.0000   0.2007
  12.700   0.9768   0.03950   0.03494   0.0351  0.0074  1.0000  -6.9165   0.0000   0.0000   0.0000   0.1998
  12.800   0.9773   0.03997   0.03542   0.0358  0.0073  1.0000  -6.9904   0.0000   0.0000   0.0000   0.1990
  12.900   0.9775   0.04048   0.03595   0.0365  0.0073  1.0000  -7.0617   0.0000   0.0000   0.0000   0.1981
  13.000   0.9768   0.04106   0.03656   0.0372  0.0072  1.0000  -7.1244   0.0000   0.0000   0.0000   0.1972
  13.100   0.9751   0.04175   0.03727   0.0379  0.0071  1.0000  -7.1765   0.0000   0.0000   0.0000   0.1962
  13.200   0.9732   0.04248   0.03804   0.0386  0.0071  1.0000  -7.2245   0.0000   0.0000   0.0000   0.1953
  13.300   0.9709   0.04330   0.03890   0.0392  0.0070  1.0000  -7.2658   0.0000   0.0000   0.0000   0.1943
  13.400   0.9675   0.04427   0.03991   0.0399  0.0069  1.0000  -7.2933   0.0000   0.0000   0.0000   0.1932
  13.500   0.9623   0.04549   0.04120   0.0406  0.0068  1.0000  -7.2961   0.0000   0.0000   0.0000   0.1921
  13.600   0.9538   0.04710   0.04290   0.0414  0.0067  1.0000  -7.2590   0.0000   0.0000   0.0000   0.1908
  13.700   0.9421   0.04903   0.04495   0.0421  0.0066  1.0000  -7.1875   0.0000   0.0000   0.0000   0.1893
  13.800   0.9268   0.05147   0.04752   0.0426  0.0065  1.0000  -7.0697   0.0000   0.0000   0.0000   0.1878
  13.900   0.9089   0.05430   0.05051   0.0431  0.0065  1.0000  -6.9163   0.0000   0.0000   0.0000   0.1862
  14.000   0.8954   0.05661   0.05292   0.0432  0.0064  1.0000  -6.8219   0.0000   0.0000   0.0000   0.1851
  14.100   0.8914   0.05779   0.05415   0.0434  0.0064  1.0000  -6.8415   0.0000   0.0000   0.0000   0.1846
  14.200   0.8880   0.05895   0.05535   0.0435  0.0064  1.0000  -6.8657   0.0000   0.0000   0.0000   0.1840
  14.300   0.8846   0.06014   0.05658   0.0435  0.0064  1.0000  -6.8890   0.0000   0.0000   0.0000   0.1836
  14.400   0.8811   0.06140   0.05789   0.0436  0.0064  1.0000  -6.9084   0.0000   0.0000   0.0000   0.1832
  14.500   0.8755   0.06294   0.05949   0.0434  0.0064  1.0000  -6.9056   0.0000   0.0000   0.0000   0.1828
  14.600   0.8693   0.06460   0.06121   0.0432  0.0064  1.0000  -6.8944   0.0000   0.0000   0.0000   0.1825
  14.700   0.8639   0.06622   0.06288   0.0429  0.0063  1.0000  -6.8899   0.0000   0.0000   0.0000   0.1823
  14.800   0.8586   0.06791   0.06462   0.0426  0.0063  1.0000  -6.8828   0.0000   0.0000   0.0000   0.1822
  14.900   0.8515   0.06990   0.06667   0.0420  0.0063  1.0000  -6.8539   0.0000   0.0000   0.0000   0.1822
  15.000   0.8431   0.07216   0.06899   0.0412  0.0063  1.0000  -6.8067   0.0000   0.0000   0.0000   0.1824
  15.100   0.8357   0.07437   0.07126   0.0405  0.0063  1.0000  -6.7675   0.0000   0.0000   0.0000   0.1827
  15.200   0.8269   0.07690   0.07385   0.0394  0.0063  1.0000  -6.7074   0.0000   0.0000   0.0000   0.1832
  15.300   0.8160   0.07991   0.07693   0.0380  0.0063  1.0000  -6.6167   0.0000   0.0000   0.0000   0.1841
  15.400   0.8060   0.08293   0.08002   0.0366  0.0063  1.0000  -6.5284   0.0000   0.0000   0.0000   0.1851
  15.500   0.7912   0.08702   0.08419   0.0344  0.0064  1.0000  -6.3696   0.0000   0.0000   0.0000   0.1869
  15.600   0.7732   0.09208   0.08934   0.0315  0.0064  1.0000  -6.1498   0.0000   0.0000   0.0000   0.1895
  16.300   0.5943   0.15844   0.15602   0.0038  0.0112  1.0000  -2.1536   0.0000   0.0000   0.0000   0.2263
  16.400   0.5963   0.15967   0.15725   0.0032  0.0110  1.0000  -2.1670   0.0000   0.0000   0.0000   0.2272
  16.500   0.5939   0.16274   0.16031   0.0027  0.0113  1.0000  -2.0720   0.0000   0.0000   0.0000   0.2279
  16.600   0.5946   0.16459   0.16216   0.0021  0.0113  1.0000  -2.0494   0.0000   0.0000   0.0000   0.2289
  17.000   0.6058   0.16903   0.16664   0.0004  0.0115  1.0000  -2.1687   0.0000   0.0000   0.0000   0.2312
  17.100   0.6080   0.17037   0.16797  -0.0001  0.0116  1.0000  -2.1786   0.0000   0.0000   0.0000   0.2320
  17.200   0.6098   0.17189   0.16949  -0.0007  0.0116  1.0000  -2.1761   0.0000   0.0000   0.0000   0.2328
  17.300   0.6111   0.17360   0.17119  -0.0013  0.0116  1.0000  -2.1614   0.0000   0.0000   0.0000   0.2337
  17.400   0.6119   0.17552   0.17312  -0.0020  0.0116  1.0000  -2.1327   0.0000   0.0000   0.0000   0.2348
  17.500   0.6119   0.17783   0.17543  -0.0028  0.0115  1.0000  -2.0797   0.0000   0.0000   0.0000   0.2360


