xflr5 v6.61

 Calculated polar for: NACA M6 AIRFOIL

 1 1 Reynolds number fixed          Mach number fixed         

 xtrf =   1.000 (top)        1.000 (bottom)
 Mach =   0.000     Re =     0.500 e 6     Ncrit =   9.000

  alpha     CL        CD       CDp       Cm    Top Xtr Bot Xtr   Cpmin    Chinge    XCp    
 ------- -------- --------- --------- -------- ------- ------- -------- --------- ---------
 -10.000  -0.5110   0.10513   0.10255   0.0006  1.0000  0.0454  -1.6656   0.0000   0.0000   0.0000   0.2428
  -9.900  -0.5102   0.10355   0.10098  -0.0004  1.0000  0.0458  -1.6793   0.0000   0.0000   0.0000   0.2409
  -9.800  -0.5092   0.10199   0.09942  -0.0014  1.0000  0.0461  -1.6921   0.0000   0.0000   0.0000   0.2390
  -9.700  -0.5081   0.10044   0.09788  -0.0025  1.0000  0.0464  -1.7049   0.0000   0.0000   0.0000   0.2371
  -9.600  -0.5071   0.09889   0.09634  -0.0036  1.0000  0.0468  -1.7180   0.0000   0.0000   0.0000   0.2350
  -9.500  -0.5059   0.09739   0.09484  -0.0048  1.0000  0.0472  -1.7307   0.0000   0.0000   0.0000   0.2327
  -9.400  -0.5037   0.09609   0.09354  -0.0060  1.0000  0.0476  -1.7366   0.0000   0.0000   0.0000   0.2305
  -9.300  -0.5010   0.09487   0.09234  -0.0071  1.0000  0.0480  -1.7390   0.0000   0.0000   0.0000   0.2283
  -9.200  -0.4988   0.09359   0.09106  -0.0083  1.0000  0.0483  -1.7430   0.0000   0.0000   0.0000   0.2260
  -9.100  -0.4973   0.09217   0.08965  -0.0096  1.0000  0.0485  -1.7504   0.0000   0.0000   0.0000   0.2235
  -9.000  -0.4961   0.09055   0.08803  -0.0111  1.0000  0.0487  -1.7618   0.0000   0.0000   0.0000   0.2204
  -8.900  -0.4956   0.08869   0.08619  -0.0130  1.0000  0.0488  -1.7784   0.0000   0.0000   0.0000   0.2168
  -8.800  -0.4964   0.08653   0.08402  -0.0154  1.0000  0.0489  -1.8031   0.0000   0.0000   0.0000   0.2121
  -8.700  -0.4981   0.08441   0.08190  -0.0176  1.0000  0.0490  -1.8290   0.0000   0.0000   0.0000   0.2080
  -8.600  -0.4999   0.08257   0.08005  -0.0190  1.0000  0.0491  -1.8509   0.0000   0.0000   0.0000   0.2055
  -8.500  -0.5028   0.08089   0.07835  -0.0200  1.0000  0.0491  -1.8720   0.0000   0.0000   0.0000   0.2040
  -8.400  -0.5053   0.07929   0.07674  -0.0206  1.0000  0.0492  -1.8910   0.0000   0.0000   0.0000   0.2031
  -8.300  -0.5072   0.07777   0.07519  -0.0210  1.0000  0.0492  -1.9077   0.0000   0.0000   0.0000   0.2026
  -8.200  -0.5091   0.07630   0.07371  -0.0212  1.0000  0.0493  -1.9229   0.0000   0.0000   0.0000   0.2024
  -8.100  -0.5094   0.07477   0.07216  -0.0217  1.0000  0.0493  -1.9363   0.0000   0.0000   0.0000   0.2017
  -8.000  -0.5090   0.07323   0.07059  -0.0221  1.0000  0.0494  -1.9487   0.0000   0.0000   0.0000   0.2009
  -7.900  -0.5082   0.07169   0.06903  -0.0224  1.0000  0.0494  -1.9600   0.0000   0.0000   0.0000   0.2003
  -7.800  -0.5074   0.07019   0.06750  -0.0227  1.0000  0.0494  -1.9699   0.0000   0.0000   0.0000   0.1998
  -7.700  -0.5065   0.06872   0.06599  -0.0229  1.0000  0.0495  -1.9789   0.0000   0.0000   0.0000   0.1994
  -7.600  -0.5052   0.06725   0.06449  -0.0230  1.0000  0.0495  -1.9869   0.0000   0.0000   0.0000   0.1991
  -7.100  -0.4831   0.05954   0.05650  -0.0255  0.9438  0.0496  -2.0050   0.0000   0.0000   0.0000   0.1920
  -7.000  -0.4801   0.05828   0.05519  -0.0252  0.9330  0.0496  -2.0057   0.0000   0.0000   0.0000   0.1923
  -6.900  -0.4773   0.05710   0.05393  -0.0247  0.9221  0.0497  -2.0055   0.0000   0.0000   0.0000   0.1931
  -6.800  -0.4746   0.05597   0.05271  -0.0241  0.9111  0.0497  -2.0047   0.0000   0.0000   0.0000   0.1941
  -6.700  -0.4712   0.05483   0.05150  -0.0236  0.8998  0.0497  -2.0027   0.0000   0.0000   0.0000   0.1948
  -6.600  -0.4670   0.05365   0.05025  -0.0233  0.8965  0.0497  -1.9994   0.0000   0.0000   0.0000   0.1951
  -6.500  -0.4625   0.05249   0.04904  -0.0229  0.8922  0.0498  -1.9952   0.0000   0.0000   0.0000   0.1955
  -6.400  -0.4579   0.05136   0.04784  -0.0225  0.8867  0.0498  -1.9901   0.0000   0.0000   0.0000   0.1959
  -6.300  -0.4532   0.05026   0.04667  -0.0221  0.8802  0.0498  -1.9841   0.0000   0.0000   0.0000   0.1964
  -6.200  -0.4484   0.04919   0.04553  -0.0216  0.8728  0.0498  -1.9772   0.0000   0.0000   0.0000   0.1969
  -6.100  -0.4435   0.04816   0.04442  -0.0211  0.8646  0.0498  -1.9696   0.0000   0.0000   0.0000   0.1976
  -6.000  -0.4385   0.04715   0.04333  -0.0205  0.8557  0.0499  -1.9613   0.0000   0.0000   0.0000   0.1984
  -5.900  -0.4334   0.04618   0.04227  -0.0199  0.8458  0.0499  -1.9524   0.0000   0.0000   0.0000   0.1992
  -5.800  -0.4282   0.04523   0.04122  -0.0193  0.8342  0.0499  -1.9428   0.0000   0.0000   0.0000   0.2001
  -5.700  -0.4225   0.04429   0.04018  -0.0188  0.8202  0.0499  -1.9323   0.0000   0.0000   0.0000   0.2007
  -5.600  -0.4469   0.03432   0.02966  -0.0164  0.8127  0.0526  -2.1968   0.0000   0.0000   0.0000   0.2083
  -5.500  -0.4407   0.03300   0.02829  -0.0161  0.8000  0.0535  -2.1772   0.0000   0.0000   0.0000   0.2084
  -5.400  -0.4330   0.03214   0.02741  -0.0159  0.7985  0.0541  -2.1462   0.0000   0.0000   0.0000   0.2084
  -5.300  -0.4249   0.03143   0.02669  -0.0156  0.7965  0.0546  -2.1122   0.0000   0.0000   0.0000   0.2082
  -5.200  -0.4166   0.03081   0.02604  -0.0154  0.7940  0.0552  -2.0769   0.0000   0.0000   0.0000   0.2081
  -5.100  -0.4081   0.03024   0.02545  -0.0152  0.7907  0.0557  -2.0411   0.0000   0.0000   0.0000   0.2079
  -5.000  -0.3993   0.02972   0.02491  -0.0150  0.7869  0.0563  -2.0035   0.0000   0.0000   0.0000   0.2076
  -4.900  -0.3905   0.02923   0.02441  -0.0148  0.7827  0.0568  -1.9652   0.0000   0.0000   0.0000   0.2072
  -4.800  -0.3815   0.02877   0.02392  -0.0146  0.7783  0.0574  -1.9274   0.0000   0.0000   0.0000   0.2069
  -4.700  -0.3726   0.02832   0.02344  -0.0144  0.7737  0.0581  -1.8900   0.0000   0.0000   0.0000   0.2065
  -4.600  -0.3637   0.02788   0.02297  -0.0142  0.7687  0.0588  -1.8534   0.0000   0.0000   0.0000   0.2062
  -4.500  -0.3548   0.02746   0.02250  -0.0140  0.7635  0.0596  -1.8175   0.0000   0.0000   0.0000   0.2059
  -4.400  -0.3459   0.02705   0.02204  -0.0137  0.7579  0.0604  -1.7822   0.0000   0.0000   0.0000   0.2056
  -4.300  -0.3369   0.02665   0.02158  -0.0135  0.7520  0.0614  -1.7477   0.0000   0.0000   0.0000   0.2053
  -4.200  -0.3278   0.02626   0.02113  -0.0132  0.7453  0.0625  -1.7139   0.0000   0.0000   0.0000   0.2050
  -4.100  -0.3185   0.02589   0.02069  -0.0130  0.7376  0.0638  -1.6807   0.0000   0.0000   0.0000   0.2045
  -4.000  -0.3090   0.02555   0.02028  -0.0128  0.7289  0.0653  -1.6480   0.0000   0.0000   0.0000   0.2039
  -3.900  -0.2991   0.02525   0.01992  -0.0126  0.7200  0.0669  -1.6152   0.0000   0.0000   0.0000   0.2030
  -3.800  -0.2887   0.02506   0.01968  -0.0125  0.7111  0.0688  -1.5814   0.0000   0.0000   0.0000   0.2018
  -3.700  -0.2774   0.02510   0.01968  -0.0125  0.7023  0.0708  -1.5438   0.0000   0.0000   0.0000   0.2000
  -3.600  -0.2653   0.02556   0.02013  -0.0126  0.6996  0.0727  -1.4972   0.0000   0.0000   0.0000   0.1979
  -3.500  -0.2516   0.02676   0.02135  -0.0127  0.6989  0.0742  -1.4352   0.0000   0.0000   0.0000   0.1949
  -3.400  -0.2398   0.02729   0.02186  -0.0126  0.6982  0.0747  -1.3903   0.0000   0.0000   0.0000   0.1927
  -3.300  -0.2413   0.02220   0.01650  -0.0116  0.6976  0.0796  -1.4544   0.0000   0.0000   0.0000   0.1971
  -3.200  -0.2316   0.02172   0.01605  -0.0116  0.6967  0.0810  -1.4158   0.0000   0.0000   0.0000   0.1951
  -3.100  -0.2215   0.02140   0.01576  -0.0116  0.6956  0.0823  -1.3750   0.0000   0.0000   0.0000   0.1927
  -3.000  -0.2112   0.02114   0.01554  -0.0116  0.6943  0.0838  -1.3340   0.0000   0.0000   0.0000   0.1900
  -2.900  -0.2007   0.02094   0.01537  -0.0116  0.6928  0.0854  -1.2934   0.0000   0.0000   0.0000   0.1870
  -2.800  -0.1902   0.02080   0.01526  -0.0117  0.6912  0.0873  -1.2534   0.0000   0.0000   0.0000   0.1836
  -2.700  -0.1794   0.02072   0.01520  -0.0117  0.6893  0.0896  -1.2138   0.0000   0.0000   0.0000   0.1798
  -2.600  -0.1683   0.02075   0.01526  -0.0117  0.6872  0.0921  -1.1740   0.0000   0.0000   0.0000   0.1753
  -2.500  -0.1568   0.02097   0.01550  -0.0117  0.6850  0.0947  -1.1326   0.0000   0.0000   0.0000   0.1699
  -2.400  -0.1445   0.02154   0.01611  -0.0118  0.6824  0.0972  -1.0863   0.0000   0.0000   0.0000   0.1629
  -2.300  -0.1394   0.01923   0.01356  -0.0112  0.6802  0.1073  -1.0938   0.0000   0.0000   0.0000   0.1638
  -2.200  -0.1304   0.01839   0.01278  -0.0112  0.6776  0.1126  -1.0627   0.0000   0.0000   0.0000   0.1582
  -2.100  -0.1206   0.01807   0.01251  -0.0112  0.6745  0.1163  -1.0260   0.0000   0.0000   0.0000   0.1513
  -2.000  -0.1107   0.01784   0.01230  -0.0111  0.6708  0.1202  -0.9896   0.0000   0.0000   0.0000   0.1435
  -1.900  -0.1008   0.01764   0.01212  -0.0111  0.6664  0.1245  -0.9537   0.0000   0.0000   0.0000   0.1340
  -1.800  -0.0907   0.01749   0.01197  -0.0110  0.6613  0.1297  -0.9190   0.0000   0.0000   0.0000   0.1227
  -1.700  -0.0804   0.01743   0.01191  -0.0109  0.6554  0.1357  -0.8851   0.0000   0.0000   0.0000   0.1083
  -1.600  -0.0696   0.01763   0.01209  -0.0108  0.6481  0.1420  -0.8498   0.0000   0.0000   0.0000   0.0885
  -1.500  -0.0571   0.01869   0.01316  -0.0107  0.6381  0.1476  -0.8039   0.0000   0.0000   0.0000   0.0546
  -1.400  -0.0526   0.01626   0.01062  -0.0104  0.6311  0.1634  -0.7985   0.0000   0.0000   0.0000   0.0446
  -1.300  -0.0433   0.01603   0.01047  -0.0103  0.6207  0.1698  -0.7647   0.0000   0.0000   0.0000   0.0043
  -1.200  -0.0332   0.01585   0.01032  -0.0102  0.6108  0.1748  -0.7355   0.0000   0.0000   0.0000  -0.0662
  -1.100  -0.0228   0.01569   0.01018  -0.0101  0.6017  0.1797  -0.7086   0.0000   0.0000   0.0000  -0.2045
  -1.000  -0.0122   0.01553   0.01003  -0.0100  0.5995  0.1850  -0.6823   0.0000   0.0000   0.0000  -0.5839
  -0.900  -0.0013   0.01542   0.00993  -0.0098  0.5987  0.1901  -0.6565   0.0000   0.0000   0.0000  -7.4886
  -0.800   0.0235   0.01367   0.00709  -0.0087  0.5981  0.1038  -0.7735   0.0000   0.0000   0.0000   0.6350
  -0.700   0.0358   0.01455   0.00806  -0.0087  0.5966  0.0999  -0.7280   0.0000   0.0000   0.0000   0.5020
  -0.300   0.0821   0.01121   0.00388  -0.0064  0.5874  0.0496  -0.8089   0.0000   0.0000   0.0000   0.3302
  -0.200   0.0918   0.01089   0.00350  -0.0060  0.5834  0.0485  -0.7967   0.0000   0.0000   0.0000   0.3170
   0.100   0.1230   0.01048   0.00292  -0.0054  0.5681  0.0452  -0.7293   0.0000   0.0000   0.0000   0.2941
   0.200   0.1336   0.01039   0.00279  -0.0052  0.5622  0.0442  -0.7037   0.0000   0.0000   0.0000   0.2893
   0.300   0.1442   0.01033   0.00267  -0.0051  0.5562  0.0432  -0.6774   0.0000   0.0000   0.0000   0.2852
   0.400   0.1549   0.01028   0.00257  -0.0050  0.5506  0.0422  -0.6504   0.0000   0.0000   0.0000   0.2819
   0.500   0.1657   0.01024   0.00249  -0.0049  0.5449  0.0413  -0.6228   0.0000   0.0000   0.0000   0.2790
   0.600   0.1764   0.01022   0.00242  -0.0049  0.5389  0.0405  -0.6197   0.0000   0.0000   0.0000   0.2766
   0.700   0.1880   0.01015   0.00246  -0.0050  0.5454  0.0397  -0.6297   0.0000   0.0000   0.0000   0.2753
   0.800   0.1990   0.01012   0.00240  -0.0050  0.5424  0.0391  -0.6394   0.0000   0.0000   0.0000   0.2737
   0.900   0.2099   0.01011   0.00233  -0.0050  0.5384  0.0385  -0.6491   0.0000   0.0000   0.0000   0.2722
   1.000   0.2208   0.01009   0.00227  -0.0050  0.5339  0.0380  -0.6589   0.0000   0.0000   0.0000   0.2709
   1.100   0.2317   0.01009   0.00222  -0.0050  0.5289  0.0375  -0.6686   0.0000   0.0000   0.0000   0.2697
   1.200   0.2427   0.01009   0.00217  -0.0050  0.5236  0.0371  -0.6784   0.0000   0.0000   0.0000   0.2687
   1.300   0.2537   0.01009   0.00214  -0.0050  0.5182  0.0367  -0.6882   0.0000   0.0000   0.0000   0.2678
   1.400   0.2647   0.01009   0.00210  -0.0051  0.5130  0.0363  -0.6981   0.0000   0.0000   0.0000   0.2671
   1.500   0.2758   0.01009   0.00208  -0.0051  0.5081  0.0360  -0.7097   0.0000   0.0000   0.0000   0.2664
   1.600   0.2869   0.01010   0.00207  -0.0052  0.5036  0.0357  -0.7216   0.0000   0.0000   0.0000   0.2658
   1.700   0.2980   0.01011   0.00205  -0.0053  0.4999  0.0355  -0.7335   0.0000   0.0000   0.0000   0.2652
   1.800   0.3091   0.01009   0.00203  -0.0053  0.4996  0.0353  -0.7456   0.0000   0.0000   0.0000   0.2647
   1.900   0.3203   0.01007   0.00201  -0.0054  0.4992  0.0351  -0.7578   0.0000   0.0000   0.0000   0.2643
   2.000   0.3315   0.01005   0.00199  -0.0055  0.4986  0.0350  -0.7700   0.0000   0.0000   0.0000   0.2638
   2.100   0.3426   0.01003   0.00197  -0.0055  0.4979  0.0349  -0.7823   0.0000   0.0000   0.0000   0.2634
   2.200   0.3538   0.01002   0.00195  -0.0056  0.4969  0.0349  -0.7945   0.0000   0.0000   0.0000   0.2630
   2.300   0.3649   0.01000   0.00194  -0.0057  0.4956  0.0350  -0.8069   0.0000   0.0000   0.0000   0.2626
   2.400   0.3760   0.00999   0.00192  -0.0057  0.4936  0.0351  -0.8192   0.0000   0.0000   0.0000   0.2623
   2.500   0.3871   0.00998   0.00190  -0.0058  0.4908  0.0355  -0.8316   0.0000   0.0000   0.0000   0.2619
   2.600   0.3981   0.00998   0.00188  -0.0058  0.4870  0.0361  -0.8440   0.0000   0.0000   0.0000   0.2615
   2.700   0.4092   0.01000   0.00185  -0.0059  0.4819  0.0375  -0.8564   0.0000   0.0000   0.0000   0.2611
   2.800   0.4202   0.01004   0.00184  -0.0059  0.4760  0.0444  -0.8689   0.0000   0.0000   0.0000   0.2608
   2.900   0.4309   0.01003   0.00198  -0.0059  0.4698  0.0495  -0.8811   0.0000   0.0000   0.0000   0.2603
   3.000   0.4338   0.00898   0.00195  -0.0048  0.4650  0.4187  -0.8877   0.0000   0.0000   0.0000   0.2577
   3.100   0.4277   0.00756   0.00205  -0.0011  0.4614  0.8673  -0.8958   0.0000   0.0000   0.0000   0.2488
   3.200   0.4385   0.00762   0.00212  -0.0009  0.4539  0.8994  -0.9316   0.0000   0.0000   0.0000   0.2484
   3.300   0.4613   0.00781   0.00233  -0.0034  0.4433  0.9283  -0.9873   0.0000   0.0000   0.0000   0.2536
   3.400   0.4739   0.00794   0.00242  -0.0037  0.4346  0.9394  -1.0268   0.0000   0.0000   0.0000   0.2540
   3.500   0.4829   0.00804   0.00249  -0.0033  0.4266  0.9457  -1.0606   0.0000   0.0000   0.0000   0.2528
   3.600   0.4909   0.00812   0.00255  -0.0026  0.4189  0.9496  -1.0928   0.0000   0.0000   0.0000   0.2512
   3.700   0.5074   0.00821   0.00261  -0.0039  0.4096  0.9536  -1.1395   0.0000   0.0000   0.0000   0.2535
   3.800   0.5249   0.00829   0.00268  -0.0054  0.4014  0.9570  -1.1885   0.0000   0.0000   0.0000   0.2560
   3.900   0.5420   0.00835   0.00275  -0.0068  0.3991  0.9598  -1.2373   0.0000   0.0000   0.0000   0.2582
   4.000   0.5587   0.00841   0.00282  -0.0081  0.3978  0.9623  -1.2858   0.0000   0.0000   0.0000   0.2601
   4.100   0.5747   0.00847   0.00288  -0.0093  0.3962  0.9647  -1.3339   0.0000   0.0000   0.0000   0.2617
   4.200   0.5904   0.00853   0.00293  -0.0104  0.3944  0.9670  -1.3816   0.0000   0.0000   0.0000   0.2630
   4.300   0.6094   0.00862   0.00302  -0.0122  0.3917  0.9710  -1.4359   0.0000   0.0000   0.0000   0.2653
   4.400   0.6383   0.00881   0.00320  -0.0160  0.3870  0.9793  -1.5090   0.0000   0.0000   0.0000   0.2703
   4.500   0.6742   0.00912   0.00346  -0.0211  0.3774  0.9889  -1.5965   0.0000   0.0000   0.0000   0.2765
   4.600   0.7054   0.00944   0.00366  -0.0254  0.3569  0.9954  -1.6763   0.0000   0.0000   0.0000   0.2811
   4.700   0.7220   0.00968   0.00375  -0.0268  0.3350  0.9970  -1.7288   0.0000   0.0000   0.0000   0.2821
   4.800   0.7328   0.00983   0.00380  -0.0270  0.3123  0.9973  -1.7704   0.0000   0.0000   0.0000   0.2817
   4.900   0.7439   0.00992   0.00384  -0.0272  0.2979  0.9976  -1.8126   0.0000   0.0000   0.0000   0.2813
   5.000   0.7550   0.00999   0.00389  -0.0274  0.2913  0.9978  -1.8550   0.0000   0.0000   0.0000   0.2810
   5.100   0.7659   0.01011   0.00394  -0.0276  0.2808  0.9981  -1.8972   0.0000   0.0000   0.0000   0.2806
   5.200   0.7764   0.01034   0.00402  -0.0278  0.2601  0.9983  -1.9382   0.0000   0.0000   0.0000   0.2802
   5.300   0.7862   0.01071   0.00419  -0.0280  0.2287  0.9985  -1.9774   0.0000   0.0000   0.0000   0.2799
   5.400   0.7967   0.01094   0.00430  -0.0281  0.1954  0.9987  -2.0171   0.0000   0.0000   0.0000   0.2796
   5.500   0.8046   0.01171   0.00462  -0.0282  0.1480  0.9989  -2.0485   0.0000   0.0000   0.0000   0.2792
   5.600   0.8101   0.01296   0.00532  -0.0281  0.0648  0.9991  -2.0656   0.0000   0.0000   0.0000   0.2788
   5.700   0.8200   0.01330   0.00556  -0.0282  0.0476  0.9993  -2.0930   0.0000   0.0000   0.0000   0.2783
   5.800   0.8310   0.01344   0.00568  -0.0283  0.0457  0.9996  -2.1282   0.0000   0.0000   0.0000   0.2780
   5.900   0.8420   0.01356   0.00580  -0.0285  0.0445  0.9998  -2.1655   0.0000   0.0000   0.0000   0.2776
   6.000   0.8521   0.01366   0.00591  -0.0285  0.0437  1.0000  -2.2021   0.0000   0.0000   0.0000   0.2770
   6.100   0.8603   0.01375   0.00601  -0.0281  0.0432  1.0000  -2.2360   0.0000   0.0000   0.0000   0.2762
   6.200   0.8682   0.01384   0.00612  -0.0276  0.0428  1.0000  -2.2696   0.0000   0.0000   0.0000   0.2752
   6.300   0.8758   0.01393   0.00622  -0.0271  0.0424  1.0000  -2.3028   0.0000   0.0000   0.0000   0.2743
   6.400   0.8830   0.01402   0.00634  -0.0265  0.0421  1.0000  -2.3357   0.0000   0.0000   0.0000   0.2732
   6.500   0.8903   0.01412   0.00645  -0.0260  0.0418  1.0000  -2.3695   0.0000   0.0000   0.0000   0.2723
   6.600   0.8977   0.01424   0.00657  -0.0254  0.0412  1.0000  -2.4047   0.0000   0.0000   0.0000   0.2713
   6.700   0.9052   0.01436   0.00670  -0.0249  0.0405  1.0000  -2.4410   0.0000   0.0000   0.0000   0.2704
   6.800   0.9129   0.01450   0.00684  -0.0245  0.0397  1.0000  -2.4781   0.0000   0.0000   0.0000   0.2695
   6.900   0.9208   0.01464   0.00697  -0.0240  0.0388  1.0000  -2.5158   0.0000   0.0000   0.0000   0.2687
   7.000   0.9288   0.01478   0.00711  -0.0236  0.0380  1.0000  -2.5538   0.0000   0.0000   0.0000   0.2679
   7.100   0.9368   0.01492   0.00726  -0.0231  0.0372  1.0000  -2.5917   0.0000   0.0000   0.0000   0.2671
   7.200   0.9448   0.01506   0.00742  -0.0227  0.0367  1.0000  -2.6295   0.0000   0.0000   0.0000   0.2663
   7.300   0.9528   0.01521   0.00758  -0.0222  0.0363  1.0000  -2.6671   0.0000   0.0000   0.0000   0.2655
   7.400   0.9607   0.01536   0.00775  -0.0218  0.0361  1.0000  -2.7046   0.0000   0.0000   0.0000   0.2647
   7.500   0.9686   0.01552   0.00793  -0.0213  0.0359  1.0000  -2.7421   0.0000   0.0000   0.0000   0.2639
   7.600   0.9763   0.01568   0.00811  -0.0208  0.0356  1.0000  -2.7796   0.0000   0.0000   0.0000   0.2631
   7.700   0.9838   0.01585   0.00830  -0.0203  0.0354  1.0000  -2.8170   0.0000   0.0000   0.0000   0.2623
   7.800   0.9913   0.01602   0.00849  -0.0198  0.0351  1.0000  -2.8543   0.0000   0.0000   0.0000   0.2615
   7.900   0.9986   0.01620   0.00869  -0.0192  0.0349  1.0000  -2.8915   0.0000   0.0000   0.0000   0.2607
   8.000   1.0057   0.01638   0.00889  -0.0186  0.0346  1.0000  -2.9286   0.0000   0.0000   0.0000   0.2598
   8.100   1.0127   0.01657   0.00910  -0.0180  0.0344  1.0000  -2.9655   0.0000   0.0000   0.0000   0.2589
   8.200   1.0195   0.01676   0.00931  -0.0174  0.0341  1.0000  -3.0021   0.0000   0.0000   0.0000   0.2581
   8.300   1.0261   0.01696   0.00952  -0.0167  0.0339  1.0000  -3.0385   0.0000   0.0000   0.0000   0.2572
   8.400   1.0325   0.01716   0.00974  -0.0160  0.0336  1.0000  -3.0746   0.0000   0.0000   0.0000   0.2562
   8.500   1.0387   0.01736   0.00997  -0.0152  0.0333  1.0000  -3.1105   0.0000   0.0000   0.0000   0.2553
   8.600   1.0448   0.01757   0.01020  -0.0144  0.0331  1.0000  -3.1461   0.0000   0.0000   0.0000   0.2543
   8.700   1.0506   0.01779   0.01044  -0.0136  0.0328  1.0000  -3.1814   0.0000   0.0000   0.0000   0.2534
   8.800   1.0563   0.01801   0.01068  -0.0128  0.0325  1.0000  -3.2164   0.0000   0.0000   0.0000   0.2524
   8.900   1.0617   0.01824   0.01093  -0.0120  0.0322  1.0000  -3.2510   0.0000   0.0000   0.0000   0.2514
   9.000   1.0670   0.01848   0.01119  -0.0111  0.0319  1.0000  -3.2854   0.0000   0.0000   0.0000   0.2504
   9.100   1.0721   0.01873   0.01146  -0.0102  0.0316  1.0000  -3.3194   0.0000   0.0000   0.0000   0.2493
   9.200   1.0770   0.01898   0.01174  -0.0092  0.0313  1.0000  -3.3529   0.0000   0.0000   0.0000   0.2483
   9.300   1.0989   0.01806   0.01070  -0.0117  0.0183  1.0000  -3.8503   0.0000   0.0000   0.0000   0.2502
   9.400   1.1037   0.01834   0.01090  -0.0109  0.0166  1.0000  -3.9371   0.0000   0.0000   0.0000   0.2492
   9.500   1.1079   0.01866   0.01120  -0.0098  0.0152  1.0000  -4.0072   0.0000   0.0000   0.0000   0.2481
   9.600   1.1113   0.01902   0.01159  -0.0086  0.0143  1.0000  -4.0670   0.0000   0.0000   0.0000   0.2468
   9.700   1.1136   0.01942   0.01205  -0.0073  0.0136  1.0000  -4.1195   0.0000   0.0000   0.0000   0.2454
   9.800   1.1148   0.01986   0.01256  -0.0057  0.0131  1.0000  -4.1647   0.0000   0.0000   0.0000   0.2439
   9.900   1.1148   0.02035   0.01311  -0.0040  0.0127  1.0000  -4.2029   0.0000   0.0000   0.0000   0.2422
  10.000   1.1138   0.02086   0.01367  -0.0022  0.0125  1.0000  -4.2349   0.0000   0.0000   0.0000   0.2404
  10.100   1.1148   0.02126   0.01410  -0.0007  0.0125  1.0000  -4.2732   0.0000   0.0000   0.0000   0.2389
  10.200   1.1150   0.02166   0.01454   0.0009  0.0124  1.0000  -4.3088   0.0000   0.0000   0.0000   0.2373
  10.300   1.1138   0.02205   0.01498   0.0028  0.0124  1.0000  -4.3392   0.0000   0.0000   0.0000   0.2355
  10.400   1.1129   0.02249   0.01546   0.0045  0.0124  1.0000  -4.3701   0.0000   0.0000   0.0000   0.2338
  10.500   1.1123   0.02298   0.01599   0.0059  0.0124  1.0000  -4.4017   0.0000   0.0000   0.0000   0.2323
  10.600   1.1122   0.02352   0.01658   0.0072  0.0124  1.0000  -4.4344   0.0000   0.0000   0.0000   0.2310
  10.700   1.1114   0.02412   0.01722   0.0085  0.0124  1.0000  -4.4640   0.0000   0.0000   0.0000   0.2296
  10.800   1.1111   0.02475   0.01789   0.0096  0.0123  1.0000  -4.4950   0.0000   0.0000   0.0000   0.2285
  10.900   1.1115   0.02540   0.01859   0.0106  0.0123  1.0000  -4.5281   0.0000   0.0000   0.0000   0.2274
  11.000   1.1122   0.02608   0.01932   0.0114  0.0123  1.0000  -4.5621   0.0000   0.0000   0.0000   0.2264
  11.100   1.1130   0.02680   0.02008   0.0123  0.0123  1.0000  -4.5961   0.0000   0.0000   0.0000   0.2255
  11.200   1.1138   0.02754   0.02088   0.0130  0.0123  1.0000  -4.6297   0.0000   0.0000   0.0000   0.2246
  11.300   1.1140   0.02837   0.02176   0.0137  0.0123  1.0000  -4.6605   0.0000   0.0000   0.0000   0.2238
  11.400   1.1135   0.02929   0.02273   0.0143  0.0123  1.0000  -4.6881   0.0000   0.0000   0.0000   0.2231
  11.500   1.1136   0.03019   0.02367   0.0149  0.0123  1.0000  -4.7177   0.0000   0.0000   0.0000   0.2223
  11.600   1.1140   0.03108   0.02462   0.0155  0.0123  1.0000  -4.7483   0.0000   0.0000   0.0000   0.2216
  11.700   1.1144   0.03198   0.02557   0.0161  0.0123  1.0000  -4.7790   0.0000   0.0000   0.0000   0.2209
  11.800   1.1149   0.03290   0.02654   0.0167  0.0123  1.0000  -4.8091   0.0000   0.0000   0.0000   0.2201
  11.900   1.1152   0.03384   0.02754   0.0173  0.0123  1.0000  -4.8383   0.0000   0.0000   0.0000   0.2194
  12.000   1.1153   0.03481   0.02857   0.0179  0.0123  1.0000  -4.8665   0.0000   0.0000   0.0000   0.2187
  12.100   1.1152   0.03582   0.02964   0.0185  0.0123  1.0000  -4.8934   0.0000   0.0000   0.0000   0.2180
  12.200   1.1144   0.03688   0.03076   0.0191  0.0123  1.0000  -4.9170   0.0000   0.0000   0.0000   0.2172
  12.300   1.1121   0.03808   0.03202   0.0196  0.0123  1.0000  -4.9335   0.0000   0.0000   0.0000   0.2166
  12.400   1.1100   0.03930   0.03330   0.0201  0.0123  1.0000  -4.9504   0.0000   0.0000   0.0000   0.2159
  12.500   1.1084   0.04052   0.03459   0.0206  0.0123  1.0000  -4.9684   0.0000   0.0000   0.0000   0.2152
  12.600   1.1068   0.04178   0.03592   0.0211  0.0124  1.0000  -4.9856   0.0000   0.0000   0.0000   0.2146
  12.700   1.1049   0.04310   0.03732   0.0216  0.0124  1.0000  -5.0005   0.0000   0.0000   0.0000   0.2139
  18.800   0.7776   0.22796   0.22498  -0.0453  0.0247  1.0000  -1.6609   0.0000   0.0000   0.0000   0.2844
  18.900   0.7797   0.22972   0.22674  -0.0461  0.0246  1.0000  -1.6609   0.0000   0.0000   0.0000   0.2850
  19.000   0.7821   0.23139   0.22840  -0.0469  0.0246  1.0000  -1.6637   0.0000   0.0000   0.0000   0.2857
  19.100   0.7847   0.23289   0.22990  -0.0476  0.0244  1.0000  -1.6714   0.0000   0.0000   0.0000   0.2863
  19.200   0.7880   0.23406   0.23107  -0.0484  0.0242  1.0000  -1.6888   0.0000   0.0000   0.0000   0.2868
  19.300   0.7934   0.23431   0.23132  -0.0491  0.0236  1.0000  -1.7349   0.0000   0.0000   0.0000   0.2871
  19.400   0.8014   0.23376   0.23076  -0.0498  0.0221  1.0000  -1.8090   0.0000   0.0000   0.0000   0.2871
  19.500   0.8055   0.23486   0.23186  -0.0508  0.0205  1.0000  -1.8278   0.0000   0.0000   0.0000   0.2879
  19.600   0.8084   0.23631   0.23331  -0.0517  0.0191  1.0000  -1.8442   0.0000   0.0000   0.0000   0.2886
  19.700   0.8111   0.23768   0.23468  -0.0524  0.0181  1.0000  -1.8689   0.0000   0.0000   0.0000   0.2891
  19.800   0.8138   0.23892   0.23591  -0.0530  0.0173  1.0000  -1.9016   0.0000   0.0000   0.0000   0.2894
  19.900   0.8167   0.24003   0.23701  -0.0536  0.0166  1.0000  -1.9415   0.0000   0.0000   0.0000   0.2896
  20.000   0.8197   0.24101   0.23800  -0.0541  0.0160  1.0000  -1.9877   0.0000   0.0000   0.0000   0.2898
  20.100   0.8229   0.24189   0.23887  -0.0546  0.0156  1.0000  -2.0400   0.0000   0.0000   0.0000   0.2898
  20.200   0.8263   0.24267   0.23964  -0.0549  0.0152  1.0000  -2.0981   0.0000   0.0000   0.0000   0.2897
  20.300   0.8298   0.24335   0.24033  -0.0553  0.0149  1.0000  -2.1613   0.0000   0.0000   0.0000   0.2895
  20.400   0.8333   0.24403   0.24100  -0.0556  0.0146  1.0000  -2.2258   0.0000   0.0000   0.0000   0.2894
  20.500   0.8368   0.24466   0.24163  -0.0559  0.0143  1.0000  -2.2930   0.0000   0.0000   0.0000   0.2891
  20.600   0.8395   0.24558   0.24254  -0.0563  0.0140  1.0000  -2.3480   0.0000   0.0000   0.0000   0.2891
  20.700   0.8416   0.24674   0.24370  -0.0568  0.0137  1.0000  -2.3933   0.0000   0.0000   0.0000   0.2893
  20.800   0.8227   0.25910   0.25603  -0.0587  0.0124  1.0000  -1.9426   0.0000   0.0000   0.0000   0.2938
  20.900   0.8240   0.26143   0.25837  -0.0595  0.0124  1.0000  -1.9235   0.0000   0.0000   0.0000   0.2945
  21.000   0.8252   0.26375   0.26068  -0.0603  0.0124  1.0000  -1.9053   0.0000   0.0000   0.0000   0.2952
  21.100   0.8265   0.26605   0.26298  -0.0611  0.0124  1.0000  -1.8881   0.0000   0.0000   0.0000   0.2959
  21.200   0.8278   0.26833   0.26527  -0.0618  0.0123  1.0000  -1.8718   0.0000   0.0000   0.0000   0.2966
  21.300   0.8291   0.27060   0.26755  -0.0625  0.0123  1.0000  -1.8562   0.0000   0.0000   0.0000   0.2972
  21.400   0.8304   0.27287   0.26981  -0.0633  0.0123  1.0000  -1.8413   0.0000   0.0000   0.0000   0.2978
  21.500   0.8317   0.27512   0.27206  -0.0640  0.0123  1.0000  -1.8270   0.0000   0.0000   0.0000   0.2984
  21.600   0.8330   0.27736   0.27430  -0.0647  0.0123  1.0000  -1.8133   0.0000   0.0000   0.0000   0.2990
  21.700   0.8343   0.27959   0.27654  -0.0654  0.0122  1.0000  -1.8001   0.0000   0.0000   0.0000   0.2996
  21.800   0.8355   0.28181   0.27876  -0.0661  0.0122  1.0000  -1.7873   0.0000   0.0000   0.0000   0.3002
  21.900   0.8368   0.28403   0.28098  -0.0668  0.0122  1.0000  -1.7750   0.0000   0.0000   0.0000   0.3007
  22.000   0.8381   0.28624   0.28319  -0.0674  0.0122  1.0000  -1.7631   0.0000   0.0000   0.0000   0.3013
  22.100   0.8393   0.28844   0.28540  -0.0681  0.0122  1.0000  -1.7516   0.0000   0.0000   0.0000   0.3018
  22.200   0.8405   0.29064   0.28759  -0.0688  0.0121  1.0000  -1.7404   0.0000   0.0000   0.0000   0.3023
  22.300   0.8417   0.29283   0.28979  -0.0694  0.0121  1.0000  -1.7294   0.0000   0.0000   0.0000   0.3028
  22.400   0.8429   0.29501   0.29197  -0.0701  0.0121  1.0000  -1.7186   0.0000   0.0000   0.0000   0.3033
  22.500   0.8440   0.29719   0.29416  -0.0707  0.0121  1.0000  -1.7082   0.0000   0.0000   0.0000   0.3038
  22.600   0.8452   0.29937   0.29633  -0.0713  0.0120  1.0000  -1.6980   0.0000   0.0000   0.0000   0.3043
  22.700   0.8463   0.30154   0.29850  -0.0719  0.0120  1.0000  -1.6880   0.0000   0.0000   0.0000   0.3048
  22.800   0.8473   0.30370   0.30067  -0.0725  0.0120  1.0000  -1.6783   0.0000   0.0000   0.0000   0.3053
  22.900   0.8483   0.30586   0.30283  -0.0732  0.0120  1.0000  -1.6687   0.0000   0.0000   0.0000   0.3057
  23.000   0.8493   0.30801   0.30498  -0.0737  0.0120  1.0000  -1.6594   0.0000   0.0000   0.0000   0.3062
  23.100   0.8503   0.31016   0.30713  -0.0743  0.0119  1.0000  -1.6496   0.0000   0.0000   0.0000   0.3066
  23.200   0.8511   0.31230   0.30928  -0.0749  0.0119  1.0000  -1.6399   0.0000   0.0000   0.0000   0.3071
  23.300   0.8519   0.31444   0.31142  -0.0755  0.0119  1.0000  -1.6304   0.0000   0.0000   0.0000   0.3075
  23.400   0.8527   0.31657   0.31356  -0.0761  0.0119  1.0000  -1.6209   0.0000   0.0000   0.0000   0.3080
  23.500   0.8535   0.31869   0.31568  -0.0766  0.0119  1.0000  -1.6117   0.0000   0.0000   0.0000   0.3084
  23.600   0.8541   0.32080   0.31780  -0.0772  0.0118  1.0000  -1.6025   0.0000   0.0000   0.0000   0.3088
  23.700   0.8547   0.32292   0.31991  -0.0777  0.0118  1.0000  -1.5925   0.0000   0.0000   0.0000   0.3093
  23.800   0.8552   0.32503   0.32203  -0.0782  0.0118  1.0000  -1.5821   0.0000   0.0000   0.0000   0.3097
  23.900   0.8556   0.32713   0.32413  -0.0788  0.0118  1.0000  -1.5718   0.0000   0.0000   0.0000   0.3101
  24.000   0.8560   0.32921   0.32622  -0.0793  0.0117  1.0000  -1.5616   0.0000   0.0000   0.0000   0.3105
  24.100   0.8563   0.33128   0.32829  -0.0798  0.0117  1.0000  -1.5516   0.0000   0.0000   0.0000   0.3109
  24.200   0.8565   0.33333   0.33035  -0.0802  0.0117  1.0000  -1.5416   0.0000   0.0000   0.0000   0.3113
  24.300   0.8566   0.33536   0.33239  -0.0807  0.0117  1.0000  -1.5317   0.0000   0.0000   0.0000   0.3117
  24.400   0.8566   0.33738   0.33440  -0.0811  0.0117  1.0000  -1.5218   0.0000   0.0000   0.0000   0.3121
  24.500   0.8566   0.33936   0.33639  -0.0815  0.0116  1.0000  -1.5119   0.0000   0.0000   0.0000   0.3124
  24.600   0.8564   0.34132   0.33836  -0.0819  0.0116  1.0000  -1.5020   0.0000   0.0000   0.0000   0.3128
  24.700   0.8561   0.34325   0.34029  -0.0823  0.0116  1.0000  -1.4920   0.0000   0.0000   0.0000   0.3131
  24.800   0.8557   0.34498   0.34213  -0.0825  0.0116  1.0000  -1.4900   0.0000   0.0000   0.0000   0.3133
  24.900   0.8551   0.34682   0.34398  -0.0829  0.0116  1.0000  -1.4808   0.0000   0.0000   0.0000   0.3136
  25.000   0.8543   0.34862   0.34579  -0.0831  0.0116  1.0000  -1.4709   0.0000   0.0000   0.0000   0.3139
  25.100   0.8533   0.35037   0.34755  -0.0834  0.0116  1.0000  -1.4606   0.0000   0.0000   0.0000   0.3142
  25.200   0.8520   0.35206   0.34925  -0.0836  0.0116  1.0000  -1.4498   0.0000   0.0000   0.0000   0.3145
  25.300   0.8504   0.35368   0.35087  -0.0837  0.0116  1.0000  -1.4390   0.0000   0.0000   0.0000   0.3147
  25.400   0.8485   0.35520   0.35240  -0.0838  0.0115  1.0000  -1.4281   0.0000   0.0000   0.0000   0.3150
  25.500   0.8462   0.35659   0.35380  -0.0838  0.0115  1.0000  -1.4162   0.0000   0.0000   0.0000   0.3152
  25.600   0.8432   0.35782   0.35505  -0.0838  0.0115  1.0000  -1.4033   0.0000   0.0000   0.0000   0.3154
  25.700   0.7834   0.34307   0.34036  -0.0744  0.0115  1.0000  -1.2724   0.0000   0.0000   0.0000   0.3128
  25.800   0.7766   0.34230   0.33961  -0.0736  0.0115  1.0000  -1.2519   0.0000   0.0000   0.0000   0.3128
  25.900   0.7712   0.34187   0.33919  -0.0731  0.0115  1.0000  -1.2343   0.0000   0.0000   0.0000   0.3129
  26.000   0.7665   0.34163   0.33896  -0.0727  0.0115  1.0000  -1.2185   0.0000   0.0000   0.0000   0.3130
  26.100   0.7625   0.34152   0.33887  -0.0724  0.0114  1.0000  -1.2040   0.0000   0.0000   0.0000   0.3131
  26.200   0.7589   0.34151   0.33886  -0.0722  0.0114  1.0000  -1.1904   0.0000   0.0000   0.0000   0.3133
  26.300   0.7557   0.34156   0.33893  -0.0720  0.0114  1.0000  -1.1776   0.0000   0.0000   0.0000   0.3135
  26.400   0.7527   0.34167   0.33905  -0.0719  0.0114  1.0000  -1.1655   0.0000   0.0000   0.0000   0.3137
  26.500   0.7499   0.34181   0.33920  -0.0718  0.0114  1.0000  -1.1539   0.0000   0.0000   0.0000   0.3139
  26.600   0.7473   0.34199   0.33938  -0.0717  0.0114  1.0000  -1.1428   0.0000   0.0000   0.0000   0.3141
  26.700   0.7449   0.34220   0.33960  -0.0717  0.0113  1.0000  -1.1321   0.0000   0.0000   0.0000   0.3143
  26.800   0.7427   0.34244   0.33985  -0.0717  0.0113  1.0000  -1.1218   0.0000   0.0000   0.0000   0.3146
  26.900   0.7406   0.34271   0.34013  -0.0717  0.0113  1.0000  -1.1119   0.0000   0.0000   0.0000   0.3148
  27.000   0.7387   0.34299   0.34042  -0.0717  0.0113  1.0000  -1.1023   0.0000   0.0000   0.0000   0.3150
  27.100   0.7368   0.34330   0.34074  -0.0717  0.0113  1.0000  -1.0930   0.0000   0.0000   0.0000   0.3153
  27.200   0.7351   0.34362   0.34107  -0.0718  0.0112  1.0000  -1.0840   0.0000   0.0000   0.0000   0.3156
  27.300   0.7334   0.34396   0.34141  -0.0719  0.0112  1.0000  -1.0753   0.0000   0.0000   0.0000   0.3158
  27.400   0.7319   0.34431   0.34177  -0.0720  0.0112  1.0000  -1.0669   0.0000   0.0000   0.0000   0.3161
  27.500   0.7304   0.34468   0.34215  -0.0721  0.0112  1.0000  -1.0587   0.0000   0.0000   0.0000   0.3164
  27.600   0.7290   0.34505   0.34253  -0.0722  0.0112  1.0000  -1.0507   0.0000   0.0000   0.0000   0.3167
  27.700   0.7277   0.34544   0.34293  -0.0723  0.0112  1.0000  -1.0429   0.0000   0.0000   0.0000   0.3169
  27.800   0.7264   0.34584   0.34333  -0.0724  0.0111  1.0000  -1.0353   0.0000   0.0000   0.0000   0.3172
  27.900   0.7252   0.34624   0.34374  -0.0726  0.0111  1.0000  -1.0279   0.0000   0.0000   0.0000   0.3175
  28.000   0.7241   0.34665   0.34416  -0.0727  0.0111  1.0000  -1.0208   0.0000   0.0000   0.0000   0.3178
  28.100   0.7230   0.34708   0.34459  -0.0729  0.0111  1.0000  -1.0137   0.0000   0.0000   0.0000   0.3181
  28.200   0.7219   0.34750   0.34503  -0.0730  0.0111  1.0000  -1.0069   0.0000   0.0000   0.0000   0.3184
  28.300   0.7209   0.34794   0.34547  -0.0732  0.0110  1.0000  -1.0002   0.0000   0.0000   0.0000   0.3187
  28.400   0.7200   0.34838   0.34592  -0.0734  0.0110  1.0000  -0.9937   0.0000   0.0000   0.0000   0.3190
  28.500   0.7190   0.34882   0.34637  -0.0736  0.0110  1.0000  -0.9873   0.0000   0.0000   0.0000   0.3193
  28.600   0.7182   0.34928   0.34683  -0.0738  0.0110  1.0000  -0.9811   0.0000   0.0000   0.0000   0.3196
  28.700   0.7173   0.34973   0.34729  -0.0740  0.0110  1.0000  -0.9750   0.0000   0.0000   0.0000   0.3199
  28.800   0.7165   0.35019   0.34776  -0.0742  0.0110  1.0000  -0.9690   0.0000   0.0000   0.0000   0.3202
  28.900   0.7158   0.35066   0.34823  -0.0744  0.0109  1.0000  -0.9631   0.0000   0.0000   0.0000   0.3206
  29.000   0.7150   0.35113   0.34871  -0.0746  0.0109  1.0000  -0.9574   0.0000   0.0000   0.0000   0.3209
  29.100   0.7143   0.35160   0.34919  -0.0748  0.0109  1.0000  -0.9518   0.0000   0.0000   0.0000   0.3212
  29.200   0.7136   0.35208   0.34968  -0.0751  0.0109  1.0000  -0.9464   0.0000   0.0000   0.0000   0.3215
  29.300   0.7130   0.35256   0.35016  -0.0753  0.0109  1.0000  -0.9410   0.0000   0.0000   0.0000   0.3218
  29.400   0.7124   0.35305   0.35066  -0.0755  0.0109  1.0000  -0.9357   0.0000   0.0000   0.0000   0.3221
  29.500   0.7118   0.35354   0.35115  -0.0758  0.0108  1.0000  -0.9306   0.0000   0.0000   0.0000   0.3225
  29.600   0.7112   0.35403   0.35165  -0.0760  0.0108  1.0000  -0.9255   0.0000   0.0000   0.0000   0.3228
  29.700   0.7106   0.35452   0.35215  -0.0763  0.0108  1.0000  -0.9205   0.0000   0.0000   0.0000   0.3231
  29.800   0.7101   0.35502   0.35265  -0.0765  0.0108  1.0000  -0.9157   0.0000   0.0000   0.0000   0.3234
  29.900   0.7096   0.35552   0.35316  -0.0768  0.0108  1.0000  -0.9109   0.0000   0.0000   0.0000   0.3238
  30.000   0.7091   0.35602   0.35367  -0.0771  0.0108  1.0000  -0.9062   0.0000   0.0000   0.0000   0.3241


