xflr5 v6.61

 Calculated polar for: NACA6409 9%

 1 1 Reynolds number fixed          Mach number fixed         

 xtrf =   1.000 (top)        1.000 (bottom)
 Mach =   0.000     Re =     0.300 e 6     Ncrit =   9.000

  alpha     CL        CD       CDp       Cm    Top Xtr Bot Xtr   Cpmin    Chinge    XCp    
 ------- -------- --------- --------- -------- ------- ------- -------- --------- ---------
 -10.000  -0.3027   0.12200   0.11914  -0.0319  0.9993  0.0169  -1.5257   0.0000   0.0000   0.0000   0.1341
  -9.900  -0.2960   0.12047   0.11761  -0.0332  0.9986  0.0171  -1.5027   0.0000   0.0000   0.0000   0.1270
  -9.800  -0.2894   0.11896   0.11610  -0.0346  0.9979  0.0173  -1.4812   0.0000   0.0000   0.0000   0.1195
  -9.700  -0.2828   0.11747   0.11461  -0.0360  0.9972  0.0175  -1.4611   0.0000   0.0000   0.0000   0.1116
  -9.600  -0.2764   0.11600   0.11314  -0.0373  0.9963  0.0177  -1.4427   0.0000   0.0000   0.0000   0.1037
  -9.500  -0.2702   0.11455   0.11168  -0.0387  0.9953  0.0179  -1.4256   0.0000   0.0000   0.0000   0.0954
  -9.400  -0.2639   0.11310   0.11024  -0.0401  0.9943  0.0181  -1.4096   0.0000   0.0000   0.0000   0.0865
  -9.300  -0.2575   0.11166   0.10879  -0.0415  0.9934  0.0184  -1.3948   0.0000   0.0000   0.0000   0.0769
  -9.200  -0.2509   0.11020   0.10733  -0.0430  0.9924  0.0186  -1.3810   0.0000   0.0000   0.0000   0.0665
  -9.100  -0.2441   0.10871   0.10584  -0.0446  0.9915  0.0189  -1.3679   0.0000   0.0000   0.0000   0.0548
  -9.000  -0.2369   0.10720   0.10432  -0.0464  0.9907  0.0192  -1.3559   0.0000   0.0000   0.0000   0.0416
  -8.900  -0.2294   0.10566   0.10277  -0.0482  0.9899  0.0195  -1.3453   0.0000   0.0000   0.0000   0.0269
  -8.800  -0.2221   0.10412   0.10123  -0.0500  0.9890  0.0197  -1.3383   0.0000   0.0000   0.0000   0.0116
  -8.600  -0.2112   0.10086   0.09785  -0.0531  0.9853  0.0193  -1.3708   0.0000   0.0000   0.0000  -0.0151
  -8.500  -0.2043   0.09939   0.09638  -0.0547  0.9838  0.0197  -1.3600   0.0000   0.0000   0.0000  -0.0321
  -8.400  -0.1970   0.09790   0.09488  -0.0565  0.9823  0.0200  -1.3489   0.0000   0.0000   0.0000  -0.0514
  -8.300  -0.1892   0.09638   0.09336  -0.0584  0.9810  0.0205  -1.3376   0.0000   0.0000   0.0000  -0.0737
  -8.200  -0.1812   0.09484   0.09182  -0.0604  0.9797  0.0210  -1.3262   0.0000   0.0000   0.0000  -0.0990
  -8.100  -0.1729   0.09330   0.09028  -0.0624  0.9786  0.0216  -1.3149   0.0000   0.0000   0.0000  -0.1276
  -8.000  -0.1643   0.09176   0.08874  -0.0646  0.9777  0.0224  -1.3041   0.0000   0.0000   0.0000  -0.1602
  -7.900  -0.1557   0.09023   0.08721  -0.0668  0.9768  0.0234  -1.2943   0.0000   0.0000   0.0000  -0.1974
  -7.800  -0.1476   0.08882   0.08580  -0.0690  0.9756  0.0248  -1.2884   0.0000   0.0000   0.0000  -0.2359
  -7.700  -0.1442   0.08892   0.08591  -0.0708  0.9701  0.0281  -1.3131   0.0000   0.0000   0.0000  -0.2597
  -7.600  -0.1361   0.08846   0.08545  -0.0735  0.9668  0.0290  -1.3214   0.0000   0.0000   0.0000  -0.3095
  -7.500  -0.1280   0.08715   0.08414  -0.0756  0.9647  0.0292  -1.3215   0.0000   0.0000   0.0000  -0.3610
  -7.400  -0.1198   0.08564   0.08263  -0.0778  0.9629  0.0293  -1.3236   0.0000   0.0000   0.0000  -0.4217
  -7.300  -0.1110   0.08398   0.08097  -0.0803  0.9614  0.0294  -1.3270   0.0000   0.0000   0.0000  -0.4965
  -7.200  -0.1013   0.08215   0.07913  -0.0830  0.9601  0.0294  -1.3312   0.0000   0.0000   0.0000  -0.5953
  -7.100  -0.0902   0.08010   0.07708  -0.0862  0.9591  0.0295  -1.3364   0.0000   0.0000   0.0000  -0.7340
  -7.000  -0.0790   0.07802   0.07499  -0.0894  0.9582  0.0295  -1.3433   0.0000   0.0000   0.0000  -0.9146
  -6.900  -0.0792   0.07701   0.07398  -0.0893  0.9532  0.0295  -1.3531   0.0000   0.0000   0.0000  -0.9103
  -6.800  -0.0749   0.07557   0.07255  -0.0906  0.9492  0.0296  -1.3625   0.0000   0.0000   0.0000  -0.9923
  -6.700  -0.0665   0.07381   0.07078  -0.0931  0.9466  0.0297  -1.3782   0.0000   0.0000   0.0000  -1.1867
  -6.600  -0.0558   0.07198   0.06895  -0.0962  0.9445  0.0298  -1.3937   0.0000   0.0000   0.0000  -1.5169
  -6.500  -0.0435   0.07013   0.06708  -0.0997  0.9428  0.0299  -1.4013   0.0000   0.0000   0.0000  -2.0940
  -6.400  -0.0303   0.06823   0.06517  -0.1034  0.9414  0.0300  -1.4015   0.0000   0.0000   0.0000  -3.2435
  -6.300  -0.0163   0.06626   0.06319  -0.1072  0.9402  0.0300  -1.4026   0.0000   0.0000   0.0000  -6.4533
  -6.200  -0.0141   0.05899   0.05591  -0.1147  0.9380  0.0315  -1.6181   0.0000   0.0000   0.0000  -8.0543
  -6.100  -0.0055   0.05742   0.05433  -0.1162  0.9371  0.0327  -1.5690   0.0000   0.0000   0.0000  -21.4654
  -6.000   0.0040   0.05730   0.05422  -0.1157  0.9365  0.0339  -1.4598   0.0000   0.0000   0.0000  29.8197
  -5.900   0.0151   0.05687   0.05379  -0.1160  0.9358  0.0351  -1.3752   0.0000   0.0000   0.0000   8.1061
  -5.800   0.0275   0.05605   0.05297  -0.1175  0.9350  0.0364  -1.3166   0.0000   0.0000   0.0000   4.6071
  -5.700   0.0297   0.05545   0.05237  -0.1171  0.9305  0.0372  -1.2989   0.0000   0.0000   0.0000   4.2605
  -5.600   0.0330   0.05472   0.05164  -0.1170  0.9256  0.0381  -1.2841   0.0000   0.0000   0.0000   3.8588
  -5.500   0.0421   0.05365   0.05056  -0.1184  0.9225  0.0394  -1.2656   0.0000   0.0000   0.0000   3.1132
  -5.400   0.0534   0.05238   0.04927  -0.1205  0.9199  0.0410  -1.2522   0.0000   0.0000   0.0000   2.5436
  -5.300   0.0672   0.05095   0.04781  -0.1234  0.9177  0.0430  -1.2452   0.0000   0.0000   0.0000   2.1156
  -5.200   0.1002   0.05178   0.04854  -0.1290  0.9161  0.0494  -1.2209   0.0000   0.0000   0.0000   1.5570
  -5.100   0.1160   0.05046   0.04717  -0.1317  0.9142  0.0497  -1.2206   0.0000   0.0000   0.0000   1.4023
  -5.000   0.1311   0.04891   0.04556  -0.1344  0.9125  0.0499  -1.2247   0.0000   0.0000   0.0000   1.2901
  -4.900   0.1456   0.04725   0.04383  -0.1369  0.9108  0.0499  -1.2311   0.0000   0.0000   0.0000   1.2031
  -4.800   0.1598   0.04552   0.04204  -0.1392  0.9090  0.0500  -1.2387   0.0000   0.0000   0.0000   1.1327
  -4.700   0.1647   0.03772   0.03409  -0.1453  0.9063  0.0528  -1.4097   0.0000   0.0000   0.0000   1.1438
  -4.600   0.1666   0.03705   0.03343  -0.1442  0.9019  0.0537  -1.3848   0.0000   0.0000   0.0000   1.1267
  -4.500   0.1718   0.03659   0.03298  -0.1435  0.8979  0.0544  -1.3445   0.0000   0.0000   0.0000   1.0954
  -4.400   0.1799   0.03592   0.03229  -0.1434  0.8945  0.0551  -1.3093   0.0000   0.0000   0.0000   1.0567
  -4.300   0.1900   0.03502   0.03137  -0.1439  0.8913  0.0558  -1.2828   0.0000   0.0000   0.0000   1.0162
  -4.200   0.2013   0.03405   0.03036  -0.1447  0.8885  0.0565  -1.2588   0.0000   0.0000   0.0000   0.9770
  -4.100   0.2132   0.03302   0.02927  -0.1456  0.8859  0.0574  -1.2377   0.0000   0.0000   0.0000   0.9402
  -4.000   0.2257   0.03191   0.02811  -0.1465  0.8834  0.0582  -1.2210   0.0000   0.0000   0.0000   0.9064
  -3.900   0.2387   0.03071   0.02683  -0.1476  0.8811  0.0591  -1.2099   0.0000   0.0000   0.0000   0.8751
  -3.800   0.2597   0.02689   0.02259  -0.1501  0.8790  0.0481  -1.4091   0.0000   0.0000   0.0000   0.8339
  -3.700   0.2719   0.02156   0.01676  -0.1525  0.8766  0.0408  -1.6153   0.0000   0.0000   0.0000   0.8166
  -3.600   0.2856   0.01776   0.01233  -0.1534  0.8743  0.0365  -1.8150   0.0000   0.0000   0.0000   0.7930
  -3.500   0.2953   0.01639   0.01068  -0.1531  0.8717  0.0354  -1.8660   0.0000   0.0000   0.0000   0.7740
  -3.400   0.3038   0.01557   0.00969  -0.1525  0.8685  0.0350  -1.8784   0.0000   0.0000   0.0000   0.7572
  -3.300   0.3133   0.01490   0.00889  -0.1521  0.8652  0.0349  -1.8768   0.0000   0.0000   0.0000   0.7404
  -3.200   0.3235   0.01431   0.00817  -0.1518  0.8620  0.0352  -1.8687   0.0000   0.0000   0.0000   0.7239
  -3.100   0.3342   0.01377   0.00753  -0.1516  0.8588  0.0359  -1.8565   0.0000   0.0000   0.0000   0.7079
  -3.000   0.3453   0.01330   0.00699  -0.1514  0.8558  0.0373  -1.8414   0.0000   0.0000   0.0000   0.6926
  -2.900   0.3569   0.01294   0.00658  -0.1513  0.8528  0.0407  -1.8316   0.0000   0.0000   0.0000   0.6779
  -2.800   0.3694   0.01319   0.00685  -0.1513  0.8499  0.0491  -1.8058   0.0000   0.0000   0.0000   0.6632
  -2.700   0.3812   0.01246   0.00600  -0.1515  0.8471  0.0552  -1.7886   0.0000   0.0000   0.0000   0.6507
  -2.600   0.3937   0.01223   0.00574  -0.1517  0.8443  0.0582  -1.7269   0.0000   0.0000   0.0000   0.6384
  -2.500   0.4065   0.01206   0.00554  -0.1520  0.8415  0.0603  -1.6611   0.0000   0.0000   0.0000   0.6267
  -2.400   0.4194   0.01187   0.00531  -0.1523  0.8383  0.0621  -1.5969   0.0000   0.0000   0.0000   0.6156
  -2.300   0.4300   0.01168   0.00507  -0.1521  0.8352  0.0637  -1.5411   0.0000   0.0000   0.0000   0.6060
  -2.200   0.4391   0.01123   0.00449  -0.1515  0.8321  0.0622  -1.4844   0.0000   0.0000   0.0000   0.5972
  -2.100   0.4488   0.01116   0.00442  -0.1511  0.8285  0.0678  -1.4309   0.0000   0.0000   0.0000   0.5887
  -2.000   0.4590   0.01112   0.00437  -0.1508  0.8247  0.0726  -1.3745   0.0000   0.0000   0.0000   0.5805
  -1.900   0.4695   0.01101   0.00424  -0.1506  0.8208  0.0768  -1.3192   0.0000   0.0000   0.0000   0.5726
  -1.800   0.4800   0.01078   0.00403  -0.1505  0.8170  0.0869  -1.2673   0.0000   0.0000   0.0000   0.5650
  -1.700   0.4914   0.01073   0.00400  -0.1505  0.8132  0.0940  -1.2027   0.0000   0.0000   0.0000   0.5576
  -1.600   0.5032   0.01072   0.00396  -0.1505  0.8095  0.1002  -1.1369   0.0000   0.0000   0.0000   0.5504
  -1.500   0.5152   0.01072   0.00392  -0.1507  0.8057  0.1050  -1.0716   0.0000   0.0000   0.0000   0.5434
  -1.400   0.5271   0.01051   0.00375  -0.1508  0.8019  0.1191  -1.0147   0.0000   0.0000   0.0000   0.5370
  -1.300   0.5395   0.01049   0.00372  -0.1510  0.7974  0.1275  -0.9508   0.0000   0.0000   0.0000   0.5307
  -1.200   0.5497   0.01051   0.00373  -0.1508  0.7940  0.1337  -0.8937   0.0000   0.0000   0.0000   0.5249
  -1.100   0.5592   0.01044   0.00367  -0.1504  0.7905  0.1407  -0.8412   0.0000   0.0000   0.0000   0.5195
  -1.000   0.5690   0.01030   0.00360  -0.1501  0.7864  0.1538  -0.7903   0.0000   0.0000   0.0000   0.5142
  -0.900   0.5791   0.01025   0.00357  -0.1499  0.7821  0.1627  -0.7946   0.0000   0.0000   0.0000   0.5091
  -0.800   0.5897   0.01022   0.00351  -0.1497  0.7775  0.1699  -0.8027   0.0000   0.0000   0.0000   0.5040
  -0.700   0.6006   0.01013   0.00342  -0.1496  0.7730  0.1806  -0.8109   0.0000   0.0000   0.0000   0.4991
  -0.600   0.6115   0.01004   0.00336  -0.1496  0.7684  0.1949  -0.8193   0.0000   0.0000   0.0000   0.4944
  -0.500   0.6229   0.01000   0.00330  -0.1495  0.7638  0.2063  -0.8278   0.0000   0.0000   0.0000   0.4897
  -0.400   0.6344   0.00998   0.00324  -0.1495  0.7588  0.2167  -0.8365   0.0000   0.0000   0.0000   0.4853
  -0.300   0.6461   0.00993   0.00322  -0.1497  0.7532  0.2355  -0.8452   0.0000   0.0000   0.0000   0.4811
  -0.200   0.6559   0.00989   0.00322  -0.1494  0.7498  0.2489  -0.8528   0.0000   0.0000   0.0000   0.4771
  -0.100   0.6657   0.00985   0.00321  -0.1491  0.7459  0.2633  -0.8604   0.0000   0.0000   0.0000   0.4732
   0.000   0.6754   0.00978   0.00321  -0.1488  0.7412  0.2831  -0.8681   0.0000   0.0000   0.0000   0.4694
   0.100   0.6856   0.00975   0.00320  -0.1486  0.7360  0.3000  -0.8760   0.0000   0.0000   0.0000   0.4657
   0.200   0.6958   0.00966   0.00318  -0.1484  0.7305  0.3295  -0.8839   0.0000   0.0000   0.0000   0.4622
   0.300   0.7060   0.00957   0.00315  -0.1482  0.7249  0.3644  -0.8919   0.0000   0.0000   0.0000   0.4587
   0.400   0.7159   0.00939   0.00314  -0.1480  0.7192  0.4364  -0.8998   0.0000   0.0000   0.0000   0.4554
   0.600   0.7439   0.00841   0.00316  -0.1490  0.7064  1.0000  -0.9204   0.0000   0.0000   0.0000   0.4488
   0.700   0.7538   0.00843   0.00317  -0.1487  0.7029  1.0000  -0.9281   0.0000   0.0000   0.0000   0.4456
   0.800   0.7637   0.00846   0.00318  -0.1485  0.6990  1.0000  -0.9359   0.0000   0.0000   0.0000   0.4426
   0.900   0.7738   0.00850   0.00319  -0.1482  0.6944  1.0000  -0.9437   0.0000   0.0000   0.0000   0.4396
   1.000   0.7840   0.00854   0.00319  -0.1480  0.6893  1.0000  -0.9516   0.0000   0.0000   0.0000   0.4368
   1.100   0.7943   0.00859   0.00319  -0.1478  0.6841  1.0000  -0.9596   0.0000   0.0000   0.0000   0.4339
   1.200   0.8047   0.00865   0.00319  -0.1476  0.6788  1.0000  -0.9677   0.0000   0.0000   0.0000   0.4312
   1.300   0.8151   0.00871   0.00319  -0.1474  0.6733  1.0000  -0.9758   0.0000   0.0000   0.0000   0.4285
   1.400   0.8254   0.00879   0.00319  -0.1472  0.6675  1.0000  -0.9838   0.0000   0.0000   0.0000   0.4259
   1.500   0.8360   0.00889   0.00322  -0.1471  0.6609  1.0000  -0.9931   0.0000   0.0000   0.0000   0.4234
   1.600   0.8467   0.00897   0.00332  -0.1470  0.6558  1.0000  -1.0025   0.0000   0.0000   0.0000   0.4210
   1.700   0.8567   0.00901   0.00336  -0.1468  0.6529  1.0000  -1.0116   0.0000   0.0000   0.0000   0.4185
   1.800   0.8668   0.00905   0.00339  -0.1466  0.6493  1.0000  -1.0207   0.0000   0.0000   0.0000   0.4162
   1.900   0.8769   0.00910   0.00342  -0.1464  0.6454  1.0000  -1.0298   0.0000   0.0000   0.0000   0.4139
   2.000   0.8871   0.00916   0.00345  -0.1462  0.6410  1.0000  -1.0390   0.0000   0.0000   0.0000   0.4116
   2.100   0.8972   0.00922   0.00348  -0.1460  0.6365  1.0000  -1.0483   0.0000   0.0000   0.0000   0.4094
   2.200   0.9074   0.00929   0.00351  -0.1458  0.6318  1.0000  -1.0575   0.0000   0.0000   0.0000   0.4073
   2.300   0.9175   0.00937   0.00353  -0.1455  0.6270  1.0000  -1.0668   0.0000   0.0000   0.0000   0.4052
   2.400   0.9276   0.00945   0.00356  -0.1453  0.6218  1.0000  -1.0760   0.0000   0.0000   0.0000   0.4031
   2.500   0.9376   0.00956   0.00361  -0.1451  0.6160  1.0000  -1.0852   0.0000   0.0000   0.0000   0.4011
   2.600   0.9483   0.00970   0.00368  -0.1450  0.6091  1.0000  -1.0946   0.0000   0.0000   0.0000   0.3991
   2.700   0.9589   0.00979   0.00375  -0.1449  0.6051  1.0000  -1.1040   0.0000   0.0000   0.0000   0.3973
   2.800   0.9688   0.00983   0.00380  -0.1447  0.6028  1.0000  -1.1131   0.0000   0.0000   0.0000   0.3954
   2.900   0.9789   0.00988   0.00386  -0.1445  0.6003  1.0000  -1.1223   0.0000   0.0000   0.0000   0.3935
   3.000   0.9890   0.00994   0.00392  -0.1443  0.5976  1.0000  -1.1315   0.0000   0.0000   0.0000   0.3917
   3.100   0.9992   0.01000   0.00398  -0.1442  0.5947  1.0000  -1.1408   0.0000   0.0000   0.0000   0.3899
   3.200   1.0093   0.01006   0.00404  -0.1440  0.5917  1.0000  -1.1500   0.0000   0.0000   0.0000   0.3882
   3.300   1.0195   0.01014   0.00410  -0.1438  0.5885  1.0000  -1.1607   0.0000   0.0000   0.0000   0.3865
   3.400   1.0297   0.01021   0.00417  -0.1436  0.5853  1.0000  -1.1715   0.0000   0.0000   0.0000   0.3848
   3.500   1.0399   0.01029   0.00423  -0.1435  0.5820  1.0000  -1.1823   0.0000   0.0000   0.0000   0.3832
   3.600   1.0500   0.01037   0.00429  -0.1433  0.5788  1.0000  -1.1932   0.0000   0.0000   0.0000   0.3815
   3.700   1.0601   0.01047   0.00436  -0.1431  0.5755  1.0000  -1.2040   0.0000   0.0000   0.0000   0.3800
   3.800   1.0702   0.01056   0.00443  -0.1429  0.5721  1.0000  -1.2147   0.0000   0.0000   0.0000   0.3784
   3.900   1.0803   0.01068   0.00451  -0.1427  0.5684  1.0000  -1.2255   0.0000   0.0000   0.0000   0.3769
   4.000   1.0906   0.01081   0.00462  -0.1426  0.5640  1.0000  -1.2363   0.0000   0.0000   0.0000   0.3754
   4.100   1.1015   0.01097   0.00475  -0.1427  0.5590  1.0000  -1.2475   0.0000   0.0000   0.0000   0.3740
   4.200   1.1129   0.01115   0.00491  -0.1428  0.5539  1.0000  -1.2588   0.0000   0.0000   0.0000   0.3727
   4.300   1.1226   0.01119   0.00498  -0.1425  0.5527  1.0000  -1.2782   0.0000   0.0000   0.0000   0.3712
   4.400   1.1324   0.01124   0.00505  -0.1423  0.5511  1.0000  -1.3225   0.0000   0.0000   0.0000   0.3698
   4.500   1.1422   0.01129   0.00513  -0.1421  0.5493  1.0000  -1.3673   0.0000   0.0000   0.0000   0.3684
   4.600   1.1521   0.01135   0.00521  -0.1418  0.5473  1.0000  -1.4126   0.0000   0.0000   0.0000   0.3670
   4.700   1.1621   0.01142   0.00531  -0.1417  0.5453  1.0000  -1.4585   0.0000   0.0000   0.0000   0.3656
   4.800   1.1721   0.01150   0.00540  -0.1415  0.5432  1.0000  -1.5049   0.0000   0.0000   0.0000   0.3643
   4.900   1.1821   0.01158   0.00550  -0.1413  0.5410  1.0000  -1.5517   0.0000   0.0000   0.0000   0.3630
   5.000   1.1921   0.01166   0.00560  -0.1411  0.5387  1.0000  -1.6087   0.0000   0.0000   0.0000   0.3617
   5.100   1.2020   0.01174   0.00570  -0.1409  0.5362  1.0000  -1.6801   0.0000   0.0000   0.0000   0.3605
   5.200   1.2119   0.01182   0.00579  -0.1407  0.5336  1.0000  -1.7523   0.0000   0.0000   0.0000   0.3592
   5.300   1.2217   0.01191   0.00588  -0.1405  0.5307  1.0000  -1.8253   0.0000   0.0000   0.0000   0.3580
   5.400   1.2315   0.01201   0.00622  -0.1402  0.5274  1.0000  -1.9313   0.0000   0.0000   0.0000   0.3567
   5.500   1.2405   0.01209   0.00627  -0.1397  0.5221  1.0000  -2.0103   0.0000   0.0000   0.0000   0.3554
   5.600   1.2488   0.01222   0.00633  -0.1392  0.5139  1.0000  -2.0855   0.0000   0.0000   0.0000   0.3540
   5.700   1.2592   0.01248   0.00651  -0.1391  0.5027  1.0000  -2.1671   0.0000   0.0000   0.0000   0.3529
   5.800   1.2674   0.01247   0.00653  -0.1385  0.4990  1.0000  -2.2419   0.0000   0.0000   0.0000   0.3516
   5.900   1.2752   0.01244   0.00654  -0.1378  0.4950  1.0000  -2.3156   0.0000   0.0000   0.0000   0.3503
   6.000   1.2833   0.01244   0.00657  -0.1372  0.4897  1.0000  -2.3908   0.0000   0.0000   0.0000   0.3490
   6.100   1.2917   0.01248   0.00661  -0.1367  0.4838  1.0000  -2.4676   0.0000   0.0000   0.0000   0.3477
   6.200   1.2999   0.01255   0.00666  -0.1361  0.4772  1.0000  -2.5445   0.0000   0.0000   0.0000   0.3465
   6.300   1.3080   0.01265   0.00672  -0.1355  0.4707  1.0000  -2.6214   0.0000   0.0000   0.0000   0.3452
   6.400   1.3160   0.01278   0.00682  -0.1350  0.4648  1.0000  -2.6985   0.0000   0.0000   0.0000   0.3440
   6.500   1.3241   0.01293   0.00694  -0.1344  0.4587  1.0000  -2.7762   0.0000   0.0000   0.0000   0.3428
   6.600   1.3331   0.01311   0.00709  -0.1341  0.4522  1.0000  -2.8576   0.0000   0.0000   0.0000   0.3417
   6.700   1.3426   0.01323   0.00723  -0.1338  0.4476  1.0000  -2.9420   0.0000   0.0000   0.0000   0.3407
   6.800   1.3514   0.01327   0.00733  -0.1334  0.4455  1.0000  -3.0248   0.0000   0.0000   0.0000   0.3396
   6.900   1.3603   0.01331   0.00743  -0.1330  0.4425  1.0000  -3.1085   0.0000   0.0000   0.0000   0.3385
   7.000   1.3691   0.01337   0.00753  -0.1326  0.4384  1.0000  -3.1924   0.0000   0.0000   0.0000   0.3374
   7.100   1.3776   0.01344   0.00763  -0.1321  0.4333  1.0000  -3.2759   0.0000   0.0000   0.0000   0.3363
   7.200   1.3857   0.01354   0.00774  -0.1316  0.4270  1.0000  -3.3585   0.0000   0.0000   0.0000   0.3352
   7.300   1.3932   0.01366   0.00784  -0.1309  0.4196  1.0000  -3.4392   0.0000   0.0000   0.0000   0.3341
   7.400   1.3998   0.01382   0.00796  -0.1301  0.4112  1.0000  -3.5165   0.0000   0.0000   0.0000   0.3329
   7.500   1.4053   0.01402   0.00811  -0.1290  0.4015  1.0000  -3.5890   0.0000   0.0000   0.0000   0.3317
   7.600   1.4124   0.01417   0.00827  -0.1283  0.3938  1.0000  -3.6687   0.0000   0.0000   0.0000   0.3306
   7.700   1.4204   0.01426   0.00840  -0.1278  0.3860  1.0000  -3.7529   0.0000   0.0000   0.0000   0.3295
   7.800   1.4259   0.01444   0.00853  -0.1268  0.3706  1.0000  -3.8270   0.0000   0.0000   0.0000   0.3283
   7.900   1.4267   0.01478   0.00871  -0.1249  0.3499  1.0000  -3.8808   0.0000   0.0000   0.0000   0.3268
   8.000   1.4285   0.01509   0.00892  -0.1233  0.3287  1.0000  -3.9383   0.0000   0.0000   0.0000   0.3254
   8.100   1.4256   0.01559   0.00921  -0.1208  0.3010  1.0000  -3.9751   0.0000   0.0000   0.0000   0.3237
   8.200   1.4234   0.01612   0.00957  -0.1186  0.2706  1.0000  -4.0147   0.0000   0.0000   0.0000   0.3221
   8.300   1.4182   0.01685   0.01005  -0.1160  0.2390  1.0000  -4.0401   0.0000   0.0000   0.0000   0.3205
   8.400   1.4126   0.01766   0.01062  -0.1134  0.2043  1.0000  -4.0634   0.0000   0.0000   0.0000   0.3188
   8.500   1.4075   0.01851   0.01124  -0.1110  0.1701  1.0000  -4.0875   0.0000   0.0000   0.0000   0.3173
   8.600   1.4022   0.01939   0.01192  -0.1086  0.1394  1.0000  -4.1101   0.0000   0.0000   0.0000   0.3158
   8.700   1.3975   0.02029   0.01261  -0.1064  0.1119  1.0000  -4.1344   0.0000   0.0000   0.0000   0.3143
   8.800   1.3930   0.02117   0.01333  -0.1043  0.0909  1.0000  -4.1585   0.0000   0.0000   0.0000   0.3129
   8.900   1.3918   0.02186   0.01393  -0.1026  0.0768  1.0000  -4.1954   0.0000   0.0000   0.0000   0.3116
   9.000   1.3888   0.02271   0.01467  -0.1007  0.0632  1.0000  -4.2184   0.0000   0.0000   0.0000   0.3102
   9.100   1.3905   0.02325   0.01524  -0.0995  0.0570  1.0000  -4.2630   0.0000   0.0000   0.0000   0.3091
   9.200   1.3919   0.02381   0.01580  -0.0982  0.0528  1.0000  -4.3092   0.0000   0.0000   0.0000   0.3080
   9.300   1.3919   0.02448   0.01643  -0.0968  0.0485  1.0000  -4.3472   0.0000   0.0000   0.0000   0.3068
   9.400   1.3899   0.02531   0.01723  -0.0952  0.0433  1.0000  -4.3666   0.0000   0.0000   0.0000   0.3056
   9.500   1.3813   0.02660   0.01864  -0.0927  0.0373  1.0000  -4.3265   0.0000   0.0000   0.0000   0.3041
   9.600   1.3892   0.02675   0.01876  -0.0925  0.0341  1.0000  -4.3938   0.0000   0.0000   0.0000   0.3033
   9.700   1.3745   0.02855   0.02053  -0.0895  0.0240  1.0000  -4.2391   0.0000   0.0000   0.0000   0.3017
   9.800   1.3645   0.03009   0.02220  -0.0871  0.0220  1.0000  -4.1648   0.0000   0.0000   0.0000   0.3003
   9.900   1.3574   0.03147   0.02369  -0.0852  0.0212  1.0000  -4.1264   0.0000   0.0000   0.0000   0.2991
  10.000   1.3516   0.03281   0.02513  -0.0836  0.0207  1.0000  -4.1004   0.0000   0.0000   0.0000   0.2979
  10.100   1.3466   0.03412   0.02654  -0.0821  0.0203  1.0000  -4.0820   0.0000   0.0000   0.0000   0.2969
  10.200   1.3420   0.03543   0.02793  -0.0806  0.0201  1.0000  -4.0687   0.0000   0.0000   0.0000   0.2959
  10.300   1.3385   0.03670   0.02928  -0.0793  0.0199  1.0000  -4.0593   0.0000   0.0000   0.0000   0.2949
  10.400   1.3361   0.03792   0.03057  -0.0781  0.0197  1.0000  -4.0537   0.0000   0.0000   0.0000   0.2939
  10.500   1.3349   0.03907   0.03180  -0.0769  0.0196  1.0000  -4.0526   0.0000   0.0000   0.0000   0.2929
  10.600   1.3352   0.04016   0.03295  -0.0758  0.0195  1.0000  -4.0568   0.0000   0.0000   0.0000   0.2919
  10.700   1.3373   0.04112   0.03393  -0.0749  0.0194  1.0000  -4.0728   0.0000   0.0000   0.0000   0.2909
  10.800   1.3405   0.04199   0.03486  -0.0740  0.0194  1.0000  -4.0969   0.0000   0.0000   0.0000   0.2900
  10.900   1.3443   0.04280   0.03572  -0.0733  0.0194  1.0000  -4.1273   0.0000   0.0000   0.0000   0.2891
  11.000   1.3483   0.04354   0.03651  -0.0726  0.0194  1.0000  -4.1646   0.0000   0.0000   0.0000   0.2883
  11.200   1.3621   0.04582   0.03911  -0.0710  0.0194  1.0000  -4.1534   0.0000   0.0000   0.0000   0.2863
  11.600   1.3845   0.04900   0.04253  -0.0689  0.0199  1.0000  -4.3144   0.0000   0.0000   0.0000   0.2833
  11.700   1.3888   0.04971   0.04328  -0.0684  0.0200  1.0000  -4.3597   0.0000   0.0000   0.0000   0.2826
  11.800   1.3930   0.05042   0.04404  -0.0679  0.0202  1.0000  -4.4054   0.0000   0.0000   0.0000   0.2819
  11.900   1.3970   0.05115   0.04482  -0.0674  0.0203  1.0000  -4.4506   0.0000   0.0000   0.0000   0.2812
  12.000   1.4011   0.05197   0.04569  -0.0668  0.0204  1.0000  -4.4929   0.0000   0.0000   0.0000   0.2805
  12.100   1.4050   0.05289   0.04668  -0.0663  0.0205  1.0000  -4.5317   0.0000   0.0000   0.0000   0.2799
  12.200   1.4087   0.05394   0.04779  -0.0658  0.0205  1.0000  -4.5662   0.0000   0.0000   0.0000   0.2792
  12.300   1.4119   0.05512   0.04906  -0.0653  0.0205  1.0000  -4.5953   0.0000   0.0000   0.0000   0.2786
  12.400   1.4143   0.05647   0.05049  -0.0647  0.0204  1.0000  -4.6180   0.0000   0.0000   0.0000   0.2779
  12.500   1.4158   0.05798   0.05210  -0.0642  0.0203  1.0000  -4.6335   0.0000   0.0000   0.0000   0.2773
  12.600   1.4161   0.05965   0.05388  -0.0636  0.0202  1.0000  -4.6414   0.0000   0.0000   0.0000   0.2767
  12.700   1.4150   0.06145   0.05579  -0.0630  0.0201  1.0000  -4.6423   0.0000   0.0000   0.0000   0.2762
  12.800   1.4126   0.06335   0.05780  -0.0625  0.0200  1.0000  -4.6373   0.0000   0.0000   0.0000   0.2757
  12.900   1.4089   0.06529   0.05986  -0.0619  0.0199  1.0000  -4.6280   0.0000   0.0000   0.0000   0.2753
  13.000   1.4042   0.06726   0.06194  -0.0614  0.0198  1.0000  -4.6159   0.0000   0.0000   0.0000   0.2749
  13.100   1.3990   0.06926   0.06404  -0.0609  0.0198  1.0000  -4.6018   0.0000   0.0000   0.0000   0.2745
  13.200   1.3933   0.07127   0.06617  -0.0605  0.0197  1.0000  -4.5862   0.0000   0.0000   0.0000   0.2742
  13.300   1.3873   0.07329   0.06829  -0.0601  0.0197  1.0000  -4.5695   0.0000   0.0000   0.0000   0.2740
  13.400   1.3807   0.07530   0.07040  -0.0599  0.0196  1.0000  -4.5526   0.0000   0.0000   0.0000   0.2738
  13.500   1.3737   0.07728   0.07247  -0.0597  0.0196  1.0000  -4.5357   0.0000   0.0000   0.0000   0.2737
  13.600   1.3667   0.07927   0.07455  -0.0596  0.0196  1.0000  -4.5183   0.0000   0.0000   0.0000   0.2737
  13.700   1.3597   0.08126   0.07664  -0.0596  0.0195  1.0000  -4.5004   0.0000   0.0000   0.0000   0.2737
  13.800   1.3527   0.08325   0.07872  -0.0596  0.0195  1.0000  -4.4825   0.0000   0.0000   0.0000   0.2738
  13.900   1.3452   0.08520   0.08076  -0.0598  0.0195  1.0000  -4.4654   0.0000   0.0000   0.0000   0.2740
  14.000   1.3379   0.08716   0.08279  -0.0600  0.0195  1.0000  -4.4481   0.0000   0.0000   0.0000   0.2742
  14.100   1.3836   0.07769   0.07290  -0.0600  0.0173  1.0000  -5.0667   0.0000   0.0000   0.0000   0.2723
  14.200   1.3809   0.07915   0.07443  -0.0601  0.0172  1.0000  -5.0826   0.0000   0.0000   0.0000   0.2722
  14.300   1.3778   0.08071   0.07606  -0.0602  0.0172  1.0000  -5.0925   0.0000   0.0000   0.0000   0.2722
  14.400   1.3736   0.08240   0.07783  -0.0604  0.0171  1.0000  -5.0941   0.0000   0.0000   0.0000   0.2723
  14.500   1.3683   0.08425   0.07976  -0.0607  0.0171  1.0000  -5.0875   0.0000   0.0000   0.0000   0.2725
  14.600   1.3630   0.08603   0.08162  -0.0610  0.0171  1.0000  -5.0794   0.0000   0.0000   0.0000   0.2727
  14.700   1.3578   0.08777   0.08344  -0.0614  0.0171  1.0000  -5.0709   0.0000   0.0000   0.0000   0.2730
  14.800   1.3526   0.08955   0.08529  -0.0618  0.0171  1.0000  -5.0614   0.0000   0.0000   0.0000   0.2733
  14.900   1.3470   0.09143   0.08725  -0.0624  0.0172  1.0000  -5.0492   0.0000   0.0000   0.0000   0.2737
  15.000   1.3404   0.09350   0.08941  -0.0631  0.0172  1.0000  -5.0312   0.0000   0.0000   0.0000   0.2743
  15.100   1.3342   0.09562   0.09160  -0.0639  0.0172  1.0000  -5.0137   0.0000   0.0000   0.0000   0.2749
  15.200   1.3283   0.09776   0.09382  -0.0647  0.0172  1.0000  -4.9961   0.0000   0.0000   0.0000   0.2755
  15.300   1.3223   0.09997   0.09610  -0.0656  0.0172  1.0000  -4.9771   0.0000   0.0000   0.0000   0.2762
  15.400   1.3156   0.10237   0.09858  -0.0667  0.0172  1.0000  -4.9527   0.0000   0.0000   0.0000   0.2771
  15.500   1.3081   0.10495   0.10124  -0.0680  0.0173  1.0000  -4.9231   0.0000   0.0000   0.0000   0.2781
  15.600   1.3012   0.10753   0.10388  -0.0692  0.0173  1.0000  -4.8946   0.0000   0.0000   0.0000   0.2792
  15.700   1.2944   0.11016   0.10659  -0.0705  0.0173  1.0000  -4.8651   0.0000   0.0000   0.0000   0.2803
  15.800   1.2873   0.11294   0.10944  -0.0719  0.0173  1.0000  -4.8317   0.0000   0.0000   0.0000   0.2815
  15.900   1.2787   0.11608   0.11265  -0.0737  0.0174  1.0000  -4.7874   0.0000   0.0000   0.0000   0.2831
  16.000   1.2707   0.11921   0.11586  -0.0754  0.0174  1.0000  -4.7443   0.0000   0.0000   0.0000   0.2846
  16.100   1.2630   0.12240   0.11911  -0.0771  0.0175  1.0000  -4.7001   0.0000   0.0000   0.0000   0.2862
  16.200   1.2550   0.12575   0.12253  -0.0790  0.0175  1.0000  -4.6507   0.0000   0.0000   0.0000   0.2880
  16.300   1.2448   0.12969   0.12655  -0.0814  0.0176  1.0000  -4.5845   0.0000   0.0000   0.0000   0.2902
  16.400   1.2355   0.13363   0.13055  -0.0836  0.0177  1.0000  -4.5186   0.0000   0.0000   0.0000   0.2924
  16.500   1.2262   0.13769   0.13468  -0.0860  0.0178  1.0000  -4.4481   0.0000   0.0000   0.0000   0.2948
  16.600   1.2149   0.14247   0.13953  -0.0888  0.0179  1.0000  -4.3563   0.0000   0.0000   0.0000   0.2977
  16.700   1.2027   0.14776   0.14489  -0.0920  0.0181  1.0000  -4.2475   0.0000   0.0000   0.0000   0.3009
  17.100   1.1488   0.17928   0.17677  -0.1078  0.0244  1.0000  -3.3568   0.0000   0.0000   0.0000   0.3189
  17.200   1.1477   0.18195   0.17944  -0.1090  0.0240  1.0000  -3.3526   0.0000   0.0000   0.0000   0.3199
  17.300   1.1467   0.18450   0.18199  -0.1102  0.0236  1.0000  -3.3548   0.0000   0.0000   0.0000   0.3209
  17.400   1.1457   0.18703   0.18452  -0.1114  0.0232  1.0000  -3.3563   0.0000   0.0000   0.0000   0.3218
  17.500   1.1448   0.18948   0.18697  -0.1125  0.0228  1.0000  -3.3600   0.0000   0.0000   0.0000   0.3227
  17.600   1.1443   0.19171   0.18920  -0.1135  0.0224  1.0000  -3.3718   0.0000   0.0000   0.0000   0.3235
  17.700   1.1445   0.19327   0.19076  -0.1143  0.0219  1.0000  -3.4094   0.0000   0.0000   0.0000   0.3239
  18.900   1.0872   0.25626   0.25369  -0.1363  0.0297  1.0000  -2.0356   0.0000   0.0000   0.0000   0.3495
  19.000   1.0868   0.25878   0.25621  -0.1371  0.0290  1.0000  -2.0388   0.0000   0.0000   0.0000   0.3501
  19.100   1.0864   0.26121   0.25864  -0.1379  0.0283  1.0000  -2.0452   0.0000   0.0000   0.0000   0.3507
  19.200   1.0861   0.26355   0.26099  -0.1386  0.0277  1.0000  -2.0554   0.0000   0.0000   0.0000   0.3513
  19.300   1.0858   0.26578   0.26322  -0.1393  0.0270  1.0000  -2.0700   0.0000   0.0000   0.0000   0.3518
  19.400   1.0858   0.26787   0.26532  -0.1399  0.0263  1.0000  -2.0898   0.0000   0.0000   0.0000   0.3521
  19.500   1.0860   0.26980   0.26726  -0.1404  0.0256  1.0000  -2.1164   0.0000   0.0000   0.0000   0.3524
  19.600   1.0865   0.27150   0.26896  -0.1408  0.0249  1.0000  -2.1528   0.0000   0.0000   0.0000   0.3525
  19.700   1.0876   0.27286   0.27033  -0.1411  0.0242  1.0000  -2.2037   0.0000   0.0000   0.0000   0.3524
  19.800   1.0895   0.27374   0.27122  -0.1412  0.0235  1.0000  -2.2762   0.0000   0.0000   0.0000   0.3520
  19.900   1.0925   0.27396   0.27146  -0.1410  0.0227  1.0000  -2.3786   0.0000   0.0000   0.0000   0.3512
  20.000   1.0964   0.27343   0.27094  -0.1405  0.0218  1.0000  -2.5190   0.0000   0.0000   0.0000   0.3498
  20.100   1.0955   0.27480   0.27233  -0.1406  0.0211  1.0000  -2.5761   0.0000   0.0000   0.0000   0.3498
  20.200   1.0887   0.27845   0.27598  -0.1411  0.0204  1.0000  -2.5337   0.0000   0.0000   0.0000   0.3509
  21.500   0.9523   0.29151   0.28924  -0.1394  0.0191  1.0000  -1.6060   0.0000   0.0000   0.0000   0.3679
  21.600   0.9488   0.29230   0.29005  -0.1396  0.0191  1.0000  -1.5730   0.0000   0.0000   0.0000   0.3685
  21.700   0.9455   0.29310   0.29085  -0.1398  0.0191  1.0000  -1.5432   0.0000   0.0000   0.0000   0.3691
  21.800   0.9425   0.29390   0.29166  -0.1400  0.0190  1.0000  -1.5162   0.0000   0.0000   0.0000   0.3697
  21.900   0.9397   0.29470   0.29247  -0.1403  0.0190  1.0000  -1.4914   0.0000   0.0000   0.0000   0.3703
  22.000   0.9372   0.29549   0.29327  -0.1405  0.0190  1.0000  -1.4686   0.0000   0.0000   0.0000   0.3709
  22.100   0.9348   0.29629   0.29408  -0.1408  0.0190  1.0000  -1.4476   0.0000   0.0000   0.0000   0.3714
  22.200   0.9326   0.29709   0.29488  -0.1410  0.0189  1.0000  -1.4281   0.0000   0.0000   0.0000   0.3719
  22.300   0.9306   0.29788   0.29568  -0.1413  0.0189  1.0000  -1.4100   0.0000   0.0000   0.0000   0.3725
  22.400   0.9287   0.29866   0.29648  -0.1416  0.0188  1.0000  -1.3932   0.0000   0.0000   0.0000   0.3730
  22.500   0.9270   0.29945   0.29727  -0.1420  0.0188  1.0000  -1.3777   0.0000   0.0000   0.0000   0.3735
  22.600   0.9255   0.30023   0.29806  -0.1423  0.0187  1.0000  -1.3637   0.0000   0.0000   0.0000   0.3739
  22.700   0.9242   0.30101   0.29884  -0.1427  0.0186  1.0000  -1.3509   0.0000   0.0000   0.0000   0.3744
  22.800   0.9232   0.30178   0.29962  -0.1432  0.0184  1.0000  -1.3400   0.0000   0.0000   0.0000   0.3749
  22.900   0.9223   0.30270   0.30054  -0.1439  0.0180  1.0000  -1.3224   0.0000   0.0000   0.0000   0.3757
  23.000   0.9225   0.30412   0.30197  -0.1451  0.0168  1.0000  -1.2936   0.0000   0.0000   0.0000   0.3769
  23.100   0.9217   0.30524   0.30309  -0.1457  0.0157  1.0000  -1.2745   0.0000   0.0000   0.0000   0.3775
  23.200   0.9206   0.30613   0.30399  -0.1461  0.0150  1.0000  -1.2624   0.0000   0.0000   0.0000   0.3780
  23.300   0.9194   0.30695   0.30482  -0.1465  0.0144  1.0000  -1.2531   0.0000   0.0000   0.0000   0.3784
  23.400   0.9182   0.30774   0.30561  -0.1468  0.0139  1.0000  -1.2455   0.0000   0.0000   0.0000   0.3789
  23.500   0.9170   0.30850   0.30638  -0.1471  0.0135  1.0000  -1.2389   0.0000   0.0000   0.0000   0.3792
  23.600   0.9159   0.30925   0.30714  -0.1474  0.0131  1.0000  -1.2333   0.0000   0.0000   0.0000   0.3796
  23.700   0.9148   0.30999   0.30789  -0.1477  0.0128  1.0000  -1.2284   0.0000   0.0000   0.0000   0.3800
  23.800   0.9138   0.31072   0.30863  -0.1481  0.0125  1.0000  -1.2247   0.0000   0.0000   0.0000   0.3803
  23.900   0.9128   0.31145   0.30936  -0.1484  0.0122  1.0000  -1.2218   0.0000   0.0000   0.0000   0.3807
  24.000   0.9119   0.31217   0.31009  -0.1487  0.0119  1.0000  -1.2195   0.0000   0.0000   0.0000   0.3810
  24.100   0.9110   0.31288   0.31081  -0.1490  0.0117  1.0000  -1.2176   0.0000   0.0000   0.0000   0.3813
  24.200   0.9101   0.31359   0.31152  -0.1493  0.0114  1.0000  -1.2163   0.0000   0.0000   0.0000   0.3816
  24.300   0.9093   0.31429   0.31223  -0.1496  0.0112  1.0000  -1.2154   0.0000   0.0000   0.0000   0.3819
  24.400   0.9085   0.31499   0.31294  -0.1499  0.0110  1.0000  -1.2151   0.0000   0.0000   0.0000   0.3822
  24.500   0.9078   0.31568   0.31364  -0.1502  0.0108  1.0000  -1.2153   0.0000   0.0000   0.0000   0.3825
  24.600   0.9070   0.31637   0.31433  -0.1505  0.0106  1.0000  -1.2160   0.0000   0.0000   0.0000   0.3828
  24.700   0.9064   0.31705   0.31502  -0.1508  0.0105  1.0000  -1.2172   0.0000   0.0000   0.0000   0.3830
  24.800   0.9057   0.31772   0.31570  -0.1511  0.0103  1.0000  -1.2190   0.0000   0.0000   0.0000   0.3833
  24.900   0.9051   0.31839   0.31637  -0.1514  0.0101  1.0000  -1.2214   0.0000   0.0000   0.0000   0.3835
  25.000   0.9045   0.31904   0.31703  -0.1517  0.0100  1.0000  -1.2244   0.0000   0.0000   0.0000   0.3838
  25.100   0.9039   0.31969   0.31769  -0.1520  0.0098  1.0000  -1.2281   0.0000   0.0000   0.0000   0.3840
  25.200   0.9034   0.32033   0.31833  -0.1523  0.0097  1.0000  -1.2325   0.0000   0.0000   0.0000   0.3842
  25.300   0.9029   0.32096   0.31897  -0.1526  0.0096  1.0000  -1.2375   0.0000   0.0000   0.0000   0.3844
  25.400   0.9024   0.32158   0.31959  -0.1528  0.0094  1.0000  -1.2432   0.0000   0.0000   0.0000   0.3846
  25.500   0.9019   0.32218   0.32021  -0.1531  0.0093  1.0000  -1.2497   0.0000   0.0000   0.0000   0.3847
  25.600   0.9015   0.32278   0.32081  -0.1534  0.0092  1.0000  -1.2568   0.0000   0.0000   0.0000   0.3849
  25.700   0.9011   0.32337   0.32140  -0.1536  0.0091  1.0000  -1.2647   0.0000   0.0000   0.0000   0.3850
  25.800   0.9007   0.32394   0.32198  -0.1539  0.0090  1.0000  -1.2733   0.0000   0.0000   0.0000   0.3852
  25.900   0.9003   0.32450   0.32255  -0.1541  0.0089  1.0000  -1.2826   0.0000   0.0000   0.0000   0.3853
  26.000   0.8999   0.32506   0.32311  -0.1544  0.0088  1.0000  -1.2927   0.0000   0.0000   0.0000   0.3854
  26.100   0.8996   0.32560   0.32367  -0.1546  0.0087  1.0000  -1.3033   0.0000   0.0000   0.0000   0.3854
  26.200   0.8993   0.32614   0.32421  -0.1548  0.0086  1.0000  -1.3145   0.0000   0.0000   0.0000   0.3855
  26.300   0.8990   0.32667   0.32475  -0.1549  0.0085  1.0000  -1.3260   0.0000   0.0000   0.0000   0.3855
  26.400   0.8986   0.32721   0.32530  -0.1551  0.0083  1.0000  -1.3376   0.0000   0.0000   0.0000   0.3855
  26.500   0.8983   0.32777   0.32587  -0.1552  0.0082  1.0000  -1.3475   0.0000   0.0000   0.0000   0.3855
  26.600   0.8975   0.32848   0.32659  -0.1554  0.0081  1.0000  -1.3466   0.0000   0.0000   0.0000   0.3856
  26.700   0.8963   0.32930   0.32741  -0.1556  0.0080  1.0000  -1.3372   0.0000   0.0000   0.0000   0.3859
  26.800   0.8939   0.33050   0.32861  -0.1557  0.0078  1.0000  -1.2971   0.0000   0.0000   0.0000   0.3863
  26.900   0.8878   0.33326   0.33134  -0.1556  0.0075  1.0000  -1.1452   0.0000   0.0000   0.0000   0.3876
  27.000   0.8874   0.33409   0.33218  -0.1560  0.0075  1.0000  -1.1377   0.0000   0.0000   0.0000   0.3878
  27.100   0.8870   0.33492   0.33302  -0.1563  0.0075  1.0000  -1.1304   0.0000   0.0000   0.0000   0.3881
  27.200   0.8865   0.33575   0.33385  -0.1567  0.0075  1.0000  -1.1232   0.0000   0.0000   0.0000   0.3884
  27.300   0.8861   0.33658   0.33469  -0.1570  0.0075  1.0000  -1.1160   0.0000   0.0000   0.0000   0.3886
  27.400   0.8857   0.33741   0.33552  -0.1574  0.0075  1.0000  -1.1090   0.0000   0.0000   0.0000   0.3889
  27.500   0.8853   0.33823   0.33635  -0.1577  0.0075  1.0000  -1.1022   0.0000   0.0000   0.0000   0.3892
  27.600   0.8849   0.33907   0.33724  -0.1581  0.0075  1.0000  -1.0953   0.0000   0.0000   0.0000   0.3894
  27.700   0.8845   0.33989   0.33807  -0.1585  0.0075  1.0000  -1.0886   0.0000   0.0000   0.0000   0.3897
  27.800   0.8841   0.34071   0.33889  -0.1588  0.0075  1.0000  -1.0820   0.0000   0.0000   0.0000   0.3899
  27.900   0.8837   0.34153   0.33972  -0.1592  0.0075  1.0000  -1.0754   0.0000   0.0000   0.0000   0.3902
  28.000   0.8834   0.34235   0.34055  -0.1595  0.0074  1.0000  -1.0690   0.0000   0.0000   0.0000   0.3904
  28.100   0.8830   0.34316   0.34137  -0.1599  0.0074  1.0000  -1.0627   0.0000   0.0000   0.0000   0.3907
  28.200   0.8826   0.34398   0.34219  -0.1602  0.0074  1.0000  -1.0565   0.0000   0.0000   0.0000   0.3909
  28.300   0.8823   0.34480   0.34301  -0.1606  0.0074  1.0000  -1.0503   0.0000   0.0000   0.0000   0.3912
  28.400   0.8819   0.34561   0.34383  -0.1610  0.0074  1.0000  -1.0443   0.0000   0.0000   0.0000   0.3914
  28.500   0.8816   0.34642   0.34465  -0.1613  0.0074  1.0000  -1.0383   0.0000   0.0000   0.0000   0.3917
  28.600   0.8813   0.34723   0.34547  -0.1617  0.0074  1.0000  -1.0324   0.0000   0.0000   0.0000   0.3919
  28.700   0.8809   0.34804   0.34628  -0.1620  0.0074  1.0000  -1.0266   0.0000   0.0000   0.0000   0.3922
  28.800   0.8806   0.34885   0.34710  -0.1624  0.0074  1.0000  -1.0209   0.0000   0.0000   0.0000   0.3924
  28.900   0.8803   0.34966   0.34791  -0.1628  0.0074  1.0000  -1.0153   0.0000   0.0000   0.0000   0.3926
  29.000   0.8799   0.35047   0.34872  -0.1631  0.0074  1.0000  -1.0098   0.0000   0.0000   0.0000   0.3929
  29.100   0.8796   0.35127   0.34953  -0.1635  0.0074  1.0000  -1.0043   0.0000   0.0000   0.0000   0.3931


