xflr5 v6.61

 Calculated polar for: NACA M19 AIRFOIL

 1 1 Reynolds number fixed          Mach number fixed         

 xtrf =   1.000 (top)        1.000 (bottom)
 Mach =   0.000     Re =     0.100 e 6     Ncrit =   9.000

  alpha     CL        CD       CDp       Cm    Top Xtr Bot Xtr   Cpmin    Chinge    XCp    
 ------- -------- --------- --------- -------- ------- ------- -------- --------- ---------
  -9.300  -0.3633   0.14269   0.13746   0.0003  1.0000  0.0254  -1.2877   0.0000   0.0000   0.0000   0.2499
  -9.200  -0.3611   0.13550   0.13027   0.0009  1.0000  0.0261  -1.3160   0.0000   0.0000   0.0000   0.2514
  -9.100  -0.3526   0.12929   0.12406   0.0024  1.0000  0.0268  -1.2612   0.0000   0.0000   0.0000   0.2555
  -9.000  -0.3469   0.12596   0.12075   0.0028  1.0000  0.0273  -1.2251   0.0000   0.0000   0.0000   0.2564
  -8.900  -0.3422   0.12346   0.11827   0.0027  1.0000  0.0277  -1.1981   0.0000   0.0000   0.0000   0.2562
  -8.800  -0.3379   0.12134   0.11618   0.0024  1.0000  0.0281  -1.1762   0.0000   0.0000   0.0000   0.2555
  -8.700  -0.3338   0.11944   0.11430   0.0020  1.0000  0.0285  -1.1576   0.0000   0.0000   0.0000   0.2543
  -8.600  -0.3298   0.11768   0.11257   0.0014  1.0000  0.0290  -1.1415   0.0000   0.0000   0.0000   0.2527
  -6.500  -0.2166   0.08720   0.08231  -0.0282  0.8980  0.0362  -1.0273   0.0000   0.0000   0.0000   0.1176
  -6.400  -0.2111   0.08592   0.08103  -0.0294  0.8936  0.0366  -1.0250   0.0000   0.0000   0.0000   0.1083
  -6.300  -0.2054   0.08465   0.07976  -0.0307  0.8888  0.0369  -1.0225   0.0000   0.0000   0.0000   0.0984
  -6.200  -0.1996   0.08338   0.07849  -0.0319  0.8836  0.0373  -1.0198   0.0000   0.0000   0.0000   0.0880
  -6.100  -0.1936   0.08212   0.07722  -0.0330  0.8781  0.0377  -1.0170   0.0000   0.0000   0.0000   0.0768
  -6.000  -0.1875   0.08087   0.07595  -0.0342  0.8724  0.0381  -1.0140   0.0000   0.0000   0.0000   0.0649
  -5.900  -0.1812   0.07962   0.07469  -0.0353  0.8666  0.0386  -1.0108   0.0000   0.0000   0.0000   0.0523
  -5.800  -0.1749   0.07838   0.07344  -0.0364  0.8607  0.0392  -1.0076   0.0000   0.0000   0.0000   0.0389
  -5.700  -0.1686   0.07717   0.07220  -0.0374  0.8549  0.0397  -1.0043   0.0000   0.0000   0.0000   0.0250
  -5.600  -0.1622   0.07596   0.07097  -0.0384  0.8490  0.0403  -1.0010   0.0000   0.0000   0.0000   0.0101
  -5.500  -0.1554   0.07477   0.06975  -0.0394  0.8432  0.0410  -0.9977   0.0000   0.0000   0.0000  -0.0067
  -5.400  -0.1483   0.07359   0.06853  -0.0404  0.8374  0.0418  -0.9944   0.0000   0.0000   0.0000  -0.0263
  -5.300  -0.1404   0.07243   0.06733  -0.0415  0.8314  0.0427  -0.9912   0.0000   0.0000   0.0000  -0.0499
  -5.200  -0.1316   0.07132   0.06618  -0.0429  0.8253  0.0438  -0.9887   0.0000   0.0000   0.0000  -0.0804
  -5.100  -0.1207   0.07036   0.06517  -0.0447  0.8188  0.0451  -0.9883   0.0000   0.0000   0.0000  -0.1250
  -5.000  -0.1051   0.07002   0.06476  -0.0476  0.8118  0.0470  -0.9966   0.0000   0.0000   0.0000  -0.2091
  -4.900  -0.0779   0.07170   0.06627  -0.0530  0.8036  0.0490  -1.0242   0.0000   0.0000   0.0000  -0.4391
  -4.800  -0.0612   0.07183   0.06628  -0.0554  0.7992  0.0496  -1.0274   0.0000   0.0000   0.0000  -0.6678
  -4.700  -0.0486   0.07107   0.06545  -0.0567  0.7977  0.0498  -1.0231   0.0000   0.0000   0.0000  -0.9312
  -4.600  -0.0369   0.07007   0.06438  -0.0577  0.7960  0.0500  -1.0184   0.0000   0.0000   0.0000  -1.3371
  -4.500  -0.0272   0.06824   0.06254  -0.0588  0.7942  0.0502  -1.0283   0.0000   0.0000   0.0000  -1.9426
  -4.400  -0.0293   0.06293   0.05727  -0.0592  0.7929  0.0516  -1.0532   0.0000   0.0000   0.0000  -1.8016
  -4.300  -0.0288   0.06008   0.05451  -0.0585  0.7910  0.0528  -1.0115   0.0000   0.0000   0.0000  -1.8055
  -4.200  -0.0261   0.05808   0.05257  -0.0578  0.7888  0.0544  -0.9650   0.0000   0.0000   0.0000  -1.9918
  -4.100  -0.0211   0.05653   0.05104  -0.0575  0.7861  0.0564  -0.9250   0.0000   0.0000   0.0000  -2.5174
  -4.000  -0.0137   0.05522   0.04972  -0.0577  0.7832  0.0591  -0.8948   0.0000   0.0000   0.0000  -4.0045
  -3.900  -0.0042   0.05403   0.04850  -0.0582  0.7800  0.0627  -0.8761   0.0000   0.0000   0.0000  -13.6846
  -3.800   0.0090   0.05312   0.04750  -0.0594  0.7765  0.0684  -0.8765   0.0000   0.0000   0.0000   6.9368
  -3.700   0.0451   0.05515   0.04901  -0.0635  0.7715  0.0759  -1.0033   0.0000   0.0000   0.0000   1.6795
  -3.600   0.0417   0.05081   0.04487  -0.0628  0.7688  0.0783  -0.9629   0.0000   0.0000   0.0000   1.7771
  -3.500   0.0425   0.04906   0.04323  -0.0616  0.7654  0.0827  -0.8961   0.0000   0.0000   0.0000   1.7191
  -3.400   0.0724   0.05658   0.05049  -0.0616  0.7584  0.0995  -0.7528   0.0000   0.0000   0.0000   1.1132
  -3.300   0.0783   0.05252   0.04636  -0.0633  0.7552  0.1024  -0.7777   0.0000   0.0000   0.0000   1.0702
  -3.200   0.0778   0.04818   0.04211  -0.0635  0.7522  0.1065  -0.7497   0.0000   0.0000   0.0000   1.0773
  -3.100   0.0815   0.04650   0.04050  -0.0630  0.7486  0.1094  -0.6827   0.0000   0.0000   0.0000   1.0335
  -3.000   0.0889   0.04553   0.03951  -0.0629  0.7447  0.1108  -0.6594   0.0000   0.0000   0.0000   0.9666
  -2.900   0.0967   0.04466   0.03862  -0.0627  0.7408  0.1122  -0.6418   0.0000   0.0000   0.0000   0.9079
  -2.800   0.1046   0.04388   0.03782  -0.0626  0.7369  0.1137  -0.6251   0.0000   0.0000   0.0000   0.8566
  -2.700   0.1128   0.04316   0.03707  -0.0625  0.7331  0.1152  -0.6091   0.0000   0.0000   0.0000   0.8117
  -2.600   0.1212   0.04252   0.03639  -0.0624  0.7293  0.1169  -0.5936   0.0000   0.0000   0.0000   0.7722
  -2.500   0.1297   0.04194   0.03576  -0.0624  0.7253  0.1187  -0.5831   0.0000   0.0000   0.0000   0.7374
  -2.400   0.1385   0.04144   0.03522  -0.0624  0.7211  0.1206  -0.5888   0.0000   0.0000   0.0000   0.7065
  -2.300   0.1475   0.04106   0.03479  -0.0625  0.7163  0.1228  -0.5943   0.0000   0.0000   0.0000   0.6793
  -2.200   0.1567   0.04088   0.03457  -0.0628  0.7104  0.1251  -0.5991   0.0000   0.0000   0.0000   0.6561
  -2.100   0.1658   0.04135   0.03502  -0.0637  0.7014  0.1274  -0.6014   0.0000   0.0000   0.0000   0.6392
  -2.000   0.1762   0.04111   0.03474  -0.0642  0.6990  0.1303  -0.6069   0.0000   0.0000   0.0000   0.6193
  -1.900   0.1873   0.04072   0.03431  -0.0647  0.6978  0.1337  -0.6137   0.0000   0.0000   0.0000   0.5996
  -1.800   0.1990   0.04054   0.03406  -0.0651  0.6965  0.1376  -0.6208   0.0000   0.0000   0.0000   0.5812
  -1.700   0.2125   0.04103   0.03447  -0.0656  0.6949  0.1428  -0.6286   0.0000   0.0000   0.0000   0.5623
  -1.300   0.2561   0.03898   0.03214  -0.0675  0.6876  0.1561  -0.6542   0.0000   0.0000   0.0000   0.5165
  -1.200   0.2632   0.03762   0.03085  -0.0676  0.6856  0.1591  -0.6593   0.0000   0.0000   0.0000   0.5097
  -1.100   0.2709   0.03675   0.03002  -0.0677  0.6833  0.1625  -0.6649   0.0000   0.0000   0.0000   0.5023
  -1.000   0.2793   0.03615   0.02945  -0.0677  0.6808  0.1666  -0.6707   0.0000   0.0000   0.0000   0.4947
  -0.900   0.2882   0.03577   0.02908  -0.0677  0.6780  0.1715  -0.6769   0.0000   0.0000   0.0000   0.4870
  -0.800   0.2977   0.03561   0.02891  -0.0676  0.6750  0.1773  -0.6833   0.0000   0.0000   0.0000   0.4793
  -0.700   0.3079   0.03576   0.02905  -0.0676  0.6717  0.1842  -0.6902   0.0000   0.0000   0.0000   0.4713
  -0.600   0.3190   0.03658   0.02986  -0.0673  0.6681  0.1921  -0.6978   0.0000   0.0000   0.0000   0.4626
  -0.500   0.3314   0.03893   0.03221  -0.0665  0.6641  0.1989  -0.7066   0.0000   0.0000   0.0000   0.4521
  -0.400   0.3373   0.03405   0.02717  -0.0682  0.6615  0.2147  -0.7094   0.0000   0.0000   0.0000   0.4537
  -0.300   0.3441   0.03269   0.02582  -0.0682  0.6584  0.2241  -0.7144   0.0000   0.0000   0.0000   0.4494
  -0.200   0.3514   0.03180   0.02497  -0.0679  0.6551  0.2330  -0.7199   0.0000   0.0000   0.0000   0.4444
  -0.100   0.3592   0.03114   0.02433  -0.0676  0.6518  0.2432  -0.7258   0.0000   0.0000   0.0000   0.4392
   0.000   0.3677   0.03065   0.02385  -0.0673  0.6485  0.2552  -0.7320   0.0000   0.0000   0.0000   0.4339
   0.100   0.3767   0.03036   0.02355  -0.0670  0.6451  0.2688  -0.7411   0.0000   0.0000   0.0000   0.4286
   0.200   0.3865   0.03043   0.02359  -0.0666  0.6418  0.2837  -0.7514   0.0000   0.0000   0.0000   0.4231
   0.400   0.3991   0.02772   0.02090  -0.0660  0.6357  0.3404  -0.7677   0.0000   0.0000   0.0000   0.4158
   0.500   0.4061   0.02700   0.02022  -0.0652  0.6323  0.3613  -0.7768   0.0000   0.0000   0.0000   0.4110
   0.600   0.4145   0.02672   0.01993  -0.0646  0.6288  0.3822  -0.7865   0.0000   0.0000   0.0000   0.4062
   0.800   0.4313   0.02497   0.01809  -0.0642  0.6218  0.4293  -0.8045   0.0000   0.0000   0.0000   0.3991
   0.900   0.4389   0.02434   0.01750  -0.0637  0.6177  0.4475  -0.8127   0.0000   0.0000   0.0000   0.3953
   1.000   0.4469   0.02419   0.01737  -0.0635  0.6120  0.4634  -0.8204   0.0000   0.0000   0.0000   0.3919
   1.100   0.4527   0.02569   0.01891  -0.0640  0.5993  0.4734  -0.8214   0.0000   0.0000   0.0000   0.3914
   1.200   0.4637   0.02530   0.01851  -0.0642  0.5982  0.4843  -0.8316   0.0000   0.0000   0.0000   0.3882
   1.300   0.4759   0.02506   0.01836  -0.0646  0.5968  0.4860  -0.8423   0.0000   0.0000   0.0000   0.3855
   1.400   0.4878   0.02481   0.01809  -0.0650  0.5953  0.4910  -0.8527   0.0000   0.0000   0.0000   0.3828
   1.500   0.4999   0.02461   0.01785  -0.0654  0.5935  0.4936  -0.8631   0.0000   0.0000   0.0000   0.3803
   1.600   0.5124   0.02446   0.01766  -0.0659  0.5915  0.4941  -0.8736   0.0000   0.0000   0.0000   0.3780
   1.700   0.5251   0.02436   0.01750  -0.0665  0.5894  0.4924  -0.8841   0.0000   0.0000   0.0000   0.3759
   1.800   0.5382   0.02436   0.01743  -0.0671  0.5871  0.4874  -0.8947   0.0000   0.0000   0.0000   0.3739
   1.900   0.5519   0.02450   0.01747  -0.0679  0.5846  0.4768  -0.9055   0.0000   0.0000   0.0000   0.3720
   2.000   0.5668   0.02500   0.01781  -0.0688  0.5821  0.4480  -0.9166   0.0000   0.0000   0.0000   0.3703
   2.100   0.5802   0.02579   0.01851  -0.0692  0.5795  0.4128  -0.9271   0.0000   0.0000   0.0000   0.3682
   2.200   0.5929   0.02608   0.01876  -0.0697  0.5772  0.3894  -0.9369   0.0000   0.0000   0.0000   0.3663
   2.300   0.6088   0.02674   0.01918  -0.0705  0.5752  0.3404  -0.9478   0.0000   0.0000   0.0000   0.3646
   2.900   0.6828   0.02921   0.02100  -0.0719  0.5615  0.1726  -1.0034   0.0000   0.0000   0.0000   0.3536
   3.100   0.7047   0.03019   0.02174  -0.0720  0.5580  0.1454  -1.0204   0.0000   0.0000   0.0000   0.3503
   3.200   0.7153   0.03009   0.02161  -0.0723  0.5565  0.1387  -1.0287   0.0000   0.0000   0.0000   0.3492
   3.300   0.7256   0.03019   0.02167  -0.0726  0.5550  0.1322  -1.0370   0.0000   0.0000   0.0000   0.3480
   3.400   0.7358   0.03036   0.02180  -0.0727  0.5536  0.1257  -1.0451   0.0000   0.0000   0.0000   0.3467
   3.500   0.7460   0.03057   0.02195  -0.0729  0.5522  0.1193  -1.0533   0.0000   0.0000   0.0000   0.3454
   3.600   0.7564   0.03084   0.02214  -0.0730  0.5508  0.1136  -1.0616   0.0000   0.0000   0.0000   0.3442
   3.700   0.7662   0.03119   0.02243  -0.0732  0.5495  0.1093  -1.0698   0.0000   0.0000   0.0000   0.3431
   3.800   0.7756   0.03157   0.02279  -0.0733  0.5481  0.1063  -1.0777   0.0000   0.0000   0.0000   0.3420
   3.900   0.7848   0.03197   0.02319  -0.0735  0.5467  0.1041  -1.0855   0.0000   0.0000   0.0000   0.3410
   4.000   0.7938   0.03237   0.02359  -0.0737  0.5453  0.1022  -1.0933   0.0000   0.0000   0.0000   0.3401
   4.100   0.8029   0.03273   0.02396  -0.0738  0.5439  0.1007  -1.1013   0.0000   0.0000   0.0000   0.3391
   4.200   0.8128   0.03280   0.02398  -0.0739  0.5424  0.0989  -1.1101   0.0000   0.0000   0.0000   0.3380
   4.300   0.8223   0.03282   0.02396  -0.0738  0.5408  0.0972  -1.1190   0.0000   0.0000   0.0000   0.3367
   4.400   0.8315   0.03286   0.02396  -0.0737  0.5392  0.0957  -1.1279   0.0000   0.0000   0.0000   0.3354
   4.500   0.8407   0.03289   0.02394  -0.0735  0.5374  0.0942  -1.1371   0.0000   0.0000   0.0000   0.3341
   4.600   0.8501   0.03290   0.02389  -0.0732  0.5356  0.0928  -1.1468   0.0000   0.0000   0.0000   0.3327
   4.700   0.8596   0.03288   0.02380  -0.0729  0.5338  0.0914  -1.1570   0.0000   0.0000   0.0000   0.3313
   4.800   0.8694   0.03282   0.02368  -0.0726  0.5319  0.0902  -1.1676   0.0000   0.0000   0.0000   0.3298
   4.900   0.8793   0.03274   0.02354  -0.0722  0.5300  0.0891  -1.1787   0.0000   0.0000   0.0000   0.3284
   5.000   0.8893   0.03264   0.02337  -0.0718  0.5280  0.0882  -1.1901   0.0000   0.0000   0.0000   0.3269
   5.100   0.8995   0.03253   0.02319  -0.0714  0.5260  0.0874  -1.2017   0.0000   0.0000   0.0000   0.3254
   5.200   0.9097   0.03243   0.02303  -0.0710  0.5239  0.0868  -1.2135   0.0000   0.0000   0.0000   0.3239
   5.300   0.9199   0.03236   0.02290  -0.0706  0.5217  0.0863  -1.2266   0.0000   0.0000   0.0000   0.3225
   5.400   0.9299   0.03235   0.02284  -0.0703  0.5195  0.0861  -1.2435   0.0000   0.0000   0.0000   0.3211
   5.500   0.9395   0.03244   0.02289  -0.0699  0.5170  0.0860  -1.2599   0.0000   0.0000   0.0000   0.3198
   5.600   0.9485   0.03270   0.02312  -0.0696  0.5143  0.0861  -1.2752   0.0000   0.0000   0.0000   0.3187
   5.700   0.9533   0.03384   0.02422  -0.0689  0.5065  0.0864  -1.2855   0.0000   0.0000   0.0000   0.3175
   5.800   0.9529   0.03584   0.02622  -0.0686  0.4983  0.0866  -1.2883   0.0000   0.0000   0.0000   0.3171
   5.900   0.9987   0.02328   0.01292  -0.0625  0.4646  0.0914  -1.3884   0.0000   0.0000   0.0000   0.3072
   6.000   1.0112   0.02217   0.01167  -0.0616  0.4544  0.0953  -1.4725   0.0000   0.0000   0.0000   0.3054
   6.200   1.0404   0.01827   0.00777  -0.0604  0.3317  1.0000  -1.7117   0.0000   0.0000   0.0000   0.3019
   6.300   1.0418   0.01932   0.00800  -0.0593  0.2308  1.0000  -1.7407   0.0000   0.0000   0.0000   0.3007
   6.400   1.0400   0.02111   0.00905  -0.0586  0.1481  1.0000  -1.7577   0.0000   0.0000   0.0000   0.2999
   6.500   1.0389   0.02298   0.01044  -0.0579  0.0493  1.0000  -1.7756   0.0000   0.0000   0.0000   0.2992
   6.600   1.0458   0.02357   0.01098  -0.0574  0.0446  1.0000  -1.8263   0.0000   0.0000   0.0000   0.2982
   6.700   1.0531   0.02409   0.01155  -0.0568  0.0415  1.0000  -1.8798   0.0000   0.0000   0.0000   0.2972
   6.800   1.0608   0.02455   0.01212  -0.0563  0.0398  1.0000  -1.9437   0.0000   0.0000   0.0000   0.2962
   6.900   1.0684   0.02502   0.01272  -0.0558  0.0389  1.0000  -2.0079   0.0000   0.0000   0.0000   0.2951
   7.000   1.0757   0.02550   0.01336  -0.0552  0.0386  1.0000  -2.0688   0.0000   0.0000   0.0000   0.2941
   7.100   1.0827   0.02603   0.01404  -0.0546  0.0386  1.0000  -2.1257   0.0000   0.0000   0.0000   0.2931
   7.200   1.0891   0.02659   0.01475  -0.0540  0.0389  1.0000  -2.1782   0.0000   0.0000   0.0000   0.2921
   7.300   1.0949   0.02721   0.01551  -0.0533  0.0393  1.0000  -2.2251   0.0000   0.0000   0.0000   0.2910
   7.400   1.0998   0.02790   0.01633  -0.0526  0.0399  1.0000  -2.2669   0.0000   0.0000   0.0000   0.2900
   7.500   1.1037   0.02866   0.01722  -0.0519  0.0406  1.0000  -2.3036   0.0000   0.0000   0.0000   0.2890
   7.600   1.1064   0.02949   0.01818  -0.0510  0.0413  1.0000  -2.3352   0.0000   0.0000   0.0000   0.2880
   7.700   1.1080   0.03037   0.01918  -0.0502  0.0421  1.0000  -2.3622   0.0000   0.0000   0.0000   0.2870
   7.800   1.1086   0.03130   0.02020  -0.0493  0.0428  1.0000  -2.3856   0.0000   0.0000   0.0000   0.2860
   7.900   1.1082   0.03224   0.02122  -0.0484  0.0435  1.0000  -2.4057   0.0000   0.0000   0.0000   0.2850
   8.000   1.1068   0.03317   0.02221  -0.0473  0.0442  1.0000  -2.4225   0.0000   0.0000   0.0000   0.2839
   8.100   1.1052   0.03416   0.02325  -0.0463  0.0449  1.0000  -2.4378   0.0000   0.0000   0.0000   0.2829
   8.200   1.1043   0.03514   0.02427  -0.0454  0.0457  1.0000  -2.4541   0.0000   0.0000   0.0000   0.2820
   8.300   1.1045   0.03602   0.02519  -0.0443  0.0466  1.0000  -2.4729   0.0000   0.0000   0.0000   0.2807
   8.400   1.1074   0.03669   0.02587  -0.0427  0.0477  1.0000  -2.4983   0.0000   0.0000   0.0000   0.2790
   8.500   1.1146   0.03735   0.02650  -0.0406  0.0492  1.0000  -2.5293   0.0000   0.0000   0.0000   0.2768
   8.700   1.1373   0.03777   0.02699  -0.0387  0.0547  1.0000  -2.6553   0.0000   0.0000   0.0000   0.2741
  10.900   1.1302   0.07901   0.07267  -0.0316  0.1376  1.0000  -2.4090   0.0000   0.0000   0.0000   0.2648
  11.000   1.1214   0.08176   0.07546  -0.0326  0.1373  1.0000  -2.3847   0.0000   0.0000   0.0000   0.2658
  11.100   1.1127   0.08458   0.07832  -0.0336  0.1371  1.0000  -2.3593   0.0000   0.0000   0.0000   0.2668
  11.200   1.1040   0.08747   0.08124  -0.0347  0.1367  1.0000  -2.3328   0.0000   0.0000   0.0000   0.2679
  11.300   1.0951   0.09042   0.08422  -0.0359  0.1361  1.0000  -2.3059   0.0000   0.0000   0.0000   0.2692
  11.400   1.0864   0.09340   0.08723  -0.0372  0.1355  1.0000  -2.2777   0.0000   0.0000   0.0000   0.2705
  11.500   1.0779   0.09646   0.09031  -0.0384  0.1352  1.0000  -2.2477   0.0000   0.0000   0.0000   0.2718
  11.600   1.0697   0.09962   0.09349  -0.0396  0.1351  1.0000  -2.2159   0.0000   0.0000   0.0000   0.2731
  11.700   1.0617   0.10288   0.09677  -0.0410  0.1351  1.0000  -2.1825   0.0000   0.0000   0.0000   0.2746
  11.800   1.0537   0.10625   0.10016  -0.0424  0.1349  1.0000  -2.1474   0.0000   0.0000   0.0000   0.2762
  11.900   1.0459   0.10974   0.10366  -0.0440  0.1347  1.0000  -2.1106   0.0000   0.0000   0.0000   0.2779
  12.000   1.0383   0.11329   0.10722  -0.0456  0.1349  1.0000  -2.0721   0.0000   0.0000   0.0000   0.2797
  12.100   1.0312   0.11690   0.11084  -0.0471  0.1355  1.0000  -2.0320   0.0000   0.0000   0.0000   0.2815
  12.200   1.0245   0.12065   0.11459  -0.0487  0.1367  1.0000  -1.9897   0.0000   0.0000   0.0000   0.2833
  12.300   1.0180   0.12440   0.11834  -0.0503  0.1383  1.0000  -1.9475   0.0000   0.0000   0.0000   0.2851
  12.400   1.0118   0.12813   0.12207  -0.0517  0.1404  1.0000  -1.9060   0.0000   0.0000   0.0000   0.2867
  12.500   1.0056   0.13197   0.12592  -0.0529  0.1432  1.0000  -1.8647   0.0000   0.0000   0.0000   0.2882
  12.700   0.9918   0.14218   0.13621  -0.0597  0.1644  1.0000  -1.6937   0.0000   0.0000   0.0000   0.2960
  12.800   0.9835   0.14579   0.13982  -0.0617  0.1660  1.0000  -1.6442   0.0000   0.0000   0.0000   0.2986
  12.900   0.9755   0.14943   0.14347  -0.0638  0.1682  1.0000  -1.5944   0.0000   0.0000   0.0000   0.3012
  13.000   0.9678   0.15318   0.14721  -0.0658  0.1713  1.0000  -1.5446   0.0000   0.0000   0.0000   0.3038
  13.100   0.9608   0.15716   0.15120  -0.0677  0.1760  1.0000  -1.4962   0.0000   0.0000   0.0000   0.3062
  13.200   0.9548   0.16187   0.15591  -0.0692  0.1832  1.0000  -1.4517   0.0000   0.0000   0.0000   0.3082
  13.300   0.9482   0.16822   0.16226  -0.0702  0.1910  1.0000  -1.4096   0.0000   0.0000   0.0000   0.3098
  13.400   0.9671   0.16936   0.16348  -0.0725  0.2164  1.0000  -1.4077   0.0000   0.0000   0.0000   0.3108
  13.500   0.9662   0.17162   0.16573  -0.0733  0.2165  1.0000  -1.3973   0.0000   0.0000   0.0000   0.3115
  13.600   0.9659   0.17387   0.16797  -0.0740  0.2164  1.0000  -1.3888   0.0000   0.0000   0.0000   0.3121
  13.700   0.9661   0.17613   0.17022  -0.0746  0.2163  1.0000  -1.3820   0.0000   0.0000   0.0000   0.3127
  13.800   0.9667   0.17840   0.17249  -0.0752  0.2160  1.0000  -1.3768   0.0000   0.0000   0.0000   0.3131
  13.900   0.9681   0.18073   0.17481  -0.0757  0.2156  1.0000  -1.3743   0.0000   0.0000   0.0000   0.3134
  14.000   0.9722   0.18339   0.17746  -0.0758  0.2144  1.0000  -1.3817   0.0000   0.0000   0.0000   0.3130
  14.100   0.9771   0.18630   0.18036  -0.0757  0.2128  1.0000  -1.3930   0.0000   0.0000   0.0000   0.3124
  14.200   0.9809   0.18955   0.18361  -0.0755  0.2107  1.0000  -1.4030   0.0000   0.0000   0.0000   0.3118
  14.300   0.9829   0.19480   0.18885  -0.0752  0.2073  1.0000  -1.4078   0.0000   0.0000   0.0000   0.3112
  14.700   0.9463   0.21234   0.20631  -0.0807  0.1975  1.0000  -1.2651   0.0000   0.0000   0.0000   0.3196
  14.800   0.9492   0.21147   0.20542  -0.0811  0.1964  1.0000  -1.2721   0.0000   0.0000   0.0000   0.3196
  14.900   0.9527   0.20974   0.20368  -0.0816  0.1945  1.0000  -1.2814   0.0000   0.0000   0.0000   0.3196
  15.000   0.9561   0.20787   0.20180  -0.0822  0.1919  1.0000  -1.2891   0.0000   0.0000   0.0000   0.3198
  15.100   0.9584   0.20653   0.20045  -0.0830  0.1887  1.0000  -1.2922   0.0000   0.0000   0.0000   0.3202
  15.200   0.9578   0.20538   0.19929  -0.0839  0.1853  1.0000  -1.2872   0.0000   0.0000   0.0000   0.3211
  15.300   0.9577   0.20524   0.19913  -0.0848  0.1819  1.0000  -1.2828   0.0000   0.0000   0.0000   0.3219
  15.400   0.9583   0.20580   0.19968  -0.0856  0.1788  1.0000  -1.2808   0.0000   0.0000   0.0000   0.3225
  15.500   0.9595   0.20676   0.20064  -0.0862  0.1758  1.0000  -1.2815   0.0000   0.0000   0.0000   0.3228
  15.600   0.9614   0.20796   0.20182  -0.0867  0.1729  1.0000  -1.2855   0.0000   0.0000   0.0000   0.3230
  15.700   0.9641   0.20930   0.20315  -0.0870  0.1699  1.0000  -1.2938   0.0000   0.0000   0.0000   0.3229
  15.800   0.9680   0.21078   0.20461  -0.0870  0.1668  1.0000  -1.3087   0.0000   0.0000   0.0000   0.3223
  15.900   0.9739   0.21249   0.20632  -0.0866  0.1635  1.0000  -1.3342   0.0000   0.0000   0.0000   0.3212
  16.000   0.9863   0.21513   0.20895  -0.0849  0.1592  1.0000  -1.3925   0.0000   0.0000   0.0000   0.3181
  16.100   0.9945   0.23523   0.22900  -0.0817  0.1497  1.0000  -1.4305   0.0000   0.0000   0.0000   0.3142
  16.200   0.9941   0.23587   0.22964  -0.0827  0.1494  1.0000  -1.4224   0.0000   0.0000   0.0000   0.3151
  16.300   0.9936   0.23611   0.22987  -0.0837  0.1491  1.0000  -1.4148   0.0000   0.0000   0.0000   0.3160
  16.400   0.9932   0.23568   0.22943  -0.0848  0.1485  1.0000  -1.4076   0.0000   0.0000   0.0000   0.3170
  16.500   0.9926   0.23389   0.22763  -0.0861  0.1472  1.0000  -1.3999   0.0000   0.0000   0.0000   0.3182
  16.600   0.9887   0.23188   0.22560  -0.0878  0.1456  1.0000  -1.3788   0.0000   0.0000   0.0000   0.3201
  16.700   0.9844   0.23026   0.22398  -0.0897  0.1432  1.0000  -1.3542   0.0000   0.0000   0.0000   0.3222
  16.800   0.9813   0.22973   0.22344  -0.0915  0.1395  1.0000  -1.3329   0.0000   0.0000   0.0000   0.3242
  16.900   0.9803   0.23032   0.22403  -0.0929  0.1343  1.0000  -1.3229   0.0000   0.0000   0.0000   0.3255
  17.000   0.9811   0.23141   0.22511  -0.0936  0.1280  1.0000  -1.3271   0.0000   0.0000   0.0000   0.3260
  17.100   0.9842   0.23244   0.22612  -0.0936  0.1207  1.0000  -1.3526   0.0000   0.0000   0.0000   0.3254
  17.400   0.9989   0.24815   0.24176  -0.0878  0.0990  1.0000  -1.5069   0.0000   0.0000   0.0000   0.3177
  17.500   1.0003   0.24487   0.23847  -0.0895  0.0970  1.0000  -1.5088   0.0000   0.0000   0.0000   0.3191
  17.600   1.0000   0.24346   0.23705  -0.0915  0.0944  1.0000  -1.4938   0.0000   0.0000   0.0000   0.3209
  17.700   0.9988   0.24368   0.23726  -0.0932  0.0918  1.0000  -1.4756   0.0000   0.0000   0.0000   0.3225
  17.800   0.9989   0.24455   0.23813  -0.0944  0.0887  1.0000  -1.4684   0.0000   0.0000   0.0000   0.3236
  17.900   1.0012   0.24559   0.23917  -0.0949  0.0846  1.0000  -1.4871   0.0000   0.0000   0.0000   0.3237
  18.200   1.0172   0.25582   0.24932  -0.0906  0.0741  1.0000  -1.6616   0.0000   0.0000   0.0000   0.3173
  18.300   1.0153   0.25685   0.25035  -0.0924  0.0737  1.0000  -1.6312   0.0000   0.0000   0.0000   0.3191
  18.400   1.0133   0.25773   0.25123  -0.0943  0.0730  1.0000  -1.5967   0.0000   0.0000   0.0000   0.3211
  18.500   1.0109   0.25866   0.25216  -0.0964  0.0720  1.0000  -1.5593   0.0000   0.0000   0.0000   0.3232
  18.600   1.0088   0.25990   0.25341  -0.0983  0.0705  1.0000  -1.5252   0.0000   0.0000   0.0000   0.3251
  18.700   1.0080   0.26155   0.25506  -0.0998  0.0682  1.0000  -1.5029   0.0000   0.0000   0.0000   0.3266
  18.800   1.0083   0.26337   0.25689  -0.1008  0.0655  1.0000  -1.4957   0.0000   0.0000   0.0000   0.3274
  18.900   1.0093   0.26515   0.25866  -0.1015  0.0624  1.0000  -1.5025   0.0000   0.0000   0.0000   0.3278
  19.000   1.0112   0.26668   0.26018  -0.1017  0.0591  1.0000  -1.5298   0.0000   0.0000   0.0000   0.3276
  19.200   1.0197   0.27636   0.26978  -0.0959  0.0498  1.0000  -1.7356   0.0000   0.0000   0.0000   0.3206
  19.300   1.0199   0.27805   0.27147  -0.0969  0.0497  1.0000  -1.7216   0.0000   0.0000   0.0000   0.3214
  19.400   1.0202   0.27959   0.27301  -0.0980  0.0495  1.0000  -1.7072   0.0000   0.0000   0.0000   0.3224
  19.500   1.0205   0.28089   0.27431  -0.0993  0.0491  1.0000  -1.6916   0.0000   0.0000   0.0000   0.3234
  19.600   1.0202   0.28203   0.27546  -0.1007  0.0487  1.0000  -1.6682   0.0000   0.0000   0.0000   0.3247
  19.700   1.0194   0.28318   0.27662  -0.1024  0.0480  1.0000  -1.6375   0.0000   0.0000   0.0000   0.3263
  19.800   1.0181   0.28452   0.27796  -0.1041  0.0472  1.0000  -1.6040   0.0000   0.0000   0.0000   0.3279
  19.900   1.0173   0.28615   0.27960  -0.1056  0.0462  1.0000  -1.5736   0.0000   0.0000   0.0000   0.3294
  20.000   1.0172   0.28806   0.28152  -0.1069  0.0448  1.0000  -1.5511   0.0000   0.0000   0.0000   0.3305
  20.100   1.0173   0.29013   0.28359  -0.1079  0.0433  1.0000  -1.5368   0.0000   0.0000   0.0000   0.3313
  20.200   1.0176   0.29224   0.28571  -0.1087  0.0418  1.0000  -1.5286   0.0000   0.0000   0.0000   0.3319
  20.300   1.0180   0.29435   0.28782  -0.1094  0.0402  1.0000  -1.5249   0.0000   0.0000   0.0000   0.3324
  20.400   1.0184   0.29643   0.28991  -0.1099  0.0387  1.0000  -1.5247   0.0000   0.0000   0.0000   0.3327
  20.500   1.0187   0.29847   0.29195  -0.1105  0.0372  1.0000  -1.5277   0.0000   0.0000   0.0000   0.3330
  20.600   1.0191   0.30046   0.29395  -0.1109  0.0358  1.0000  -1.5342   0.0000   0.0000   0.0000   0.3333
  20.700   1.0196   0.30239   0.29588  -0.1113  0.0344  1.0000  -1.5448   0.0000   0.0000   0.0000   0.3334
  20.800   1.0201   0.30424   0.29773  -0.1116  0.0331  1.0000  -1.5605   0.0000   0.0000   0.0000   0.3334
  20.900   1.0207   0.30600   0.29949  -0.1117  0.0317  1.0000  -1.5839   0.0000   0.0000   0.0000   0.3333
  21.000   1.0215   0.30761   0.30110  -0.1116  0.0303  1.0000  -1.6207   0.0000   0.0000   0.0000   0.3330
  21.100   1.0234   0.30904   0.30252  -0.1109  0.0286  1.0000  -1.6927   0.0000   0.0000   0.0000   0.3318
  21.200   1.0254   0.31236   0.30583  -0.1082  0.0262  1.0000  -1.8219   0.0000   0.0000   0.0000   0.3287
  21.300   1.0191   0.31775   0.31124  -0.1081  0.0254  1.0000  -1.7572   0.0000   0.0000   0.0000   0.3292
  21.400   1.0134   0.32269   0.31613  -0.1085  0.0250  1.0000  -1.6773   0.0000   0.0000   0.0000   0.3301
  21.500   1.0125   0.32433   0.31778  -0.1090  0.0249  1.0000  -1.6667   0.0000   0.0000   0.0000   0.3306
  21.600   1.0115   0.32586   0.31932  -0.1096  0.0248  1.0000  -1.6565   0.0000   0.0000   0.0000   0.3311
  21.700   1.0106   0.32726   0.32073  -0.1102  0.0247  1.0000  -1.6470   0.0000   0.0000   0.0000   0.3316
  21.800   1.0097   0.32852   0.32200  -0.1108  0.0245  1.0000  -1.6381   0.0000   0.0000   0.0000   0.3322
  21.900   1.0089   0.32966   0.32315  -0.1115  0.0243  1.0000  -1.6295   0.0000   0.0000   0.0000   0.3327
  22.000   1.0080   0.33079   0.32430  -0.1121  0.0240  1.0000  -1.6199   0.0000   0.0000   0.0000   0.3333
  22.100   1.0066   0.33202   0.32554  -0.1126  0.0236  1.0000  -1.6055   0.0000   0.0000   0.0000   0.3339
  22.200   1.0041   0.33333   0.32686  -0.1132  0.0234  1.0000  -1.5843   0.0000   0.0000   0.0000   0.3345
  22.300   1.0015   0.33467   0.32822  -0.1136  0.0231  1.0000  -1.5634   0.0000   0.0000   0.0000   0.3351
  22.400   0.9985   0.33600   0.32957  -0.1138  0.0228  1.0000  -1.5429   0.0000   0.0000   0.0000   0.3356
  22.500   0.9948   0.33725   0.33083  -0.1139  0.0225  1.0000  -1.5224   0.0000   0.0000   0.0000   0.3359
  22.600   0.9873   0.33773   0.33135  -0.1133  0.0223  1.0000  -1.4971   0.0000   0.0000   0.0000   0.3361
  22.700   0.9326   0.32687   0.32063  -0.1039  0.0233  1.0000  -1.4068   0.0000   0.0000   0.0000   0.3334
  22.800   0.9237   0.32592   0.31972  -0.1030  0.0231  1.0000  -1.3788   0.0000   0.0000   0.0000   0.3335
  22.900   0.9168   0.32541   0.31924  -0.1025  0.0229  1.0000  -1.3538   0.0000   0.0000   0.0000   0.3337
  23.000   0.9111   0.32516   0.31901  -0.1022  0.0227  1.0000  -1.3308   0.0000   0.0000   0.0000   0.3340
  23.100   0.9062   0.32509   0.31896  -0.1020  0.0224  1.0000  -1.3098   0.0000   0.0000   0.0000   0.3343
  23.200   0.9017   0.32513   0.31903  -0.1018  0.0221  1.0000  -1.2904   0.0000   0.0000   0.0000   0.3345
  23.300   0.8977   0.32526   0.31918  -0.1016  0.0218  1.0000  -1.2726   0.0000   0.0000   0.0000   0.3348
  23.400   0.8939   0.32544   0.31939  -0.1015  0.0215  1.0000  -1.2562   0.0000   0.0000   0.0000   0.3350
  23.500   0.8904   0.32567   0.31963  -0.1013  0.0212  1.0000  -1.2411   0.0000   0.0000   0.0000   0.3352
  23.600   0.8870   0.32592   0.31991  -0.1012  0.0209  1.0000  -1.2272   0.0000   0.0000   0.0000   0.3354
  23.700   0.8839   0.32620   0.32021  -0.1011  0.0206  1.0000  -1.2145   0.0000   0.0000   0.0000   0.3355
  23.800   0.8808   0.32649   0.32052  -0.1010  0.0203  1.0000  -1.2028   0.0000   0.0000   0.0000   0.3357
  23.900   0.8779   0.32680   0.32084  -0.1009  0.0200  1.0000  -1.1920   0.0000   0.0000   0.0000   0.3358
  24.000   0.8752   0.32712   0.32118  -0.1008  0.0197  1.0000  -1.1822   0.0000   0.0000   0.0000   0.3360
  24.100   0.8726   0.32746   0.32153  -0.1007  0.0194  1.0000  -1.1732   0.0000   0.0000   0.0000   0.3361
  24.200   0.8701   0.32780   0.32189  -0.1007  0.0191  1.0000  -1.1649   0.0000   0.0000   0.0000   0.3363
  24.300   0.8677   0.32816   0.32226  -0.1006  0.0189  1.0000  -1.1574   0.0000   0.0000   0.0000   0.3364
  24.400   0.8654   0.32852   0.32264  -0.1006  0.0186  1.0000  -1.1507   0.0000   0.0000   0.0000   0.3365
  24.500   0.8632   0.32889   0.32303  -0.1005  0.0183  1.0000  -1.1446   0.0000   0.0000   0.0000   0.3367
  24.600   0.8611   0.32927   0.32342  -0.1005  0.0180  1.0000  -1.1392   0.0000   0.0000   0.0000   0.3368
  24.700   0.8591   0.32965   0.32382  -0.1005  0.0177  1.0000  -1.1345   0.0000   0.0000   0.0000   0.3369
  24.800   0.8572   0.33004   0.32422  -0.1005  0.0174  1.0000  -1.1305   0.0000   0.0000   0.0000   0.3370
  24.900   0.8553   0.33043   0.32462  -0.1005  0.0172  1.0000  -1.1272   0.0000   0.0000   0.0000   0.3371
  25.000   0.8535   0.33082   0.32503  -0.1005  0.0169  1.0000  -1.1246   0.0000   0.0000   0.0000   0.3373
  25.100   0.8518   0.33121   0.32543  -0.1005  0.0166  1.0000  -1.1227   0.0000   0.0000   0.0000   0.3374
  25.200   0.8501   0.33160   0.32584  -0.1005  0.0164  1.0000  -1.1217   0.0000   0.0000   0.0000   0.3375
  25.300   0.8485   0.33199   0.32624  -0.1005  0.0161  1.0000  -1.1215   0.0000   0.0000   0.0000   0.3375
  25.400   0.8470   0.33237   0.32664  -0.1005  0.0159  1.0000  -1.1221   0.0000   0.0000   0.0000   0.3376
  25.500   0.8455   0.33275   0.32703  -0.1006  0.0156  1.0000  -1.1238   0.0000   0.0000   0.0000   0.3377
  25.600   0.8440   0.33313   0.32741  -0.1006  0.0154  1.0000  -1.1265   0.0000   0.0000   0.0000   0.3378
  25.700   0.8426   0.33349   0.32779  -0.1006  0.0151  1.0000  -1.1303   0.0000   0.0000   0.0000   0.3378
  25.800   0.8412   0.33384   0.32815  -0.1005  0.0149  1.0000  -1.1356   0.0000   0.0000   0.0000   0.3378
  25.900   0.8399   0.33418   0.32851  -0.1005  0.0147  1.0000  -1.1423   0.0000   0.0000   0.0000   0.3378
  26.000   0.8385   0.33452   0.32885  -0.1005  0.0144  1.0000  -1.1508   0.0000   0.0000   0.0000   0.3377
  26.100   0.8373   0.33484   0.32918  -0.1004  0.0142  1.0000  -1.1613   0.0000   0.0000   0.0000   0.3377
  26.200   0.8360   0.33516   0.32951  -0.1002  0.0140  1.0000  -1.1743   0.0000   0.0000   0.0000   0.3375
  26.300   0.8349   0.33551   0.32987  -0.1000  0.0137  1.0000  -1.1904   0.0000   0.0000   0.0000   0.3372
  26.400   0.8339   0.33597   0.33033  -0.0996  0.0135  1.0000  -1.2106   0.0000   0.0000   0.0000   0.3368
  26.500   0.8333   0.33688   0.33125  -0.0990  0.0132  1.0000  -1.2370   0.0000   0.0000   0.0000   0.3359
  26.600   0.8315   0.33945   0.33385  -0.0981  0.0127  1.0000  -1.2184   0.0000   0.0000   0.0000   0.3350


