xflr5 v6.61

 Calculated polar for: NACA65-015

 1 1 Reynolds number fixed          Mach number fixed         

 xtrf =   1.000 (top)        1.000 (bottom)
 Mach =   0.000     Re =     0.500 e 6     Ncrit =   9.000

  alpha     CL        CD       CDp       Cm    Top Xtr Bot Xtr   Cpmin    Chinge    XCp    
 ------- -------- --------- --------- -------- ------- ------- -------- --------- ---------
 -10.000  -0.9205   0.02477   0.01861  -0.0209  0.9861  0.0232  -4.9078   0.0000   0.0000   0.0000   0.2154
  -9.900  -0.9078   0.02432   0.01812  -0.0216  0.9756  0.0235  -4.8162   0.0000   0.0000   0.0000   0.2144
  -9.800  -0.8962   0.02389   0.01764  -0.0220  0.9673  0.0237  -4.7286   0.0000   0.0000   0.0000   0.2138
  -9.700  -0.8864   0.02352   0.01722  -0.0220  0.9591  0.0239  -4.6486   0.0000   0.0000   0.0000   0.2136
  -9.600  -0.8788   0.02321   0.01686  -0.0216  0.9509  0.0242  -4.5769   0.0000   0.0000   0.0000   0.2140
  -9.500  -0.8723   0.02293   0.01653  -0.0209  0.9433  0.0244  -4.5198   0.0000   0.0000   0.0000   0.2147
  -9.400  -0.8661   0.02266   0.01621  -0.0201  0.9365  0.0245  -4.4639   0.0000   0.0000   0.0000   0.2155
  -9.300  -0.8601   0.02242   0.01592  -0.0194  0.9304  0.0247  -4.4078   0.0000   0.0000   0.0000   0.2163
  -9.200  -0.8538   0.02218   0.01563  -0.0187  0.9246  0.0249  -4.3498   0.0000   0.0000   0.0000   0.2171
  -9.100  -0.8473   0.02197   0.01537  -0.0180  0.9192  0.0250  -4.2905   0.0000   0.0000   0.0000   0.2178
  -9.000  -0.8405   0.02157   0.01493  -0.0174  0.9150  0.0253  -4.2367   0.0000   0.0000   0.0000   0.2185
  -8.900  -0.8334   0.02085   0.01420  -0.0169  0.9109  0.0258  -4.1902   0.0000   0.0000   0.0000   0.2190
  -8.800  -0.8278   0.02046   0.01380  -0.0162  0.9067  0.0261  -4.1339   0.0000   0.0000   0.0000   0.2199
  -8.700  -0.8214   0.02015   0.01348  -0.0156  0.9019  0.0265  -4.0711   0.0000   0.0000   0.0000   0.2205
  -8.600  -0.8154   0.01989   0.01320  -0.0150  0.8980  0.0268  -4.0090   0.0000   0.0000   0.0000   0.2213
  -8.500  -0.8086   0.01963   0.01292  -0.0145  0.8936  0.0272  -3.9450   0.0000   0.0000   0.0000   0.2218
  -8.400  -0.8021   0.01939   0.01266  -0.0139  0.8898  0.0275  -3.8834   0.0000   0.0000   0.0000   0.2226
  -8.300  -0.7954   0.01914   0.01238  -0.0133  0.8861  0.0279  -3.8226   0.0000   0.0000   0.0000   0.2233
  -8.200  -0.7889   0.01889   0.01211  -0.0127  0.8822  0.0282  -3.7635   0.0000   0.0000   0.0000   0.2240
  -8.000  -0.7762   0.01841   0.01156  -0.0114  0.8751  0.0287  -3.6491   0.0000   0.0000   0.0000   0.2256
  -7.900  -0.7697   0.01817   0.01129  -0.0108  0.8716  0.0290  -3.5915   0.0000   0.0000   0.0000   0.2264
  -7.800  -0.7630   0.01795   0.01103  -0.0101  0.8687  0.0293  -3.5334   0.0000   0.0000   0.0000   0.2272
  -7.700  -0.7554   0.01771   0.01076  -0.0097  0.8650  0.0296  -3.4725   0.0000   0.0000   0.0000   0.2278
  -7.600  -0.7479   0.01748   0.01051  -0.0092  0.8617  0.0299  -3.4120   0.0000   0.0000   0.0000   0.2284
  -7.500  -0.7405   0.01728   0.01027  -0.0087  0.8591  0.0302  -3.3513   0.0000   0.0000   0.0000   0.2291
  -7.400  -0.7322   0.01708   0.01004  -0.0084  0.8555  0.0304  -3.2878   0.0000   0.0000   0.0000   0.2294
  -7.300  -0.7251   0.01681   0.00974  -0.0079  0.8523  0.0307  -3.2313   0.0000   0.0000   0.0000   0.2302
  -7.200  -0.7203   0.01638   0.00928  -0.0071  0.8495  0.0312  -3.1863   0.0000   0.0000   0.0000   0.2314
  -7.100  -0.7138   0.01605   0.00893  -0.0065  0.8464  0.0317  -3.1314   0.0000   0.0000   0.0000   0.2322
  -7.000  -0.7063   0.01579   0.00866  -0.0061  0.8432  0.0323  -3.0711   0.0000   0.0000   0.0000   0.2328
  -6.900  -0.6984   0.01557   0.00843  -0.0057  0.8405  0.0328  -3.0089   0.0000   0.0000   0.0000   0.2333
  -6.800  -0.6904   0.01538   0.00821  -0.0053  0.8383  0.0334  -2.9466   0.0000   0.0000   0.0000   0.2339
  -6.700  -0.6817   0.01518   0.00800  -0.0050  0.8353  0.0340  -2.8832   0.0000   0.0000   0.0000   0.2343
  -6.600  -0.6730   0.01499   0.00780  -0.0047  0.8325  0.0347  -2.8229   0.0000   0.0000   0.0000   0.2347
  -6.500  -0.6641   0.01483   0.00761  -0.0045  0.8299  0.0354  -2.7690   0.0000   0.0000   0.0000   0.2351
  -6.400  -0.6550   0.01470   0.00744  -0.0042  0.8278  0.0362  -2.7141   0.0000   0.0000   0.0000   0.2355
  -6.300  -0.6470   0.01444   0.00717  -0.0038  0.8251  0.0371  -2.6658   0.0000   0.0000   0.0000   0.2361
  -6.200  -0.6389   0.01418   0.00691  -0.0035  0.8223  0.0383  -2.6156   0.0000   0.0000   0.0000   0.2366
  -6.100  -0.6300   0.01400   0.00672  -0.0033  0.8197  0.0395  -2.5612   0.0000   0.0000   0.0000   0.2370
  -6.000  -0.6209   0.01384   0.00654  -0.0030  0.8174  0.0407  -2.5074   0.0000   0.0000   0.0000   0.2374
  -5.900  -0.6116   0.01370   0.00635  -0.0028  0.8153  0.0420  -2.4543   0.0000   0.0000   0.0000   0.2378
  -5.800  -0.6024   0.01350   0.00615  -0.0026  0.8125  0.0435  -2.4032   0.0000   0.0000   0.0000   0.2382
  -5.700  -0.5936   0.01328   0.00595  -0.0023  0.8099  0.0457  -2.3520   0.0000   0.0000   0.0000   0.2386
  -5.600  -0.5843   0.01312   0.00577  -0.0021  0.8075  0.0482  -2.2992   0.0000   0.0000   0.0000   0.2390
  -5.500  -0.5754   0.01292   0.00558  -0.0018  0.8055  0.0518  -2.2490   0.0000   0.0000   0.0000   0.2395
  -5.400  -0.5665   0.01271   0.00539  -0.0016  0.8034  0.0578  -2.1990   0.0000   0.0000   0.0000   0.2400
  -5.300  -0.5582   0.01241   0.00518  -0.0013  0.8008  0.0706  -2.1510   0.0000   0.0000   0.0000   0.2406
  -5.200  -0.5515   0.01198   0.00492  -0.0008  0.7983  0.1007  -2.1070   0.0000   0.0000   0.0000   0.2415
  -5.100  -0.5458   0.01145   0.00463  -0.0002  0.7960  0.1493  -2.0649   0.0000   0.0000   0.0000   0.2426
  -5.000  -0.5404   0.01090   0.00434   0.0004  0.7940  0.2044  -2.0226   0.0000   0.0000   0.0000   0.2438
  -4.900  -0.5351   0.01034   0.00404   0.0010  0.7921  0.2647  -1.9802   0.0000   0.0000   0.0000   0.2450
  -4.800  -0.5298   0.00972   0.00375   0.0015  0.7896  0.3309  -1.9377   0.0000   0.0000   0.0000   0.2462
  -4.700  -0.5250   0.00908   0.00345   0.0022  0.7871  0.4040  -1.8964   0.0000   0.0000   0.0000   0.2476
  -4.600  -0.5191   0.00861   0.00328   0.0029  0.7848  0.4723  -1.8511   0.0000   0.0000   0.0000   0.2490
  -4.500  -0.5106   0.00839   0.00320   0.0032  0.7829  0.5123  -1.7987   0.0000   0.0000   0.0000   0.2499
  -4.400  -0.5007   0.00830   0.00316   0.0034  0.7811  0.5357  -1.7429   0.0000   0.0000   0.0000   0.2505
  -4.300  -0.4903   0.00825   0.00314   0.0035  0.7792  0.5520  -1.6924   0.0000   0.0000   0.0000   0.2509
  -4.200  -0.4794   0.00821   0.00312   0.0035  0.7769  0.5643  -1.6417   0.0000   0.0000   0.0000   0.2511
  -4.100  -0.4684   0.00819   0.00310   0.0035  0.7747  0.5745  -1.5911   0.0000   0.0000   0.0000   0.2513
  -4.000  -0.4574   0.00817   0.00308   0.0035  0.7727  0.5821  -1.5408   0.0000   0.0000   0.0000   0.2516
  -3.900  -0.4463   0.00817   0.00305   0.0035  0.7709  0.5892  -1.4904   0.0000   0.0000   0.0000   0.2518
  -3.800  -0.4352   0.00815   0.00303   0.0035  0.7693  0.5946  -1.4407   0.0000   0.0000   0.0000   0.2521
  -3.700  -0.4241   0.00816   0.00301   0.0035  0.7677  0.6005  -1.3912   0.0000   0.0000   0.0000   0.2523
  -3.600  -0.4127   0.00815   0.00299   0.0034  0.7657  0.6062  -1.3415   0.0000   0.0000   0.0000   0.2523
  -3.500  -0.4015   0.00814   0.00299   0.0033  0.7636  0.6111  -1.2927   0.0000   0.0000   0.0000   0.2525
  -3.400  -0.3902   0.00814   0.00296   0.0033  0.7617  0.6167  -1.2440   0.0000   0.0000   0.0000   0.2527
  -3.300  -0.3790   0.00814   0.00296   0.0033  0.7599  0.6225  -1.1961   0.0000   0.0000   0.0000   0.2529
  -3.200  -0.3680   0.00817   0.00298   0.0033  0.7582  0.6299  -1.1487   0.0000   0.0000   0.0000   0.2534
  -3.100  -0.3571   0.00821   0.00302   0.0034  0.7567  0.6377  -1.1019   0.0000   0.0000   0.0000   0.2539
  -3.000  -0.3462   0.00828   0.00307   0.0035  0.7551  0.6460  -1.0555   0.0000   0.0000   0.0000   0.2546
  -2.900  -0.3352   0.00831   0.00314   0.0036  0.7531  0.6527  -1.0093   0.0000   0.0000   0.0000   0.2551
  -2.800  -0.3240   0.00836   0.00319   0.0036  0.7511  0.6588  -0.9634   0.0000   0.0000   0.0000   0.2556
  -2.700  -0.3128   0.00839   0.00319   0.0035  0.7492  0.6633  -0.9181   0.0000   0.0000   0.0000   0.2560
  -2.600  -0.3014   0.00840   0.00321   0.0035  0.7474  0.6663  -0.8729   0.0000   0.0000   0.0000   0.2564
  -2.500  -0.2900   0.00841   0.00322   0.0035  0.7458  0.6690  -0.8282   0.0000   0.0000   0.0000   0.2567
  -2.400  -0.2786   0.00843   0.00320   0.0034  0.7444  0.6718  -0.7842   0.0000   0.0000   0.0000   0.2570
  -2.300  -0.2672   0.00845   0.00318   0.0033  0.7431  0.6744  -0.7407   0.0000   0.0000   0.0000   0.2572
  -2.200  -0.2557   0.00845   0.00316   0.0032  0.7414  0.6765  -0.6986   0.0000   0.0000   0.0000   0.2573
  -2.100  -0.2441   0.00842   0.00315   0.0031  0.7396  0.6782  -0.6607   0.0000   0.0000   0.0000   0.2574
  -2.000  -0.2325   0.00841   0.00314   0.0029  0.7377  0.6797  -0.6232   0.0000   0.0000   0.0000   0.2575
  -1.900  -0.2209   0.00840   0.00313   0.0028  0.7360  0.6812  -0.5861   0.0000   0.0000   0.0000   0.2576
  -1.800  -0.2093   0.00840   0.00311   0.0027  0.7344  0.6827  -0.5495   0.0000   0.0000   0.0000   0.2577
  -1.700  -0.1977   0.00839   0.00308   0.0025  0.7328  0.6842  -0.5372   0.0000   0.0000   0.0000   0.2578
  -1.600  -0.1861   0.00839   0.00306   0.0024  0.7314  0.6857  -0.5315   0.0000   0.0000   0.0000   0.2580
  -1.500  -0.1746   0.00840   0.00303   0.0023  0.7301  0.6872  -0.5259   0.0000   0.0000   0.0000   0.2581
  -1.400  -0.1629   0.00839   0.00300   0.0021  0.7285  0.6887  -0.5205   0.0000   0.0000   0.0000   0.2579
  -1.300  -0.1512   0.00838   0.00298   0.0019  0.7268  0.6901  -0.5150   0.0000   0.0000   0.0000   0.2577
  -1.200  -0.1396   0.00835   0.00297   0.0018  0.7252  0.6912  -0.5094   0.0000   0.0000   0.0000   0.2577
  -1.100  -0.1279   0.00834   0.00296   0.0016  0.7236  0.6925  -0.5038   0.0000   0.0000   0.0000   0.2578
  -1.000  -0.1163   0.00833   0.00295   0.0015  0.7221  0.6937  -0.4982   0.0000   0.0000   0.0000   0.2579
  -0.900  -0.1047   0.00833   0.00294   0.0014  0.7207  0.6951  -0.4927   0.0000   0.0000   0.0000   0.2581
  -0.800  -0.0931   0.00833   0.00293   0.0012  0.7193  0.6964  -0.4873   0.0000   0.0000   0.0000   0.2582
  -0.700  -0.0815   0.00833   0.00292   0.0011  0.7180  0.6979  -0.4820   0.0000   0.0000   0.0000   0.2585
  -0.600  -0.0699   0.00834   0.00290   0.0009  0.7167  0.6993  -0.4767   0.0000   0.0000   0.0000   0.2587
  -0.500  -0.0582   0.00834   0.00290   0.0008  0.7151  0.7008  -0.4714   0.0000   0.0000   0.0000   0.2583
  -0.400  -0.0465   0.00834   0.00289   0.0006  0.7135  0.7024  -0.4662   0.0000   0.0000   0.0000   0.2575
  -0.300  -0.0349   0.00833   0.00288   0.0004  0.7119  0.7038  -0.4609   0.0000   0.0000   0.0000   0.2569
  -0.200  -0.0232   0.00831   0.00288   0.0003  0.7104  0.7050  -0.4555   0.0000   0.0000   0.0000   0.2568
  -0.100  -0.0116   0.00831   0.00288   0.0001  0.7089  0.7062  -0.4501   0.0000   0.0000   0.0000   0.2567
   0.000   0.0000   0.00830   0.00289   0.0000  0.7076  0.7076  -0.4447   0.0000   0.0000   0.0000   0.0356
   0.100   0.0116   0.00831   0.00288  -0.0001  0.7062  0.7089  -0.4501   0.0000   0.0000   0.0000   0.2567
   0.200   0.0232   0.00831   0.00288  -0.0003  0.7050  0.7104  -0.4555   0.0000   0.0000   0.0000   0.2568
   0.300   0.0349   0.00833   0.00288  -0.0004  0.7038  0.7119  -0.4609   0.0000   0.0000   0.0000   0.2569
   0.400   0.0465   0.00834   0.00289  -0.0006  0.7024  0.7135  -0.4662   0.0000   0.0000   0.0000   0.2575
   0.500   0.0582   0.00834   0.00290  -0.0008  0.7008  0.7152  -0.4714   0.0000   0.0000   0.0000   0.2583
   0.600   0.0699   0.00834   0.00290  -0.0009  0.6993  0.7167  -0.4767   0.0000   0.0000   0.0000   0.2587
   0.700   0.0815   0.00833   0.00292  -0.0011  0.6979  0.7180  -0.4820   0.0000   0.0000   0.0000   0.2585
   0.800   0.0931   0.00833   0.00293  -0.0012  0.6964  0.7193  -0.4873   0.0000   0.0000   0.0000   0.2582
   0.900   0.1047   0.00833   0.00294  -0.0014  0.6951  0.7207  -0.4927   0.0000   0.0000   0.0000   0.2581
   1.000   0.1163   0.00833   0.00295  -0.0015  0.6937  0.7221  -0.4982   0.0000   0.0000   0.0000   0.2579
   1.100   0.1279   0.00834   0.00296  -0.0016  0.6925  0.7236  -0.5038   0.0000   0.0000   0.0000   0.2578
   1.200   0.1396   0.00835   0.00297  -0.0018  0.6912  0.7252  -0.5094   0.0000   0.0000   0.0000   0.2577
   1.300   0.1512   0.00838   0.00298  -0.0019  0.6901  0.7268  -0.5150   0.0000   0.0000   0.0000   0.2577
   1.400   0.1629   0.00839   0.00300  -0.0021  0.6887  0.7285  -0.5205   0.0000   0.0000   0.0000   0.2579
   1.500   0.1746   0.00840   0.00303  -0.0023  0.6872  0.7301  -0.5259   0.0000   0.0000   0.0000   0.2581
   1.600   0.1861   0.00839   0.00306  -0.0024  0.6857  0.7314  -0.5315   0.0000   0.0000   0.0000   0.2580
   1.700   0.1977   0.00839   0.00308  -0.0025  0.6842  0.7328  -0.5372   0.0000   0.0000   0.0000   0.2578
   1.800   0.2093   0.00840   0.00311  -0.0027  0.6827  0.7344  -0.5495   0.0000   0.0000   0.0000   0.2577
   1.900   0.2209   0.00840   0.00313  -0.0028  0.6812  0.7360  -0.5861   0.0000   0.0000   0.0000   0.2576
   2.000   0.2325   0.00841   0.00314  -0.0029  0.6797  0.7377  -0.6232   0.0000   0.0000   0.0000   0.2575
   2.100   0.2441   0.00842   0.00315  -0.0031  0.6782  0.7396  -0.6607   0.0000   0.0000   0.0000   0.2574
   2.200   0.2557   0.00845   0.00316  -0.0032  0.6765  0.7414  -0.6986   0.0000   0.0000   0.0000   0.2573
   2.300   0.2672   0.00845   0.00318  -0.0033  0.6744  0.7431  -0.7407   0.0000   0.0000   0.0000   0.2572
   2.400   0.2786   0.00843   0.00320  -0.0034  0.6718  0.7444  -0.7842   0.0000   0.0000   0.0000   0.2570
   2.500   0.2900   0.00841   0.00322  -0.0035  0.6690  0.7458  -0.8282   0.0000   0.0000   0.0000   0.2567
   2.600   0.3014   0.00840   0.00321  -0.0035  0.6663  0.7474  -0.8729   0.0000   0.0000   0.0000   0.2564
   2.700   0.3128   0.00839   0.00319  -0.0035  0.6633  0.7492  -0.9181   0.0000   0.0000   0.0000   0.2560
   2.800   0.3240   0.00836   0.00319  -0.0036  0.6588  0.7511  -0.9634   0.0000   0.0000   0.0000   0.2556
   2.900   0.3352   0.00831   0.00314  -0.0036  0.6527  0.7531  -1.0093   0.0000   0.0000   0.0000   0.2551
   3.000   0.3462   0.00828   0.00307  -0.0035  0.6460  0.7551  -1.0555   0.0000   0.0000   0.0000   0.2546
   3.100   0.3571   0.00821   0.00302  -0.0034  0.6377  0.7567  -1.1019   0.0000   0.0000   0.0000   0.2539
   3.200   0.3680   0.00817   0.00298  -0.0033  0.6299  0.7582  -1.1487   0.0000   0.0000   0.0000   0.2534
   3.300   0.3790   0.00814   0.00296  -0.0033  0.6225  0.7599  -1.1961   0.0000   0.0000   0.0000   0.2529
   3.400   0.3902   0.00814   0.00296  -0.0033  0.6167  0.7617  -1.2440   0.0000   0.0000   0.0000   0.2527
   3.500   0.4015   0.00814   0.00299  -0.0033  0.6111  0.7636  -1.2927   0.0000   0.0000   0.0000   0.2525
   3.600   0.4127   0.00815   0.00299  -0.0034  0.6062  0.7657  -1.3415   0.0000   0.0000   0.0000   0.2523
   3.700   0.4241   0.00816   0.00301  -0.0035  0.6005  0.7677  -1.3912   0.0000   0.0000   0.0000   0.2523
   3.800   0.4352   0.00815   0.00303  -0.0035  0.5947  0.7693  -1.4407   0.0000   0.0000   0.0000   0.2521
   3.900   0.4463   0.00817   0.00305  -0.0035  0.5892  0.7709  -1.4904   0.0000   0.0000   0.0000   0.2518
   4.000   0.4574   0.00817   0.00308  -0.0035  0.5821  0.7727  -1.5408   0.0000   0.0000   0.0000   0.2516
   4.100   0.4684   0.00819   0.00310  -0.0035  0.5745  0.7747  -1.5911   0.0000   0.0000   0.0000   0.2513
   4.200   0.4794   0.00821   0.00312  -0.0035  0.5643  0.7769  -1.6417   0.0000   0.0000   0.0000   0.2511
   4.300   0.4903   0.00825   0.00314  -0.0035  0.5520  0.7792  -1.6924   0.0000   0.0000   0.0000   0.2509
   4.400   0.5007   0.00830   0.00316  -0.0034  0.5357  0.7811  -1.7430   0.0000   0.0000   0.0000   0.2505
   4.500   0.5106   0.00839   0.00320  -0.0032  0.5123  0.7829  -1.7987   0.0000   0.0000   0.0000   0.2499
   4.600   0.5191   0.00861   0.00328  -0.0029  0.4723  0.7849  -1.8511   0.0000   0.0000   0.0000   0.2490
   4.700   0.5250   0.00908   0.00345  -0.0022  0.4039  0.7871  -1.8964   0.0000   0.0000   0.0000   0.2476
   4.800   0.5298   0.00972   0.00375  -0.0015  0.3308  0.7896  -1.9377   0.0000   0.0000   0.0000   0.2462
   4.900   0.5351   0.01034   0.00404  -0.0010  0.2647  0.7921  -1.9803   0.0000   0.0000   0.0000   0.2450
   5.000   0.5404   0.01090   0.00434  -0.0004  0.2044  0.7940  -2.0226   0.0000   0.0000   0.0000   0.2438
   5.100   0.5458   0.01145   0.00463   0.0002  0.1493  0.7960  -2.0650   0.0000   0.0000   0.0000   0.2426
   5.200   0.5515   0.01198   0.00492   0.0008  0.1006  0.7983  -2.1070   0.0000   0.0000   0.0000   0.2415
   5.300   0.5582   0.01241   0.00518   0.0013  0.0706  0.8008  -2.1510   0.0000   0.0000   0.0000   0.2406
   5.400   0.5665   0.01271   0.00539   0.0015  0.0578  0.8034  -2.1990   0.0000   0.0000   0.0000   0.2400
   5.500   0.5754   0.01292   0.00558   0.0018  0.0518  0.8055  -2.2491   0.0000   0.0000   0.0000   0.2395
   5.600   0.5843   0.01312   0.00577   0.0021  0.0482  0.8075  -2.2993   0.0000   0.0000   0.0000   0.2390
   5.700   0.5937   0.01328   0.00595   0.0023  0.0457  0.8098  -2.3521   0.0000   0.0000   0.0000   0.2386
   5.800   0.6024   0.01350   0.00615   0.0026  0.0435  0.8125  -2.4033   0.0000   0.0000   0.0000   0.2382
   5.900   0.6117   0.01370   0.00635   0.0028  0.0420  0.8153  -2.4544   0.0000   0.0000   0.0000   0.2378
   6.000   0.6209   0.01384   0.00654   0.0030  0.0407  0.8174  -2.5075   0.0000   0.0000   0.0000   0.2374
   6.100   0.6300   0.01400   0.00672   0.0032  0.0395  0.8197  -2.5613   0.0000   0.0000   0.0000   0.2370
   6.200   0.6389   0.01418   0.00691   0.0035  0.0383  0.8222  -2.6157   0.0000   0.0000   0.0000   0.2366
   6.300   0.6470   0.01444   0.00717   0.0038  0.0371  0.8251  -2.6659   0.0000   0.0000   0.0000   0.2361
   6.400   0.6551   0.01470   0.00744   0.0042  0.0362  0.8278  -2.7142   0.0000   0.0000   0.0000   0.2355
   6.500   0.6642   0.01483   0.00761   0.0045  0.0354  0.8299  -2.7691   0.0000   0.0000   0.0000   0.2351
   6.600   0.6731   0.01499   0.00780   0.0047  0.0347  0.8325  -2.8230   0.0000   0.0000   0.0000   0.2347
   6.700   0.6818   0.01518   0.00800   0.0050  0.0340  0.8353  -2.8833   0.0000   0.0000   0.0000   0.2343
   6.800   0.6904   0.01538   0.00821   0.0053  0.0334  0.8383  -2.9467   0.0000   0.0000   0.0000   0.2339
   6.900   0.6985   0.01557   0.00843   0.0057  0.0328  0.8405  -3.0090   0.0000   0.0000   0.0000   0.2333
   7.000   0.7064   0.01579   0.00866   0.0061  0.0323  0.8432  -3.0712   0.0000   0.0000   0.0000   0.2328
   7.100   0.7139   0.01605   0.00893   0.0065  0.0317  0.8464  -3.1316   0.0000   0.0000   0.0000   0.2322
   7.200   0.7204   0.01638   0.00928   0.0070  0.0312  0.8495  -3.1865   0.0000   0.0000   0.0000   0.2314
   7.300   0.7252   0.01681   0.00974   0.0079  0.0307  0.8523  -3.2315   0.0000   0.0000   0.0000   0.2302
   7.400   0.7322   0.01708   0.01004   0.0084  0.0304  0.8555  -3.2881   0.0000   0.0000   0.0000   0.2295
   7.500   0.7406   0.01728   0.01027   0.0087  0.0302  0.8591  -3.3516   0.0000   0.0000   0.0000   0.2291
   7.600   0.7480   0.01748   0.01051   0.0092  0.0299  0.8617  -3.4123   0.0000   0.0000   0.0000   0.2284
   7.700   0.7555   0.01771   0.01076   0.0097  0.0296  0.8649  -3.4728   0.0000   0.0000   0.0000   0.2278
   7.800   0.7631   0.01795   0.01103   0.0101  0.0293  0.8686  -3.5337   0.0000   0.0000   0.0000   0.2273
   7.900   0.7698   0.01817   0.01129   0.0107  0.0290  0.8716  -3.5920   0.0000   0.0000   0.0000   0.2265
   8.000   0.7763   0.01841   0.01156   0.0114  0.0287  0.8751  -3.6496   0.0000   0.0000   0.0000   0.2257
   8.200   0.7890   0.01889   0.01211   0.0127  0.0282  0.8822  -3.7641   0.0000   0.0000   0.0000   0.2240
   8.300   0.7956   0.01914   0.01238   0.0133  0.0278  0.8860  -3.8231   0.0000   0.0000   0.0000   0.2233
   8.400   0.8023   0.01939   0.01266   0.0138  0.0275  0.8898  -3.8841   0.0000   0.0000   0.0000   0.2226
   8.500   0.8087   0.01963   0.01292   0.0145  0.0272  0.8936  -3.9456   0.0000   0.0000   0.0000   0.2219
   8.600   0.8156   0.01989   0.01320   0.0149  0.0268  0.8980  -4.0097   0.0000   0.0000   0.0000   0.2213
   8.700   0.8216   0.02014   0.01348   0.0156  0.0265  0.9019  -4.0718   0.0000   0.0000   0.0000   0.2205
   8.800   0.8280   0.02046   0.01380   0.0162  0.0261  0.9066  -4.1346   0.0000   0.0000   0.0000   0.2199
   8.900   0.8336   0.02085   0.01420   0.0169  0.0258  0.9108  -4.1909   0.0000   0.0000   0.0000   0.2190
   9.000   0.8407   0.02159   0.01494   0.0174  0.0252  0.9150  -4.2372   0.0000   0.0000   0.0000   0.2186
   9.100   0.8476   0.02197   0.01537   0.0180  0.0250  0.9192  -4.2913   0.0000   0.0000   0.0000   0.2179
   9.200   0.8540   0.02218   0.01563   0.0186  0.0249  0.9246  -4.3507   0.0000   0.0000   0.0000   0.2171
   9.300   0.8604   0.02242   0.01592   0.0193  0.0247  0.9305  -4.4087   0.0000   0.0000   0.0000   0.2164
   9.400   0.8664   0.02266   0.01621   0.0201  0.0245  0.9365  -4.4648   0.0000   0.0000   0.0000   0.2155
   9.500   0.8726   0.02293   0.01653   0.0208  0.0243  0.9433  -4.5207   0.0000   0.0000   0.0000   0.2147
   9.600   0.8791   0.02321   0.01686   0.0215  0.0242  0.9509  -4.5780   0.0000   0.0000   0.0000   0.2140
   9.700   0.8867   0.02352   0.01722   0.0220  0.0239  0.9590  -4.6498   0.0000   0.0000   0.0000   0.2136
   9.800   0.8965   0.02390   0.01764   0.0219  0.0237  0.9673  -4.7298   0.0000   0.0000   0.0000   0.2138
   9.900   0.9081   0.02432   0.01812   0.0215  0.0235  0.9756  -4.8173   0.0000   0.0000   0.0000   0.2145
  10.000   0.9208   0.02477   0.01861   0.0209  0.0232  0.9861  -4.9090   0.0000   0.0000   0.0000   0.2155
  10.100   0.9312   0.02520   0.01908   0.0206  0.0230  1.0000  -4.9923   0.0000   0.0000   0.0000   0.2159
  10.200   0.9405   0.02564   0.01955   0.0205  0.0228  1.0000  -5.0718   0.0000   0.0000   0.0000   0.2161
  10.300   0.9496   0.02609   0.02002   0.0205  0.0226  1.0000  -5.1511   0.0000   0.0000   0.0000   0.2162
  10.400   0.9585   0.02653   0.02050   0.0205  0.0224  1.0000  -5.2305   0.0000   0.0000   0.0000   0.2163
  10.500   0.9672   0.02698   0.02097   0.0205  0.0222  1.0000  -5.3099   0.0000   0.0000   0.0000   0.2163
  10.600   0.9756   0.02743   0.02145   0.0206  0.0220  1.0000  -5.3893   0.0000   0.0000   0.0000   0.2163
  10.700   0.9835   0.02790   0.02195   0.0207  0.0218  1.0000  -5.4664   0.0000   0.0000   0.0000   0.2163
  10.800   0.9912   0.02837   0.02245   0.0209  0.0216  1.0000  -5.5433   0.0000   0.0000   0.0000   0.2162
  10.900   0.9986   0.02885   0.02296   0.0210  0.0214  1.0000  -5.6198   0.0000   0.0000   0.0000   0.2160
  11.000   1.0058   0.02935   0.02350   0.0212  0.0213  1.0000  -5.6962   0.0000   0.0000   0.0000   0.2159
  11.100   1.0130   0.02987   0.02405   0.0214  0.0211  1.0000  -5.7722   0.0000   0.0000   0.0000   0.2157
  11.200   1.0203   0.03045   0.02465   0.0215  0.0209  1.0000  -5.8484   0.0000   0.0000   0.0000   0.2156
  11.300   1.0280   0.03111   0.02533   0.0216  0.0208  1.0000  -5.9252   0.0000   0.0000   0.0000   0.2155
  11.400   1.0368   0.03210   0.02635   0.0215  0.0205  1.0000  -5.9968   0.0000   0.0000   0.0000   0.2157
  11.500   1.0455   0.03473   0.02917   0.0212  0.0201  1.0000  -6.0004   0.0000   0.0000   0.0000   0.2161
  11.600   1.0466   0.03498   0.02948   0.0221  0.0200  1.0000  -6.0520   0.0000   0.0000   0.0000   0.2151
  11.700   1.0480   0.03533   0.02991   0.0229  0.0199  1.0000  -6.1016   0.0000   0.0000   0.0000   0.2142
  11.800   1.0497   0.03579   0.03044   0.0236  0.0198  1.0000  -6.1486   0.0000   0.0000   0.0000   0.2134
  11.900   1.0514   0.03634   0.03106   0.0243  0.0196  1.0000  -6.1922   0.0000   0.0000   0.0000   0.2127
  12.000   1.0530   0.03698   0.03179   0.0249  0.0195  1.0000  -6.2317   0.0000   0.0000   0.0000   0.2119
  12.100   1.0545   0.03773   0.03262   0.0255  0.0194  1.0000  -6.2667   0.0000   0.0000   0.0000   0.2113
  12.200   1.0556   0.03858   0.03356   0.0261  0.0193  1.0000  -6.2958   0.0000   0.0000   0.0000   0.2106
  12.300   1.0561   0.03953   0.03461   0.0267  0.0192  1.0000  -6.3183   0.0000   0.0000   0.0000   0.2098
  12.400   1.0560   0.04054   0.03572   0.0273  0.0191  1.0000  -6.3358   0.0000   0.0000   0.0000   0.2091
  12.500   1.0551   0.04162   0.03689   0.0279  0.0190  1.0000  -6.3484   0.0000   0.0000   0.0000   0.2084
  12.600   1.0535   0.04275   0.03813   0.0285  0.0189  1.0000  -6.3564   0.0000   0.0000   0.0000   0.2076
  12.700   1.0513   0.04395   0.03943   0.0291  0.0188  1.0000  -6.3597   0.0000   0.0000   0.0000   0.2068
  12.800   1.0483   0.04521   0.04079   0.0296  0.0188  1.0000  -6.3584   0.0000   0.0000   0.0000   0.2060
  12.900   1.0446   0.04655   0.04223   0.0301  0.0188  1.0000  -6.3524   0.0000   0.0000   0.0000   0.2053
  13.000   1.0403   0.04795   0.04373   0.0306  0.0187  1.0000  -6.3419   0.0000   0.0000   0.0000   0.2045
  13.100   1.0354   0.04943   0.04531   0.0310  0.0187  1.0000  -6.3271   0.0000   0.0000   0.0000   0.2038
  13.200   1.0298   0.05098   0.04696   0.0313  0.0187  1.0000  -6.3079   0.0000   0.0000   0.0000   0.2032
  13.300   1.0237   0.05263   0.04870   0.0316  0.0187  1.0000  -6.2846   0.0000   0.0000   0.0000   0.2025
  13.400   1.0170   0.05435   0.05052   0.0317  0.0187  1.0000  -6.2572   0.0000   0.0000   0.0000   0.2020
  13.500   1.0097   0.05616   0.05243   0.0318  0.0187  1.0000  -6.2259   0.0000   0.0000   0.0000   0.2015
  13.600   1.0018   0.05807   0.05443   0.0317  0.0187  1.0000  -6.1909   0.0000   0.0000   0.0000   0.2010
  13.700   0.9935   0.06007   0.05652   0.0315  0.0187  1.0000  -6.1523   0.0000   0.0000   0.0000   0.2007
  13.800   0.9847   0.06216   0.05870   0.0313  0.0187  1.0000  -6.1105   0.0000   0.0000   0.0000   0.2005
  13.900   0.9754   0.06436   0.06099   0.0308  0.0188  1.0000  -6.0654   0.0000   0.0000   0.0000   0.2004
  14.000   0.9658   0.06667   0.06340   0.0302  0.0188  1.0000  -6.0170   0.0000   0.0000   0.0000   0.2005
  14.100   0.9558   0.06910   0.06590   0.0295  0.0189  1.0000  -5.9655   0.0000   0.0000   0.0000   0.2007
  14.200   0.9454   0.07164   0.06852   0.0286  0.0189  1.0000  -5.9108   0.0000   0.0000   0.0000   0.2010
  14.300   0.9347   0.07431   0.07128   0.0275  0.0190  1.0000  -5.8528   0.0000   0.0000   0.0000   0.2016
  14.400   0.9238   0.07714   0.07417   0.0263  0.0190  1.0000  -5.7913   0.0000   0.0000   0.0000   0.2023
  14.500   0.9126   0.08013   0.07724   0.0248  0.0191  1.0000  -5.7258   0.0000   0.0000   0.0000   0.2033
  14.600   0.9011   0.08331   0.08049   0.0232  0.0191  1.0000  -5.6560   0.0000   0.0000   0.0000   0.2045
  14.700   0.8893   0.08670   0.08396   0.0213  0.0192  1.0000  -5.5808   0.0000   0.0000   0.0000   0.2061
  14.800   0.8772   0.09036   0.08768   0.0191  0.0193  1.0000  -5.4987   0.0000   0.0000   0.0000   0.2080
  14.900   0.8647   0.09432   0.09171   0.0166  0.0194  1.0000  -5.4083   0.0000   0.0000   0.0000   0.2103
  15.000   0.8517   0.09864   0.09608   0.0138  0.0195  1.0000  -5.3070   0.0000   0.0000   0.0000   0.2130
  15.100   0.8381   0.10332   0.10082   0.0108  0.0196  1.0000  -5.1924   0.0000   0.0000   0.0000   0.2162
  15.200   0.8243   0.10829   0.10584   0.0076  0.0198  1.0000  -5.0661   0.0000   0.0000   0.0000   0.2196
  15.300   0.8139   0.11244   0.11001   0.0054  0.0200  1.0000  -4.9654   0.0000   0.0000   0.0000   0.2221
  15.400   0.8042   0.11810   0.11578   0.0016  0.0207  1.0000  -4.7853   0.0000   0.0000   0.0000   0.2267
  15.500   0.8062   0.11911   0.11676   0.0011  0.0205  1.0000  -4.8441   0.0000   0.0000   0.0000   0.2271
  18.600   0.7514   0.21599   0.21367  -0.0482  0.0200  1.0000  -2.3724   0.0000   0.0000   0.0000   0.2902
  18.700   0.7521   0.21845   0.21612  -0.0501  0.0199  1.0000  -2.2818   0.0000   0.0000   0.0000   0.2925
  18.800   0.7497   0.22225   0.21992  -0.0534  0.0190  1.0000  -2.0810   0.0000   0.0000   0.0000   0.2972
  18.900   0.7524   0.22402   0.22168  -0.0545  0.0185  1.0000  -2.0627   0.0000   0.0000   0.0000   0.2983
  19.000   0.7553   0.22558   0.22324  -0.0555  0.0182  1.0000  -2.0584   0.0000   0.0000   0.0000   0.2992
  19.100   0.7584   0.22708   0.22474  -0.0564  0.0179  1.0000  -2.0594   0.0000   0.0000   0.0000   0.3000
  19.200   0.7615   0.22852   0.22619  -0.0574  0.0176  1.0000  -2.0639   0.0000   0.0000   0.0000   0.3007
  19.300   0.7646   0.22992   0.22758  -0.0583  0.0174  1.0000  -2.0713   0.0000   0.0000   0.0000   0.3014
  19.400   0.7679   0.23128   0.22895  -0.0591  0.0171  1.0000  -2.0813   0.0000   0.0000   0.0000   0.3020
  19.500   0.7711   0.23258   0.23025  -0.0600  0.0169  1.0000  -2.0939   0.0000   0.0000   0.0000   0.3027
  19.600   0.7744   0.23385   0.23152  -0.0608  0.0168  1.0000  -2.1091   0.0000   0.0000   0.0000   0.3032
  19.700   0.7778   0.23508   0.23276  -0.0617  0.0166  1.0000  -2.1270   0.0000   0.0000   0.0000   0.3037
  19.800   0.7812   0.23628   0.23395  -0.0624  0.0165  1.0000  -2.1476   0.0000   0.0000   0.0000   0.3042
  19.900   0.7847   0.23744   0.23511  -0.0632  0.0163  1.0000  -2.1711   0.0000   0.0000   0.0000   0.3047
  20.000   0.7882   0.23857   0.23624  -0.0639  0.0162  1.0000  -2.1977   0.0000   0.0000   0.0000   0.3050
  20.100   0.7919   0.23967   0.23734  -0.0646  0.0161  1.0000  -2.2277   0.0000   0.0000   0.0000   0.3053
  20.200   0.7956   0.24074   0.23842  -0.0653  0.0160  1.0000  -2.2613   0.0000   0.0000   0.0000   0.3056
  20.300   0.7994   0.24179   0.23947  -0.0659  0.0159  1.0000  -2.2992   0.0000   0.0000   0.0000   0.3057
  20.400   0.8035   0.24283   0.24051  -0.0663  0.0159  1.0000  -2.3425   0.0000   0.0000   0.0000   0.3057
  20.500   0.8078   0.24389   0.24158  -0.0667  0.0158  1.0000  -2.3934   0.0000   0.0000   0.0000   0.3055
  20.600   0.8123   0.24505   0.24274  -0.0669  0.0157  1.0000  -2.4487   0.0000   0.0000   0.0000   0.3051
  20.700   0.8150   0.24735   0.24503  -0.0674  0.0156  1.0000  -2.4486   0.0000   0.0000   0.0000   0.3052
  20.800   0.8179   0.24897   0.24666  -0.0685  0.0155  1.0000  -2.4308   0.0000   0.0000   0.0000   0.3061
  20.900   0.8207   0.25059   0.24827  -0.0696  0.0155  1.0000  -2.4119   0.0000   0.0000   0.0000   0.3069
  21.000   0.8232   0.25227   0.24996  -0.0708  0.0155  1.0000  -2.3798   0.0000   0.0000   0.0000   0.3080
  21.100   0.8256   0.25395   0.25163  -0.0721  0.0155  1.0000  -2.3450   0.0000   0.0000   0.0000   0.3092
  21.200   0.8278   0.25563   0.25331  -0.0735  0.0155  1.0000  -2.3017   0.0000   0.0000   0.0000   0.3105
  21.300   0.8293   0.25742   0.25509  -0.0752  0.0154  1.0000  -2.2351   0.0000   0.0000   0.0000   0.3122
  21.400   0.8310   0.25934   0.25701  -0.0770  0.0153  1.0000  -2.1558   0.0000   0.0000   0.0000   0.3141
  21.500   0.8332   0.26148   0.25915  -0.0788  0.0150  1.0000  -2.0631   0.0000   0.0000   0.0000   0.3160
  21.600   0.8364   0.26333   0.26099  -0.0802  0.0146  1.0000  -2.0139   0.0000   0.0000   0.0000   0.3171
  21.700   0.8396   0.26485   0.26252  -0.0812  0.0143  1.0000  -1.9994   0.0000   0.0000   0.0000   0.3178
  21.800   0.8429   0.26625   0.26393  -0.0822  0.0140  1.0000  -1.9989   0.0000   0.0000   0.0000   0.3184
  21.900   0.8462   0.26765   0.26533  -0.0832  0.0138  1.0000  -2.0017   0.0000   0.0000   0.0000   0.3190
  22.000   0.8495   0.26901   0.26669  -0.0842  0.0136  1.0000  -2.0067   0.0000   0.0000   0.0000   0.3196
  22.100   0.8528   0.27034   0.26802  -0.0851  0.0134  1.0000  -2.0132   0.0000   0.0000   0.0000   0.3201
  22.200   0.8561   0.27165   0.26933  -0.0861  0.0132  1.0000  -2.0213   0.0000   0.0000   0.0000   0.3206
  22.300   0.8594   0.27293   0.27061  -0.0870  0.0130  1.0000  -2.0307   0.0000   0.0000   0.0000   0.3211
  22.400   0.8628   0.27419   0.27187  -0.0880  0.0129  1.0000  -2.0416   0.0000   0.0000   0.0000   0.3216
  22.500   0.8661   0.27543   0.27311  -0.0889  0.0127  1.0000  -2.0539   0.0000   0.0000   0.0000   0.3221
  22.600   0.8695   0.27664   0.27432  -0.0898  0.0126  1.0000  -2.0679   0.0000   0.0000   0.0000   0.3226
  22.700   0.8728   0.27783   0.27551  -0.0907  0.0125  1.0000  -2.0835   0.0000   0.0000   0.0000   0.3230
  22.800   0.8762   0.27899   0.27668  -0.0916  0.0123  1.0000  -2.1009   0.0000   0.0000   0.0000   0.3234
  22.900   0.8795   0.28014   0.27783  -0.0925  0.0122  1.0000  -2.1202   0.0000   0.0000   0.0000   0.3238
  23.000   0.8829   0.28126   0.27895  -0.0934  0.0121  1.0000  -2.1416   0.0000   0.0000   0.0000   0.3241
  23.100   0.8863   0.28236   0.28005  -0.0942  0.0121  1.0000  -2.1653   0.0000   0.0000   0.0000   0.3245
  23.200   0.8896   0.28344   0.28114  -0.0951  0.0120  1.0000  -2.1913   0.0000   0.0000   0.0000   0.3248
  23.300   0.8931   0.28455   0.28224  -0.0959  0.0119  1.0000  -2.2199   0.0000   0.0000   0.0000   0.3250
  23.400   0.8965   0.28561   0.28331  -0.0966  0.0118  1.0000  -2.2515   0.0000   0.0000   0.0000   0.3252
  23.500   0.9000   0.28669   0.28440  -0.0973  0.0118  1.0000  -2.2866   0.0000   0.0000   0.0000   0.3253
  23.600   0.9036   0.28779   0.28550  -0.0979  0.0117  1.0000  -2.3262   0.0000   0.0000   0.0000   0.3253
  23.700   0.9074   0.28899   0.28670  -0.0984  0.0117  1.0000  -2.3725   0.0000   0.0000   0.0000   0.3252
  23.800   0.9118   0.29055   0.28827  -0.0985  0.0116  1.0000  -2.4341   0.0000   0.0000   0.0000   0.3245
  28.900   1.0648   0.35547   0.35325  -0.1537  0.0078  1.0000  -2.1643   0.0000   0.0000   0.0000   0.3485
  29.000   1.0678   0.35672   0.35450  -0.1549  0.0078  1.0000  -2.1459   0.0000   0.0000   0.0000   0.3490
  29.100   1.0710   0.35805   0.35583  -0.1561  0.0077  1.0000  -2.1262   0.0000   0.0000   0.0000   0.3495
  29.200   1.0742   0.35940   0.35718  -0.1573  0.0076  1.0000  -2.1071   0.0000   0.0000   0.0000   0.3499
  29.300   1.0774   0.36069   0.35848  -0.1584  0.0075  1.0000  -2.0929   0.0000   0.0000   0.0000   0.3502
  29.400   1.0804   0.36193   0.35973  -0.1595  0.0073  1.0000  -2.0858   0.0000   0.0000   0.0000   0.3506
  29.500   1.0834   0.36313   0.36093  -0.1606  0.0072  1.0000  -2.0838   0.0000   0.0000   0.0000   0.3509
  29.600   1.0863   0.36418   0.36198  -0.1616  0.0070  1.0000  -2.0848   0.0000   0.0000   0.0000   0.3512
  29.700   1.0891   0.36537   0.36317  -0.1627  0.0069  1.0000  -2.0874   0.0000   0.0000   0.0000   0.3515
  29.800   1.0919   0.36651   0.36431  -0.1638  0.0068  1.0000  -2.0913   0.0000   0.0000   0.0000   0.3518
  29.900   1.0947   0.36761   0.36542  -0.1648  0.0066  1.0000  -2.0960   0.0000   0.0000   0.0000   0.3521
  30.000   1.0975   0.36870   0.36651  -0.1659  0.0065  1.0000  -2.1014   0.0000   0.0000   0.0000   0.3524


