xflr5 v6.61

 Calculated polar for: NACA65-015

 1 1 Reynolds number fixed          Mach number fixed         

 xtrf =   1.000 (top)        1.000 (bottom)
 Mach =   0.000     Re =     0.563 e 6     Ncrit =   9.000

  alpha     CL        CD       CDp       Cm    Top Xtr Bot Xtr   Cpmin    Chinge    XCp    
 ------- -------- --------- --------- -------- ------- ------- -------- --------- ---------
 -10.000  -0.9159   0.02341   0.01736  -0.0213  0.9685  0.0219  -4.9579   0.0000   0.0000   0.0000   0.2148
  -9.900  -0.9068   0.02308   0.01699  -0.0213  0.9586  0.0222  -4.8737   0.0000   0.0000   0.0000   0.2147
  -9.800  -0.9001   0.02278   0.01665  -0.0208  0.9492  0.0224  -4.8002   0.0000   0.0000   0.0000   0.2152
  -9.700  -0.8943   0.02250   0.01633  -0.0200  0.9411  0.0226  -4.7313   0.0000   0.0000   0.0000   0.2160
  -9.600  -0.8886   0.02223   0.01601  -0.0193  0.9341  0.0228  -4.6667   0.0000   0.0000   0.0000   0.2168
  -9.500  -0.8827   0.02195   0.01569  -0.0186  0.9278  0.0230  -4.6079   0.0000   0.0000   0.0000   0.2176
  -9.400  -0.8767   0.02167   0.01538  -0.0178  0.9223  0.0232  -4.5496   0.0000   0.0000   0.0000   0.2184
  -9.300  -0.8704   0.02139   0.01506  -0.0172  0.9168  0.0234  -4.4903   0.0000   0.0000   0.0000   0.2191
  -9.200  -0.8639   0.02110   0.01474  -0.0166  0.9119  0.0237  -4.4309   0.0000   0.0000   0.0000   0.2198
  -9.100  -0.8576   0.02083   0.01442  -0.0159  0.9073  0.0239  -4.3719   0.0000   0.0000   0.0000   0.2205
  -9.000  -0.8508   0.02056   0.01411  -0.0154  0.9026  0.0241  -4.3113   0.0000   0.0000   0.0000   0.2211
  -8.900  -0.8442   0.02031   0.01382  -0.0148  0.8984  0.0244  -4.2510   0.0000   0.0000   0.0000   0.2218
  -8.800  -0.8371   0.02008   0.01356  -0.0143  0.8941  0.0246  -4.1871   0.0000   0.0000   0.0000   0.2223
  -8.700  -0.8300   0.01990   0.01333  -0.0138  0.8901  0.0248  -4.1222   0.0000   0.0000   0.0000   0.2229
  -8.600  -0.8225   0.01975   0.01313  -0.0133  0.8863  0.0250  -4.0549   0.0000   0.0000   0.0000   0.2235
  -8.500  -0.8164   0.01932   0.01268  -0.0127  0.8824  0.0253  -4.0027   0.0000   0.0000   0.0000   0.2242
  -8.400  -0.8125   0.01877   0.01209  -0.0118  0.8791  0.0258  -3.9617   0.0000   0.0000   0.0000   0.2254
  -8.300  -0.8072   0.01839   0.01170  -0.0111  0.8750  0.0261  -3.9075   0.0000   0.0000   0.0000   0.2263
  -8.200  -0.8018   0.01811   0.01140  -0.0103  0.8714  0.0264  -3.8500   0.0000   0.0000   0.0000   0.2273
  -8.100  -0.7959   0.01786   0.01113  -0.0096  0.8682  0.0267  -3.7904   0.0000   0.0000   0.0000   0.2282
  -8.000  -0.7891   0.01762   0.01087  -0.0091  0.8644  0.0270  -3.7284   0.0000   0.0000   0.0000   0.2289
  -7.900  -0.7821   0.01738   0.01061  -0.0086  0.8612  0.0273  -3.6658   0.0000   0.0000   0.0000   0.2295
  -7.800  -0.7748   0.01715   0.01036  -0.0081  0.8583  0.0276  -3.6029   0.0000   0.0000   0.0000   0.2302
  -7.700  -0.7672   0.01692   0.01011  -0.0077  0.8547  0.0279  -3.5391   0.0000   0.0000   0.0000   0.2307
  -7.600  -0.7596   0.01670   0.00986  -0.0072  0.8516  0.0282  -3.4761   0.0000   0.0000   0.0000   0.2313
  -7.500  -0.7521   0.01649   0.00961  -0.0068  0.8490  0.0286  -3.4137   0.0000   0.0000   0.0000   0.2319
  -7.400  -0.7440   0.01627   0.00938  -0.0064  0.8457  0.0289  -3.3500   0.0000   0.0000   0.0000   0.2324
  -7.300  -0.7359   0.01606   0.00914  -0.0060  0.8425  0.0293  -3.2866   0.0000   0.0000   0.0000   0.2329
  -7.200  -0.7278   0.01586   0.00891  -0.0057  0.8399  0.0297  -3.2234   0.0000   0.0000   0.0000   0.2334
  -7.100  -0.7195   0.01568   0.00868  -0.0053  0.8374  0.0300  -3.1597   0.0000   0.0000   0.0000   0.2340
  -7.000  -0.7107   0.01550   0.00849  -0.0051  0.8344  0.0303  -3.0943   0.0000   0.0000   0.0000   0.2343
  -6.900  -0.7018   0.01534   0.00830  -0.0048  0.8316  0.0306  -3.0287   0.0000   0.0000   0.0000   0.2347
  -6.800  -0.6961   0.01494   0.00787  -0.0041  0.8289  0.0313  -2.9810   0.0000   0.0000   0.0000   0.2357
  -6.700  -0.6887   0.01467   0.00758  -0.0036  0.8267  0.0319  -2.9231   0.0000   0.0000   0.0000   0.2364
  -6.600  -0.6802   0.01445   0.00736  -0.0034  0.8237  0.0326  -2.8617   0.0000   0.0000   0.0000   0.2369
  -6.500  -0.6712   0.01426   0.00716  -0.0031  0.8210  0.0333  -2.8058   0.0000   0.0000   0.0000   0.2372
  -6.400  -0.6622   0.01410   0.00698  -0.0029  0.8185  0.0340  -2.7496   0.0000   0.0000   0.0000   0.2376
  -6.300  -0.6530   0.01396   0.00681  -0.0026  0.8164  0.0349  -2.6935   0.0000   0.0000   0.0000   0.2380
  -6.200  -0.6434   0.01382   0.00666  -0.0025  0.8139  0.0358  -2.6367   0.0000   0.0000   0.0000   0.2383
  -6.100  -0.6337   0.01369   0.00650  -0.0024  0.8111  0.0366  -2.5801   0.0000   0.0000   0.0000   0.2385
  -6.000  -0.6257   0.01341   0.00622  -0.0020  0.8085  0.0380  -2.5321   0.0000   0.0000   0.0000   0.2391
  -5.900  -0.6166   0.01323   0.00603  -0.0017  0.8063  0.0394  -2.4776   0.0000   0.0000   0.0000   0.2396
  -5.800  -0.6073   0.01309   0.00586  -0.0015  0.8043  0.0408  -2.4228   0.0000   0.0000   0.0000   0.2400
  -5.700  -0.5974   0.01295   0.00571  -0.0014  0.8017  0.0423  -2.3676   0.0000   0.0000   0.0000   0.2402
  -5.600  -0.5882   0.01275   0.00551  -0.0012  0.7991  0.0446  -2.3162   0.0000   0.0000   0.0000   0.2406
  -5.500  -0.5788   0.01257   0.00534  -0.0010  0.7968  0.0475  -2.2627   0.0000   0.0000   0.0000   0.2409
  -5.400  -0.5696   0.01239   0.00517  -0.0008  0.7947  0.0517  -2.2109   0.0000   0.0000   0.0000   0.2414
  -5.300  -0.5608   0.01217   0.00498  -0.0005  0.7928  0.0595  -2.1604   0.0000   0.0000   0.0000   0.2419
  -5.200  -0.5527   0.01185   0.00477  -0.0002  0.7906  0.0774  -2.1120   0.0000   0.0000   0.0000   0.2425
  -5.100  -0.5458   0.01141   0.00452   0.0002  0.7881  0.1130  -2.0666   0.0000   0.0000   0.0000   0.2434
  -5.000  -0.5395   0.01093   0.00426   0.0007  0.7857  0.1597  -2.0219   0.0000   0.0000   0.0000   0.2444
  -4.900  -0.5333   0.01042   0.00400   0.0012  0.7836  0.2116  -1.9772   0.0000   0.0000   0.0000   0.2454
  -4.800  -0.5274   0.00989   0.00372   0.0017  0.7816  0.2689  -1.9327   0.0000   0.0000   0.0000   0.2465
  -4.700  -0.5216   0.00934   0.00344   0.0023  0.7797  0.3312  -1.8888   0.0000   0.0000   0.0000   0.2477
  -4.600  -0.5161   0.00874   0.00317   0.0028  0.7772  0.3999  -1.8453   0.0000   0.0000   0.0000   0.2489
  -4.500  -0.5097   0.00826   0.00298   0.0034  0.7748  0.4662  -1.7992   0.0000   0.0000   0.0000   0.2502
  -4.400  -0.5010   0.00803   0.00291   0.0037  0.7727  0.5066  -1.7466   0.0000   0.0000   0.0000   0.2510
  -4.300  -0.4910   0.00793   0.00287   0.0038  0.7708  0.5312  -1.6965   0.0000   0.0000   0.0000   0.2515
  -4.200  -0.4805   0.00788   0.00283   0.0039  0.7690  0.5476  -1.6467   0.0000   0.0000   0.0000   0.2519
  -4.100  -0.4697   0.00784   0.00281   0.0039  0.7672  0.5603  -1.5964   0.0000   0.0000   0.0000   0.2522
  -4.000  -0.4588   0.00780   0.00279   0.0039  0.7651  0.5701  -1.5460   0.0000   0.0000   0.0000   0.2525
  -3.900  -0.4475   0.00778   0.00277   0.0039  0.7631  0.5781  -1.4954   0.0000   0.0000   0.0000   0.2526
  -3.800  -0.4364   0.00776   0.00275   0.0038  0.7611  0.5850  -1.4454   0.0000   0.0000   0.0000   0.2528
  -3.700  -0.4250   0.00776   0.00272   0.0037  0.7593  0.5910  -1.3953   0.0000   0.0000   0.0000   0.2529
  -3.600  -0.4139   0.00774   0.00270   0.0037  0.7577  0.5960  -1.3462   0.0000   0.0000   0.0000   0.2532
  -3.500  -0.4027   0.00774   0.00268   0.0037  0.7562  0.6015  -1.2971   0.0000   0.0000   0.0000   0.2534
  -3.400  -0.3913   0.00774   0.00265   0.0036  0.7544  0.6066  -1.2483   0.0000   0.0000   0.0000   0.2535
  -3.300  -0.3801   0.00773   0.00265   0.0036  0.7524  0.6118  -1.2001   0.0000   0.0000   0.0000   0.2537
  -3.200  -0.3687   0.00774   0.00264   0.0035  0.7505  0.6183  -1.1521   0.0000   0.0000   0.0000   0.2538
  -3.100  -0.3576   0.00774   0.00266   0.0035  0.7486  0.6252  -1.1051   0.0000   0.0000   0.0000   0.2542
  -3.000  -0.3465   0.00778   0.00268   0.0035  0.7468  0.6336  -1.0583   0.0000   0.0000   0.0000   0.2545
  -2.900  -0.3356   0.00780   0.00273   0.0036  0.7452  0.6408  -1.0122   0.0000   0.0000   0.0000   0.2552
  -2.700  -0.3134   0.00789   0.00280   0.0037  0.7420  0.6531  -0.9211   0.0000   0.0000   0.0000   0.2563
  -2.600  -0.3020   0.00791   0.00283   0.0036  0.7401  0.6576  -0.8758   0.0000   0.0000   0.0000   0.2566
  -2.500  -0.2905   0.00794   0.00282   0.0035  0.7383  0.6613  -0.8311   0.0000   0.0000   0.0000   0.2567
  -2.400  -0.2790   0.00792   0.00281   0.0034  0.7366  0.6638  -0.7869   0.0000   0.0000   0.0000   0.2570
  -2.300  -0.2675   0.00792   0.00281   0.0033  0.7349  0.6661  -0.7431   0.0000   0.0000   0.0000   0.2572
  -2.200  -0.2560   0.00792   0.00280   0.0032  0.7333  0.6684  -0.6999   0.0000   0.0000   0.0000   0.2575
  -2.100  -0.2445   0.00793   0.00279   0.0031  0.7319  0.6706  -0.6621   0.0000   0.0000   0.0000   0.2577
  -2.000  -0.2330   0.00795   0.00277   0.0030  0.7305  0.6726  -0.6247   0.0000   0.0000   0.0000   0.2579
  -1.900  -0.2214   0.00795   0.00275   0.0029  0.7289  0.6745  -0.5877   0.0000   0.0000   0.0000   0.2579
  -1.800  -0.2097   0.00795   0.00273   0.0027  0.7271  0.6761  -0.5509   0.0000   0.0000   0.0000   0.2579
  -1.700  -0.1981   0.00791   0.00271   0.0026  0.7253  0.6774  -0.5388   0.0000   0.0000   0.0000   0.2579
  -1.600  -0.1864   0.00790   0.00269   0.0024  0.7236  0.6786  -0.5330   0.0000   0.0000   0.0000   0.2580
  -1.500  -0.1748   0.00789   0.00268   0.0023  0.7220  0.6798  -0.5274   0.0000   0.0000   0.0000   0.2581
  -1.400  -0.1632   0.00788   0.00266   0.0021  0.7206  0.6811  -0.5218   0.0000   0.0000   0.0000   0.2582
  -1.300  -0.1515   0.00788   0.00264   0.0020  0.7192  0.6824  -0.5162   0.0000   0.0000   0.0000   0.2583
  -1.200  -0.1399   0.00788   0.00263   0.0019  0.7179  0.6839  -0.5107   0.0000   0.0000   0.0000   0.2584
  -1.000  -0.1166   0.00789   0.00261   0.0015  0.7151  0.6869  -0.4996   0.0000   0.0000   0.0000   0.2584
  -0.900  -0.1049   0.00788   0.00259   0.0014  0.7135  0.6884  -0.4942   0.0000   0.0000   0.0000   0.2581
  -0.800  -0.0932   0.00788   0.00258   0.0012  0.7119  0.6898  -0.4889   0.0000   0.0000   0.0000   0.2578
  -0.700  -0.0815   0.00786   0.00257   0.0010  0.7103  0.6909  -0.4835   0.0000   0.0000   0.0000   0.2579
  -0.600  -0.0699   0.00784   0.00256   0.0009  0.7087  0.6921  -0.4781   0.0000   0.0000   0.0000   0.2580
  -0.500  -0.0583   0.00784   0.00255   0.0008  0.7073  0.6933  -0.4728   0.0000   0.0000   0.0000   0.2582
  -0.400  -0.0467   0.00783   0.00254   0.0006  0.7059  0.6946  -0.4674   0.0000   0.0000   0.0000   0.2586
  -0.300  -0.0350   0.00784   0.00254   0.0005  0.7047  0.6960  -0.4620   0.0000   0.0000   0.0000   0.2592
  -0.200  -0.0234   0.00786   0.00254   0.0004  0.7035  0.6975  -0.4566   0.0000   0.0000   0.0000   0.2603
  -0.100  -0.0117   0.00786   0.00254   0.0002  0.7021  0.6990  -0.4513   0.0000   0.0000   0.0000   0.2607
   0.000   0.0000   0.00786   0.00255   0.0000  0.7006  0.7006  -0.4459   0.0000   0.0000   0.0000  -1.8516
   0.100   0.0117   0.00786   0.00254  -0.0002  0.6990  0.7021  -0.4513   0.0000   0.0000   0.0000   0.2607
   0.200   0.0234   0.00786   0.00254  -0.0004  0.6975  0.7035  -0.4566   0.0000   0.0000   0.0000   0.2603
   0.300   0.0350   0.00784   0.00254  -0.0005  0.6960  0.7047  -0.4620   0.0000   0.0000   0.0000   0.2592
   0.400   0.0467   0.00783   0.00254  -0.0006  0.6946  0.7059  -0.4674   0.0000   0.0000   0.0000   0.2586
   0.500   0.0583   0.00784   0.00255  -0.0008  0.6933  0.7073  -0.4728   0.0000   0.0000   0.0000   0.2582
   0.600   0.0699   0.00784   0.00256  -0.0009  0.6921  0.7087  -0.4781   0.0000   0.0000   0.0000   0.2580
   0.700   0.0815   0.00786   0.00257  -0.0010  0.6909  0.7103  -0.4835   0.0000   0.0000   0.0000   0.2579
   0.800   0.0932   0.00788   0.00258  -0.0012  0.6898  0.7119  -0.4889   0.0000   0.0000   0.0000   0.2578
   0.900   0.1049   0.00788   0.00259  -0.0014  0.6884  0.7135  -0.4942   0.0000   0.0000   0.0000   0.2581
   1.000   0.1166   0.00789   0.00261  -0.0015  0.6869  0.7151  -0.4996   0.0000   0.0000   0.0000   0.2584
   1.200   0.1399   0.00788   0.00263  -0.0019  0.6839  0.7179  -0.5107   0.0000   0.0000   0.0000   0.2584
   1.300   0.1515   0.00788   0.00264  -0.0020  0.6824  0.7192  -0.5162   0.0000   0.0000   0.0000   0.2583
   1.400   0.1632   0.00788   0.00266  -0.0021  0.6811  0.7206  -0.5218   0.0000   0.0000   0.0000   0.2582
   1.500   0.1748   0.00789   0.00268  -0.0023  0.6798  0.7220  -0.5274   0.0000   0.0000   0.0000   0.2581
   1.600   0.1864   0.00790   0.00269  -0.0024  0.6786  0.7236  -0.5330   0.0000   0.0000   0.0000   0.2580
   1.700   0.1981   0.00791   0.00271  -0.0026  0.6774  0.7253  -0.5388   0.0000   0.0000   0.0000   0.2579
   1.800   0.2097   0.00795   0.00273  -0.0027  0.6761  0.7271  -0.5509   0.0000   0.0000   0.0000   0.2579
   1.900   0.2214   0.00795   0.00275  -0.0029  0.6745  0.7289  -0.5877   0.0000   0.0000   0.0000   0.2579
   2.000   0.2330   0.00795   0.00277  -0.0030  0.6726  0.7305  -0.6247   0.0000   0.0000   0.0000   0.2579
   2.100   0.2445   0.00793   0.00279  -0.0031  0.6706  0.7319  -0.6621   0.0000   0.0000   0.0000   0.2577
   2.200   0.2560   0.00792   0.00280  -0.0032  0.6684  0.7333  -0.6999   0.0000   0.0000   0.0000   0.2575
   2.300   0.2675   0.00792   0.00281  -0.0033  0.6661  0.7349  -0.7431   0.0000   0.0000   0.0000   0.2572
   2.400   0.2790   0.00792   0.00281  -0.0034  0.6638  0.7366  -0.7869   0.0000   0.0000   0.0000   0.2570
   2.500   0.2905   0.00794   0.00282  -0.0035  0.6613  0.7383  -0.8311   0.0000   0.0000   0.0000   0.2567
   2.600   0.3020   0.00791   0.00283  -0.0036  0.6576  0.7401  -0.8758   0.0000   0.0000   0.0000   0.2566
   2.700   0.3134   0.00789   0.00280  -0.0037  0.6531  0.7420  -0.9211   0.0000   0.0000   0.0000   0.2563
   2.900   0.3356   0.00780   0.00273  -0.0036  0.6408  0.7452  -1.0123   0.0000   0.0000   0.0000   0.2552
   3.000   0.3465   0.00778   0.00268  -0.0035  0.6336  0.7468  -1.0583   0.0000   0.0000   0.0000   0.2545
   3.100   0.3576   0.00774   0.00266  -0.0035  0.6252  0.7486  -1.1051   0.0000   0.0000   0.0000   0.2542
   3.200   0.3687   0.00774   0.00264  -0.0035  0.6183  0.7505  -1.1521   0.0000   0.0000   0.0000   0.2538
   3.300   0.3801   0.00773   0.00265  -0.0036  0.6118  0.7524  -1.2001   0.0000   0.0000   0.0000   0.2537
   3.400   0.3913   0.00774   0.00265  -0.0036  0.6066  0.7544  -1.2483   0.0000   0.0000   0.0000   0.2535
   3.500   0.4027   0.00774   0.00268  -0.0037  0.6015  0.7562  -1.2972   0.0000   0.0000   0.0000   0.2534
   3.600   0.4139   0.00774   0.00270  -0.0037  0.5960  0.7577  -1.3462   0.0000   0.0000   0.0000   0.2532
   3.700   0.4250   0.00776   0.00272  -0.0037  0.5910  0.7593  -1.3953   0.0000   0.0000   0.0000   0.2529
   3.800   0.4364   0.00776   0.00275  -0.0038  0.5850  0.7611  -1.4454   0.0000   0.0000   0.0000   0.2528
   3.900   0.4475   0.00778   0.00277  -0.0039  0.5781  0.7631  -1.4954   0.0000   0.0000   0.0000   0.2526
   4.000   0.4588   0.00780   0.00279  -0.0039  0.5701  0.7651  -1.5460   0.0000   0.0000   0.0000   0.2525
   4.100   0.4697   0.00784   0.00281  -0.0039  0.5603  0.7672  -1.5964   0.0000   0.0000   0.0000   0.2522
   4.200   0.4805   0.00788   0.00283  -0.0039  0.5476  0.7690  -1.6467   0.0000   0.0000   0.0000   0.2519
   4.300   0.4910   0.00793   0.00287  -0.0038  0.5312  0.7708  -1.6965   0.0000   0.0000   0.0000   0.2515
   4.400   0.5010   0.00803   0.00291  -0.0037  0.5066  0.7727  -1.7466   0.0000   0.0000   0.0000   0.2510
   4.500   0.5097   0.00826   0.00298  -0.0034  0.4662  0.7748  -1.7992   0.0000   0.0000   0.0000   0.2502
   4.600   0.5161   0.00874   0.00317  -0.0028  0.3999  0.7772  -1.8453   0.0000   0.0000   0.0000   0.2489
   4.700   0.5216   0.00934   0.00344  -0.0023  0.3312  0.7797  -1.8888   0.0000   0.0000   0.0000   0.2477
   4.800   0.5274   0.00989   0.00372  -0.0017  0.2689  0.7816  -1.9327   0.0000   0.0000   0.0000   0.2465
   4.900   0.5333   0.01042   0.00400  -0.0012  0.2116  0.7836  -1.9772   0.0000   0.0000   0.0000   0.2454
   5.000   0.5395   0.01093   0.00426  -0.0007  0.1597  0.7857  -2.0219   0.0000   0.0000   0.0000   0.2444
   5.100   0.5458   0.01141   0.00452  -0.0002  0.1130  0.7881  -2.0667   0.0000   0.0000   0.0000   0.2434
   5.200   0.5527   0.01185   0.00477   0.0002  0.0774  0.7906  -2.1121   0.0000   0.0000   0.0000   0.2425
   5.300   0.5608   0.01217   0.00498   0.0005  0.0595  0.7928  -2.1605   0.0000   0.0000   0.0000   0.2419
   5.400   0.5696   0.01239   0.00517   0.0008  0.0517  0.7947  -2.2110   0.0000   0.0000   0.0000   0.2414
   5.500   0.5789   0.01257   0.00534   0.0010  0.0475  0.7968  -2.2628   0.0000   0.0000   0.0000   0.2409
   5.600   0.5882   0.01275   0.00551   0.0012  0.0446  0.7991  -2.3163   0.0000   0.0000   0.0000   0.2406
   5.700   0.5974   0.01295   0.00571   0.0014  0.0423  0.8017  -2.3677   0.0000   0.0000   0.0000   0.2402
   5.800   0.6073   0.01309   0.00586   0.0015  0.0408  0.8043  -2.4229   0.0000   0.0000   0.0000   0.2400
   5.900   0.6167   0.01323   0.00603   0.0017  0.0394  0.8062  -2.4777   0.0000   0.0000   0.0000   0.2396
   6.000   0.6257   0.01341   0.00622   0.0020  0.0380  0.8085  -2.5322   0.0000   0.0000   0.0000   0.2391
   6.100   0.6337   0.01369   0.00651   0.0024  0.0366  0.8111  -2.5801   0.0000   0.0000   0.0000   0.2385
   6.200   0.6435   0.01382   0.00665   0.0025  0.0358  0.8139  -2.6368   0.0000   0.0000   0.0000   0.2383
   6.300   0.6531   0.01396   0.00681   0.0026  0.0349  0.8164  -2.6936   0.0000   0.0000   0.0000   0.2380
   6.400   0.6622   0.01410   0.00698   0.0029  0.0340  0.8185  -2.7497   0.0000   0.0000   0.0000   0.2376
   6.500   0.6713   0.01426   0.00716   0.0031  0.0333  0.8210  -2.8059   0.0000   0.0000   0.0000   0.2372
   6.600   0.6802   0.01445   0.00736   0.0033  0.0326  0.8237  -2.8618   0.0000   0.0000   0.0000   0.2369
   6.700   0.6888   0.01467   0.00758   0.0036  0.0319  0.8267  -2.9232   0.0000   0.0000   0.0000   0.2365
   6.800   0.6961   0.01494   0.00787   0.0041  0.0313  0.8289  -2.9811   0.0000   0.0000   0.0000   0.2357
   6.900   0.7018   0.01535   0.00830   0.0048  0.0306  0.8316  -3.0288   0.0000   0.0000   0.0000   0.2347
   7.000   0.7108   0.01550   0.00849   0.0050  0.0303  0.8344  -3.0945   0.0000   0.0000   0.0000   0.2343
   7.100   0.7196   0.01568   0.00868   0.0053  0.0300  0.8374  -3.1599   0.0000   0.0000   0.0000   0.2340
   7.200   0.7279   0.01586   0.00891   0.0056  0.0297  0.8399  -3.2236   0.0000   0.0000   0.0000   0.2335
   7.300   0.7360   0.01606   0.00914   0.0060  0.0293  0.8425  -3.2868   0.0000   0.0000   0.0000   0.2329
   7.400   0.7441   0.01627   0.00938   0.0064  0.0289  0.8457  -3.3502   0.0000   0.0000   0.0000   0.2324
   7.500   0.7522   0.01649   0.00961   0.0067  0.0286  0.8490  -3.4139   0.0000   0.0000   0.0000   0.2320
   7.600   0.7597   0.01670   0.00986   0.0072  0.0282  0.8516  -3.4763   0.0000   0.0000   0.0000   0.2313
   7.700   0.7672   0.01692   0.01011   0.0077  0.0279  0.8547  -3.5394   0.0000   0.0000   0.0000   0.2307
   7.800   0.7749   0.01715   0.01036   0.0081  0.0276  0.8583  -3.6033   0.0000   0.0000   0.0000   0.2302
   7.900   0.7822   0.01738   0.01061   0.0086  0.0273  0.8612  -3.6662   0.0000   0.0000   0.0000   0.2296
   8.000   0.7892   0.01762   0.01087   0.0091  0.0270  0.8644  -3.7288   0.0000   0.0000   0.0000   0.2289
   8.100   0.7960   0.01786   0.01113   0.0096  0.0267  0.8682  -3.7908   0.0000   0.0000   0.0000   0.2282
   8.200   0.8019   0.01811   0.01140   0.0103  0.0264  0.8714  -3.8505   0.0000   0.0000   0.0000   0.2273
   8.300   0.8074   0.01839   0.01170   0.0111  0.0261  0.8750  -3.9080   0.0000   0.0000   0.0000   0.2263
   8.400   0.8127   0.01877   0.01209   0.0118  0.0258  0.8791  -3.9622   0.0000   0.0000   0.0000   0.2255
   8.500   0.8165   0.01933   0.01268   0.0127  0.0253  0.8824  -4.0031   0.0000   0.0000   0.0000   0.2242
   8.600   0.8227   0.01974   0.01313   0.0133  0.0250  0.8863  -4.0556   0.0000   0.0000   0.0000   0.2235
   8.700   0.8302   0.01990   0.01333   0.0138  0.0248  0.8901  -4.1229   0.0000   0.0000   0.0000   0.2230
   8.800   0.8373   0.02008   0.01356   0.0143  0.0246  0.8941  -4.1878   0.0000   0.0000   0.0000   0.2224
   8.900   0.8444   0.02031   0.01382   0.0148  0.0244  0.8984  -4.2517   0.0000   0.0000   0.0000   0.2219
   9.000   0.8510   0.02056   0.01411   0.0154  0.0241  0.9026  -4.3121   0.0000   0.0000   0.0000   0.2212
   9.100   0.8578   0.02083   0.01442   0.0159  0.0239  0.9072  -4.3727   0.0000   0.0000   0.0000   0.2206
   9.200   0.8642   0.02110   0.01473   0.0165  0.0237  0.9119  -4.4317   0.0000   0.0000   0.0000   0.2198
   9.300   0.8706   0.02139   0.01505   0.0172  0.0234  0.9168  -4.4912   0.0000   0.0000   0.0000   0.2192
   9.400   0.8770   0.02167   0.01538   0.0178  0.0232  0.9223  -4.5505   0.0000   0.0000   0.0000   0.2185
   9.500   0.8829   0.02195   0.01569   0.0185  0.0230  0.9278  -4.6089   0.0000   0.0000   0.0000   0.2177
   9.600   0.8888   0.02223   0.01601   0.0192  0.0228  0.9340  -4.6677   0.0000   0.0000   0.0000   0.2169
   9.700   0.8946   0.02250   0.01633   0.0200  0.0226  0.9411  -4.7326   0.0000   0.0000   0.0000   0.2161
   9.800   0.9004   0.02278   0.01665   0.0207  0.0224  0.9492  -4.8015   0.0000   0.0000   0.0000   0.2153
   9.900   0.9071   0.02307   0.01698   0.0212  0.0222  0.9586  -4.8750   0.0000   0.0000   0.0000   0.2147
  10.000   0.9163   0.02341   0.01735   0.0212  0.0219  0.9685  -4.9593   0.0000   0.0000   0.0000   0.2149
  10.200   0.9384   0.02417   0.01816   0.0202  0.0215  1.0000  -5.1472   0.0000   0.0000   0.0000   0.2163
  10.300   0.9469   0.02456   0.01856   0.0203  0.0213  1.0000  -5.2308   0.0000   0.0000   0.0000   0.2163
  10.400   0.9554   0.02497   0.01898   0.0203  0.0211  1.0000  -5.3144   0.0000   0.0000   0.0000   0.2164
  10.500   0.9641   0.02543   0.01944   0.0203  0.0209  1.0000  -5.3978   0.0000   0.0000   0.0000   0.2164
  10.600   0.9732   0.02597   0.01999   0.0203  0.0207  1.0000  -5.4805   0.0000   0.0000   0.0000   0.2165
  10.700   0.9836   0.02671   0.02075   0.0202  0.0205  1.0000  -5.5612   0.0000   0.0000   0.0000   0.2167
  10.900   1.0063   0.02892   0.02310   0.0197  0.0200  1.0000  -5.6952   0.0000   0.0000   0.0000   0.2175
  11.000   1.0119   0.02928   0.02352   0.0201  0.0200  1.0000  -5.7637   0.0000   0.0000   0.0000   0.2171
  11.100   1.0175   0.02968   0.02398   0.0205  0.0199  1.0000  -5.8309   0.0000   0.0000   0.0000   0.2167
  11.200   1.0228   0.03009   0.02445   0.0209  0.0198  1.0000  -5.8968   0.0000   0.0000   0.0000   0.2162
  11.300   1.0280   0.03052   0.02494   0.0214  0.0196  1.0000  -5.9613   0.0000   0.0000   0.0000   0.2158
  11.400   1.0329   0.03098   0.02545   0.0218  0.0195  1.0000  -6.0244   0.0000   0.0000   0.0000   0.2153
  11.500   1.0377   0.03147   0.02601   0.0222  0.0193  1.0000  -6.0860   0.0000   0.0000   0.0000   0.2149
  11.600   1.0423   0.03199   0.02659   0.0226  0.0191  1.0000  -6.1460   0.0000   0.0000   0.0000   0.2144
  11.700   1.0467   0.03254   0.02721   0.0231  0.0189  1.0000  -6.2046   0.0000   0.0000   0.0000   0.2139
  11.800   1.0509   0.03313   0.02785   0.0235  0.0187  1.0000  -6.2618   0.0000   0.0000   0.0000   0.2135
  11.900   1.0548   0.03374   0.02853   0.0239  0.0185  1.0000  -6.3176   0.0000   0.0000   0.0000   0.2130
  12.000   1.0585   0.03438   0.02923   0.0244  0.0183  1.0000  -6.3712   0.0000   0.0000   0.0000   0.2125
  12.100   1.0618   0.03507   0.02999   0.0248  0.0182  1.0000  -6.4218   0.0000   0.0000   0.0000   0.2120
  12.200   1.0648   0.03582   0.03080   0.0253  0.0180  1.0000  -6.4684   0.0000   0.0000   0.0000   0.2115
  12.300   1.0674   0.03659   0.03164   0.0257  0.0179  1.0000  -6.5129   0.0000   0.0000   0.0000   0.2110
  12.400   1.0696   0.03738   0.03250   0.0262  0.0178  1.0000  -6.5558   0.0000   0.0000   0.0000   0.2104
  12.500   1.0714   0.03819   0.03338   0.0266  0.0177  1.0000  -6.5972   0.0000   0.0000   0.0000   0.2099
  12.600   1.0730   0.03902   0.03427   0.0271  0.0176  1.0000  -6.6373   0.0000   0.0000   0.0000   0.2094
  12.700   1.0741   0.03987   0.03518   0.0275  0.0175  1.0000  -6.6759   0.0000   0.0000   0.0000   0.2088
  12.800   1.0750   0.04074   0.03612   0.0279  0.0174  1.0000  -6.7131   0.0000   0.0000   0.0000   0.2083
  12.900   1.0756   0.04164   0.03708   0.0283  0.0173  1.0000  -6.7491   0.0000   0.0000   0.0000   0.2077
  13.000   1.0759   0.04256   0.03806   0.0287  0.0172  1.0000  -6.7836   0.0000   0.0000   0.0000   0.2072
  13.100   1.0759   0.04350   0.03907   0.0291  0.0172  1.0000  -6.8167   0.0000   0.0000   0.0000   0.2067
  13.200   1.0756   0.04447   0.04010   0.0294  0.0171  1.0000  -6.8486   0.0000   0.0000   0.0000   0.2062
  13.300   1.0751   0.04547   0.04116   0.0297  0.0170  1.0000  -6.8793   0.0000   0.0000   0.0000   0.2057
  13.400   1.0743   0.04650   0.04224   0.0300  0.0170  1.0000  -6.9084   0.0000   0.0000   0.0000   0.2053
  13.500   1.0732   0.04756   0.04336   0.0302  0.0169  1.0000  -6.9362   0.0000   0.0000   0.0000   0.2048
  13.600   1.0720   0.04865   0.04451   0.0304  0.0168  1.0000  -6.9626   0.0000   0.0000   0.0000   0.2044
  13.700   1.0697   0.04986   0.04579   0.0306  0.0168  1.0000  -6.9797   0.0000   0.0000   0.0000   0.2040
  13.800   1.0667   0.05115   0.04714   0.0307  0.0167  1.0000  -6.9911   0.0000   0.0000   0.0000   0.2036
  13.900   1.0633   0.05250   0.04856   0.0308  0.0167  1.0000  -6.9988   0.0000   0.0000   0.0000   0.2032
  14.000   1.0595   0.05393   0.05007   0.0308  0.0167  1.0000  -7.0024   0.0000   0.0000   0.0000   0.2029
  14.100   1.0551   0.05545   0.05166   0.0308  0.0166  1.0000  -7.0008   0.0000   0.0000   0.0000   0.2026
  14.200   1.0500   0.05707   0.05335   0.0307  0.0166  1.0000  -6.9932   0.0000   0.0000   0.0000   0.2023
  14.300   1.0442   0.05879   0.05515   0.0305  0.0166  1.0000  -6.9784   0.0000   0.0000   0.0000   0.2021
  14.400   1.0376   0.06067   0.05711   0.0302  0.0166  1.0000  -6.9554   0.0000   0.0000   0.0000   0.2020
  14.500   1.0300   0.06271   0.05924   0.0298  0.0166  1.0000  -6.9221   0.0000   0.0000   0.0000   0.2019
  14.600   1.0210   0.06499   0.06160   0.0293  0.0166  1.0000  -6.8750   0.0000   0.0000   0.0000   0.2020
  14.700   1.0102   0.06756   0.06428   0.0286  0.0166  1.0000  -6.8127   0.0000   0.0000   0.0000   0.2021
  14.800   0.9189   0.08291   0.08024   0.0223  0.0174  1.0000  -5.9189   0.0000   0.0000   0.0000   0.2056
  14.900   0.8836   0.09087   0.08838   0.0178  0.0178  1.0000  -5.5908   0.0000   0.0000   0.0000   0.2094
  15.000   0.8518   0.09919   0.09685   0.0125  0.0181  1.0000  -5.2892   0.0000   0.0000   0.0000   0.2147
  15.100   0.8060   0.11259   0.11041   0.0035  0.0187  1.0000  -4.7923   0.0000   0.0000   0.0000   0.2248
  15.200   0.7582   0.12878   0.12665  -0.0055  0.0197  1.0000  -4.1484   0.0000   0.0000   0.0000   0.2367
  15.300   0.7554   0.13106   0.12892  -0.0066  0.0199  1.0000  -4.1271   0.0000   0.0000   0.0000   0.2380
  15.400   0.7586   0.13129   0.12913  -0.0066  0.0200  1.0000  -4.1990   0.0000   0.0000   0.0000   0.2376
  18.900   0.5194   0.18423   0.18238  -0.0271  0.0199  1.0000  -1.5672   0.0000   0.0000   0.0000   0.2859
  19.000   0.5148   0.18678   0.18493  -0.0291  0.0192  1.0000  -1.4076   0.0000   0.0000   0.0000   0.2905
  19.100   0.5158   0.18830   0.18646  -0.0299  0.0187  1.0000  -1.3750   0.0000   0.0000   0.0000   0.2921
  19.200   0.5174   0.18960   0.18776  -0.0307  0.0183  1.0000  -1.3620   0.0000   0.0000   0.0000   0.2933
  19.300   0.5192   0.19084   0.18900  -0.0314  0.0180  1.0000  -1.3603   0.0000   0.0000   0.0000   0.2943
  19.400   0.5210   0.19205   0.19021  -0.0321  0.0177  1.0000  -1.3615   0.0000   0.0000   0.0000   0.2953
  19.500   0.5230   0.19323   0.19139  -0.0327  0.0174  1.0000  -1.3652   0.0000   0.0000   0.0000   0.2963
  19.600   0.5250   0.19438   0.19254  -0.0334  0.0172  1.0000  -1.3711   0.0000   0.0000   0.0000   0.2972
  19.700   0.5271   0.19550   0.19367  -0.0340  0.0170  1.0000  -1.3792   0.0000   0.0000   0.0000   0.2981
  19.800   0.5292   0.19659   0.19477  -0.0347  0.0168  1.0000  -1.3896   0.0000   0.0000   0.0000   0.2989
  19.900   0.5315   0.19766   0.19584  -0.0353  0.0166  1.0000  -1.4023   0.0000   0.0000   0.0000   0.2997
  20.000   0.5338   0.19870   0.19688  -0.0359  0.0164  1.0000  -1.4176   0.0000   0.0000   0.0000   0.3004
  20.100   0.5362   0.19972   0.19790  -0.0365  0.0163  1.0000  -1.4357   0.0000   0.0000   0.0000   0.3010
  20.200   0.5387   0.20073   0.19891  -0.0370  0.0162  1.0000  -1.4567   0.0000   0.0000   0.0000   0.3016
  20.300   0.5414   0.20170   0.19989  -0.0375  0.0161  1.0000  -1.4811   0.0000   0.0000   0.0000   0.3020
  20.400   0.5442   0.20266   0.20085  -0.0380  0.0160  1.0000  -1.5092   0.0000   0.0000   0.0000   0.3024
  20.500   0.5473   0.20361   0.20180  -0.0384  0.0159  1.0000  -1.5421   0.0000   0.0000   0.0000   0.3026
  20.600   0.5508   0.20456   0.20276  -0.0388  0.0158  1.0000  -1.5819   0.0000   0.0000   0.0000   0.3026
  20.700   0.5550   0.20561   0.20382  -0.0390  0.0157  1.0000  -1.6314   0.0000   0.0000   0.0000   0.3022
  20.800   0.5571   0.20763   0.20583  -0.0393  0.0156  1.0000  -1.6293   0.0000   0.0000   0.0000   0.3025
  20.900   0.5585   0.20904   0.20725  -0.0401  0.0155  1.0000  -1.6112   0.0000   0.0000   0.0000   0.3036
  21.000   0.5596   0.21047   0.20868  -0.0409  0.0155  1.0000  -1.5892   0.0000   0.0000   0.0000   0.3048
  21.100   0.5606   0.21193   0.21014  -0.0418  0.0155  1.0000  -1.5625   0.0000   0.0000   0.0000   0.3062
  21.200   0.5614   0.21337   0.21158  -0.0426  0.0155  1.0000  -1.5346   0.0000   0.0000   0.0000   0.3075
  21.300   0.5618   0.21484   0.21305  -0.0436  0.0155  1.0000  -1.4979   0.0000   0.0000   0.0000   0.3091
  21.400   0.5617   0.21640   0.21461  -0.0446  0.0154  1.0000  -1.4497   0.0000   0.0000   0.0000   0.3110
  21.500   0.5615   0.21802   0.21624  -0.0457  0.0153  1.0000  -1.3904   0.0000   0.0000   0.0000   0.3131
  21.600   0.5610   0.21991   0.21813  -0.0470  0.0150  1.0000  -1.3032   0.0000   0.0000   0.0000   0.3155
  21.700   0.5624   0.22151   0.21973  -0.0479  0.0145  1.0000  -1.2651   0.0000   0.0000   0.0000   0.3168
  21.800   0.5641   0.22287   0.22109  -0.0486  0.0142  1.0000  -1.2531   0.0000   0.0000   0.0000   0.3178
  21.900   0.5660   0.22415   0.22237  -0.0493  0.0140  1.0000  -1.2460   0.0000   0.0000   0.0000   0.3186
  22.000   0.5679   0.22544   0.22366  -0.0500  0.0137  1.0000  -1.2415   0.0000   0.0000   0.0000   0.3194
  22.100   0.5698   0.22670   0.22493  -0.0507  0.0135  1.0000  -1.2394   0.0000   0.0000   0.0000   0.3202
  22.200   0.5717   0.22795   0.22618  -0.0513  0.0133  1.0000  -1.2430   0.0000   0.0000   0.0000   0.3210
  22.300   0.5737   0.22918   0.22742  -0.0520  0.0131  1.0000  -1.2477   0.0000   0.0000   0.0000   0.3217
  22.400   0.5757   0.23040   0.22864  -0.0527  0.0129  1.0000  -1.2535   0.0000   0.0000   0.0000   0.3224
  22.500   0.5777   0.23160   0.22985  -0.0534  0.0128  1.0000  -1.2606   0.0000   0.0000   0.0000   0.3231
  22.600   0.5797   0.23279   0.23104  -0.0540  0.0126  1.0000  -1.2689   0.0000   0.0000   0.0000   0.3238
  22.700   0.5817   0.23396   0.23221  -0.0547  0.0125  1.0000  -1.2785   0.0000   0.0000   0.0000   0.3244
  22.800   0.5838   0.23511   0.23336  -0.0553  0.0124  1.0000  -1.2897   0.0000   0.0000   0.0000   0.3251
  22.900   0.5859   0.23625   0.23450  -0.0560  0.0122  1.0000  -1.3024   0.0000   0.0000   0.0000   0.3257
  23.000   0.5880   0.23739   0.23565  -0.0566  0.0121  1.0000  -1.3170   0.0000   0.0000   0.0000   0.3262
  23.100   0.5902   0.23850   0.23676  -0.0572  0.0120  1.0000  -1.3336   0.0000   0.0000   0.0000   0.3268
  23.200   0.5924   0.23959   0.23786  -0.0578  0.0120  1.0000  -1.3524   0.0000   0.0000   0.0000   0.3272
  23.300   0.5947   0.24068   0.23895  -0.0584  0.0119  1.0000  -1.3737   0.0000   0.0000   0.0000   0.3276
  23.400   0.5971   0.24176   0.24003  -0.0589  0.0118  1.0000  -1.3978   0.0000   0.0000   0.0000   0.3280
  23.500   0.5996   0.24286   0.24114  -0.0594  0.0117  1.0000  -1.4256   0.0000   0.0000   0.0000   0.3282
  23.600   0.6024   0.24401   0.24229  -0.0598  0.0117  1.0000  -1.4588   0.0000   0.0000   0.0000   0.3282
  23.700   0.6060   0.24534   0.24363  -0.0601  0.0116  1.0000  -1.5036   0.0000   0.0000   0.0000   0.3278
  23.800   0.6087   0.24728   0.24557  -0.0604  0.0115  1.0000  -1.5122   0.0000   0.0000   0.0000   0.3278
  23.900   0.6098   0.24874   0.24702  -0.0612  0.0115  1.0000  -1.4904   0.0000   0.0000   0.0000   0.3288
  24.000   0.6109   0.25021   0.24850  -0.0620  0.0115  1.0000  -1.4676   0.0000   0.0000   0.0000   0.3299
  24.100   0.6118   0.25167   0.24996  -0.0629  0.0115  1.0000  -1.4404   0.0000   0.0000   0.0000   0.3310
  24.200   0.6127   0.25314   0.25143  -0.0637  0.0115  1.0000  -1.4132   0.0000   0.0000   0.0000   0.3321
  24.300   0.6137   0.25460   0.25289  -0.0646  0.0114  1.0000  -1.3863   0.0000   0.0000   0.0000   0.3332
  24.400   0.6146   0.25606   0.25436  -0.0654  0.0114  1.0000  -1.3580   0.0000   0.0000   0.0000   0.3344
  24.500   0.6156   0.25756   0.25586  -0.0663  0.0114  1.0000  -1.3275   0.0000   0.0000   0.0000   0.3355
  24.600   0.6165   0.25907   0.25737  -0.0671  0.0114  1.0000  -1.2937   0.0000   0.0000   0.0000   0.3367
  24.700   0.6175   0.26062   0.25892  -0.0680  0.0113  1.0000  -1.2555   0.0000   0.0000   0.0000   0.3379
  24.800   0.6187   0.26223   0.26053  -0.0689  0.0112  1.0000  -1.2138   0.0000   0.0000   0.0000   0.3391
  24.900   0.6202   0.26383   0.26215  -0.0697  0.0110  1.0000  -1.1828   0.0000   0.0000   0.0000   0.3400
  25.000   0.6219   0.26535   0.26366  -0.0704  0.0107  1.0000  -1.1688   0.0000   0.0000   0.0000   0.3408
  25.100   0.6236   0.26677   0.26509  -0.0711  0.0105  1.0000  -1.1630   0.0000   0.0000   0.0000   0.3414
  25.200   0.6254   0.26816   0.26648  -0.0718  0.0103  1.0000  -1.1610   0.0000   0.0000   0.0000   0.3421
  25.300   0.6271   0.26949   0.26782  -0.0725  0.0101  1.0000  -1.1608   0.0000   0.0000   0.0000   0.3427
  25.400   0.6289   0.27086   0.26919  -0.0732  0.0099  1.0000  -1.1618   0.0000   0.0000   0.0000   0.3433
  25.500   0.6306   0.27219   0.27052  -0.0739  0.0097  1.0000  -1.1637   0.0000   0.0000   0.0000   0.3439
  25.600   0.6323   0.27352   0.27186  -0.0745  0.0095  1.0000  -1.1664   0.0000   0.0000   0.0000   0.3445
  25.700   0.6341   0.27483   0.27318  -0.0752  0.0094  1.0000  -1.1698   0.0000   0.0000   0.0000   0.3451
  25.800   0.6358   0.27614   0.27448  -0.0759  0.0092  1.0000  -1.1740   0.0000   0.0000   0.0000   0.3457
  25.900   0.6375   0.27743   0.27578  -0.0766  0.0091  1.0000  -1.1789   0.0000   0.0000   0.0000   0.3462
  26.000   0.6393   0.27871   0.27706  -0.0772  0.0090  1.0000  -1.1848   0.0000   0.0000   0.0000   0.3468
  26.100   0.6410   0.27998   0.27833  -0.0779  0.0089  1.0000  -1.1915   0.0000   0.0000   0.0000   0.3473
  26.200   0.6428   0.28123   0.27959  -0.0786  0.0088  1.0000  -1.1993   0.0000   0.0000   0.0000   0.3478
  26.300   0.6445   0.28250   0.28086  -0.0792  0.0087  1.0000  -1.2081   0.0000   0.0000   0.0000   0.3484
  26.400   0.6462   0.28373   0.28210  -0.0799  0.0086  1.0000  -1.2182   0.0000   0.0000   0.0000   0.3488
  26.500   0.6480   0.28495   0.28332  -0.0806  0.0085  1.0000  -1.2294   0.0000   0.0000   0.0000   0.3493
  26.600   0.6497   0.28616   0.28453  -0.0812  0.0084  1.0000  -1.2421   0.0000   0.0000   0.0000   0.3498
  26.700   0.6515   0.28736   0.28573  -0.0819  0.0084  1.0000  -1.2564   0.0000   0.0000   0.0000   0.3502
  26.800   0.6533   0.28855   0.28693  -0.0825  0.0083  1.0000  -1.2724   0.0000   0.0000   0.0000   0.3506
  26.900   0.6551   0.28974   0.28813  -0.0831  0.0083  1.0000  -1.2902   0.0000   0.0000   0.0000   0.3510
  27.000   0.6569   0.29094   0.28934  -0.0837  0.0082  1.0000  -1.3104   0.0000   0.0000   0.0000   0.3513
  27.100   0.6589   0.29219   0.29058  -0.0842  0.0082  1.0000  -1.3335   0.0000   0.0000   0.0000   0.3515
  27.200   0.6610   0.29352   0.29192  -0.0847  0.0081  1.0000  -1.3617   0.0000   0.0000   0.0000   0.3516
  27.300   0.6641   0.29540   0.29381  -0.0849  0.0080  1.0000  -1.4032   0.0000   0.0000   0.0000   0.3510


