xflr5 v6.61

 Calculated polar for: NACA 65-206

 1 1 Reynolds number fixed          Mach number fixed         

 xtrf =   1.000 (top)        1.000 (bottom)
 Mach =   0.000     Re =     0.688 e 6     Ncrit =   9.000

  alpha     CL        CD       CDp       Cm    Top Xtr Bot Xtr   Cpmin    Chinge    XCp    
 ------- -------- --------- --------- -------- ------- ------- -------- --------- ---------
  -5.300  -0.3988   0.03521   0.03191  -0.0406  0.9845  0.0085  -2.7333   0.0000   0.0000   0.0000   0.1470
  -5.200  -0.3897   0.03421   0.03090  -0.0415  0.9814  0.0088  -2.5561   0.0000   0.0000   0.0000   0.1425
  -5.100  -0.3797   0.03327   0.02992  -0.0422  0.9783  0.0093  -2.4092   0.0000   0.0000   0.0000   0.1378
  -5.000  -0.3685   0.03219   0.02878  -0.0428  0.9751  0.0099  -2.3099   0.0000   0.0000   0.0000   0.1329
  -4.900  -0.3559   0.03112   0.02761  -0.0432  0.9719  0.0108  -2.2508   0.0000   0.0000   0.0000   0.1278
  -4.800  -0.3392   0.03141   0.02784  -0.0431  0.9687  0.0124  -2.1527   0.0000   0.0000   0.0000   0.1221
  -4.700  -0.3230   0.03202   0.02834  -0.0431  0.9653  0.0129  -2.0411   0.0000   0.0000   0.0000   0.1157
  -4.600  -0.3160   0.02711   0.02306  -0.0437  0.9609  0.0137  -2.2993   0.0000   0.0000   0.0000   0.1107
  -4.500  -0.3074   0.02445   0.02028  -0.0446  0.9568  0.0149  -2.2616   0.0000   0.0000   0.0000   0.1038
  -4.400  -0.2965   0.02363   0.01947  -0.0454  0.9525  0.0159  -2.0930   0.0000   0.0000   0.0000   0.0959
  -4.300  -0.2858   0.02257   0.01833  -0.0454  0.9490  0.0164  -2.0262   0.0000   0.0000   0.0000   0.0899
  -4.200  -0.2761   0.02162   0.01729  -0.0452  0.9462  0.0170  -1.9658   0.0000   0.0000   0.0000   0.0852
  -4.100  -0.2660   0.02069   0.01627  -0.0449  0.9429  0.0176  -1.9076   0.0000   0.0000   0.0000   0.0799
  -4.000  -0.2555   0.01979   0.01527  -0.0447  0.9390  0.0183  -1.8516   0.0000   0.0000   0.0000   0.0740
  -3.500  -0.1980   0.01111   0.00541  -0.0410  0.9118  0.0096  -2.3226   0.0000   0.0000   0.0000   0.0415
  -3.400  -0.1878   0.01003   0.00419  -0.0403  0.9049  0.0096  -2.3426   0.0000   0.0000   0.0000   0.0335
  -3.300  -0.1771   0.00977   0.00391  -0.0402  0.8992  0.0108  -2.2243   0.0000   0.0000   0.0000   0.0216
  -3.200  -0.1659   0.01003   0.00421  -0.0402  0.8954  0.0126  -2.0357   0.0000   0.0000   0.0000   0.0060
  -3.100  -0.1562   0.00929   0.00341  -0.0400  0.8907  0.0147  -1.9439   0.0000   0.0000   0.0000  -0.0078
  -3.000  -0.1460   0.00905   0.00318  -0.0400  0.8851  0.0162  -1.7816   0.0000   0.0000   0.0000  -0.0255
  -2.900  -0.1356   0.00898   0.00311  -0.0400  0.8791  0.0172  -1.6121   0.0000   0.0000   0.0000  -0.0463
  -2.800  -0.1253   0.00889   0.00301  -0.0399  0.8731  0.0179  -1.5413   0.0000   0.0000   0.0000  -0.0703
  -2.700  -0.1150   0.00877   0.00287  -0.0398  0.8671  0.0185  -1.4823   0.0000   0.0000   0.0000  -0.0981
  -2.600  -0.1047   0.00867   0.00275  -0.0398  0.8610  0.0191  -1.4243   0.0000   0.0000   0.0000  -0.1312
  -2.500  -0.0944   0.00870   0.00279  -0.0397  0.8552  0.0206  -1.3387   0.0000   0.0000   0.0000  -0.1726
  -2.400  -0.0839   0.00868   0.00277  -0.0397  0.8500  0.0218  -1.2682   0.0000   0.0000   0.0000  -0.2251
  -2.300  -0.0732   0.00848   0.00255  -0.0398  0.8471  0.0219  -1.2341   0.0000   0.0000   0.0000  -0.2947
  -2.200  -0.0625   0.00827   0.00230  -0.0398  0.8437  0.0217  -1.2085   0.0000   0.0000   0.0000  -0.3880
  -2.100  -0.0518   0.00809   0.00207  -0.0398  0.8398  0.0216  -1.1813   0.0000   0.0000   0.0000  -0.5203
  -2.000  -0.0410   0.00793   0.00188  -0.0398  0.8356  0.0215  -1.1527   0.0000   0.0000   0.0000  -0.7222
  -1.900  -0.0303   0.00779   0.00170  -0.0398  0.8312  0.0214  -1.1228   0.0000   0.0000   0.0000  -1.0673
  -1.800  -0.0195   0.00768   0.00155  -0.0398  0.8265  0.0213  -1.0920   0.0000   0.0000   0.0000  -1.7901
  -1.700  -0.0088   0.00758   0.00141  -0.0398  0.8218  0.0214  -1.0602   0.0000   0.0000   0.0000  -4.2614
  -1.600   0.0018   0.00750   0.00129  -0.0398  0.8172  0.0214  -1.0278   0.0000   0.0000   0.0000  21.8032
  -1.500   0.0125   0.00744   0.00118  -0.0397  0.8124  0.0216  -0.9948   0.0000   0.0000   0.0000   3.4309
  -1.400   0.0232   0.00739   0.00109  -0.0397  0.8078  0.0219  -0.9614   0.0000   0.0000   0.0000   1.9665
  -1.300   0.0339   0.00734   0.00100  -0.0397  0.8033  0.0223  -0.9275   0.0000   0.0000   0.0000   1.4240
  -1.200   0.0447   0.00729   0.00093  -0.0398  0.7998  0.0230  -0.8932   0.0000   0.0000   0.0000   1.1404
  -1.100   0.0557   0.00725   0.00088  -0.0399  0.7976  0.0241  -0.8590   0.0000   0.0000   0.0000   0.9664
  -1.000   0.0667   0.00717   0.00082  -0.0399  0.7949  0.0401  -0.8430   0.0000   0.0000   0.0000   0.8493
  -0.900   0.0765   0.00613   0.00070  -0.0406  0.7919  0.3298  -0.8080   0.0000   0.0000   0.0000   0.7810
  -0.800   0.0858   0.00529   0.00065  -0.0409  0.7886  0.5723  -0.7668   0.0000   0.0000   0.0000   0.7276
  -0.700   0.0951   0.00496   0.00070  -0.0408  0.7849  0.6811  -0.7221   0.0000   0.0000   0.0000   0.6790
  -0.600   0.1054   0.00489   0.00071  -0.0407  0.7809  0.7090  -0.6741   0.0000   0.0000   0.0000   0.6364
  -0.500   0.1157   0.00484   0.00071  -0.0406  0.7769  0.7263  -0.6260   0.0000   0.0000   0.0000   0.6013
  -0.400   0.1263   0.00483   0.00071  -0.0406  0.7733  0.7360  -0.5772   0.0000   0.0000   0.0000   0.5717
  -0.300   0.1370   0.00483   0.00071  -0.0406  0.7703  0.7457  -0.5286   0.0000   0.0000   0.0000   0.5467
  -0.200   0.1474   0.00480   0.00073  -0.0406  0.7678  0.7595  -0.4809   0.0000   0.0000   0.0000   0.5254
  -0.100   0.1575   0.00476   0.00074  -0.0405  0.7651  0.7742  -0.4343   0.0000   0.0000   0.0000   0.5068
   0.000   0.1680   0.00475   0.00075  -0.0404  0.7619  0.7844  -0.3876   0.0000   0.0000   0.0000   0.4905
   0.100   0.1786   0.00476   0.00076  -0.0404  0.7584  0.7907  -0.4288   0.0000   0.0000   0.0000   0.4762
   0.200   0.1893   0.00478   0.00076  -0.0405  0.7540  0.7940  -0.4780   0.0000   0.0000   0.0000   0.4636
   0.300   0.1999   0.00481   0.00076  -0.0405  0.7435  0.7967  -0.5275   0.0000   0.0000   0.0000   0.4522
   0.400   0.2103   0.00485   0.00075  -0.0404  0.7281  0.7988  -0.5790   0.0000   0.0000   0.0000   0.4420
   0.500   0.2200   0.00497   0.00074  -0.0402  0.7022  0.8002  -0.6297   0.0000   0.0000   0.0000   0.4325
   0.600   0.2302   0.00504   0.00074  -0.0401  0.6799  0.8029  -0.6824   0.0000   0.0000   0.0000   0.4240
   0.700   0.2397   0.00517   0.00075  -0.0399  0.6507  0.8063  -0.7340   0.0000   0.0000   0.0000   0.4162
   0.800   0.2503   0.00519   0.00076  -0.0399  0.6414  0.8097  -0.7886   0.0000   0.0000   0.0000   0.4092
   0.900   0.2606   0.00524   0.00078  -0.0399  0.6247  0.8131  -0.8428   0.0000   0.0000   0.0000   0.4026
   1.000   0.2704   0.00537   0.00080  -0.0397  0.5982  0.8165  -0.8959   0.0000   0.0000   0.0000   0.3966
   1.100   0.2799   0.00554   0.00083  -0.0396  0.5580  0.8196  -0.9483   0.0000   0.0000   0.0000   0.3910
   1.200   0.2887   0.00586   0.00088  -0.0394  0.4849  0.8227  -0.9978   0.0000   0.0000   0.0000   0.3859
   1.300   0.2947   0.00680   0.00108  -0.0390  0.2891  0.8261  -1.0375   0.0000   0.0000   0.0000   0.3818
   1.400   0.3001   0.00802   0.00135  -0.0386  0.0361  0.8296  -1.0722   0.0000   0.0000   0.0000   0.3783
   1.500   0.3106   0.00809   0.00140  -0.0387  0.0236  0.8325  -1.1180   0.0000   0.0000   0.0000   0.3739
   1.600   0.3212   0.00814   0.00146  -0.0387  0.0218  0.8354  -1.1631   0.0000   0.0000   0.0000   0.3698
   1.700   0.3318   0.00819   0.00152  -0.0387  0.0208  0.8383  -1.2089   0.0000   0.0000   0.0000   0.3659
   1.800   0.3424   0.00825   0.00159  -0.0387  0.0201  0.8412  -1.2550   0.0000   0.0000   0.0000   0.3623
   1.900   0.3530   0.00832   0.00167  -0.0387  0.0196  0.8440  -1.3009   0.0000   0.0000   0.0000   0.3589
   2.000   0.3636   0.00839   0.00176  -0.0387  0.0193  0.8467  -1.3461   0.0000   0.0000   0.0000   0.3556
   2.100   0.3742   0.00846   0.00185  -0.0387  0.0191  0.8492  -1.3903   0.0000   0.0000   0.0000   0.3526
   2.200   0.3845   0.00854   0.00196  -0.0386  0.0189  0.8534  -1.4325   0.0000   0.0000   0.0000   0.3495
   2.300   0.3945   0.00862   0.00208  -0.0384  0.0188  0.8588  -1.4725   0.0000   0.0000   0.0000   0.3465
   2.400   0.4044   0.00872   0.00222  -0.0382  0.0188  0.8645  -1.5113   0.0000   0.0000   0.0000   0.3436
   2.500   0.4142   0.00883   0.00237  -0.0380  0.0188  0.8702  -1.5491   0.0000   0.0000   0.0000   0.3407
   2.600   0.4240   0.00895   0.00255  -0.0378  0.0188  0.8760  -1.5859   0.0000   0.0000   0.0000   0.3380
   2.700   0.4337   0.00910   0.00274  -0.0375  0.0189  0.8817  -1.6218   0.0000   0.0000   0.0000   0.3354
   2.800   0.4434   0.00927   0.00295  -0.0373  0.0190  0.8877  -1.6565   0.0000   0.0000   0.0000   0.3330
   2.900   0.4531   0.00947   0.00320  -0.0370  0.0192  0.8934  -1.6899   0.0000   0.0000   0.0000   0.3305
   3.000   0.4627   0.00969   0.00346  -0.0368  0.0193  0.8987  -1.7219   0.0000   0.0000   0.0000   0.3282
   3.100   0.4714   0.00992   0.00375  -0.0363  0.0195  0.9065  -1.7513   0.0000   0.0000   0.0000   0.3257
   3.200   0.4798   0.01011   0.00398  -0.0357  0.0194  0.9156  -1.7895   0.0000   0.0000   0.0000   0.3231
   3.300   0.4889   0.01017   0.00404  -0.0354  0.0186  0.9244  -1.8613   0.0000   0.0000   0.0000   0.3210
   3.400   0.4985   0.01015   0.00400  -0.0353  0.0173  0.9322  -1.9575   0.0000   0.0000   0.0000   0.3193
   3.500   0.5081   0.01023   0.00406  -0.0351  0.0165  0.9387  -2.0389   0.0000   0.0000   0.0000   0.3176
   3.600   0.5174   0.01040   0.00424  -0.0348  0.0162  0.9440  -2.1009   0.0000   0.0000   0.0000   0.3158
   3.700   0.5268   0.01056   0.00440  -0.0346  0.0157  0.9480  -2.1696   0.0000   0.0000   0.0000   0.3141
   3.800   0.5368   0.01073   0.00457  -0.0345  0.0152  0.9529  -2.2470   0.0000   0.0000   0.0000   0.3126
   3.900   0.5477   0.01095   0.00479  -0.0347  0.0144  0.9621  -2.3927   0.0000   0.0000   0.0000   0.3116
   4.000   0.5580   0.01143   0.00530  -0.0347  0.0134  0.9724  -2.5539   0.0000   0.0000   0.0000   0.3104
   4.100   0.5660   0.01283   0.00680  -0.0342  0.0119  0.9818  -2.6114   0.0000   0.0000   0.0000   0.3085
   4.200   0.5801   0.01198   0.00588  -0.0350  0.0107  0.9933  -2.9156   0.0000   0.0000   0.0000   0.3084
   4.300   0.5922   0.01178   0.00561  -0.0354  0.0091  1.0000  -3.1419   0.0000   0.0000   0.0000   0.3077
   4.400   0.6027   0.01189   0.00568  -0.0354  0.0082  1.0000  -3.3313   0.0000   0.0000   0.0000   0.3066
   4.500   0.6112   0.01271   0.00655  -0.0348  0.0077  1.0000  -3.4061   0.0000   0.0000   0.0000   0.3048
   4.600   0.6201   0.01386   0.00782  -0.0340  0.0078  1.0000  -3.4124   0.0000   0.0000   0.0000   0.3026
   6.000   0.7122   0.04290   0.03934  -0.0210  0.0118  1.0000  -2.7090   0.0000   0.0000   0.0000   0.2769
   6.100   0.7314   0.04104   0.03752  -0.0205  0.0107  1.0000  -2.9053   0.0000   0.0000   0.0000   0.2753
   6.200   0.7409   0.04176   0.03833  -0.0198  0.0098  1.0000  -2.9557   0.0000   0.0000   0.0000   0.2740
   6.300   0.7474   0.04294   0.03959  -0.0191  0.0092  1.0000  -2.9976   0.0000   0.0000   0.0000   0.2729
   6.400   0.7530   0.04414   0.04086  -0.0186  0.0087  1.0000  -3.0567   0.0000   0.0000   0.0000   0.2720
   6.500   0.7580   0.04528   0.04205  -0.0182  0.0084  1.0000  -3.1361   0.0000   0.0000   0.0000   0.2711
   6.600   0.7624   0.04631   0.04313  -0.0178  0.0081  1.0000  -3.2388   0.0000   0.0000   0.0000   0.2704
   6.700   0.7660   0.04732   0.04418  -0.0174  0.0079  1.0000  -3.3504   0.0000   0.0000   0.0000   0.2698
   6.800   0.7690   0.04833   0.04521  -0.0171  0.0077  1.0000  -3.4765   0.0000   0.0000   0.0000   0.2692
   6.900   0.7709   0.04951   0.04641  -0.0168  0.0075  1.0000  -3.5968   0.0000   0.0000   0.0000   0.2687
   7.000   0.7682   0.05164   0.04862  -0.0161  0.0073  1.0000  -3.5806   0.0000   0.0000   0.0000   0.2678


