xflr5 v6.61

 Calculated polar for: NACA 4408

 1 1 Reynolds number fixed          Mach number fixed         

 xtrf =   1.000 (top)        1.000 (bottom)
 Mach =   0.000     Re =     0.688 e 6     Ncrit =   9.000

  alpha     CL        CD       CDp       Cm    Top Xtr Bot Xtr   Cpmin    Chinge    XCp    
 ------- -------- --------- --------- -------- ------- ------- -------- --------- ---------
 -10.000  -0.3828   0.10890   0.10682  -0.0272  1.0001  0.0098  -1.9386   0.0000   0.0000   0.0000   0.1722
  -9.900  -0.3799   0.10793   0.10586  -0.0276  1.0001  0.0100  -1.8996   0.0000   0.0000   0.0000   0.1708
  -9.800  -0.3771   0.10693   0.10487  -0.0279  1.0001  0.0103  -1.8648   0.0000   0.0000   0.0000   0.1693
  -9.700  -0.3744   0.10591   0.10385  -0.0283  1.0001  0.0107  -1.8341   0.0000   0.0000   0.0000   0.1678
  -9.600  -0.3718   0.10486   0.10281  -0.0287  1.0001  0.0111  -1.8078   0.0000   0.0000   0.0000   0.1662
  -9.500  -0.3694   0.10379   0.10174  -0.0292  1.0001  0.0116  -1.7856   0.0000   0.0000   0.0000   0.1646
  -9.400  -0.3670   0.10269   0.10065  -0.0296  1.0001  0.0122  -1.7682   0.0000   0.0000   0.0000   0.1630
  -9.300  -0.3609   0.10233   0.10029  -0.0310  1.0001  0.0155  -1.7501   0.0000   0.0000   0.0000   0.1579
  -9.200  -0.3583   0.10135   0.09932  -0.0316  1.0001  0.0158  -1.7632   0.0000   0.0000   0.0000   0.1555
  -9.100  -0.3566   0.10011   0.09809  -0.0321  1.0001  0.0159  -1.7839   0.0000   0.0000   0.0000   0.1538
  -9.000  -0.3555   0.09879   0.09678  -0.0325  1.0001  0.0160  -1.8125   0.0000   0.0000   0.0000   0.1524
  -8.900  -0.3548   0.09742   0.09542  -0.0329  1.0001  0.0160  -1.8503   0.0000   0.0000   0.0000   0.1512
  -8.800  -0.3544   0.09603   0.09404  -0.0332  1.0001  0.0161  -1.8998   0.0000   0.0000   0.0000   0.1503
  -8.700  -0.3543   0.09472   0.09274  -0.0335  1.0001  0.0162  -1.9519   0.0000   0.0000   0.0000   0.1496
  -8.600  -0.3545   0.09355   0.09158  -0.0337  1.0001  0.0162  -1.9876   0.0000   0.0000   0.0000   0.1493
  -8.500  -0.3550   0.09245   0.09050  -0.0337  1.0001  0.0163  -2.0082   0.0000   0.0000   0.0000   0.1494
  -8.400  -0.3561   0.09143   0.08949  -0.0335  1.0001  0.0163  -2.0224   0.0000   0.0000   0.0000   0.1503
  -8.300  -0.3580   0.09049   0.08857  -0.0332  1.0001  0.0163  -2.0336   0.0000   0.0000   0.0000   0.1519
  -8.200  -0.3608   0.08965   0.08775  -0.0325  1.0001  0.0163  -2.0439   0.0000   0.0000   0.0000   0.1546
  -8.100  -0.3648   0.08894   0.08705  -0.0316  1.0001  0.0163  -2.0544   0.0000   0.0000   0.0000   0.1583
  -8.000  -0.3700   0.08835   0.08648  -0.0304  1.0001  0.0164  -2.0659   0.0000   0.0000   0.0000   0.1630
  -7.900  -0.3766   0.08789   0.08605  -0.0288  1.0001  0.0164  -2.0788   0.0000   0.0000   0.0000   0.1687
  -7.800  -0.3772   0.08680   0.08497  -0.0291  0.9996  0.0164  -2.0859   0.0000   0.0000   0.0000   0.1682
  -7.700  -0.3699   0.08485   0.08301  -0.0318  0.9983  0.0164  -2.0840   0.0000   0.0000   0.0000   0.1594
  -7.600  -0.3615   0.08275   0.08091  -0.0349  0.9968  0.0164  -2.0795   0.0000   0.0000   0.0000   0.1489
  -7.500  -0.3509   0.08042   0.07858  -0.0385  0.9955  0.0164  -2.0718   0.0000   0.0000   0.0000   0.1355
  -7.400  -0.3406   0.07814   0.07629  -0.0422  0.9944  0.0164  -2.0650   0.0000   0.0000   0.0000   0.1212
  -7.300  -0.3306   0.07588   0.07402  -0.0458  0.9930  0.0164  -2.0591   0.0000   0.0000   0.0000   0.1066
  -7.200  -0.3203   0.07358   0.07172  -0.0494  0.9912  0.0165  -2.0535   0.0000   0.0000   0.0000   0.0907
  -7.100  -0.3199   0.06391   0.06204  -0.0616  0.9882  0.0175  -2.4473   0.0000   0.0000   0.0000   0.0522
  -7.000  -0.3078   0.06158   0.05969  -0.0656  0.9872  0.0178  -2.4075   0.0000   0.0000   0.0000   0.0315
  -6.900  -0.2947   0.05957   0.05766  -0.0693  0.9865  0.0181  -2.3492   0.0000   0.0000   0.0000   0.0093
  -6.800  -0.2847   0.05825   0.05633  -0.0713  0.9842  0.0184  -2.2760   0.0000   0.0000   0.0000  -0.0060
  -6.700  -0.2732   0.05685   0.05491  -0.0737  0.9826  0.0187  -2.2000   0.0000   0.0000   0.0000  -0.0253
  -6.600  -0.2612   0.05577   0.05382  -0.0758  0.9814  0.0191  -2.1023   0.0000   0.0000   0.0000  -0.0455
  -6.500  -0.2492   0.05490   0.05293  -0.0776  0.9804  0.0198  -2.0118   0.0000   0.0000   0.0000  -0.0667
  -6.400  -0.2368   0.05371   0.05173  -0.0798  0.9795  0.0205  -1.9496   0.0000   0.0000   0.0000  -0.0927
  -6.300  -0.2238   0.05215   0.05014  -0.0826  0.9786  0.0213  -1.9113   0.0000   0.0000   0.0000  -0.1247
  -6.200  -0.2100   0.05021   0.04816  -0.0858  0.9775  0.0223  -1.8958   0.0000   0.0000   0.0000  -0.1646
  -6.100  -0.1954   0.04795   0.04586  -0.0894  0.9766  0.0233  -1.8999   0.0000   0.0000   0.0000  -0.2138
  -6.000  -0.1822   0.04566   0.04352  -0.0924  0.9745  0.0244  -1.9202   0.0000   0.0000   0.0000  -0.2637
  -5.900  -0.1694   0.04354   0.04134  -0.0947  0.9716  0.0256  -1.9486   0.0000   0.0000   0.0000  -0.3167
  -5.800  -0.1531   0.04347   0.04124  -0.0954  0.9700  0.0271  -1.8945   0.0000   0.0000   0.0000  -0.3815
  -5.700  -0.1394   0.04164   0.03934  -0.0974  0.9681  0.0274  -1.9040   0.0000   0.0000   0.0000  -0.4577
  -5.600  -0.1264   0.03939   0.03701  -0.0996  0.9662  0.0275  -1.9311   0.0000   0.0000   0.0000  -0.5478
  -5.500  -0.1139   0.03710   0.03461  -0.1016  0.9645  0.0276  -1.9626   0.0000   0.0000   0.0000  -0.6535
  -5.400  -0.1016   0.03491   0.03230  -0.1035  0.9630  0.0276  -1.9910   0.0000   0.0000   0.0000  -0.7806
  -5.300  -0.0923   0.03309   0.03038  -0.1043  0.9598  0.0276  -2.0122   0.0000   0.0000   0.0000  -0.8941
  -5.200  -0.0829   0.03138   0.02855  -0.1051  0.9565  0.0277  -2.0285   0.0000   0.0000   0.0000  -1.0320
  -5.100  -0.0729   0.02971   0.02676  -0.1058  0.9537  0.0277  -2.0413   0.0000   0.0000   0.0000  -1.2191
  -5.000  -0.0689   0.01546   0.01110  -0.1087  0.9493  0.0159  -3.0139   0.0000   0.0000   0.0000  -1.3501
  -4.900  -0.0578   0.01412   0.00954  -0.1089  0.9476  0.0157  -3.0358   0.0000   0.0000   0.0000  -1.6604
  -4.800  -0.0467   0.01316   0.00842  -0.1090  0.9457  0.0156  -3.0294   0.0000   0.0000   0.0000  -2.1137
  -4.700  -0.0370   0.01243   0.00757  -0.1087  0.9427  0.0156  -3.0113   0.0000   0.0000   0.0000  -2.7271
  -4.600  -0.0267   0.01182   0.00684  -0.1085  0.9398  0.0156  -2.9840   0.0000   0.0000   0.0000  -3.8610
  -4.500  -0.0161   0.01131   0.00624  -0.1083  0.9370  0.0157  -2.9486   0.0000   0.0000   0.0000  -6.5389
  -4.400  -0.0053   0.01093   0.00573  -0.1082  0.9345  0.0160  -2.9185   0.0000   0.0000   0.0000  -20.4566
  -4.300   0.0058   0.01061   0.00535  -0.1081  0.9321  0.0162  -2.8624   0.0000   0.0000   0.0000  18.9916
  -4.200   0.0164   0.00934   0.00389  -0.1079  0.9298  0.0216  -2.9802   0.0000   0.0000   0.0000   6.9108
  -4.100   0.0279   0.00936   0.00394  -0.1079  0.9276  0.0240  -2.8831   0.0000   0.0000   0.0000   4.1589
  -4.000   0.0387   0.00934   0.00392  -0.1078  0.9248  0.0254  -2.7897   0.0000   0.0000   0.0000   3.0677
  -3.900   0.0494   0.00930   0.00387  -0.1077  0.9217  0.0262  -2.6963   0.0000   0.0000   0.0000   2.4539
  -3.800   0.0602   0.00925   0.00381  -0.1076  0.9185  0.0269  -2.6022   0.0000   0.0000   0.0000   2.0561
  -3.700   0.0711   0.00921   0.00375  -0.1075  0.9153  0.0273  -2.5080   0.0000   0.0000   0.0000   1.7769
  -3.600   0.0821   0.00916   0.00369  -0.1074  0.9122  0.0276  -2.4142   0.0000   0.0000   0.0000   1.5702
  -3.500   0.0932   0.00911   0.00362  -0.1073  0.9091  0.0278  -2.3214   0.0000   0.0000   0.0000   1.4116
  -3.400   0.1041   0.00858   0.00297  -0.1072  0.9061  0.0297  -2.2737   0.0000   0.0000   0.0000   1.2895
  -3.300   0.1148   0.00832   0.00268  -0.1071  0.9027  0.0327  -2.2054   0.0000   0.0000   0.0000   1.1908
  -3.200   0.1256   0.00821   0.00259  -0.1070  0.8989  0.0354  -2.1201   0.0000   0.0000   0.0000   1.1090
  -3.100   0.1365   0.00814   0.00252  -0.1069  0.8950  0.0381  -2.0346   0.0000   0.0000   0.0000   1.0395
  -3.000   0.1475   0.00808   0.00244  -0.1068  0.8911  0.0403  -1.9510   0.0000   0.0000   0.0000   0.9798
  -2.900   0.1585   0.00804   0.00238  -0.1067  0.8875  0.0415  -1.8649   0.0000   0.0000   0.0000   0.9281
  -2.800   0.1695   0.00788   0.00217  -0.1066  0.8840  0.0448  -1.7898   0.0000   0.0000   0.0000   0.8832
  -2.700   0.1806   0.00773   0.00203  -0.1065  0.8807  0.0505  -1.7127   0.0000   0.0000   0.0000   0.8438
  -2.600   0.1917   0.00765   0.00197  -0.1065  0.8773  0.0548  -1.6307   0.0000   0.0000   0.0000   0.8093
  -2.500   0.2027   0.00760   0.00192  -0.1065  0.8734  0.0579  -1.5484   0.0000   0.0000   0.0000   0.7784
  -2.400   0.2137   0.00750   0.00181  -0.1064  0.8694  0.0654  -1.4709   0.0000   0.0000   0.0000   0.7507
  -2.300   0.2247   0.00741   0.00176  -0.1063  0.8654  0.0732  -1.3912   0.0000   0.0000   0.0000   0.7258
  -2.200   0.2357   0.00737   0.00170  -0.1063  0.8613  0.0779  -1.3113   0.0000   0.0000   0.0000   0.7031
  -2.100   0.2467   0.00729   0.00164  -0.1062  0.8573  0.0889  -1.2340   0.0000   0.0000   0.0000   0.6825
  -2.000   0.2578   0.00724   0.00160  -0.1062  0.8535  0.0975  -1.1560   0.0000   0.0000   0.0000   0.6637
  -1.900   0.2689   0.00717   0.00156  -0.1062  0.8497  0.1076  -1.0788   0.0000   0.0000   0.0000   0.6465
  -1.800   0.2799   0.00709   0.00151  -0.1061  0.8454  0.1237  -1.0350   0.0000   0.0000   0.0000   0.6307
  -1.700   0.2908   0.00702   0.00147  -0.1061  0.8408  0.1375  -0.9847   0.0000   0.0000   0.0000   0.6161
  -1.600   0.3018   0.00697   0.00144  -0.1060  0.8360  0.1484  -0.9345   0.0000   0.0000   0.0000   0.6025
  -1.500   0.3127   0.00693   0.00140  -0.1060  0.8309  0.1614  -0.8851   0.0000   0.0000   0.0000   0.5898
  -1.400   0.3236   0.00689   0.00137  -0.1059  0.8258  0.1745  -0.8361   0.0000   0.0000   0.0000   0.5780
  -1.300   0.3347   0.00684   0.00135  -0.1059  0.8214  0.1878  -0.7874   0.0000   0.0000   0.0000   0.5670
  -1.200   0.3457   0.00678   0.00133  -0.1059  0.8162  0.2030  -0.7394   0.0000   0.0000   0.0000   0.5567
  -1.100   0.3567   0.00675   0.00131  -0.1058  0.8106  0.2170  -0.6921   0.0000   0.0000   0.0000   0.5470
  -1.000   0.3676   0.00670   0.00129  -0.1057  0.8049  0.2341  -0.6456   0.0000   0.0000   0.0000   0.5380
  -0.900   0.3784   0.00668   0.00127  -0.1057  0.7992  0.2512  -0.5997   0.0000   0.0000   0.0000   0.5294
  -0.800   0.3893   0.00663   0.00126  -0.1056  0.7941  0.2722  -0.5678   0.0000   0.0000   0.0000   0.5214
  -0.700   0.4004   0.00655   0.00126  -0.1056  0.7898  0.2978  -0.5751   0.0000   0.0000   0.0000   0.5138
  -0.600   0.4114   0.00648   0.00126  -0.1056  0.7846  0.3248  -0.5823   0.0000   0.0000   0.0000   0.5066
  -0.500   0.4223   0.00641   0.00125  -0.1056  0.7789  0.3555  -0.5896   0.0000   0.0000   0.0000   0.4999
  -0.400   0.4330   0.00631   0.00124  -0.1056  0.7730  0.3997  -0.5967   0.0000   0.0000   0.0000   0.4935
  -0.300   0.4433   0.00608   0.00126  -0.1055  0.7669  0.5002  -0.6038   0.0000   0.0000   0.0000   0.4877
  -0.200   0.4530   0.00576   0.00130  -0.1054  0.7612  0.6335  -0.6113   0.0000   0.0000   0.0000   0.4821
  -0.100   0.4616   0.00543   0.00134  -0.1048  0.7563  0.7620  -0.6182   0.0000   0.0000   0.0000   0.4765
   0.000   0.4661   0.00508   0.00137  -0.1030  0.7504  0.9017  -0.6233   0.0000   0.0000   0.0000   0.4703
   0.200   0.4951   0.00505   0.00130  -0.1043  0.7361  0.9999  -0.6431   0.0000   0.0000   0.0000   0.4598
   0.300   0.5057   0.00511   0.00130  -0.1042  0.7283  0.9999  -0.6510   0.0000   0.0000   0.0000   0.4550
   0.400   0.5168   0.00512   0.00130  -0.1042  0.7233  0.9999  -0.6592   0.0000   0.0000   0.0000   0.4505
   0.500   0.5278   0.00515   0.00130  -0.1041  0.7173  0.9999  -0.6673   0.0000   0.0000   0.0000   0.4461
   0.600   0.5388   0.00519   0.00131  -0.1040  0.7107  0.9999  -0.6754   0.0000   0.0000   0.0000   0.4419
   0.700   0.5495   0.00524   0.00131  -0.1039  0.7038  0.9999  -0.6835   0.0000   0.0000   0.0000   0.4378
   0.800   0.5601   0.00531   0.00132  -0.1038  0.6963  0.9999  -0.6914   0.0000   0.0000   0.0000   0.4339
   0.900   0.5710   0.00535   0.00133  -0.1037  0.6904  0.9999  -0.7000   0.0000   0.0000   0.0000   0.4302
   1.000   0.5821   0.00538   0.00136  -0.1037  0.6847  0.9999  -0.7091   0.0000   0.0000   0.0000   0.4266
   1.100   0.5930   0.00542   0.00137  -0.1037  0.6778  0.9999  -0.7181   0.0000   0.0000   0.0000   0.4231
   1.200   0.6037   0.00548   0.00138  -0.1035  0.6702  0.9999  -0.7270   0.0000   0.0000   0.0000   0.4198
   1.300   0.6142   0.00555   0.00139  -0.1034  0.6618  0.9999  -0.7358   0.0000   0.0000   0.0000   0.4165
   1.400   0.6249   0.00561   0.00141  -0.1033  0.6544  0.9999  -0.7447   0.0000   0.0000   0.0000   0.4134
   1.500   0.6360   0.00564   0.00143  -0.1033  0.6491  0.9999  -0.7539   0.0000   0.0000   0.0000   0.4104
   1.600   0.6469   0.00568   0.00144  -0.1032  0.6429  0.9999  -0.7630   0.0000   0.0000   0.0000   0.4075
   1.700   0.6577   0.00574   0.00147  -0.1032  0.6363  0.9999  -0.7723   0.0000   0.0000   0.0000   0.4047
   1.800   0.6683   0.00581   0.00149  -0.1030  0.6290  0.9999  -0.7822   0.0000   0.0000   0.0000   0.4019
   1.900   0.6787   0.00589   0.00152  -0.1029  0.6205  0.9999  -0.7920   0.0000   0.0000   0.0000   0.3993
   2.000   0.6897   0.00594   0.00154  -0.1029  0.6150  0.9999  -0.8021   0.0000   0.0000   0.0000   0.3967
   2.100   0.7007   0.00597   0.00157  -0.1028  0.6097  0.9999  -0.8123   0.0000   0.0000   0.0000   0.3943
   2.200   0.7116   0.00602   0.00160  -0.1028  0.6034  0.9999  -0.8224   0.0000   0.0000   0.0000   0.3919
   2.300   0.7223   0.00609   0.00163  -0.1027  0.5967  0.9999  -0.8329   0.0000   0.0000   0.0000   0.3895
   2.400   0.7328   0.00617   0.00166  -0.1026  0.5897  0.9999  -0.8439   0.0000   0.0000   0.0000   0.3872
   2.500   0.7433   0.00625   0.00171  -0.1024  0.5817  0.9999  -0.8549   0.0000   0.0000   0.0000   0.3850
   2.600   0.7542   0.00630   0.00174  -0.1024  0.5770  0.9999  -0.8663   0.0000   0.0000   0.0000   0.3829
   2.700   0.7653   0.00634   0.00178  -0.1024  0.5726  0.9999  -0.8783   0.0000   0.0000   0.0000   0.3808
   2.800   0.7762   0.00638   0.00181  -0.1023  0.5674  0.9999  -0.9095   0.0000   0.0000   0.0000   0.3788
   2.900   0.7869   0.00645   0.00185  -0.1023  0.5615  0.9999  -0.9466   0.0000   0.0000   0.0000   0.3768
   3.000   0.7975   0.00652   0.00190  -0.1022  0.5554  0.9999  -0.9905   0.0000   0.0000   0.0000   0.3748
   3.100   0.8079   0.00661   0.00194  -0.1020  0.5485  0.9999  -1.0439   0.0000   0.0000   0.0000   0.3729
   3.200   0.8183   0.00671   0.00200  -0.1019  0.5402  0.9999  -1.0978   0.0000   0.0000   0.0000   0.3711
   3.300   0.8294   0.00673   0.00204  -0.1019  0.5371  0.9999  -1.1545   0.0000   0.0000   0.0000   0.3693
   3.400   0.8404   0.00677   0.00208  -0.1019  0.5327  0.9999  -1.2115   0.0000   0.0000   0.0000   0.3676
   3.500   0.8511   0.00684   0.00213  -0.1018  0.5256  0.9999  -1.2685   0.0000   0.0000   0.0000   0.3659
   3.600   0.8611   0.00695   0.00225  -0.1016  0.5142  0.9999  -1.3109   0.0000   0.0000   0.0000   0.3641
   3.700   0.8709   0.00709   0.00232  -0.1013  0.5001  0.9999  -1.3616   0.0000   0.0000   0.0000   0.3625
   3.800   0.8817   0.00714   0.00236  -0.1013  0.4920  0.9999  -1.4185   0.0000   0.0000   0.0000   0.3609
   3.900   0.8918   0.00724   0.00241  -0.1011  0.4804  0.9999  -1.4753   0.0000   0.0000   0.0000   0.3593
   4.000   0.9015   0.00739   0.00248  -0.1009  0.4670  0.9999  -1.5317   0.0000   0.0000   0.0000   0.3577
   4.100   0.9120   0.00747   0.00254  -0.1008  0.4576  0.9999  -1.5912   0.0000   0.0000   0.0000   0.3562
   4.200   0.9226   0.00754   0.00259  -0.1007  0.4497  0.9999  -1.6521   0.0000   0.0000   0.0000   0.3547
   4.300   0.9331   0.00763   0.00265  -0.1006  0.4420  0.9999  -1.7378   0.0000   0.0000   0.0000   0.3533
   4.400   0.9432   0.00774   0.00272  -0.1004  0.4334  0.9999  -1.8255   0.0000   0.0000   0.0000   0.3519
   4.500   0.9533   0.00786   0.00280  -0.1002  0.4231  0.9999  -1.9137   0.0000   0.0000   0.0000   0.3504
   4.600   0.9641   0.00792   0.00286  -0.1002  0.4179  0.9999  -2.0067   0.0000   0.0000   0.0000   0.3491
   4.700   0.9747   0.00799   0.00293  -0.1001  0.4097  0.9999  -2.1003   0.0000   0.0000   0.0000   0.3478
   4.800   0.9847   0.00812   0.00300  -0.0999  0.3970  0.9999  -2.1924   0.0000   0.0000   0.0000   0.3465
   4.900   0.9942   0.00829   0.00310  -0.0997  0.3818  0.9999  -2.2837   0.0000   0.0000   0.0000   0.3451
   5.000   1.0044   0.00840   0.00318  -0.0995  0.3689  0.9999  -2.3791   0.0000   0.0000   0.0000   0.3439
   5.100   1.0133   0.00864   0.00329  -0.0992  0.3466  0.9999  -2.4697   0.0000   0.0000   0.0000   0.3426
   5.200   1.0228   0.00882   0.00340  -0.0990  0.3269  0.9999  -2.5642   0.0000   0.0000   0.0000   0.3413
   5.300   1.0312   0.00912   0.00356  -0.0986  0.3000  0.9999  -2.6547   0.0000   0.0000   0.0000   0.3400
   5.400   1.0392   0.00948   0.00375  -0.0981  0.2680  0.9999  -2.7435   0.0000   0.0000   0.0000   0.3388
   5.500   1.0468   0.00988   0.00396  -0.0977  0.2333  0.9999  -2.8313   0.0000   0.0000   0.0000   0.3375
   5.600   1.0541   0.01032   0.00421  -0.0971  0.1971  0.9999  -2.9183   0.0000   0.0000   0.0000   0.3363
   5.700   1.0611   0.01078   0.00448  -0.0966  0.1605  0.9999  -3.0045   0.0000   0.0000   0.0000   0.3350
   5.800   1.0681   0.01127   0.00476  -0.0960  0.1264  0.9999  -3.0905   0.0000   0.0000   0.0000   0.3338
   5.900   1.0752   0.01174   0.00505  -0.0954  0.0970  0.9999  -3.1775   0.0000   0.0000   0.0000   0.3326
   6.000   1.0825   0.01216   0.00532  -0.0949  0.0729  0.9999  -3.2665   0.0000   0.0000   0.0000   0.3314
   6.100   1.0906   0.01251   0.00556  -0.0945  0.0565  0.9999  -3.3594   0.0000   0.0000   0.0000   0.3302
   6.200   1.0992   0.01279   0.00578  -0.0941  0.0455  0.9999  -3.4554   0.0000   0.0000   0.0000   0.3291
   6.300   1.1079   0.01306   0.00605  -0.0938  0.0381  0.9999  -3.5385   0.0000   0.0000   0.0000   0.3280
   6.400   1.1173   0.01325   0.00624  -0.0935  0.0332  0.9999  -3.6339   0.0000   0.0000   0.0000   0.3269
   6.500   1.1264   0.01346   0.00643  -0.0932  0.0297  0.9999  -3.7325   0.0000   0.0000   0.0000   0.3259
   6.600   1.1336   0.01393   0.00687  -0.0925  0.0221  0.9999  -3.7947   0.0000   0.0000   0.0000   0.3246
   6.700   1.1429   0.01411   0.00707  -0.0922  0.0210  0.9999  -3.8933   0.0000   0.0000   0.0000   0.3235
   6.800   1.1527   0.01423   0.00721  -0.0920  0.0203  0.9999  -4.0011   0.0000   0.0000   0.0000   0.3226
   6.900   1.1622   0.01439   0.00738  -0.0918  0.0194  0.9999  -4.1056   0.0000   0.0000   0.0000   0.3216
   7.000   1.1715   0.01456   0.00757  -0.0915  0.0182  0.9999  -4.2082   0.0000   0.0000   0.0000   0.3206
   7.100   1.1805   0.01476   0.00776  -0.0912  0.0168  0.9999  -4.3071   0.0000   0.0000   0.0000   0.3196
   7.300   1.1921   0.01593   0.00904  -0.0892  0.0110  0.9999  -4.3252   0.0000   0.0000   0.0000   0.3170
   7.400   1.2006   0.01619   0.00933  -0.0888  0.0108  0.9999  -4.4062   0.0000   0.0000   0.0000   0.3159
   7.500   1.2083   0.01652   0.00970  -0.0882  0.0105  0.9999  -4.4770   0.0000   0.0000   0.0000   0.3149
   7.600   1.2155   0.01689   0.01012  -0.0875  0.0104  0.9999  -4.5420   0.0000   0.0000   0.0000   0.3137
   7.700   1.2223   0.01730   0.01059  -0.0868  0.0102  0.9999  -4.6037   0.0000   0.0000   0.0000   0.3126
   7.800   1.2288   0.01775   0.01109  -0.0860  0.0101  0.9999  -4.6626   0.0000   0.0000   0.0000   0.3115
   7.900   1.2348   0.01822   0.01162  -0.0851  0.0100  0.9999  -4.7191   0.0000   0.0000   0.0000   0.3103
   8.000   1.2406   0.01872   0.01218  -0.0842  0.0100  0.9999  -4.7733   0.0000   0.0000   0.0000   0.3091
   8.100   1.2460   0.01926   0.01277  -0.0832  0.0099  0.9999  -4.8250   0.0000   0.0000   0.0000   0.3079
   8.200   1.2512   0.01982   0.01340  -0.0822  0.0099  0.9999  -4.8745   0.0000   0.0000   0.0000   0.3067
   8.300   1.2561   0.02041   0.01405  -0.0812  0.0099  0.9999  -4.9218   0.0000   0.0000   0.0000   0.3055
   8.400   1.2609   0.02104   0.01473  -0.0802  0.0099  0.9999  -4.9671   0.0000   0.0000   0.0000   0.3043
   8.500   1.2657   0.02170   0.01546  -0.0791  0.0099  0.9999  -5.0103   0.0000   0.0000   0.0000   0.3031
   8.600   1.2705   0.02240   0.01622  -0.0781  0.0100  0.9999  -5.0517   0.0000   0.0000   0.0000   0.3019
   8.700   1.2754   0.02315   0.01703  -0.0771  0.0100  0.9999  -5.0911   0.0000   0.0000   0.0000   0.3008
   8.800   1.2806   0.02395   0.01789  -0.0761  0.0101  0.9999  -5.1286   0.0000   0.0000   0.0000   0.2997
   8.900   1.2859   0.02481   0.01882  -0.0752  0.0101  0.9999  -5.1637   0.0000   0.0000   0.0000   0.2986
   9.000   1.2915   0.02575   0.01983  -0.0744  0.0102  0.9999  -5.1962   0.0000   0.0000   0.0000   0.2975
   9.100   1.2974   0.02678   0.02093  -0.0735  0.0103  0.9999  -5.2250   0.0000   0.0000   0.0000   0.2965
   9.200   1.3034   0.02790   0.02214  -0.0728  0.0104  0.9999  -5.2500   0.0000   0.0000   0.0000   0.2956
   9.300   1.3095   0.02898   0.02330  -0.0721  0.0104  0.9999  -5.2825   0.0000   0.0000   0.0000   0.2946
   9.400   1.3170   0.02861   0.02298  -0.0716  0.0100  0.9999  -5.4539   0.0000   0.0000   0.0000   0.2938
   9.500   1.3235   0.02896   0.02337  -0.0710  0.0098  0.9999  -5.5541   0.0000   0.0000   0.0000   0.2929
   9.600   1.3298   0.02941   0.02386  -0.0704  0.0096  0.9999  -5.6453   0.0000   0.0000   0.0000   0.2921
   9.700   1.3358   0.02992   0.02441  -0.0697  0.0095  0.9999  -5.7311   0.0000   0.0000   0.0000   0.2912
   9.800   1.3415   0.03048   0.02503  -0.0690  0.0093  0.9999  -5.8112   0.0000   0.0000   0.0000   0.2903
   9.900   1.3468   0.03113   0.02573  -0.0682  0.0092  0.9999  -5.8840   0.0000   0.0000   0.0000   0.2894
  10.000   1.3517   0.03186   0.02653  -0.0674  0.0092  0.9999  -5.9463   0.0000   0.0000   0.0000   0.2884
  10.100   1.3559   0.03274   0.02748  -0.0664  0.0091  0.9999  -5.9941   0.0000   0.0000   0.0000   0.2875
  10.200   1.3596   0.03373   0.02856  -0.0655  0.0091  0.9999  -6.0306   0.0000   0.0000   0.0000   0.2865
  10.300   1.3628   0.03475   0.02966  -0.0644  0.0092  0.9999  -6.0641   0.0000   0.0000   0.0000   0.2855
  10.400   1.3652   0.03577   0.03078  -0.0633  0.0092  0.9999  -6.0944   0.0000   0.0000   0.0000   0.2844
  10.500   1.3670   0.03681   0.03191  -0.0621  0.0092  0.9999  -6.1216   0.0000   0.0000   0.0000   0.2833
  10.600   1.3680   0.03786   0.03305  -0.0608  0.0092  0.9999  -6.1457   0.0000   0.0000   0.0000   0.2823
  10.700   1.3684   0.03892   0.03421  -0.0595  0.0092  0.9999  -6.1669   0.0000   0.0000   0.0000   0.2811
  10.800   1.3682   0.04000   0.03537  -0.0581  0.0092  0.9999  -6.1852   0.0000   0.0000   0.0000   0.2800
  10.900   1.3672   0.04108   0.03654  -0.0567  0.0092  0.9999  -6.2006   0.0000   0.0000   0.0000   0.2789
  11.000   1.3657   0.04218   0.03773  -0.0553  0.0092  0.9999  -6.2136   0.0000   0.0000   0.0000   0.2778
  11.100   1.3636   0.04330   0.03895  -0.0538  0.0092  0.9999  -6.2241   0.0000   0.0000   0.0000   0.2766
  11.200   1.3611   0.04445   0.04019  -0.0524  0.0093  0.9999  -6.2324   0.0000   0.0000   0.0000   0.2756
  11.300   1.3579   0.04562   0.04144  -0.0510  0.0093  0.9999  -6.2379   0.0000   0.0000   0.0000   0.2745
  11.400   1.3542   0.04681   0.04272  -0.0497  0.0093  0.9999  -6.2413   0.0000   0.0000   0.0000   0.2734
  11.500   1.3502   0.04804   0.04404  -0.0484  0.0093  0.9999  -6.2426   0.0000   0.0000   0.0000   0.2725
  11.600   1.3460   0.04933   0.04541  -0.0472  0.0093  0.9999  -6.2422   0.0000   0.0000   0.0000   0.2715
  11.700   1.3412   0.05066   0.04683  -0.0461  0.0093  0.9999  -6.2395   0.0000   0.0000   0.0000   0.2707
  11.800   1.3363   0.05204   0.04829  -0.0450  0.0093  0.9999  -6.2404   0.0000   0.0000   0.0000   0.2699
  11.900   1.3307   0.05344   0.04978  -0.0440  0.0093  0.9999  -6.2473   0.0000   0.0000   0.0000   0.2691
  12.000   1.3247   0.05488   0.05129  -0.0431  0.0093  0.9999  -6.2512   0.0000   0.0000   0.0000   0.2684
  12.100   1.3185   0.05640   0.05289  -0.0423  0.0093  0.9999  -6.2518   0.0000   0.0000   0.0000   0.2678
  12.200   1.3122   0.05799   0.05456  -0.0417  0.0093  0.9999  -6.2507   0.0000   0.0000   0.0000   0.2673
  12.300   1.3056   0.05967   0.05631  -0.0411  0.0093  0.9999  -6.2460   0.0000   0.0000   0.0000   0.2669
  12.400   1.2989   0.06141   0.05814  -0.0407  0.0093  0.9999  -6.2390   0.0000   0.0000   0.0000   0.2666
  12.500   1.2919   0.06324   0.06004  -0.0405  0.0094  0.9999  -6.2282   0.0000   0.0000   0.0000   0.2664
  12.600   1.2847   0.06515   0.06202  -0.0404  0.0094  0.9999  -6.2146   0.0000   0.0000   0.0000   0.2664
  12.700   1.2772   0.06714   0.06409  -0.0404  0.0094  0.9999  -6.1971   0.0000   0.0000   0.0000   0.2664
  12.800   1.2695   0.06921   0.06623  -0.0406  0.0094  0.9999  -6.1762   0.0000   0.0000   0.0000   0.2665
  12.900   1.2615   0.07136   0.06846  -0.0409  0.0094  0.9999  -6.1516   0.0000   0.0000   0.0000   0.2668
  13.000   1.2532   0.07360   0.07077  -0.0413  0.0094  0.9999  -6.1227   0.0000   0.0000   0.0000   0.2672
  13.100   1.2445   0.07586   0.07310  -0.0419  0.0094  0.9999  -6.0898   0.0000   0.0000   0.0000   0.2677
  13.200   1.2355   0.07827   0.07557  -0.0426  0.0095  0.9999  -6.0521   0.0000   0.0000   0.0000   0.2684
  13.300   1.2267   0.08079   0.07815  -0.0434  0.0095  0.9999  -6.0122   0.0000   0.0000   0.0000   0.2692
  13.400   1.2174   0.08348   0.08092  -0.0446  0.0095  0.9999  -5.9660   0.0000   0.0000   0.0000   0.2702
  13.500   1.2084   0.08627   0.08377  -0.0458  0.0095  0.9999  -5.9179   0.0000   0.0000   0.0000   0.2713
  13.600   1.1989   0.08926   0.08682  -0.0473  0.0095  0.9999  -5.8619   0.0000   0.0000   0.0000   0.2727
  13.700   1.1896   0.09235   0.08998  -0.0488  0.0096  0.9999  -5.8033   0.0000   0.0000   0.0000   0.2742
  13.800   1.1798   0.09566   0.09336  -0.0507  0.0096  0.9999  -5.7361   0.0000   0.0000   0.0000   0.2759
  13.900   1.1700   0.09912   0.09687  -0.0527  0.0096  0.9999  -5.6637   0.0000   0.0000   0.0000   0.2778
  14.000   1.1600   0.10277   0.10059  -0.0549  0.0097  0.9999  -5.5830   0.0000   0.0000   0.0000   0.2800
  14.100   1.1495   0.10668   0.10456  -0.0574  0.0097  0.9999  -5.4912   0.0000   0.0000   0.0000   0.2824
  14.200   1.1391   0.11074   0.10868  -0.0599  0.0098  0.9999  -5.3919   0.0000   0.0000   0.0000   0.2850
  14.300   1.1276   0.11527   0.11326  -0.0629  0.0098  0.9999  -5.2715   0.0000   0.0000   0.0000   0.2881
  14.400   1.1156   0.12018   0.11823  -0.0662  0.0099  0.9999  -5.1310   0.0000   0.0000   0.0000   0.2916
  14.500   1.1023   0.12574   0.12385  -0.0699  0.0100  0.9999  -4.9563   0.0000   0.0000   0.0000   0.2956
  14.600   1.0858   0.13272   0.13089  -0.0744  0.0101  0.9999  -4.7163   0.0000   0.0000   0.0000   0.3008
  15.000   1.0279   0.16638   0.16460  -0.0904  0.0139  0.9999  -3.2050   0.0000   0.0000   0.0000   0.3212
  15.100   1.0265   0.16885   0.16706  -0.0917  0.0138  0.9999  -3.1725   0.0000   0.0000   0.0000   0.3225
  15.200   1.0257   0.17109   0.16930  -0.0929  0.0137  0.9999  -3.1544   0.0000   0.0000   0.0000   0.3236
  15.300   1.0254   0.17317   0.17137  -0.0940  0.0136  0.9999  -3.1472   0.0000   0.0000   0.0000   0.3246
  15.400   1.0254   0.17511   0.17331  -0.0950  0.0135  0.9999  -3.1490   0.0000   0.0000   0.0000   0.3255
  15.500   1.0257   0.17694   0.17514  -0.0960  0.0134  0.9999  -3.1588   0.0000   0.0000   0.0000   0.3262
  15.600   1.0263   0.17866   0.17687  -0.0969  0.0133  0.9999  -3.1759   0.0000   0.0000   0.0000   0.3269
  15.700   1.0266   0.18055   0.17875  -0.0978  0.0132  0.9999  -3.1841   0.0000   0.0000   0.0000   0.3277
  15.800   1.0268   0.18252   0.18072  -0.0988  0.0131  0.9999  -3.1875   0.0000   0.0000   0.0000   0.3285
  15.900   1.0271   0.18445   0.18264  -0.0998  0.0130  0.9999  -3.1940   0.0000   0.0000   0.0000   0.3293
  16.000   1.0275   0.18635   0.18455  -0.1008  0.0128  0.9999  -3.2026   0.0000   0.0000   0.0000   0.3300
  16.100   1.0274   0.18716   0.18540  -0.1014  0.0122  0.9999  -3.2771   0.0000   0.0000   0.0000   0.3304
  16.200   1.0259   0.18991   0.18814  -0.1026  0.0121  0.9999  -3.2308   0.0000   0.0000   0.0000   0.3317
  16.300   1.0241   0.19283   0.19106  -0.1039  0.0120  0.9999  -3.1738   0.0000   0.0000   0.0000   0.3330
  16.400   1.0225   0.19580   0.19402  -0.1052  0.0119  0.9999  -3.1160   0.0000   0.0000   0.0000   0.3344
  17.800   1.0219   0.23346   0.23163  -0.1203  0.0113  0.9999  -2.5618   0.0000   0.0000   0.0000   0.3477
  17.900   1.0236   0.23566   0.23383  -0.1212  0.0112  0.9999  -2.5357   0.0000   0.0000   0.0000   0.3483
  18.000   1.0254   0.23786   0.23603  -0.1221  0.0111  0.9999  -2.4982   0.0000   0.0000   0.0000   0.3489
  18.100   1.0274   0.24014   0.23832  -0.1230  0.0109  0.9999  -2.4460   0.0000   0.0000   0.0000   0.3494
  18.200   1.0280   0.24287   0.24105  -0.1239  0.0109  0.9999  -2.3729   0.0000   0.0000   0.0000   0.3501
  18.300   1.0289   0.24543   0.24360  -0.1247  0.0109  0.9999  -2.3192   0.0000   0.0000   0.0000   0.3507
  18.400   1.0302   0.24778   0.24594  -0.1255  0.0109  0.9999  -2.2826   0.0000   0.0000   0.0000   0.3512
  18.500   1.0321   0.24988   0.24805  -0.1263  0.0108  0.9999  -2.2617   0.0000   0.0000   0.0000   0.3516
  18.600   1.0422   0.24777   0.24595  -0.1272  0.0066  0.9999  -2.5870   0.0000   0.0000   0.0000   0.3509
  18.700   1.0444   0.24902   0.24720  -0.1278  0.0063  0.9999  -2.6479   0.0000   0.0000   0.0000   0.3510
  18.800   1.0468   0.25004   0.24823  -0.1283  0.0060  0.9999  -2.7283   0.0000   0.0000   0.0000   0.3509
  18.900   1.0495   0.25084   0.24902  -0.1287  0.0058  0.9999  -2.8284   0.0000   0.0000   0.0000   0.3508
  19.000   1.0523   0.25149   0.24968  -0.1291  0.0056  0.9999  -2.9417   0.0000   0.0000   0.0000   0.3506
  19.100   1.0545   0.25256   0.25076  -0.1296  0.0054  0.9999  -3.0246   0.0000   0.0000   0.0000   0.3506
  19.200   1.0563   0.25384   0.25204  -0.1302  0.0053  0.9999  -3.0925   0.0000   0.0000   0.0000   0.3507
  19.300   1.0576   0.25537   0.25357  -0.1309  0.0051  0.9999  -3.1406   0.0000   0.0000   0.0000   0.3510
  19.400   1.0566   0.25815   0.25635  -0.1318  0.0049  0.9999  -3.0840   0.0000   0.0000   0.0000   0.3518
  19.800   1.0482   0.27503   0.27318  -0.1358  0.0045  0.9999  -2.4039   0.0000   0.0000   0.0000   0.3565
  19.900   1.0491   0.27741   0.27556  -0.1365  0.0045  0.9999  -2.3790   0.0000   0.0000   0.0000   0.3569
  20.000   1.0500   0.27978   0.27793  -0.1371  0.0045  0.9999  -2.3553   0.0000   0.0000   0.0000   0.3573
  20.100   1.0509   0.28214   0.28029  -0.1378  0.0045  0.9999  -2.3328   0.0000   0.0000   0.0000   0.3576
  20.200   1.0518   0.28449   0.28264  -0.1384  0.0045  0.9999  -2.3114   0.0000   0.0000   0.0000   0.3580
  20.300   1.0527   0.28683   0.28499  -0.1391  0.0045  0.9999  -2.2910   0.0000   0.0000   0.0000   0.3583
  20.400   1.0536   0.28917   0.28733  -0.1397  0.0045  0.9999  -2.2714   0.0000   0.0000   0.0000   0.3587
  20.500   1.0544   0.29150   0.28966  -0.1403  0.0045  0.9999  -2.2526   0.0000   0.0000   0.0000   0.3590
  20.600   1.0552   0.29382   0.29198  -0.1409  0.0045  0.9999  -2.2345   0.0000   0.0000   0.0000   0.3593
  20.700   1.0560   0.29614   0.29430  -0.1415  0.0045  0.9999  -2.2170   0.0000   0.0000   0.0000   0.3596
  20.800   1.0567   0.29845   0.29661  -0.1421  0.0045  0.9999  -2.2002   0.0000   0.0000   0.0000   0.3599
  20.900   1.0574   0.30075   0.29892  -0.1427  0.0045  0.9999  -2.1848   0.0000   0.0000   0.0000   0.3602
  21.000   1.0581   0.30305   0.30122  -0.1433  0.0045  0.9999  -2.1705   0.0000   0.0000   0.0000   0.3605
  21.100   1.0587   0.30535   0.30351  -0.1438  0.0045  0.9999  -2.1564   0.0000   0.0000   0.0000   0.3608
  21.200   1.0593   0.30764   0.30581  -0.1444  0.0045  0.9999  -2.1426   0.0000   0.0000   0.0000   0.3611
  21.300   1.0598   0.30992   0.30809  -0.1449  0.0045  0.9999  -2.1290   0.0000   0.0000   0.0000   0.3614
  21.400   1.0603   0.31220   0.31037  -0.1454  0.0045  0.9999  -2.1157   0.0000   0.0000   0.0000   0.3616
  21.500   1.0607   0.31447   0.31264  -0.1459  0.0045  0.9999  -2.1025   0.0000   0.0000   0.0000   0.3619
  21.600   1.0610   0.31673   0.31490  -0.1464  0.0045  0.9999  -2.0894   0.0000   0.0000   0.0000   0.3622
  21.700   1.0613   0.31899   0.31716  -0.1469  0.0045  0.9999  -2.0765   0.0000   0.0000   0.0000   0.3624
  21.800   1.0615   0.32123   0.31941  -0.1474  0.0045  0.9999  -2.0636   0.0000   0.0000   0.0000   0.3627
  21.900   1.0616   0.32347   0.32165  -0.1479  0.0045  0.9999  -2.0508   0.0000   0.0000   0.0000   0.3630
  22.000   1.0617   0.32570   0.32388  -0.1483  0.0045  0.9999  -2.0382   0.0000   0.0000   0.0000   0.3632
  22.100   1.0616   0.32791   0.32609  -0.1487  0.0045  0.9999  -2.0255   0.0000   0.0000   0.0000   0.3634
  22.200   1.0615   0.33011   0.32830  -0.1491  0.0045  0.9999  -2.0129   0.0000   0.0000   0.0000   0.3637
  22.300   1.0612   0.33230   0.33049  -0.1495  0.0045  0.9999  -2.0003   0.0000   0.0000   0.0000   0.3639
  22.400   1.0608   0.33447   0.33266  -0.1499  0.0045  0.9999  -1.9877   0.0000   0.0000   0.0000   0.3642
  22.500   1.0603   0.33661   0.33481  -0.1502  0.0045  0.9999  -1.9750   0.0000   0.0000   0.0000   0.3644
  22.600   1.0597   0.33874   0.33693  -0.1505  0.0045  0.9999  -1.9622   0.0000   0.0000   0.0000   0.3646
  22.700   1.0588   0.34084   0.33903  -0.1508  0.0045  0.9999  -1.9492   0.0000   0.0000   0.0000   0.3648
  22.800   1.0578   0.34290   0.34110  -0.1510  0.0045  0.9999  -1.9361   0.0000   0.0000   0.0000   0.3650
  22.900   1.0566   0.34493   0.34314  -0.1512  0.0045  0.9999  -1.9227   0.0000   0.0000   0.0000   0.3652
  23.000   1.0552   0.34692   0.34513  -0.1514  0.0045  0.9999  -1.9090   0.0000   0.0000   0.0000   0.3654
  23.100   1.0535   0.34885   0.34706  -0.1515  0.0045  0.9999  -1.8949   0.0000   0.0000   0.0000   0.3656
  23.200   1.0514   0.35072   0.34893  -0.1516  0.0045  0.9999  -1.8802   0.0000   0.0000   0.0000   0.3658
  23.300   1.0489   0.35250   0.35072  -0.1515  0.0045  0.9999  -1.8649   0.0000   0.0000   0.0000   0.3660
  23.400   1.0458   0.35416   0.35239  -0.1514  0.0045  0.9999  -1.8485   0.0000   0.0000   0.0000   0.3662
  23.500   1.0421   0.35567   0.35390  -0.1512  0.0045  0.9999  -1.8307   0.0000   0.0000   0.0000   0.3663
  23.600   1.0371   0.35694   0.35518  -0.1507  0.0045  0.9999  -1.8106   0.0000   0.0000   0.0000   0.3665
  23.700   0.9349   0.33308   0.33138  -0.1331  0.0045  0.9999  -1.5882   0.0000   0.0000   0.0000   0.3650
  23.800   0.9288   0.33270   0.33101  -0.1324  0.0045  0.9999  -1.5663   0.0000   0.0000   0.0000   0.3652
  23.900   0.9235   0.33247   0.33078  -0.1318  0.0045  0.9999  -1.5460   0.0000   0.0000   0.0000   0.3653
  24.000   0.9187   0.33233   0.33065  -0.1313  0.0045  0.9999  -1.5270   0.0000   0.0000   0.0000   0.3654
  24.100   0.9143   0.33228   0.33060  -0.1309  0.0045  0.9999  -1.5090   0.0000   0.0000   0.0000   0.3656
  24.200   0.9102   0.33228   0.33061  -0.1305  0.0045  0.9999  -1.4918   0.0000   0.0000   0.0000   0.3657
  24.300   0.9065   0.33234   0.33067  -0.1302  0.0045  0.9999  -1.4755   0.0000   0.0000   0.0000   0.3659
  24.400   0.9029   0.33242   0.33077  -0.1299  0.0045  0.9999  -1.4597   0.0000   0.0000   0.0000   0.3661
  24.500   0.8996   0.33254   0.33089  -0.1297  0.0045  0.9999  -1.4446   0.0000   0.0000   0.0000   0.3662
  24.600   0.8965   0.33270   0.33105  -0.1295  0.0045  0.9999  -1.4299   0.0000   0.0000   0.0000   0.3664
  24.700   0.8935   0.33288   0.33123  -0.1293  0.0045  0.9999  -1.4158   0.0000   0.0000   0.0000   0.3666
  24.800   0.8908   0.33308   0.33144  -0.1292  0.0045  0.9999  -1.4021   0.0000   0.0000   0.0000   0.3667
  24.900   0.8881   0.33331   0.33167  -0.1290  0.0045  0.9999  -1.3889   0.0000   0.0000   0.0000   0.3669
  25.000   0.8856   0.33355   0.33192  -0.1289  0.0045  0.9999  -1.3760   0.0000   0.0000   0.0000   0.3671
  25.100   0.8832   0.33382   0.33219  -0.1288  0.0044  0.9999  -1.3635   0.0000   0.0000   0.0000   0.3673
  25.200   0.8809   0.33410   0.33248  -0.1288  0.0044  0.9999  -1.3514   0.0000   0.0000   0.0000   0.3674
  25.300   0.8787   0.33439   0.33278  -0.1287  0.0044  0.9999  -1.3395   0.0000   0.0000   0.0000   0.3676
  25.400   0.8767   0.33470   0.33309  -0.1287  0.0044  0.9999  -1.3280   0.0000   0.0000   0.0000   0.3678
  25.500   0.8747   0.33502   0.33342  -0.1286  0.0044  0.9999  -1.3168   0.0000   0.0000   0.0000   0.3680
  25.600   0.8727   0.33535   0.33375  -0.1286  0.0044  0.9999  -1.3058   0.0000   0.0000   0.0000   0.3682
  25.700   0.8709   0.33570   0.33410  -0.1286  0.0044  0.9999  -1.2951   0.0000   0.0000   0.0000   0.3684
  25.800   0.8691   0.33605   0.33446  -0.1287  0.0044  0.9999  -1.2846   0.0000   0.0000   0.0000   0.3685
  25.900   0.8674   0.33641   0.33483  -0.1287  0.0044  0.9999  -1.2744   0.0000   0.0000   0.0000   0.3687
  26.000   0.8658   0.33678   0.33520  -0.1287  0.0044  0.9999  -1.2644   0.0000   0.0000   0.0000   0.3689
  26.100   0.8642   0.33717   0.33561  -0.1288  0.0044  0.9999  -1.2545   0.0000   0.0000   0.0000   0.3691
  26.200   0.8627   0.33755   0.33600  -0.1288  0.0044  0.9999  -1.2447   0.0000   0.0000   0.0000   0.3693
  26.300   0.8612   0.33795   0.33640  -0.1289  0.0044  0.9999  -1.2351   0.0000   0.0000   0.0000   0.3695
  26.400   0.8598   0.33835   0.33681  -0.1290  0.0044  0.9999  -1.2257   0.0000   0.0000   0.0000   0.3697
  26.500   0.8584   0.33876   0.33723  -0.1291  0.0044  0.9999  -1.2165   0.0000   0.0000   0.0000   0.3699
  26.600   0.8570   0.33918   0.33764  -0.1292  0.0044  0.9999  -1.2075   0.0000   0.0000   0.0000   0.3701
  26.700   0.8557   0.33959   0.33807  -0.1293  0.0044  0.9999  -1.1986   0.0000   0.0000   0.0000   0.3703
  26.800   0.8545   0.34002   0.33850  -0.1294  0.0044  0.9999  -1.1899   0.0000   0.0000   0.0000   0.3705
  26.900   0.8533   0.34045   0.33893  -0.1295  0.0044  0.9999  -1.1814   0.0000   0.0000   0.0000   0.3706
  27.000   0.8521   0.34088   0.33937  -0.1296  0.0044  0.9999  -1.1731   0.0000   0.0000   0.0000   0.3708
  27.100   0.8510   0.34132   0.33982  -0.1297  0.0044  0.9999  -1.1649   0.0000   0.0000   0.0000   0.3710
  27.200   0.8499   0.34177   0.34027  -0.1299  0.0044  0.9999  -1.1568   0.0000   0.0000   0.0000   0.3712
  27.300   0.8488   0.34222   0.34072  -0.1300  0.0044  0.9999  -1.1489   0.0000   0.0000   0.0000   0.3714
  27.400   0.8477   0.34267   0.34118  -0.1301  0.0044  0.9999  -1.1411   0.0000   0.0000   0.0000   0.3716
  27.500   0.8467   0.34313   0.34164  -0.1303  0.0044  0.9999  -1.1335   0.0000   0.0000   0.0000   0.3718
  27.600   0.8458   0.34359   0.34210  -0.1305  0.0044  0.9999  -1.1260   0.0000   0.0000   0.0000   0.3720
  27.700   0.8448   0.34405   0.34257  -0.1306  0.0044  0.9999  -1.1186   0.0000   0.0000   0.0000   0.3722
  27.800   0.8439   0.34452   0.34304  -0.1308  0.0044  0.9999  -1.1114   0.0000   0.0000   0.0000   0.3724
  27.900   0.8430   0.34499   0.34352  -0.1310  0.0044  0.9999  -1.1042   0.0000   0.0000   0.0000   0.3726
  28.000   0.8421   0.34547   0.34400  -0.1311  0.0044  0.9999  -1.0972   0.0000   0.0000   0.0000   0.3728
  28.100   0.8412   0.34594   0.34448  -0.1313  0.0044  0.9999  -1.0903   0.0000   0.0000   0.0000   0.3730
  28.200   0.8404   0.34642   0.34496  -0.1315  0.0044  0.9999  -1.0836   0.0000   0.0000   0.0000   0.3732
  28.300   0.8396   0.34691   0.34545  -0.1317  0.0044  0.9999  -1.0769   0.0000   0.0000   0.0000   0.3734
  28.400   0.8388   0.34739   0.34594  -0.1319  0.0044  0.9999  -1.0703   0.0000   0.0000   0.0000   0.3736
  28.500   0.8380   0.34788   0.34644  -0.1321  0.0044  0.9999  -1.0639   0.0000   0.0000   0.0000   0.3738
  28.600   0.8373   0.34838   0.34694  -0.1323  0.0044  0.9999  -1.0575   0.0000   0.0000   0.0000   0.3740
  28.700   0.8366   0.34888   0.34744  -0.1325  0.0044  0.9999  -1.0513   0.0000   0.0000   0.0000   0.3742
  28.800   0.8359   0.34938   0.34794  -0.1327  0.0044  0.9999  -1.0452   0.0000   0.0000   0.0000   0.3744
  28.900   0.8352   0.34988   0.34845  -0.1330  0.0044  0.9999  -1.0393   0.0000   0.0000   0.0000   0.3746
  29.000   0.8345   0.35038   0.34896  -0.1332  0.0044  0.9999  -1.0334   0.0000   0.0000   0.0000   0.3748
  29.100   0.8339   0.35090   0.34948  -0.1334  0.0044  0.9999  -1.0270   0.0000   0.0000   0.0000   0.3750
  29.200   0.8332   0.35141   0.35000  -0.1336  0.0044  0.9999  -1.0206   0.0000   0.0000   0.0000   0.3752
  29.300   0.8326   0.35193   0.35052  -0.1339  0.0044  0.9999  -1.0144   0.0000   0.0000   0.0000   0.3754
  29.400   0.8320   0.35245   0.35104  -0.1341  0.0044  0.9999  -1.0083   0.0000   0.0000   0.0000   0.3757
  29.500   0.8314   0.35297   0.35157  -0.1344  0.0044  0.9999  -1.0023   0.0000   0.0000   0.0000   0.3759
  29.600   0.8308   0.35349   0.35210  -0.1346  0.0043  0.9999  -0.9964   0.0000   0.0000   0.0000   0.3761
  29.700   0.8302   0.35402   0.35263  -0.1349  0.0043  0.9999  -0.9906   0.0000   0.0000   0.0000   0.3763
  29.800   0.8296   0.35455   0.35316  -0.1351  0.0043  0.9999  -0.9850   0.0000   0.0000   0.0000   0.3765
  29.900   0.8291   0.35507   0.35369  -0.1354  0.0043  0.9999  -0.9794   0.0000   0.0000   0.0000   0.3767
  30.000   0.8285   0.35560   0.35422  -0.1357  0.0043  0.9999  -0.9739   0.0000   0.0000   0.0000   0.3769


