xflr5 v6.61

 Calculated polar for: NACA 65-206

 1 1 Reynolds number fixed          Mach number fixed         

 xtrf =   1.000 (top)        1.000 (bottom)
 Mach =   0.000     Re =     0.500 e 6     Ncrit =   9.000

  alpha     CL        CD       CDp       Cm    Top Xtr Bot Xtr   Cpmin    Chinge    XCp    
 ------- -------- --------- --------- -------- ------- ------- -------- --------- ---------
  -6.300  -0.4798   0.05519   0.05232  -0.0330  1.0000  0.0082  -2.6789   0.0000   0.0000   0.0000   0.1801
  -6.200  -0.4809   0.05367   0.05080  -0.0327  1.0000  0.0084  -2.6324   0.0000   0.0000   0.0000   0.1809
  -6.100  -0.4801   0.05254   0.04965  -0.0324  1.0000  0.0085  -2.5548   0.0000   0.0000   0.0000   0.1815
  -6.000  -0.4786   0.05154   0.04864  -0.0320  1.0000  0.0087  -2.4692   0.0000   0.0000   0.0000   0.1822
  -5.900  -0.4763   0.05047   0.04756  -0.0317  1.0000  0.0089  -2.4028   0.0000   0.0000   0.0000   0.1826
  -5.800  -0.4734   0.04935   0.04641  -0.0313  1.0000  0.0091  -2.3497   0.0000   0.0000   0.0000   0.1829
  -5.700  -0.4701   0.04820   0.04523  -0.0310  1.0000  0.0094  -2.3078   0.0000   0.0000   0.0000   0.1832
  -5.600  -0.4596   0.04652   0.04348  -0.0322  0.9993  0.0099  -2.2599   0.0000   0.0000   0.0000   0.1791
  -5.500  -0.4475   0.04478   0.04165  -0.0335  0.9983  0.0106  -2.2332   0.0000   0.0000   0.0000   0.1744
  -5.400  -0.4328   0.04331   0.04008  -0.0344  0.9972  0.0115  -2.2275   0.0000   0.0000   0.0000   0.1696
  -5.300  -0.4124   0.04386   0.04053  -0.0345  0.9962  0.0127  -2.1529   0.0000   0.0000   0.0000   0.1655
  -5.200  -0.3992   0.04306   0.03959  -0.0350  0.9949  0.0129  -2.1264   0.0000   0.0000   0.0000   0.1614
  -5.100  -0.3879   0.04171   0.03810  -0.0356  0.9933  0.0130  -2.1215   0.0000   0.0000   0.0000   0.1572
  -5.000  -0.3876   0.03489   0.03103  -0.0373  0.9909  0.0141  -2.4139   0.0000   0.0000   0.0000   0.1528
  -4.900  -0.3794   0.03313   0.02925  -0.0382  0.9889  0.0149  -2.2968   0.0000   0.0000   0.0000   0.1482
  -4.800  -0.3698   0.03211   0.02825  -0.0390  0.9869  0.0159  -2.1432   0.0000   0.0000   0.0000   0.1436
  -4.700  -0.3591   0.03115   0.02724  -0.0396  0.9849  0.0171  -2.0257   0.0000   0.0000   0.0000   0.1388
  -4.600  -0.3474   0.03014   0.02616  -0.0401  0.9828  0.0186  -1.9410   0.0000   0.0000   0.0000   0.1337
  -4.500  -0.3351   0.02883   0.02474  -0.0405  0.9806  0.0193  -1.9040   0.0000   0.0000   0.0000   0.1282
  -4.400  -0.3223   0.02762   0.02342  -0.0409  0.9784  0.0203  -1.8648   0.0000   0.0000   0.0000   0.1222
  -4.300  -0.3092   0.02657   0.02225  -0.0412  0.9762  0.0213  -1.8209   0.0000   0.0000   0.0000   0.1158
  -4.200  -0.2955   0.02579   0.02137  -0.0415  0.9739  0.0226  -1.7657   0.0000   0.0000   0.0000   0.1089
  -4.100  -0.2810   0.02579   0.02131  -0.0415  0.9716  0.0242  -1.6741   0.0000   0.0000   0.0000   0.1013
  -4.000  -0.2662   0.02620   0.02166  -0.0416  0.9695  0.0252  -1.5658   0.0000   0.0000   0.0000   0.0929
  -3.500  -0.1978   0.01462   0.00875  -0.0425  0.9548  0.0135  -1.9347   0.0000   0.0000   0.0000   0.0339
  -3.400  -0.1846   0.01275   0.00673  -0.0424  0.9516  0.0121  -2.0006   0.0000   0.0000   0.0000   0.0187
  -3.200  -0.1642   0.01045   0.00425  -0.0416  0.9465  0.0159  -2.0019   0.0000   0.0000   0.0000  -0.0049
  -3.100  -0.1536   0.01054   0.00441  -0.0417  0.9439  0.0183  -1.7999   0.0000   0.0000   0.0000  -0.0231
  -3.000  -0.1430   0.01049   0.00438  -0.0417  0.9407  0.0199  -1.6283   0.0000   0.0000   0.0000  -0.0433
  -2.900  -0.1323   0.01034   0.00423  -0.0417  0.9372  0.0209  -1.4802   0.0000   0.0000   0.0000  -0.0668
  -2.800  -0.1216   0.01015   0.00403  -0.0417  0.9333  0.0216  -1.4258   0.0000   0.0000   0.0000  -0.0947
  -2.700  -0.1106   0.01009   0.00399  -0.0418  0.9293  0.0228  -1.3537   0.0000   0.0000   0.0000  -0.1296
  -2.600  -0.0991   0.01041   0.00435  -0.0421  0.9258  0.0247  -1.2394   0.0000   0.0000   0.0000  -0.1758
  -2.400  -0.0772   0.01004   0.00396  -0.0421  0.9179  0.0251  -1.1531   0.0000   0.0000   0.0000  -0.2975
  -2.300  -0.0666   0.00962   0.00350  -0.0421  0.9139  0.0249  -1.1410   0.0000   0.0000   0.0000  -0.3842
  -2.200  -0.0559   0.00928   0.00313  -0.0421  0.9099  0.0248  -1.1237   0.0000   0.0000   0.0000  -0.5052
  -2.100  -0.0451   0.00901   0.00281  -0.0421  0.9058  0.0247  -1.1033   0.0000   0.0000   0.0000  -0.6848
  -2.000  -0.0343   0.00877   0.00254  -0.0421  0.9017  0.0247  -1.0806   0.0000   0.0000   0.0000  -0.9795
  -1.900  -0.0236   0.00857   0.00230  -0.0421  0.8989  0.0247  -1.0560   0.0000   0.0000   0.0000  -1.5395
  -1.800  -0.0129   0.00840   0.00210  -0.0421  0.8966  0.0247  -1.0299   0.0000   0.0000   0.0000  -3.0239
  -1.700  -0.0021   0.00825   0.00192  -0.0421  0.8941  0.0248  -1.0021   0.0000   0.0000   0.0000  -19.3902
  -1.600   0.0086   0.00813   0.00176  -0.0421  0.8913  0.0250  -0.9727   0.0000   0.0000   0.0000   5.1512
  -1.500   0.0194   0.00802   0.00163  -0.0421  0.8884  0.0252  -0.9417   0.0000   0.0000   0.0000   2.4276
  -1.300   0.0405   0.00713   0.00114  -0.0423  0.8807  0.1876  -0.9913   0.0000   0.0000   0.0000   1.2963
  -1.200   0.0480   0.00568   0.00104  -0.0427  0.8772  0.5927  -0.9615   0.0000   0.0000   0.0000   1.1420
  -1.100   0.0566   0.00537   0.00109  -0.0423  0.8739  0.6913  -0.9190   0.0000   0.0000   0.0000   0.9981
  -1.000   0.0656   0.00523   0.00113  -0.0418  0.8706  0.7415  -0.8736   0.0000   0.0000   0.0000   0.8886
  -0.900   0.0742   0.00513   0.00116  -0.0412  0.8671  0.7776  -0.8279   0.0000   0.0000   0.0000   0.8060
  -0.800   0.0822   0.00507   0.00121  -0.0404  0.8634  0.8156  -0.7834   0.0000   0.0000   0.0000   0.7421
  -0.700   0.0901   0.00504   0.00125  -0.0395  0.8595  0.8423  -0.7390   0.0000   0.0000   0.0000   0.6892
  -0.600   0.1000   0.00505   0.00125  -0.0393  0.8556  0.8522  -0.6908   0.0000   0.0000   0.0000   0.6433
  -0.500   0.1098   0.00504   0.00124  -0.0391  0.8515  0.8589  -0.6431   0.0000   0.0000   0.0000   0.6059
  -0.400   0.1201   0.00503   0.00123  -0.0390  0.8489  0.8630  -0.5948   0.0000   0.0000   0.0000   0.5746
  -0.300   0.1306   0.00502   0.00122  -0.0389  0.8466  0.8666  -0.5468   0.0000   0.0000   0.0000   0.5482
  -0.200   0.1411   0.00501   0.00122  -0.0389  0.8441  0.8694  -0.4991   0.0000   0.0000   0.0000   0.5258
  -0.100   0.1518   0.00501   0.00121  -0.0389  0.8415  0.8716  -0.4516   0.0000   0.0000   0.0000   0.5066
   0.000   0.1627   0.00501   0.00121  -0.0390  0.8390  0.8731  -0.4044   0.0000   0.0000   0.0000   0.4899
   0.100   0.1736   0.00501   0.00121  -0.0391  0.8366  0.8742  -0.4254   0.0000   0.0000   0.0000   0.4753
   0.200   0.1846   0.00501   0.00121  -0.0393  0.8340  0.8750  -0.4752   0.0000   0.0000   0.0000   0.4625
   0.300   0.1955   0.00502   0.00120  -0.0393  0.8303  0.8757  -0.5253   0.0000   0.0000   0.0000   0.4511
   0.400   0.2061   0.00502   0.00121  -0.0394  0.8290  0.8789  -0.5772   0.0000   0.0000   0.0000   0.4408
   0.500   0.2168   0.00503   0.00122  -0.0394  0.8275  0.8820  -0.6302   0.0000   0.0000   0.0000   0.4315
   0.600   0.2275   0.00503   0.00123  -0.0394  0.8256  0.8850  -0.6841   0.0000   0.0000   0.0000   0.4230
   0.700   0.2382   0.00504   0.00124  -0.0395  0.8234  0.8877  -0.7387   0.0000   0.0000   0.0000   0.4154
   0.800   0.2489   0.00505   0.00125  -0.0395  0.8206  0.8902  -0.7940   0.0000   0.0000   0.0000   0.4083
   0.900   0.2595   0.00507   0.00126  -0.0395  0.8171  0.8924  -0.8498   0.0000   0.0000   0.0000   0.4018
   1.000   0.2700   0.00509   0.00127  -0.0395  0.8125  0.8943  -0.9060   0.0000   0.0000   0.0000   0.3957
   1.100   0.2802   0.00512   0.00126  -0.0393  0.8041  0.8963  -0.9618   0.0000   0.0000   0.0000   0.3899
   1.200   0.2904   0.00514   0.00126  -0.0392  0.7920  0.8981  -1.0181   0.0000   0.0000   0.0000   0.3845
   1.300   0.2997   0.00520   0.00123  -0.0388  0.7678  0.8999  -1.0726   0.0000   0.0000   0.0000   0.3788
   1.400   0.3085   0.00528   0.00120  -0.0382  0.7411  0.9033  -1.1258   0.0000   0.0000   0.0000   0.3734
   1.500   0.3166   0.00542   0.00117  -0.0376  0.7014  0.9069  -1.1769   0.0000   0.0000   0.0000   0.3680
   1.600   0.3244   0.00564   0.00115  -0.0369  0.6444  0.9108  -1.2264   0.0000   0.0000   0.0000   0.3630
   1.700   0.3312   0.00601   0.00116  -0.0361  0.5564  0.9151  -1.2717   0.0000   0.0000   0.0000   0.3583
   1.800   0.3349   0.00699   0.00132  -0.0352  0.3547  0.9205  -1.3051   0.0000   0.0000   0.0000   0.3543
   1.900   0.3384   0.00828   0.00163  -0.0345  0.0959  0.9263  -1.3299   0.0000   0.0000   0.0000   0.3513
   2.000   0.3467   0.00879   0.00190  -0.0340  0.0239  0.9316  -1.2889   0.0000   0.0000   0.0000   0.3474
   2.100   0.3569   0.00888   0.00201  -0.0339  0.0234  0.9353  -1.3273   0.0000   0.0000   0.0000   0.3442
   2.200   0.3671   0.00897   0.00213  -0.0338  0.0230  0.9389  -1.3645   0.0000   0.0000   0.0000   0.3412
   2.300   0.3772   0.00909   0.00228  -0.0337  0.0227  0.9423  -1.4008   0.0000   0.0000   0.0000   0.3384
   2.400   0.3872   0.00922   0.00245  -0.0335  0.0225  0.9456  -1.4362   0.0000   0.0000   0.0000   0.3356
   2.500   0.3969   0.00937   0.00263  -0.0333  0.0223  0.9486  -1.4706   0.0000   0.0000   0.0000   0.3329
   2.600   0.4074   0.00954   0.00284  -0.0332  0.0223  0.9530  -1.5049   0.0000   0.0000   0.0000   0.3306
   2.700   0.4187   0.00974   0.00309  -0.0334  0.0223  0.9596  -1.5395   0.0000   0.0000   0.0000   0.3287
   2.800   0.4302   0.00998   0.00336  -0.0336  0.0223  0.9665  -1.5727   0.0000   0.0000   0.0000   0.3270
   2.900   0.4417   0.01025   0.00368  -0.0338  0.0223  0.9736  -1.6044   0.0000   0.0000   0.0000   0.3254
   3.000   0.4529   0.01056   0.00402  -0.0339  0.0224  0.9809  -1.6341   0.0000   0.0000   0.0000   0.3237
   3.100   0.4637   0.01090   0.00440  -0.0340  0.0226  0.9890  -1.6614   0.0000   0.0000   0.0000   0.3220
   3.200   0.4739   0.01129   0.00482  -0.0339  0.0227  0.9979  -1.6862   0.0000   0.0000   0.0000   0.3202
   3.300   0.4836   0.01172   0.00529  -0.0336  0.0229  1.0000  -1.7081   0.0000   0.0000   0.0000   0.3182
   3.400   0.4937   0.01197   0.00553  -0.0336  0.0226  1.0000  -1.7579   0.0000   0.0000   0.0000   0.3166
   3.500   0.5047   0.01189   0.00543  -0.0338  0.0213  1.0000  -1.8555   0.0000   0.0000   0.0000   0.3155
   3.600   0.5155   0.01187   0.00537  -0.0340  0.0197  1.0000  -1.9559   0.0000   0.0000   0.0000   0.3144
   3.700   0.5256   0.01210   0.00561  -0.0339  0.0192  1.0000  -2.0159   0.0000   0.0000   0.0000   0.3129
   3.800   0.5357   0.01235   0.00586  -0.0338  0.0186  1.0000  -2.0786   0.0000   0.0000   0.0000   0.3115
   3.900   0.5459   0.01256   0.00606  -0.0338  0.0178  1.0000  -2.2253   0.0000   0.0000   0.0000   0.3102
   4.000   0.5563   0.01267   0.00616  -0.0338  0.0168  1.0000  -2.4131   0.0000   0.0000   0.0000   0.3090
   4.100   0.5669   0.01266   0.00608  -0.0340  0.0152  1.0000  -2.6292   0.0000   0.0000   0.0000   0.3081
   4.200   0.5747   0.01361   0.00703  -0.0335  0.0128  1.0000  -2.7332   0.0000   0.0000   0.0000   0.3064
   4.300   0.5844   0.01441   0.00790  -0.0331  0.0110  1.0000  -2.7916   0.0000   0.0000   0.0000   0.3046
   4.400   0.5947   0.01526   0.00883  -0.0325  0.0103  1.0000  -2.8331   0.0000   0.0000   0.0000   0.3027
   4.500   0.6046   0.01707   0.01082  -0.0316  0.0106  1.0000  -2.7717   0.0000   0.0000   0.0000   0.3003
   4.600   0.6158   0.01864   0.01252  -0.0308  0.0134  1.0000  -2.7314   0.0000   0.0000   0.0000   0.2980
   7.800   0.7513   0.06790   0.06517  -0.0089  0.0099  1.0000  -2.7212   0.0000   0.0000   0.0000   0.2586
   7.900   0.7478   0.06922   0.06653  -0.0083  0.0098  1.0000  -2.7016   0.0000   0.0000   0.0000   0.2579
   8.000   0.7428   0.07042   0.06776  -0.0076  0.0097  1.0000  -2.6802   0.0000   0.0000   0.0000   0.2570
   8.100   0.7353   0.07136   0.06872  -0.0063  0.0098  1.0000  -2.6570   0.0000   0.0000   0.0000   0.2553
   8.200   0.7274   0.07230   0.06968  -0.0052  0.0098  1.0000  -2.6323   0.0000   0.0000   0.0000   0.2538
   8.300   0.7194   0.07334   0.07073  -0.0043  0.0099  1.0000  -2.6058   0.0000   0.0000   0.0000   0.2526
   8.400   0.7115   0.07449   0.07190  -0.0038  0.0100  1.0000  -2.5777   0.0000   0.0000   0.0000   0.2520
   8.500   0.7038   0.07576   0.07318  -0.0037  0.0101  1.0000  -2.5480   0.0000   0.0000   0.0000   0.2518
   8.600   0.6965   0.07716   0.07460  -0.0040  0.0102  1.0000  -2.5165   0.0000   0.0000   0.0000   0.2522
   8.700   0.6895   0.07872   0.07617  -0.0046  0.0104  1.0000  -2.4835   0.0000   0.0000   0.0000   0.2530
   8.800   0.6830   0.08047   0.07792  -0.0055  0.0105  1.0000  -2.4484   0.0000   0.0000   0.0000   0.2544
   8.900   0.6768   0.08246   0.07991  -0.0069  0.0107  1.0000  -2.4100   0.0000   0.0000   0.0000   0.2564
   9.000   0.6721   0.08447   0.08192  -0.0082  0.0108  1.0000  -2.3732   0.0000   0.0000   0.0000   0.2583
   9.100   0.6689   0.08639   0.08383  -0.0094  0.0109  1.0000  -2.3395   0.0000   0.0000   0.0000   0.2601
   9.200   0.6665   0.08822   0.08566  -0.0104  0.0108  1.0000  -2.3083   0.0000   0.0000   0.0000   0.2617
   9.300   0.6648   0.09000   0.08743  -0.0114  0.0108  1.0000  -2.2789   0.0000   0.0000   0.0000   0.2632
   9.400   0.6635   0.09175   0.08917  -0.0124  0.0107  1.0000  -2.2509   0.0000   0.0000   0.0000   0.2646
   9.500   0.6625   0.09347   0.09089  -0.0133  0.0106  1.0000  -2.2240   0.0000   0.0000   0.0000   0.2659
   9.600   0.6617   0.09519   0.09260  -0.0141  0.0104  1.0000  -2.1982   0.0000   0.0000   0.0000   0.2672
   9.700   0.6611   0.09690   0.09431  -0.0150  0.0103  1.0000  -2.1735   0.0000   0.0000   0.0000   0.2684
   9.800   0.6605   0.09863   0.09603  -0.0158  0.0102  1.0000  -2.1485   0.0000   0.0000   0.0000   0.2696
   9.900   0.6600   0.10035   0.09774  -0.0166  0.0100  1.0000  -2.1253   0.0000   0.0000   0.0000   0.2708
  10.000   0.6596   0.10206   0.09945  -0.0174  0.0098  1.0000  -2.1042   0.0000   0.0000   0.0000   0.2720
  10.100   0.6594   0.10377   0.10115  -0.0182  0.0097  1.0000  -2.0853   0.0000   0.0000   0.0000   0.2732
  10.200   0.6593   0.10548   0.10285  -0.0190  0.0095  1.0000  -2.0683   0.0000   0.0000   0.0000   0.2743
  10.300   0.6593   0.10716   0.10454  -0.0198  0.0093  1.0000  -2.0540   0.0000   0.0000   0.0000   0.2754
  10.400   0.6595   0.10884   0.10621  -0.0206  0.0092  1.0000  -2.0423   0.0000   0.0000   0.0000   0.2765
  10.500   0.6598   0.11052   0.10788  -0.0213  0.0090  1.0000  -2.0333   0.0000   0.0000   0.0000   0.2776
  10.600   0.6602   0.11218   0.10954  -0.0221  0.0089  1.0000  -2.0273   0.0000   0.0000   0.0000   0.2786
  10.700   0.6608   0.11384   0.11119  -0.0228  0.0087  1.0000  -2.0248   0.0000   0.0000   0.0000   0.2797
  10.800   0.6615   0.11548   0.11283  -0.0236  0.0085  1.0000  -2.0262   0.0000   0.0000   0.0000   0.2807
  10.900   0.6623   0.11711   0.11445  -0.0243  0.0084  1.0000  -2.0323   0.0000   0.0000   0.0000   0.2816
  11.000   0.6633   0.11871   0.11605  -0.0250  0.0082  1.0000  -2.0441   0.0000   0.0000   0.0000   0.2826
  11.100   0.6645   0.12029   0.11762  -0.0257  0.0081  1.0000  -2.0633   0.0000   0.0000   0.0000   0.2834
  11.200   0.6660   0.12182   0.11916  -0.0263  0.0079  1.0000  -2.0932   0.0000   0.0000   0.0000   0.2842
  11.300   0.6678   0.12331   0.12063  -0.0268  0.0077  1.0000  -2.1409   0.0000   0.0000   0.0000   0.2848
  11.400   0.6705   0.12468   0.12201  -0.0272  0.0075  1.0000  -2.2274   0.0000   0.0000   0.0000   0.2851
  11.500   0.6726   0.12624   0.12356  -0.0275  0.0073  1.0000  -2.3254   0.0000   0.0000   0.0000   0.2853


