xflr5 v6.61

 Calculated polar for: NACA 0012-34

 1 1 Reynolds number fixed          Mach number fixed         

 xtrf =   1.000 (top)        1.000 (bottom)
 Mach =   0.000     Re =     1.000 e 6     Ncrit =   9.000

  alpha     CL        CD       CDp       Cm    Top Xtr Bot Xtr   Cpmin    Chinge    XCp    
 ------- -------- --------- --------- -------- ------- ------- -------- --------- ---------
  -5.600  -0.5526   0.01413   0.00551  -0.0016  0.0348  0.0165  -2.4068   0.0000   0.0000   0.0000   0.2426
  -5.500  -0.5436   0.01389   0.00519  -0.0009  0.0348  0.0141  -2.3345   0.0000   0.0000   0.0000   0.2437
  -5.400  -0.5326   0.01390   0.00522  -0.0010  0.0348  0.0130  -2.2196   0.0000   0.0000   0.0000   0.2437
  -5.000  -0.5049   0.01212   0.00289   0.0030  0.0354  0.0171  -2.0119   0.0000   0.0000   0.0000   0.2519
  -4.900  -0.4960   0.01197   0.00283   0.0032  0.0354  0.0215  -1.9056   0.0000   0.0000   0.0000   0.2524
  -4.800  -0.4865   0.01188   0.00278   0.0032  0.0353  0.0238  -1.7923   0.0000   0.0000   0.0000   0.2527
  -4.700  -0.4765   0.01185   0.00274   0.0031  0.0353  0.0247  -1.6757   0.0000   0.0000   0.0000   0.2527
  -4.600  -0.4663   0.01184   0.00275   0.0030  0.0352  0.0249  -1.5570   0.0000   0.0000   0.0000   0.2526
  -4.400  -0.4463   0.01176   0.00266   0.0029  0.0351  0.0265  -1.4625   0.0000   0.0000   0.0000   0.2528
  -4.300  -0.4370   0.01161   0.00250   0.0032  0.0347  0.0373  -1.4647   0.0000   0.0000   0.0000   0.2537
  -4.200  -0.4275   0.01151   0.00244   0.0032  0.0346  0.0426  -1.4296   0.0000   0.0000   0.0000   0.2541
  -4.100  -0.4179   0.01143   0.00238   0.0033  0.0345  0.0474  -1.3935   0.0000   0.0000   0.0000   0.2544
  -4.000  -0.4092   0.01127   0.00229   0.0035  0.0344  0.0637  -1.3596   0.0000   0.0000   0.0000   0.2551
  -3.900  -0.4022   0.01096   0.00216   0.0040  0.0343  0.0927  -1.3293   0.0000   0.0000   0.0000   0.2565
  -3.800  -0.3933   0.01081   0.00207   0.0041  0.0342  0.1178  -1.2959   0.0000   0.0000   0.0000   0.2572
  -3.700  -0.3858   0.01055   0.00197   0.0045  0.0341  0.1446  -1.2651   0.0000   0.0000   0.0000   0.2585
  -3.600  -0.3807   0.01009   0.00178   0.0053  0.0340  0.1911  -1.2390   0.0000   0.0000   0.0000   0.2609
  -3.500  -0.3722   0.00993   0.00173   0.0055  0.0339  0.2293  -1.2067   0.0000   0.0000   0.0000   0.2619
  -3.400  -0.3655   0.00962   0.00163   0.0061  0.0338  0.2710  -1.1780   0.0000   0.0000   0.0000   0.2637
  -3.300  -0.3581   0.00940   0.00154   0.0065  0.0337  0.3008  -1.1480   0.0000   0.0000   0.0000   0.2653
  -3.100  -0.3454   0.00882   0.00138   0.0078  0.0335  0.3995  -1.0920   0.0000   0.0000   0.0000   0.2699
  -3.000  -0.3365   0.00873   0.00134   0.0080  0.0335  0.4300  -1.0601   0.0000   0.0000   0.0000   0.2711
  -2.900  -0.3270   0.00867   0.00132   0.0081  0.0334  0.4422  -1.0276   0.0000   0.0000   0.0000   0.2720
  -2.800  -0.3174   0.00862   0.00129   0.0081  0.0333  0.4505  -0.9951   0.0000   0.0000   0.0000   0.2730
  -2.700  -0.3074   0.00859   0.00127   0.0081  0.0333  0.4555  -0.9623   0.0000   0.0000   0.0000   0.2738
  -2.600  -0.2972   0.00858   0.00125   0.0080  0.0332  0.4588  -0.9294   0.0000   0.0000   0.0000   0.2745
  -2.500  -0.2868   0.00857   0.00124   0.0079  0.0332  0.4605  -0.8966   0.0000   0.0000   0.0000   0.2751
  -2.400  -0.2763   0.00858   0.00123   0.0078  0.0332  0.4606  -0.8638   0.0000   0.0000   0.0000   0.2757
  -2.300  -0.2655   0.00860   0.00122   0.0076  0.0332  0.4590  -0.8311   0.0000   0.0000   0.0000   0.2762
  -2.200  -0.2545   0.00864   0.00121   0.0074  0.0331  0.4557  -0.7983   0.0000   0.0000   0.0000   0.2766
  -2.100  -0.2434   0.00869   0.00121   0.0071  0.0332  0.4510  -0.7656   0.0000   0.0000   0.0000   0.2769
  -2.000  -0.2332   0.00868   0.00119   0.0070  0.0332  0.4541  -0.7346   0.0000   0.0000   0.0000   0.2779
  -1.900  -0.2238   0.00862   0.00118   0.0071  0.0332  0.4641  -0.7050   0.0000   0.0000   0.0000   0.2795
  -1.800  -0.2143   0.00856   0.00116   0.0072  0.0332  0.4750  -0.6756   0.0000   0.0000   0.0000   0.2814
  -1.700  -0.2042   0.00855   0.00114   0.0071  0.0332  0.4794  -0.6455   0.0000   0.0000   0.0000   0.2828
  -1.600  -0.1934   0.00858   0.00114   0.0069  0.0333  0.4770  -0.6147   0.0000   0.0000   0.0000   0.2837
  -1.500  -0.1811   0.00870   0.00116   0.0064  0.0334  0.4602  -0.5822   0.0000   0.0000   0.0000   0.2835
  -1.400  -0.1691   0.00881   0.00117   0.0060  0.0335  0.4467  -0.5505   0.0000   0.0000   0.0000   0.2835
  -1.300  -0.1575   0.00890   0.00118   0.0057  0.0336  0.4350  -0.5196   0.0000   0.0000   0.0000   0.2839
  -1.200  -0.1462   0.00897   0.00118   0.0054  0.0337  0.4220  -0.4893   0.0000   0.0000   0.0000   0.2847
  -1.100  -0.1351   0.00903   0.00118   0.0051  0.0338  0.4045  -0.4596   0.0000   0.0000   0.0000   0.2859
  -1.000  -0.1241   0.00908   0.00119   0.0049  0.0339  0.3958  -0.4304   0.0000   0.0000   0.0000   0.2874
  -0.900  -0.1128   0.00914   0.00120   0.0046  0.0341  0.3869  -0.4077   0.0000   0.0000   0.0000   0.2888
  -0.800  -0.0990   0.00941   0.00127   0.0039  0.0343  0.3481  -0.3974   0.0000   0.0000   0.0000   0.2870
  -0.700  -0.0716   0.01092   0.00162   0.0007  0.0349  0.0500  -0.3777   0.0000   0.0000   0.0000   0.2570
  -0.600  -0.0613   0.01093   0.00161   0.0006  0.0351  0.0484  -0.3713   0.0000   0.0000   0.0000   0.2568
  -0.500  -0.0510   0.01093   0.00160   0.0004  0.0353  0.0469  -0.3649   0.0000   0.0000   0.0000   0.2566
  -0.400  -0.0408   0.01093   0.00158   0.0003  0.0356  0.0453  -0.3586   0.0000   0.0000   0.0000   0.2564
  -0.300  -0.0306   0.01093   0.00156   0.0003  0.0359  0.0436  -0.3523   0.0000   0.0000   0.0000   0.2563
  -0.200  -0.0203   0.01094   0.00154   0.0002  0.0362  0.0419  -0.3460   0.0000   0.0000   0.0000   0.2559
  -0.100  -0.0101   0.01094   0.00152   0.0001  0.0365  0.0396  -0.3397   0.0000   0.0000   0.0000   0.2549
   0.000   0.0000   0.01093   0.00152  -0.0000  0.0368  0.0368  -0.3335   0.0000   0.0000   0.0000   0.4362
   0.100   0.0101   0.01094   0.00152  -0.0001  0.0396  0.0365  -0.3397   0.0000   0.0000   0.0000   0.2549
   0.200   0.0203   0.01094   0.00154  -0.0002  0.0419  0.0362  -0.3460   0.0000   0.0000   0.0000   0.2559
   0.300   0.0306   0.01093   0.00156  -0.0003  0.0436  0.0359  -0.3523   0.0000   0.0000   0.0000   0.2563
   0.400   0.0408   0.01093   0.00158  -0.0003  0.0453  0.0356  -0.3586   0.0000   0.0000   0.0000   0.2564
   0.500   0.0510   0.01093   0.00160  -0.0004  0.0469  0.0353  -0.3649   0.0000   0.0000   0.0000   0.2566
   0.600   0.0613   0.01092   0.00161  -0.0006  0.0484  0.0351  -0.3713   0.0000   0.0000   0.0000   0.2568
   0.700   0.0716   0.01092   0.00162  -0.0007  0.0500  0.0349  -0.3777   0.0000   0.0000   0.0000   0.2570
   0.800   0.0990   0.00941   0.00127  -0.0039  0.3481  0.0343  -0.3974   0.0000   0.0000   0.0000   0.2870
   0.900   0.1128   0.00914   0.00120  -0.0046  0.3869  0.0341  -0.4077   0.0000   0.0000   0.0000   0.2888
   1.000   0.1241   0.00908   0.00119  -0.0049  0.3958  0.0339  -0.4304   0.0000   0.0000   0.0000   0.2874
   1.100   0.1351   0.00903   0.00118  -0.0051  0.4045  0.0338  -0.4596   0.0000   0.0000   0.0000   0.2859
   1.200   0.1462   0.00897   0.00118  -0.0054  0.4220  0.0337  -0.4893   0.0000   0.0000   0.0000   0.2847
   1.300   0.1575   0.00890   0.00118  -0.0057  0.4350  0.0336  -0.5196   0.0000   0.0000   0.0000   0.2839
   1.400   0.1691   0.00881   0.00117  -0.0060  0.4467  0.0335  -0.5505   0.0000   0.0000   0.0000   0.2835
   1.500   0.1811   0.00870   0.00116  -0.0064  0.4602  0.0334  -0.5822   0.0000   0.0000   0.0000   0.2835
   1.600   0.1934   0.00858   0.00114  -0.0069  0.4770  0.0333  -0.6147   0.0000   0.0000   0.0000   0.2837
   1.700   0.2042   0.00855   0.00114  -0.0071  0.4794  0.0332  -0.6455   0.0000   0.0000   0.0000   0.2827
   1.800   0.2143   0.00856   0.00116  -0.0072  0.4750  0.0332  -0.6756   0.0000   0.0000   0.0000   0.2814
   1.900   0.2238   0.00862   0.00118  -0.0071  0.4641  0.0332  -0.7050   0.0000   0.0000   0.0000   0.2795
   2.000   0.2332   0.00868   0.00119  -0.0070  0.4541  0.0332  -0.7346   0.0000   0.0000   0.0000   0.2779
   2.100   0.2434   0.00869   0.00121  -0.0071  0.4510  0.0332  -0.7656   0.0000   0.0000   0.0000   0.2769
   2.200   0.2545   0.00864   0.00121  -0.0074  0.4557  0.0331  -0.7983   0.0000   0.0000   0.0000   0.2766
   2.300   0.2655   0.00860   0.00122  -0.0076  0.4590  0.0332  -0.8311   0.0000   0.0000   0.0000   0.2762
   2.400   0.2763   0.00858   0.00123  -0.0078  0.4606  0.0332  -0.8638   0.0000   0.0000   0.0000   0.2757
   2.500   0.2868   0.00857   0.00124  -0.0079  0.4605  0.0332  -0.8966   0.0000   0.0000   0.0000   0.2751
   2.600   0.2972   0.00858   0.00125  -0.0080  0.4588  0.0332  -0.9294   0.0000   0.0000   0.0000   0.2745
   2.700   0.3074   0.00859   0.00127  -0.0081  0.4555  0.0333  -0.9623   0.0000   0.0000   0.0000   0.2738
   2.800   0.3174   0.00862   0.00129  -0.0081  0.4505  0.0333  -0.9951   0.0000   0.0000   0.0000   0.2730
   2.900   0.3270   0.00867   0.00132  -0.0081  0.4422  0.0334  -1.0276   0.0000   0.0000   0.0000   0.2720
   3.000   0.3365   0.00873   0.00134  -0.0080  0.4300  0.0335  -1.0601   0.0000   0.0000   0.0000   0.2711
   3.100   0.3454   0.00882   0.00138  -0.0078  0.3995  0.0335  -1.0920   0.0000   0.0000   0.0000   0.2699
   3.300   0.3582   0.00940   0.00154  -0.0065  0.3008  0.0337  -1.1480   0.0000   0.0000   0.0000   0.2653
   3.400   0.3655   0.00962   0.00163  -0.0061  0.2709  0.0338  -1.1780   0.0000   0.0000   0.0000   0.2637
   3.500   0.3722   0.00993   0.00173  -0.0055  0.2293  0.0339  -1.2068   0.0000   0.0000   0.0000   0.2619
   3.600   0.3807   0.01009   0.00178  -0.0053  0.1911  0.0340  -1.2390   0.0000   0.0000   0.0000   0.2609
   3.700   0.3858   0.01055   0.00196  -0.0045  0.1446  0.0341  -1.2652   0.0000   0.0000   0.0000   0.2585
   3.800   0.3933   0.01081   0.00207  -0.0041  0.1178  0.0342  -1.2959   0.0000   0.0000   0.0000   0.2573
   3.900   0.4022   0.01096   0.00215  -0.0040  0.0927  0.0343  -1.3293   0.0000   0.0000   0.0000   0.2566
   4.000   0.4092   0.01127   0.00229  -0.0035  0.0637  0.0344  -1.3596   0.0000   0.0000   0.0000   0.2551
   4.100   0.4180   0.01143   0.00238  -0.0033  0.0474  0.0345  -1.3936   0.0000   0.0000   0.0000   0.2544
   4.200   0.4276   0.01151   0.00243  -0.0032  0.0426  0.0346  -1.4297   0.0000   0.0000   0.0000   0.2541
   4.300   0.4370   0.01161   0.00250  -0.0032  0.0373  0.0347  -1.4648   0.0000   0.0000   0.0000   0.2537
   4.400   0.4464   0.01176   0.00266  -0.0029  0.0265  0.0351  -1.4626   0.0000   0.0000   0.0000   0.2528
   4.600   0.4664   0.01184   0.00275  -0.0030  0.0249  0.0352  -1.5573   0.0000   0.0000   0.0000   0.2527
   4.700   0.4766   0.01184   0.00274  -0.0031  0.0247  0.0353  -1.6760   0.0000   0.0000   0.0000   0.2528
   4.800   0.4865   0.01188   0.00278  -0.0032  0.0238  0.0353  -1.7926   0.0000   0.0000   0.0000   0.2527
   4.900   0.4961   0.01197   0.00283  -0.0032  0.0215  0.0354  -1.9060   0.0000   0.0000   0.0000   0.2525
   5.000   0.5050   0.01212   0.00289  -0.0030  0.0171  0.0354  -2.0122   0.0000   0.0000   0.0000   0.2519
   5.100   0.5133   0.01245   0.00337  -0.0022  0.0124  0.0351  -2.0597   0.0000   0.0000   0.0000   0.2502
   5.400   0.5327   0.01390   0.00521   0.0010  0.0130  0.0348  -2.2202   0.0000   0.0000   0.0000   0.2438
   5.500   0.5438   0.01389   0.00519   0.0009  0.0141  0.0348  -2.3351   0.0000   0.0000   0.0000   0.2438
   5.600   0.5526   0.01414   0.00552   0.0016  0.0166  0.0348  -2.4055   0.0000   0.0000   0.0000   0.2426
  12.800   0.5583   0.13727   0.13510   0.0061  0.0116  1.0000  -1.9002   0.0000   0.0000   0.0000   0.2256
  12.900   0.5589   0.13919   0.13702   0.0054  0.0116  1.0000  -1.8837   0.0000   0.0000   0.0000   0.2268
  13.000   0.5596   0.14109   0.13892   0.0047  0.0116  1.0000  -1.8673   0.0000   0.0000   0.0000   0.2280
  13.100   0.5604   0.14299   0.14082   0.0040  0.0115  1.0000  -1.8509   0.0000   0.0000   0.0000   0.2292
  13.200   0.5613   0.14488   0.14271   0.0032  0.0115  1.0000  -1.8351   0.0000   0.0000   0.0000   0.2304
  13.300   0.5622   0.14675   0.14457   0.0025  0.0115  1.0000  -1.8199   0.0000   0.0000   0.0000   0.2316
  13.400   0.5633   0.14860   0.14642   0.0018  0.0115  1.0000  -1.8053   0.0000   0.0000   0.0000   0.2327
  13.500   0.5644   0.15043   0.14826   0.0011  0.0115  1.0000  -1.7913   0.0000   0.0000   0.0000   0.2339
  13.600   0.5655   0.15225   0.15007   0.0004  0.0114  1.0000  -1.7778   0.0000   0.0000   0.0000   0.2350
  13.700   0.5668   0.15406   0.15188  -0.0003  0.0114  1.0000  -1.7648   0.0000   0.0000   0.0000   0.2361
  13.800   0.5681   0.15585   0.15367  -0.0010  0.0114  1.0000  -1.7523   0.0000   0.0000   0.0000   0.2372
  13.900   0.5695   0.15763   0.15545  -0.0016  0.0114  1.0000  -1.7399   0.0000   0.0000   0.0000   0.2383
  14.000   0.5709   0.15940   0.15721  -0.0023  0.0114  1.0000  -1.7275   0.0000   0.0000   0.0000   0.2394
  14.100   0.5724   0.16115   0.15897  -0.0030  0.0113  1.0000  -1.7157   0.0000   0.0000   0.0000   0.2405
  14.200   0.5738   0.16289   0.16071  -0.0037  0.0113  1.0000  -1.7039   0.0000   0.0000   0.0000   0.2415
  14.300   0.5754   0.16462   0.16244  -0.0044  0.0113  1.0000  -1.6925   0.0000   0.0000   0.0000   0.2426
  14.400   0.5769   0.16633   0.16414  -0.0051  0.0113  1.0000  -1.6814   0.0000   0.0000   0.0000   0.2437
  14.500   0.5785   0.16802   0.16583  -0.0058  0.0112  1.0000  -1.6706   0.0000   0.0000   0.0000   0.2447
  14.600   0.5802   0.16970   0.16751  -0.0065  0.0112  1.0000  -1.6603   0.0000   0.0000   0.0000   0.2458
  14.700   0.5819   0.17137   0.16918  -0.0072  0.0112  1.0000  -1.6503   0.0000   0.0000   0.0000   0.2468
  14.800   0.5836   0.17303   0.17084  -0.0078  0.0112  1.0000  -1.6408   0.0000   0.0000   0.0000   0.2478
  14.900   0.5854   0.17464   0.17245  -0.0085  0.0112  1.0000  -1.6316   0.0000   0.0000   0.0000   0.2488
  15.000   0.5873   0.17616   0.17397  -0.0092  0.0111  1.0000  -1.6229   0.0000   0.0000   0.0000   0.2498
  15.100   0.5893   0.17762   0.17543  -0.0098  0.0111  1.0000  -1.6147   0.0000   0.0000   0.0000   0.2507
  15.200   0.5913   0.17905   0.17686  -0.0105  0.0111  1.0000  -1.6068   0.0000   0.0000   0.0000   0.2517
  15.300   0.5934   0.18049   0.17829  -0.0112  0.0111  1.0000  -1.5992   0.0000   0.0000   0.0000   0.2526
  15.400   0.5955   0.18193   0.17974  -0.0118  0.0110  1.0000  -1.5918   0.0000   0.0000   0.0000   0.2536
  15.500   0.5976   0.18339   0.18119  -0.0125  0.0110  1.0000  -1.5847   0.0000   0.0000   0.0000   0.2545
  15.600   0.5998   0.18486   0.18267  -0.0132  0.0110  1.0000  -1.5778   0.0000   0.0000   0.0000   0.2554
  15.700   0.6020   0.18635   0.18416  -0.0139  0.0110  1.0000  -1.5712   0.0000   0.0000   0.0000   0.2563
  15.800   0.6042   0.18786   0.18566  -0.0145  0.0109  1.0000  -1.5647   0.0000   0.0000   0.0000   0.2572
  15.900   0.6064   0.18937   0.18717  -0.0152  0.0109  1.0000  -1.5585   0.0000   0.0000   0.0000   0.2581
  16.000   0.6087   0.19090   0.18870  -0.0159  0.0109  1.0000  -1.5524   0.0000   0.0000   0.0000   0.2590
  16.100   0.6110   0.19244   0.19024  -0.0165  0.0109  1.0000  -1.5466   0.0000   0.0000   0.0000   0.2599
  16.200   0.6133   0.19399   0.19179  -0.0172  0.0108  1.0000  -1.5409   0.0000   0.0000   0.0000   0.2607
  16.300   0.6156   0.19555   0.19335  -0.0179  0.0108  1.0000  -1.5354   0.0000   0.0000   0.0000   0.2616
  16.400   0.6180   0.19713   0.19492  -0.0185  0.0108  1.0000  -1.5301   0.0000   0.0000   0.0000   0.2624
  16.500   0.6204   0.19871   0.19650  -0.0192  0.0108  1.0000  -1.5250   0.0000   0.0000   0.0000   0.2633
  16.600   0.6227   0.20030   0.19809  -0.0199  0.0107  1.0000  -1.5200   0.0000   0.0000   0.0000   0.2641
  16.700   0.6251   0.20189   0.19969  -0.0205  0.0107  1.0000  -1.5151   0.0000   0.0000   0.0000   0.2649
  16.800   0.6275   0.20350   0.20129  -0.0212  0.0107  1.0000  -1.5105   0.0000   0.0000   0.0000   0.2658
  16.900   0.6300   0.20511   0.20291  -0.0219  0.0107  1.0000  -1.5059   0.0000   0.0000   0.0000   0.2666
  17.000   0.6324   0.20673   0.20453  -0.0225  0.0106  1.0000  -1.5015   0.0000   0.0000   0.0000   0.2674
  17.100   0.6348   0.20836   0.20615  -0.0232  0.0106  1.0000  -1.4972   0.0000   0.0000   0.0000   0.2682
  17.200   0.6373   0.20999   0.20779  -0.0239  0.0106  1.0000  -1.4931   0.0000   0.0000   0.0000   0.2689
  17.300   0.6397   0.21164   0.20943  -0.0245  0.0106  1.0000  -1.4891   0.0000   0.0000   0.0000   0.2697
  17.400   0.6422   0.21328   0.21108  -0.0252  0.0105  1.0000  -1.4852   0.0000   0.0000   0.0000   0.2705
  17.500   0.6446   0.21494   0.21273  -0.0259  0.0105  1.0000  -1.4814   0.0000   0.0000   0.0000   0.2712
  17.600   0.6471   0.21660   0.21440  -0.0265  0.0105  1.0000  -1.4777   0.0000   0.0000   0.0000   0.2720
  17.700   0.6495   0.21827   0.21606  -0.0272  0.0105  1.0000  -1.4741   0.0000   0.0000   0.0000   0.2727
  17.800   0.6520   0.21995   0.21774  -0.0278  0.0104  1.0000  -1.4707   0.0000   0.0000   0.0000   0.2735
  17.900   0.6545   0.22163   0.21942  -0.0285  0.0104  1.0000  -1.4673   0.0000   0.0000   0.0000   0.2742
  18.000   0.6569   0.22332   0.22111  -0.0292  0.0104  1.0000  -1.4640   0.0000   0.0000   0.0000   0.2749
  18.100   0.6594   0.22501   0.22281  -0.0298  0.0104  1.0000  -1.4608   0.0000   0.0000   0.0000   0.2756
  18.200   0.6619   0.22672   0.22451  -0.0305  0.0103  1.0000  -1.4577   0.0000   0.0000   0.0000   0.2763
  18.300   0.6643   0.22843   0.22622  -0.0312  0.0103  1.0000  -1.4546   0.0000   0.0000   0.0000   0.2770
  18.400   0.6668   0.23014   0.22793  -0.0318  0.0103  1.0000  -1.4517   0.0000   0.0000   0.0000   0.2777
  18.500   0.6693   0.23186   0.22965  -0.0325  0.0103  1.0000  -1.4488   0.0000   0.0000   0.0000   0.2784
  18.600   0.6717   0.23359   0.23138  -0.0331  0.0102  1.0000  -1.4460   0.0000   0.0000   0.0000   0.2791
  18.700   0.6742   0.23532   0.23312  -0.0338  0.0102  1.0000  -1.4433   0.0000   0.0000   0.0000   0.2798
  18.800   0.6766   0.23706   0.23486  -0.0345  0.0102  1.0000  -1.4406   0.0000   0.0000   0.0000   0.2804
  18.900   0.6790   0.23881   0.23660  -0.0351  0.0102  1.0000  -1.4380   0.0000   0.0000   0.0000   0.2811
  19.000   0.6815   0.24056   0.23836  -0.0358  0.0102  1.0000  -1.4354   0.0000   0.0000   0.0000   0.2817
  19.100   0.6839   0.24232   0.24011  -0.0364  0.0101  1.0000  -1.4330   0.0000   0.0000   0.0000   0.2824
  19.200   0.6863   0.24409   0.24188  -0.0371  0.0101  1.0000  -1.4305   0.0000   0.0000   0.0000   0.2830
  19.300   0.6887   0.24586   0.24365  -0.0377  0.0101  1.0000  -1.4281   0.0000   0.0000   0.0000   0.2836
  19.400   0.6911   0.24763   0.24543  -0.0384  0.0101  1.0000  -1.4258   0.0000   0.0000   0.0000   0.2843
  19.500   0.6935   0.24942   0.24721  -0.0390  0.0100  1.0000  -1.4235   0.0000   0.0000   0.0000   0.2849
  19.600   0.6958   0.25121   0.24900  -0.0397  0.0100  1.0000  -1.4212   0.0000   0.0000   0.0000   0.2855
  19.700   0.6982   0.25300   0.25080  -0.0403  0.0100  1.0000  -1.4190   0.0000   0.0000   0.0000   0.2861
  19.800   0.7005   0.25480   0.25260  -0.0410  0.0100  1.0000  -1.4169   0.0000   0.0000   0.0000   0.2867
  19.900   0.7029   0.25661   0.25441  -0.0416  0.0099  1.0000  -1.4147   0.0000   0.0000   0.0000   0.2873
  20.000   0.7052   0.25842   0.25622  -0.0423  0.0099  1.0000  -1.4126   0.0000   0.0000   0.0000   0.2879
  20.100   0.7075   0.26024   0.25804  -0.0429  0.0099  1.0000  -1.4106   0.0000   0.0000   0.0000   0.2885
  20.200   0.7098   0.26206   0.25986  -0.0436  0.0099  1.0000  -1.4085   0.0000   0.0000   0.0000   0.2891
  20.300   0.7121   0.26389   0.26169  -0.0442  0.0098  1.0000  -1.4065   0.0000   0.0000   0.0000   0.2896
  20.400   0.7143   0.26573   0.26353  -0.0448  0.0098  1.0000  -1.4045   0.0000   0.0000   0.0000   0.2902
  20.500   0.7166   0.26757   0.26537  -0.0455  0.0098  1.0000  -1.4025   0.0000   0.0000   0.0000   0.2908
  20.600   0.7188   0.26941   0.26721  -0.0461  0.0098  1.0000  -1.4006   0.0000   0.0000   0.0000   0.2913
  20.700   0.7210   0.27126   0.26906  -0.0468  0.0098  1.0000  -1.3987   0.0000   0.0000   0.0000   0.2919
  20.800   0.7232   0.27312   0.27092  -0.0474  0.0097  1.0000  -1.3968   0.0000   0.0000   0.0000   0.2924
  20.900   0.7253   0.27498   0.27278  -0.0480  0.0097  1.0000  -1.3948   0.0000   0.0000   0.0000   0.2929
  21.000   0.7275   0.27684   0.27465  -0.0486  0.0097  1.0000  -1.3930   0.0000   0.0000   0.0000   0.2935
  21.100   0.7296   0.27871   0.27652  -0.0493  0.0097  1.0000  -1.3911   0.0000   0.0000   0.0000   0.2940
  21.200   0.7317   0.28059   0.27839  -0.0499  0.0096  1.0000  -1.3892   0.0000   0.0000   0.0000   0.2945
  21.300   0.7338   0.28246   0.28027  -0.0505  0.0096  1.0000  -1.3873   0.0000   0.0000   0.0000   0.2951
  21.400   0.7358   0.28435   0.28216  -0.0511  0.0096  1.0000  -1.3855   0.0000   0.0000   0.0000   0.2956
  21.500   0.7379   0.28623   0.28405  -0.0518  0.0096  1.0000  -1.3836   0.0000   0.0000   0.0000   0.2961
  21.600   0.7386   0.28880   0.28665  -0.0525  0.0103  1.0000  -1.3398   0.0000   0.0000   0.0000   0.2969
  21.700   0.7395   0.29116   0.28898  -0.0531  0.0107  1.0000  -1.3429   0.0000   0.0000   0.0000   0.2975
  21.800   0.7406   0.29336   0.29118  -0.0536  0.0109  1.0000  -1.3463   0.0000   0.0000   0.0000   0.2980
  21.900   0.7419   0.29549   0.29330  -0.0542  0.0110  1.0000  -1.3491   0.0000   0.0000   0.0000   0.2985
  22.000   0.7434   0.29757   0.29537  -0.0548  0.0111  1.0000  -1.3508   0.0000   0.0000   0.0000   0.2989
  22.100   0.7450   0.29960   0.29739  -0.0553  0.0112  1.0000  -1.3513   0.0000   0.0000   0.0000   0.2994
  22.200   0.7467   0.30159   0.29938  -0.0559  0.0112  1.0000  -1.3507   0.0000   0.0000   0.0000   0.2999
  22.300   0.7484   0.30355   0.30134  -0.0565  0.0112  1.0000  -1.3490   0.0000   0.0000   0.0000   0.3004
  22.400   0.7501   0.30549   0.30328  -0.0571  0.0112  1.0000  -1.3465   0.0000   0.0000   0.0000   0.3008
  22.500   0.7519   0.30741   0.30520  -0.0577  0.0112  1.0000  -1.3435   0.0000   0.0000   0.0000   0.3013
  22.600   0.7537   0.30932   0.30711  -0.0583  0.0111  1.0000  -1.3400   0.0000   0.0000   0.0000   0.3018
  22.700   0.7555   0.31122   0.30901  -0.0588  0.0111  1.0000  -1.3363   0.0000   0.0000   0.0000   0.3022
  22.800   0.7572   0.31311   0.31091  -0.0594  0.0111  1.0000  -1.3325   0.0000   0.0000   0.0000   0.3027
  22.900   0.7590   0.31500   0.31279  -0.0600  0.0110  1.0000  -1.3285   0.0000   0.0000   0.0000   0.3031
  23.000   0.7607   0.31688   0.31468  -0.0606  0.0110  1.0000  -1.3246   0.0000   0.0000   0.0000   0.3036
  23.100   0.7623   0.31876   0.31656  -0.0612  0.0109  1.0000  -1.3207   0.0000   0.0000   0.0000   0.3040
  23.200   0.7640   0.32064   0.31844  -0.0617  0.0108  1.0000  -1.3169   0.0000   0.0000   0.0000   0.3045
  23.300   0.7639   0.32297   0.32079  -0.0621  0.0112  1.0000  -1.3277   0.0000   0.0000   0.0000   0.3048
  23.400   0.7657   0.32479   0.32262  -0.0627  0.0111  1.0000  -1.3207   0.0000   0.0000   0.0000   0.3053
  23.500   0.7674   0.32661   0.32443  -0.0633  0.0110  1.0000  -1.3141   0.0000   0.0000   0.0000   0.3057
  23.600   0.7690   0.32843   0.32625  -0.0638  0.0109  1.0000  -1.3082   0.0000   0.0000   0.0000   0.3061
  23.700   0.7706   0.33025   0.32807  -0.0644  0.0108  1.0000  -1.3030   0.0000   0.0000   0.0000   0.3065
  23.800   0.7720   0.33207   0.32990  -0.0649  0.0107  1.0000  -1.2982   0.0000   0.0000   0.0000   0.3069
  23.900   0.7734   0.33390   0.33173  -0.0654  0.0106  1.0000  -1.2938   0.0000   0.0000   0.0000   0.3073
  24.000   0.7747   0.33573   0.33356  -0.0659  0.0105  1.0000  -1.2897   0.0000   0.0000   0.0000   0.3077
  24.100   0.7759   0.33755   0.33539  -0.0664  0.0104  1.0000  -1.2857   0.0000   0.0000   0.0000   0.3081
  24.200   0.7770   0.33937   0.33721  -0.0669  0.0104  1.0000  -1.2819   0.0000   0.0000   0.0000   0.3084
  24.300   0.7780   0.34119   0.33903  -0.0673  0.0103  1.0000  -1.2781   0.0000   0.0000   0.0000   0.3088
  24.400   0.7789   0.34299   0.34084  -0.0678  0.0102  1.0000  -1.2744   0.0000   0.0000   0.0000   0.3091
  24.500   0.7797   0.34479   0.34264  -0.0682  0.0101  1.0000  -1.2707   0.0000   0.0000   0.0000   0.3095
  24.600   0.7805   0.34658   0.34443  -0.0686  0.0101  1.0000  -1.2669   0.0000   0.0000   0.0000   0.3098
  24.700   0.7811   0.34835   0.34621  -0.0691  0.0100  1.0000  -1.2631   0.0000   0.0000   0.0000   0.3102
  24.800   0.7817   0.35011   0.34797  -0.0695  0.0099  1.0000  -1.2592   0.0000   0.0000   0.0000   0.3105
  24.900   0.7821   0.35186   0.34971  -0.0698  0.0099  1.0000  -1.2552   0.0000   0.0000   0.0000   0.3108
  25.000   0.7824   0.35358   0.35144  -0.0702  0.0098  1.0000  -1.2510   0.0000   0.0000   0.0000   0.3111
  25.100   0.7826   0.35527   0.35314  -0.0706  0.0097  1.0000  -1.2467   0.0000   0.0000   0.0000   0.3114
  25.200   0.7827   0.35694   0.35481  -0.0709  0.0097  1.0000  -1.2423   0.0000   0.0000   0.0000   0.3118
  25.300   0.7826   0.35858   0.35645  -0.0712  0.0096  1.0000  -1.2376   0.0000   0.0000   0.0000   0.3121
  25.400   0.7824   0.36018   0.35806  -0.0715  0.0096  1.0000  -1.2327   0.0000   0.0000   0.0000   0.3123
  25.500   0.7819   0.36174   0.35962  -0.0717  0.0095  1.0000  -1.2274   0.0000   0.0000   0.0000   0.3126
  25.600   0.7813   0.36324   0.36113  -0.0720  0.0095  1.0000  -1.2219   0.0000   0.0000   0.0000   0.3129
  25.700   0.7805   0.36468   0.36257  -0.0722  0.0094  1.0000  -1.2160   0.0000   0.0000   0.0000   0.3131
  25.800   0.7793   0.36605   0.36394  -0.0723  0.0094  1.0000  -1.2096   0.0000   0.0000   0.0000   0.3134
  25.900   0.7779   0.36732   0.36522  -0.0724  0.0093  1.0000  -1.2026   0.0000   0.0000   0.0000   0.3136
  26.000   0.7761   0.36848   0.36638  -0.0724  0.0093  1.0000  -1.1949   0.0000   0.0000   0.0000   0.3138
  26.100   0.7736   0.36945   0.36736  -0.0723  0.0092  1.0000  -1.1861   0.0000   0.0000   0.0000   0.3140


