xflr5 v6.61

 Calculated polar for: NACA M19 AIRFOIL

 1 1 Reynolds number fixed          Mach number fixed         

 xtrf =   1.000 (top)        1.000 (bottom)
 Mach =   0.000     Re =     0.400 e 6     Ncrit =   9.000

  alpha     CL        CD       CDp       Cm    Top Xtr Bot Xtr   Cpmin    Chinge    XCp    
 ------- -------- --------- --------- -------- ------- ------- -------- --------- ---------
  -6.400  -0.2817   0.08780   0.08182  -0.0108  0.0736  0.0133  -1.6901   0.0000   0.0000   0.0000   0.2106
  -6.300  -0.2814   0.08590   0.07994  -0.0089  0.0741  0.0137  -1.5879   0.0000   0.0000   0.0000   0.2171
  -6.200  -0.2785   0.08452   0.07858  -0.0082  0.0747  0.0141  -1.4958   0.0000   0.0000   0.0000   0.2194
  -6.100  -0.2743   0.08335   0.07738  -0.0082  0.0841  0.0145  -1.4153   0.0000   0.0000   0.0000   0.2192
  -6.000  -0.2704   0.08152   0.07612  -0.0079  0.2975  0.0151  -1.3467   0.0000   0.0000   0.0000   0.2198
  -5.900  -0.2643   0.08030   0.07504  -0.0086  0.3384  0.0159  -1.2881   0.0000   0.0000   0.0000   0.2167
  -5.800  -0.2574   0.07894   0.07389  -0.0094  0.3783  0.0168  -1.2396   0.0000   0.0000   0.0000   0.2126
  -5.700  -0.2494   0.07774   0.07274  -0.0107  0.3910  0.0181  -1.1997   0.0000   0.0000   0.0000   0.2065
  -5.600  -0.2402   0.07666   0.07165  -0.0121  0.3913  0.0198  -1.1671   0.0000   0.0000   0.0000   0.1988
  -5.500  -0.2249   0.07662   0.07159  -0.0143  0.3908  0.0225  -1.1352   0.0000   0.0000   0.0000   0.1855
  -5.400  -0.2071   0.07705   0.07198  -0.0170  0.3899  0.0237  -1.1084   0.0000   0.0000   0.0000   0.1667
  -5.300  -0.1947   0.07625   0.07115  -0.0189  0.3883  0.0240  -1.0944   0.0000   0.0000   0.0000   0.1514
  -5.200  -0.1832   0.07513   0.07000  -0.0207  0.3858  0.0242  -1.0839   0.0000   0.0000   0.0000   0.1357
  -5.100  -0.1725   0.07391   0.06872  -0.0222  0.3787  0.0243  -1.0745   0.0000   0.0000   0.0000   0.1199
  -5.000  -0.1624   0.07258   0.06735  -0.0235  0.3726  0.0244  -1.0644   0.0000   0.0000   0.0000   0.1036
  -4.900  -0.1522   0.07121   0.06592  -0.0247  0.3668  0.0245  -1.0546   0.0000   0.0000   0.0000   0.0855
  -4.800  -0.1419   0.06980   0.06446  -0.0260  0.3611  0.0245  -1.0455   0.0000   0.0000   0.0000   0.0648
  -4.700  -0.1317   0.06830   0.06290  -0.0272  0.3547  0.0246  -1.0382   0.0000   0.0000   0.0000   0.0412
  -4.600  -0.1220   0.06662   0.06114  -0.0283  0.3466  0.0246  -1.0350   0.0000   0.0000   0.0000   0.0149
  -4.500  -0.1121   0.06493   0.05938  -0.0295  0.3387  0.0245  -1.0319   0.0000   0.0000   0.0000  -0.0164
  -4.400  -0.1019   0.06322   0.05760  -0.0306  0.3310  0.0245  -1.0289   0.0000   0.0000   0.0000  -0.0543
  -4.300  -0.0915   0.06150   0.05581  -0.0317  0.3233  0.0245  -1.0261   0.0000   0.0000   0.0000  -0.1014
  -4.200  -0.0809   0.05975   0.05400  -0.0328  0.3158  0.0245  -1.0238   0.0000   0.0000   0.0000  -0.1609
  -4.100  -0.0702   0.05797   0.05217  -0.0339  0.3086  0.0244  -1.0221   0.0000   0.0000   0.0000  -0.2381
  -4.000  -0.0596   0.05617   0.05031  -0.0349  0.3016  0.0244  -1.0214   0.0000   0.0000   0.0000  -0.3427
  -3.900  -0.0488   0.05432   0.04841  -0.0359  0.2986  0.0243  -1.0224   0.0000   0.0000   0.0000  -0.4944
  -3.800  -0.0379   0.05239   0.04643  -0.0368  0.2972  0.0242  -1.0264   0.0000   0.0000   0.0000  -0.7343
  -3.700  -0.0270   0.05028   0.04426  -0.0378  0.2959  0.0240  -1.0367   0.0000   0.0000   0.0000  -1.1690
  -3.600  -0.0163   0.04768   0.04159  -0.0389  0.2940  0.0236  -1.0655   0.0000   0.0000   0.0000  -2.1612
  -3.500  -0.0057   0.04544   0.03897  -0.0402  0.2195  0.0230  -1.1211   0.0000   0.0000   0.0000  -6.8907
  -3.300   0.0270   0.03994   0.03270  -0.0432  0.0494  0.0274  -1.3769   0.0000   0.0000   0.0000   1.8714
  -3.200   0.0314   0.03908   0.03211  -0.0431  0.1497  0.0292  -1.2289   0.0000   0.0000   0.0000   1.6448
  -3.100   0.0387   0.03786   0.03147  -0.0428  0.2906  0.0309  -1.0872   0.0000   0.0000   0.0000   1.3714
  -3.000   0.0476   0.03736   0.03097  -0.0431  0.2934  0.0322  -0.9854   0.0000   0.0000   0.0000   1.1661
  -2.900   0.0576   0.03677   0.03036  -0.0434  0.2946  0.0332  -0.9269   0.0000   0.0000   0.0000   1.0136
  -2.800   0.0681   0.03612   0.02970  -0.0439  0.2960  0.0338  -0.9054   0.0000   0.0000   0.0000   0.9020
  -2.700   0.0789   0.03544   0.02900  -0.0443  0.2998  0.0341  -0.8897   0.0000   0.0000   0.0000   0.8183
  -2.600   0.0897   0.03477   0.02831  -0.0447  0.3098  0.0344  -0.8752   0.0000   0.0000   0.0000   0.7543
  -2.500   0.1002   0.03417   0.02774  -0.0451  0.3249  0.0354  -0.8506   0.0000   0.0000   0.0000   0.7049
  -2.400   0.1110   0.03352   0.02713  -0.0454  0.3376  0.0362  -0.8306   0.0000   0.0000   0.0000   0.6640
  -2.300   0.1220   0.03282   0.02644  -0.0458  0.3456  0.0363  -0.8198   0.0000   0.0000   0.0000   0.6295
  -2.200   0.1332   0.03208   0.02569  -0.0462  0.3507  0.0357  -0.8162   0.0000   0.0000   0.0000   0.6003
  -2.100   0.1444   0.03136   0.02495  -0.0465  0.3555  0.0352  -0.8131   0.0000   0.0000   0.0000   0.5755
  -2.000   0.1557   0.03065   0.02422  -0.0469  0.3601  0.0346  -0.8104   0.0000   0.0000   0.0000   0.5541
  -1.900   0.1670   0.02995   0.02351  -0.0472  0.3645  0.0342  -0.8080   0.0000   0.0000   0.0000   0.5354
  -1.800   0.1783   0.02927   0.02281  -0.0475  0.3687  0.0337  -0.8058   0.0000   0.0000   0.0000   0.5190
  -1.700   0.1896   0.02861   0.02212  -0.0478  0.3727  0.0333  -0.8038   0.0000   0.0000   0.0000   0.5045
  -1.600   0.2009   0.02798   0.02145  -0.0481  0.3742  0.0329  -0.8019   0.0000   0.0000   0.0000   0.4916
  -1.500   0.2122   0.02737   0.02079  -0.0484  0.3748  0.0326  -0.8001   0.0000   0.0000   0.0000   0.4799
  -1.400   0.2235   0.02677   0.02015  -0.0486  0.3756  0.0322  -0.7984   0.0000   0.0000   0.0000   0.4694
  -1.300   0.2348   0.02617   0.01951  -0.0489  0.3776  0.0319  -0.7966   0.0000   0.0000   0.0000   0.4597
  -1.200   0.2461   0.02558   0.01889  -0.0491  0.3794  0.0317  -0.7945   0.0000   0.0000   0.0000   0.4509
  -1.100   0.2574   0.02502   0.01828  -0.0493  0.3812  0.0314  -0.7922   0.0000   0.0000   0.0000   0.4429
  -1.000   0.2687   0.02446   0.01768  -0.0495  0.3829  0.0312  -0.7895   0.0000   0.0000   0.0000   0.4355
  -0.900   0.2799   0.02393   0.01710  -0.0497  0.3845  0.0310  -0.7864   0.0000   0.0000   0.0000   0.4286
  -0.800   0.2911   0.02340   0.01653  -0.0499  0.3861  0.0308  -0.7827   0.0000   0.0000   0.0000   0.4223
  -0.700   0.3023   0.02289   0.01598  -0.0500  0.3877  0.0306  -0.7787   0.0000   0.0000   0.0000   0.4164
  -0.600   0.3135   0.02240   0.01544  -0.0502  0.3890  0.0304  -0.7743   0.0000   0.0000   0.0000   0.4109
  -0.500   0.3246   0.02191   0.01491  -0.0503  0.3902  0.0303  -0.7696   0.0000   0.0000   0.0000   0.4058
  -0.400   0.3357   0.02145   0.01439  -0.0505  0.3913  0.0301  -0.7661   0.0000   0.0000   0.0000   0.4010
  -0.300   0.3469   0.02099   0.01389  -0.0506  0.3923  0.0300  -0.7740   0.0000   0.0000   0.0000   0.3965
  -0.200   0.3580   0.02055   0.01340  -0.0507  0.3932  0.0299  -0.7819   0.0000   0.0000   0.0000   0.3922
   0.200   0.4020   0.01894   0.01161  -0.0512  0.3962  0.0295  -0.8136   0.0000   0.0000   0.0000   0.3776
   0.300   0.4129   0.01858   0.01120  -0.0513  0.3968  0.0294  -0.8216   0.0000   0.0000   0.0000   0.3744
   0.400   0.4238   0.01822   0.01081  -0.0515  0.3973  0.0293  -0.8295   0.0000   0.0000   0.0000   0.3714
   0.500   0.4348   0.01788   0.01042  -0.0516  0.3977  0.0293  -0.8376   0.0000   0.0000   0.0000   0.3685
   0.600   0.4456   0.01755   0.01006  -0.0517  0.3980  0.0292  -0.8456   0.0000   0.0000   0.0000   0.3658
   0.700   0.4565   0.01724   0.00970  -0.0518  0.3982  0.0292  -0.8537   0.0000   0.0000   0.0000   0.3632
   0.800   0.4674   0.01695   0.00937  -0.0519  0.3983  0.0292  -0.8617   0.0000   0.0000   0.0000   0.3607
   0.900   0.4782   0.01666   0.00904  -0.0521  0.3984  0.0292  -0.8699   0.0000   0.0000   0.0000   0.3584
   1.000   0.4890   0.01639   0.00873  -0.0522  0.3983  0.0292  -0.8787   0.0000   0.0000   0.0000   0.3562
   1.100   0.4998   0.01613   0.00843  -0.0523  0.3982  0.0292  -0.8898   0.0000   0.0000   0.0000   0.3540
   1.200   0.5106   0.01587   0.00815  -0.0525  0.3981  0.0293  -0.9009   0.0000   0.0000   0.0000   0.3520
   1.300   0.5213   0.01564   0.00788  -0.0526  0.3980  0.0294  -0.9121   0.0000   0.0000   0.0000   0.3500
   1.400   0.5321   0.01541   0.00762  -0.0527  0.3978  0.0295  -0.9233   0.0000   0.0000   0.0000   0.3482
   1.500   0.5428   0.01520   0.00739  -0.0529  0.3976  0.0298  -0.9345   0.0000   0.0000   0.0000   0.3464
   1.600   0.5537   0.01499   0.00750  -0.0532  0.4297  0.0313  -0.9463   0.0000   0.0000   0.0000   0.3450
   1.700   0.5648   0.01475   0.00731  -0.0534  0.4381  0.0316  -0.9577   0.0000   0.0000   0.0000   0.3434
   1.800   0.5759   0.01452   0.00713  -0.0536  0.4468  0.0320  -0.9691   0.0000   0.0000   0.0000   0.3419
   1.900   0.5871   0.01428   0.00698  -0.0538  0.4569  0.0324  -0.9805   0.0000   0.0000   0.0000   0.3404
   2.000   0.5983   0.01408   0.00684  -0.0541  0.4655  0.0328  -0.9918   0.0000   0.0000   0.0000   0.3390
   2.100   0.6093   0.01391   0.00671  -0.0543  0.4719  0.0333  -1.0030   0.0000   0.0000   0.0000   0.3376
   2.200   0.6203   0.01375   0.00659  -0.0545  0.4762  0.0338  -1.0143   0.0000   0.0000   0.0000   0.3363
   2.300   0.6312   0.01361   0.00646  -0.0547  0.4788  0.0343  -1.0255   0.0000   0.0000   0.0000   0.3350
   2.400   0.6420   0.01348   0.00634  -0.0549  0.4800  0.0349  -1.0367   0.0000   0.0000   0.0000   0.3337
   2.500   0.6529   0.01335   0.00621  -0.0550  0.4801  0.0355  -1.0480   0.0000   0.0000   0.0000   0.3324
   2.600   0.6636   0.01323   0.00607  -0.0552  0.4791  0.0362  -1.0594   0.0000   0.0000   0.0000   0.3312
   2.700   0.6743   0.01311   0.00592  -0.0553  0.4767  0.0370  -1.0709   0.0000   0.0000   0.0000   0.3300
   2.800   0.6850   0.01299   0.00577  -0.0554  0.4734  0.0378  -1.0825   0.0000   0.0000   0.0000   0.3288
   2.900   0.6956   0.01288   0.00562  -0.0555  0.4698  0.0387  -1.0940   0.0000   0.0000   0.0000   0.3276
   3.000   0.7062   0.01278   0.00547  -0.0556  0.4659  0.0396  -1.1056   0.0000   0.0000   0.0000   0.3264
   3.100   0.7168   0.01268   0.00533  -0.0557  0.4619  0.0407  -1.1171   0.0000   0.0000   0.0000   0.3253
   3.200   0.7273   0.01261   0.00520  -0.0558  0.4578  0.0418  -1.1287   0.0000   0.0000   0.0000   0.3242
   3.300   0.7379   0.01255   0.00509  -0.0559  0.4535  0.0430  -1.1402   0.0000   0.0000   0.0000   0.3231
   3.400   0.7484   0.01250   0.00499  -0.0560  0.4490  0.0443  -1.1517   0.0000   0.0000   0.0000   0.3220
   3.500   0.7588   0.01247   0.00491  -0.0561  0.4441  0.0456  -1.1631   0.0000   0.0000   0.0000   0.3210
   3.600   0.7693   0.01247   0.00486  -0.0562  0.4388  0.0470  -1.1745   0.0000   0.0000   0.0000   0.3200
   3.700   0.7798   0.01251   0.00486  -0.0563  0.4327  0.0484  -1.1858   0.0000   0.0000   0.0000   0.3191
   3.800   0.7903   0.01269   0.00499  -0.0564  0.4261  0.0497  -1.1971   0.0000   0.0000   0.0000   0.3182
   4.100   0.8210   0.01213   0.00446  -0.0568  0.4108  0.0618  -1.2286   0.0000   0.0000   0.0000   0.3157
   4.200   0.8314   0.01219   0.00454  -0.0569  0.4072  0.0651  -1.2394   0.0000   0.0000   0.0000   0.3149
   4.300   0.8418   0.01226   0.00464  -0.0571  0.4043  0.0683  -1.2501   0.0000   0.0000   0.0000   0.3141
   4.400   0.8523   0.01236   0.00476  -0.0572  0.4018  0.0712  -1.2609   0.0000   0.0000   0.0000   0.3134
   4.800   0.8940   0.01145   0.00378  -0.0574  0.3938  0.0821  -1.3168   0.0000   0.0000   0.0000   0.3099
   4.900   0.9044   0.01139   0.00372  -0.0574  0.3908  0.0847  -1.3292   0.0000   0.0000   0.0000   0.3091
   5.000   0.9148   0.01136   0.00367  -0.0575  0.3869  0.0868  -1.3415   0.0000   0.0000   0.0000   0.3083
   5.100   0.9251   0.01135   0.00361  -0.0576  0.3809  0.0882  -1.3538   0.0000   0.0000   0.0000   0.3076
   5.200   0.9352   0.01137   0.00355  -0.0576  0.3698  0.0892  -1.3662   0.0000   0.0000   0.0000   0.3068
   5.300   0.9444   0.01153   0.00349  -0.0575  0.3455  0.0897  -1.3783   0.0000   0.0000   0.0000   0.3060
   5.400   0.9531   0.01182   0.00352  -0.0575  0.3076  0.0898  -1.3897   0.0000   0.0000   0.0000   0.3052
   5.500   0.9630   0.01194   0.00353  -0.0575  0.2911  0.0896  -1.4019   0.0000   0.0000   0.0000   0.3045
   6.000   0.9965   0.01611   0.00597  -0.0567  0.0191  0.0797  -1.4862   0.0000   0.0000   0.0000   0.3012
   6.100   1.0068   0.01627   0.00622  -0.0566  0.0182  0.0780  -1.5751   0.0000   0.0000   0.0000   0.3003
   6.200   1.0171   0.01644   0.00648  -0.0564  0.0182  0.0763  -1.6701   0.0000   0.0000   0.0000   0.2994
   6.300   1.0273   0.01663   0.00675  -0.0562  0.0188  0.0749  -1.7553   0.0000   0.0000   0.0000   0.2986
   6.400   1.0377   0.01684   0.00699  -0.0560  0.0197  0.0741  -1.8249   0.0000   0.0000   0.0000   0.2976
   6.500   1.0479   0.01712   0.00732  -0.0556  0.0212  0.0732  -1.8825   0.0000   0.0000   0.0000   0.2966
   6.600   1.0579   0.01746   0.00778  -0.0551  0.0230  0.0722  -1.9325   0.0000   0.0000   0.0000   0.2955
   6.700   1.0658   0.01820   0.00888  -0.0544  0.0252  0.0714  -1.9402   0.0000   0.0000   0.0000   0.2942
   6.800   1.0764   0.01834   0.00901  -0.0541  0.0281  0.0703  -2.0250   0.0000   0.0000   0.0000   0.2934
   6.900   1.0859   0.01865   0.00936  -0.0538  0.0322  0.0694  -2.0992   0.0000   0.0000   0.0000   0.2925
   7.000   1.0949   0.01914   0.01001  -0.0530  0.0410  0.0686  -2.1238   0.0000   0.0000   0.0000   0.2912
   7.100   1.1010   0.02004   0.01108  -0.0518  0.0490  0.0679  -2.1087   0.0000   0.0000   0.0000   0.2896
   7.200   1.1147   0.01990   0.01096  -0.0513  0.0598  0.0669  -2.1678   0.0000   0.0000   0.0000   0.2884
   7.300   1.1290   0.01985   0.01123  -0.0502  0.0702  0.0659  -2.1891   0.0000   0.0000   0.0000   0.2866
   7.400   1.1349   0.02062   0.01203  -0.0495  0.0684  0.0653  -2.2379   0.0000   0.0000   0.0000   0.2856
   7.500   1.1388   0.02153   0.01290  -0.0488  0.0644  0.0648  -2.2922   0.0000   0.0000   0.0000   0.2847
   7.600   1.1407   0.02262   0.01388  -0.0480  0.0595  0.0644  -2.3481   0.0000   0.0000   0.0000   0.2839
   7.700   1.1419   0.02389   0.01510  -0.0470  0.0548  0.0641  -2.3903   0.0000   0.0000   0.0000   0.2828
   7.800   1.1429   0.02585   0.01711  -0.0456  0.0513  0.0639  -2.3975   0.0000   0.0000   0.0000   0.2814
   8.300   1.1624   0.03044   0.02169  -0.0433  0.0230  0.0667  -2.8204   0.0000   0.0000   0.0000   0.2781
   8.400   1.1685   0.03074   0.02201  -0.0429  0.0212  0.0682  -2.9269   0.0000   0.0000   0.0000   0.2774
   8.500   1.1741   0.03131   0.02260  -0.0425  0.0196  0.0703  -3.0257   0.0000   0.0000   0.0000   0.2768
   8.600   1.1794   0.03199   0.02329  -0.0421  0.0183  0.0733  -3.1258   0.0000   0.0000   0.0000   0.2761
   8.700   1.1880   0.03166   0.02427  -0.0425  0.0170  1.0000  -3.2494   0.0000   0.0000   0.0000   0.2760
   8.800   1.1933   0.03260   0.02515  -0.0421  0.0160  1.0000  -3.3545   0.0000   0.0000   0.0000   0.2754
   8.900   1.2000   0.03396   0.02644  -0.0418  0.0148  1.0000  -3.4587   0.0000   0.0000   0.0000   0.2748
  10.700   1.2095   0.06381   0.05795  -0.0272  0.0122  1.0000  -3.6653   0.0000   0.0000   0.0000   0.2598
  10.800   1.2045   0.06513   0.05935  -0.0265  0.0122  1.0000  -3.6680   0.0000   0.0000   0.0000   0.2592
  10.900   1.1989   0.06648   0.06076  -0.0260  0.0122  1.0000  -3.6678   0.0000   0.0000   0.0000   0.2587
  11.000   1.1926   0.06784   0.06219  -0.0256  0.0122  1.0000  -3.6649   0.0000   0.0000   0.0000   0.2583
  11.100   1.1867   0.06927   0.06369  -0.0253  0.0122  1.0000  -3.6627   0.0000   0.0000   0.0000   0.2580
  11.200   1.1812   0.07077   0.06525  -0.0250  0.0122  1.0000  -3.6607   0.0000   0.0000   0.0000   0.2577
  11.300   1.1757   0.07232   0.06687  -0.0249  0.0122  1.0000  -3.6582   0.0000   0.0000   0.0000   0.2575
  11.400   1.1699   0.07393   0.06854  -0.0248  0.0122  1.0000  -3.6537   0.0000   0.0000   0.0000   0.2574
  11.500   1.1630   0.07562   0.07030  -0.0250  0.0122  1.0000  -3.6446   0.0000   0.0000   0.0000   0.2575
  11.600   1.1566   0.07734   0.07208  -0.0252  0.0122  1.0000  -3.6363   0.0000   0.0000   0.0000   0.2576
  11.700   1.1506   0.07909   0.07390  -0.0254  0.0122  1.0000  -3.6289   0.0000   0.0000   0.0000   0.2577
  11.800   1.1447   0.08087   0.07574  -0.0256  0.0122  1.0000  -3.6213   0.0000   0.0000   0.0000   0.2578
  11.900   1.1386   0.08265   0.07758  -0.0258  0.0122  1.0000  -3.6123   0.0000   0.0000   0.0000   0.2580
  12.000   1.1321   0.08443   0.07941  -0.0261  0.0122  1.0000  -3.6017   0.0000   0.0000   0.0000   0.2582
  12.100   1.1243   0.08634   0.08138  -0.0266  0.0122  1.0000  -3.5848   0.0000   0.0000   0.0000   0.2587
  12.200   1.1166   0.08834   0.08344  -0.0273  0.0122  1.0000  -3.5671   0.0000   0.0000   0.0000   0.2592
  12.300   1.1099   0.09035   0.08551  -0.0279  0.0122  1.0000  -3.5524   0.0000   0.0000   0.0000   0.2598
  12.400   1.1038   0.09240   0.08761  -0.0285  0.0122  1.0000  -3.5386   0.0000   0.0000   0.0000   0.2603
  12.500   1.0978   0.09447   0.08974  -0.0292  0.0122  1.0000  -3.5246   0.0000   0.0000   0.0000   0.2609
  12.600   1.0919   0.09659   0.09192  -0.0300  0.0122  1.0000  -3.5096   0.0000   0.0000   0.0000   0.2616
  12.700   1.0858   0.09875   0.09414  -0.0308  0.0122  1.0000  -3.4931   0.0000   0.0000   0.0000   0.2623
  12.800   1.0793   0.10099   0.09644  -0.0317  0.0122  1.0000  -3.4739   0.0000   0.0000   0.0000   0.2632
  12.900   1.0709   0.10348   0.09897  -0.0331  0.0122  1.0000  -3.4449   0.0000   0.0000   0.0000   0.2646
  13.000   1.0638   0.10589   0.10144  -0.0343  0.0122  1.0000  -3.4203   0.0000   0.0000   0.0000   0.2658
  13.100   1.0578   0.10825   0.10385  -0.0355  0.0122  1.0000  -3.3991   0.0000   0.0000   0.0000   0.2669
  13.200   1.0523   0.11060   0.10625  -0.0366  0.0122  1.0000  -3.3786   0.0000   0.0000   0.0000   0.2680
  13.300   1.0471   0.11299   0.10869  -0.0377  0.0122  1.0000  -3.3577   0.0000   0.0000   0.0000   0.2691
  13.400   1.0419   0.11542   0.11117  -0.0389  0.0122  1.0000  -3.3355   0.0000   0.0000   0.0000   0.2703
  13.500   1.0366   0.11792   0.11372  -0.0402  0.0122  1.0000  -3.3116   0.0000   0.0000   0.0000   0.2716
  13.600   1.0313   0.12050   0.11635  -0.0416  0.0122  1.0000  -3.2854   0.0000   0.0000   0.0000   0.2730
  13.700   1.0238   0.12350   0.11939  -0.0436  0.0122  1.0000  -3.2462   0.0000   0.0000   0.0000   0.2751
  13.800   1.0177   0.12638   0.12232  -0.0455  0.0122  1.0000  -3.2113   0.0000   0.0000   0.0000   0.2770
  13.900   1.0131   0.12912   0.12511  -0.0470  0.0122  1.0000  -3.1823   0.0000   0.0000   0.0000   0.2787
  14.000   1.0091   0.13179   0.12782  -0.0485  0.0122  1.0000  -3.1548   0.0000   0.0000   0.0000   0.2802
  14.100   1.0054   0.13445   0.13051  -0.0499  0.0122  1.0000  -3.1269   0.0000   0.0000   0.0000   0.2817
  14.200   1.0018   0.13708   0.13319  -0.0514  0.0122  1.0000  -3.0979   0.0000   0.0000   0.0000   0.2832
  14.300   0.9983   0.13966   0.13580  -0.0529  0.0122  1.0000  -3.0670   0.0000   0.0000   0.0000   0.2848
  14.400   0.9948   0.14227   0.13845  -0.0545  0.0122  1.0000  -3.0337   0.0000   0.0000   0.0000   0.2864
  14.500   0.9914   0.14503   0.14126  -0.0562  0.0122  1.0000  -2.9968   0.0000   0.0000   0.0000   0.2882
  14.600   0.9864   0.14836   0.14462  -0.0584  0.0122  1.0000  -2.9446   0.0000   0.0000   0.0000   0.2907
  14.700   0.9828   0.15146   0.14775  -0.0603  0.0122  1.0000  -2.8991   0.0000   0.0000   0.0000   0.2928
  14.800   0.9803   0.15436   0.15068  -0.0620  0.0122  1.0000  -2.8592   0.0000   0.0000   0.0000   0.2946
  14.900   0.9783   0.15718   0.15353  -0.0635  0.0122  1.0000  -2.8208   0.0000   0.0000   0.0000   0.2962
  15.000   0.9767   0.15999   0.15637  -0.0650  0.0122  1.0000  -2.7823   0.0000   0.0000   0.0000   0.2977
  15.100   0.9754   0.16283   0.15922  -0.0664  0.0122  1.0000  -2.7429   0.0000   0.0000   0.0000   0.2992
  15.200   0.9744   0.16574   0.16216  -0.0678  0.0122  1.0000  -2.7015   0.0000   0.0000   0.0000   0.3006
  15.300   0.9734   0.16888   0.16532  -0.0693  0.0122  1.0000  -2.6536   0.0000   0.0000   0.0000   0.3022
  15.400   0.9726   0.17212   0.16858  -0.0709  0.0122  1.0000  -2.6024   0.0000   0.0000   0.0000   0.3038
  15.500   0.9722   0.17533   0.17181  -0.0723  0.0122  1.0000  -2.5516   0.0000   0.0000   0.0000   0.3053
  15.600   0.9722   0.17839   0.17487  -0.0736  0.0122  1.0000  -2.5057   0.0000   0.0000   0.0000   0.3065
  15.700   0.9725   0.18129   0.17778  -0.0748  0.0121  1.0000  -2.4649   0.0000   0.0000   0.0000   0.3077
  15.800   0.9729   0.18409   0.18058  -0.0759  0.0121  1.0000  -2.4283   0.0000   0.0000   0.0000   0.3087
  15.900   0.9733   0.18680   0.18330  -0.0770  0.0121  1.0000  -2.3948   0.0000   0.0000   0.0000   0.3097
  16.000   0.9738   0.18946   0.18595  -0.0780  0.0121  1.0000  -2.3637   0.0000   0.0000   0.0000   0.3107
  16.100   0.9744   0.19206   0.18856  -0.0791  0.0121  1.0000  -2.3347   0.0000   0.0000   0.0000   0.3116
  16.200   0.9751   0.19463   0.19113  -0.0801  0.0121  1.0000  -2.3073   0.0000   0.0000   0.0000   0.3124
  16.300   0.9758   0.19716   0.19366  -0.0811  0.0121  1.0000  -2.2813   0.0000   0.0000   0.0000   0.3133
  16.400   0.9766   0.19967   0.19618  -0.0820  0.0121  1.0000  -2.2567   0.0000   0.0000   0.0000   0.3141
  16.500   0.9775   0.20216   0.19867  -0.0830  0.0120  1.0000  -2.2333   0.0000   0.0000   0.0000   0.3149
  16.600   0.9784   0.20463   0.20114  -0.0839  0.0120  1.0000  -2.2110   0.0000   0.0000   0.0000   0.3156
  16.700   0.9793   0.20708   0.20358  -0.0848  0.0120  1.0000  -2.1896   0.0000   0.0000   0.0000   0.3163
  16.800   0.9803   0.20951   0.20602  -0.0857  0.0120  1.0000  -2.1691   0.0000   0.0000   0.0000   0.3171
  16.900   0.9813   0.21192   0.20843  -0.0866  0.0120  1.0000  -2.1494   0.0000   0.0000   0.0000   0.3177
  17.000   0.9824   0.21433   0.21083  -0.0874  0.0120  1.0000  -2.1305   0.0000   0.0000   0.0000   0.3184
  17.100   0.9834   0.21672   0.21322  -0.0883  0.0120  1.0000  -2.1124   0.0000   0.0000   0.0000   0.3191
  17.200   0.9846   0.21910   0.21560  -0.0891  0.0119  1.0000  -2.0949   0.0000   0.0000   0.0000   0.3197
  17.300   0.9857   0.22147   0.21797  -0.0900  0.0119  1.0000  -2.0780   0.0000   0.0000   0.0000   0.3203
  17.400   0.9868   0.22383   0.22034  -0.0908  0.0119  1.0000  -2.0618   0.0000   0.0000   0.0000   0.3209
  17.500   0.9880   0.22618   0.22269  -0.0916  0.0119  1.0000  -2.0460   0.0000   0.0000   0.0000   0.3215
  17.600   0.9892   0.22853   0.22504  -0.0924  0.0119  1.0000  -2.0308   0.0000   0.0000   0.0000   0.3220
  17.700   0.9904   0.23087   0.22738  -0.0932  0.0119  1.0000  -2.0162   0.0000   0.0000   0.0000   0.3226
  17.800   0.9917   0.23321   0.22972  -0.0940  0.0118  1.0000  -2.0019   0.0000   0.0000   0.0000   0.3231
  17.900   0.9929   0.23554   0.23205  -0.0947  0.0118  1.0000  -1.9882   0.0000   0.0000   0.0000   0.3236
  18.000   0.9942   0.23787   0.23438  -0.0955  0.0118  1.0000  -1.9748   0.0000   0.0000   0.0000   0.3241
  18.100   0.9954   0.24020   0.23671  -0.0963  0.0118  1.0000  -1.9618   0.0000   0.0000   0.0000   0.3246
  18.200   0.9967   0.24252   0.23903  -0.0970  0.0118  1.0000  -1.9492   0.0000   0.0000   0.0000   0.3251
  18.300   0.9979   0.24484   0.24135  -0.0977  0.0117  1.0000  -1.9370   0.0000   0.0000   0.0000   0.3256
  18.400   0.9992   0.24715   0.24367  -0.0985  0.0117  1.0000  -1.9250   0.0000   0.0000   0.0000   0.3261
  18.500   1.0005   0.24947   0.24599  -0.0992  0.0117  1.0000  -1.9134   0.0000   0.0000   0.0000   0.3265
  18.600   1.0017   0.25180   0.24832  -0.0999  0.0117  1.0000  -1.9010   0.0000   0.0000   0.0000   0.3270
  18.700   1.0029   0.25413   0.25065  -0.1006  0.0117  1.0000  -1.8887   0.0000   0.0000   0.0000   0.3274
  18.800   1.0041   0.25646   0.25298  -0.1014  0.0117  1.0000  -1.8767   0.0000   0.0000   0.0000   0.3279
  18.900   1.0053   0.25878   0.25531  -0.1021  0.0116  1.0000  -1.8651   0.0000   0.0000   0.0000   0.3283
  19.000   1.0064   0.26110   0.25763  -0.1028  0.0116  1.0000  -1.8540   0.0000   0.0000   0.0000   0.3288
  19.100   1.0076   0.26342   0.25995  -0.1035  0.0116  1.0000  -1.8433   0.0000   0.0000   0.0000   0.3292
  19.200   1.0087   0.26574   0.26227  -0.1041  0.0116  1.0000  -1.8329   0.0000   0.0000   0.0000   0.3296
  19.300   1.0099   0.26805   0.26459  -0.1048  0.0116  1.0000  -1.8227   0.0000   0.0000   0.0000   0.3300
  19.400   1.0110   0.27037   0.26690  -0.1055  0.0115  1.0000  -1.8127   0.0000   0.0000   0.0000   0.3304
  19.500   1.0120   0.27268   0.26922  -0.1061  0.0115  1.0000  -1.8028   0.0000   0.0000   0.0000   0.3308
  19.600   1.0131   0.27499   0.27153  -0.1068  0.0115  1.0000  -1.7932   0.0000   0.0000   0.0000   0.3311
  19.700   1.0141   0.27729   0.27384  -0.1074  0.0115  1.0000  -1.7837   0.0000   0.0000   0.0000   0.3315
  19.800   1.0151   0.27960   0.27615  -0.1081  0.0115  1.0000  -1.7743   0.0000   0.0000   0.0000   0.3319
  19.900   1.0160   0.28191   0.27846  -0.1087  0.0114  1.0000  -1.7642   0.0000   0.0000   0.0000   0.3323
  20.000   1.0169   0.28422   0.28078  -0.1093  0.0114  1.0000  -1.7542   0.0000   0.0000   0.0000   0.3326
  20.100   1.0177   0.28653   0.28309  -0.1100  0.0114  1.0000  -1.7445   0.0000   0.0000   0.0000   0.3330
  20.200   1.0185   0.28883   0.28540  -0.1106  0.0114  1.0000  -1.7349   0.0000   0.0000   0.0000   0.3334
  20.300   1.0193   0.29114   0.28770  -0.1112  0.0114  1.0000  -1.7255   0.0000   0.0000   0.0000   0.3337
  20.400   1.0200   0.29343   0.29000  -0.1118  0.0113  1.0000  -1.7162   0.0000   0.0000   0.0000   0.3340
  20.500   1.0207   0.29573   0.29230  -0.1123  0.0113  1.0000  -1.7071   0.0000   0.0000   0.0000   0.3344
  20.600   1.0214   0.29802   0.29460  -0.1129  0.0113  1.0000  -1.6981   0.0000   0.0000   0.0000   0.3347
  20.700   1.0220   0.30031   0.29689  -0.1135  0.0113  1.0000  -1.6892   0.0000   0.0000   0.0000   0.3350
  20.800   1.0225   0.30259   0.29917  -0.1140  0.0113  1.0000  -1.6804   0.0000   0.0000   0.0000   0.3353
  20.900   1.0230   0.30486   0.30145  -0.1145  0.0112  1.0000  -1.6717   0.0000   0.0000   0.0000   0.3356
  21.000   1.0234   0.30713   0.30373  -0.1150  0.0112  1.0000  -1.6631   0.0000   0.0000   0.0000   0.3359
  21.100   1.0238   0.30940   0.30599  -0.1155  0.0112  1.0000  -1.6545   0.0000   0.0000   0.0000   0.3362
  21.200   1.0241   0.31165   0.30825  -0.1160  0.0112  1.0000  -1.6459   0.0000   0.0000   0.0000   0.3365
  21.300   1.0243   0.31390   0.31050  -0.1165  0.0112  1.0000  -1.6374   0.0000   0.0000   0.0000   0.3367
  21.400   1.0245   0.31613   0.31275  -0.1169  0.0111  1.0000  -1.6289   0.0000   0.0000   0.0000   0.3370
  21.500   1.0245   0.31836   0.31497  -0.1174  0.0111  1.0000  -1.6204   0.0000   0.0000   0.0000   0.3373
  21.600   1.0245   0.32057   0.31719  -0.1178  0.0111  1.0000  -1.6118   0.0000   0.0000   0.0000   0.3375
  21.700   1.0244   0.32276   0.31939  -0.1182  0.0111  1.0000  -1.6032   0.0000   0.0000   0.0000   0.3378
  21.800   1.0241   0.32494   0.32158  -0.1185  0.0111  1.0000  -1.5946   0.0000   0.0000   0.0000   0.3380
  21.900   1.0237   0.32710   0.32374  -0.1189  0.0110  1.0000  -1.5858   0.0000   0.0000   0.0000   0.3382
  22.000   1.0232   0.32923   0.32588  -0.1192  0.0110  1.0000  -1.5769   0.0000   0.0000   0.0000   0.3384
  22.100   1.0226   0.33134   0.32800  -0.1195  0.0110  1.0000  -1.5679   0.0000   0.0000   0.0000   0.3386
  22.200   1.0218   0.33342   0.33009  -0.1198  0.0110  1.0000  -1.5587   0.0000   0.0000   0.0000   0.3388
  22.300   1.0207   0.33547   0.33214  -0.1200  0.0110  1.0000  -1.5493   0.0000   0.0000   0.0000   0.3390
  22.400   1.0195   0.33747   0.33415  -0.1202  0.0109  1.0000  -1.5396   0.0000   0.0000   0.0000   0.3392
  22.500   1.0181   0.33942   0.33610  -0.1204  0.0109  1.0000  -1.5296   0.0000   0.0000   0.0000   0.3394
  22.600   1.0163   0.34131   0.33800  -0.1205  0.0109  1.0000  -1.5191   0.0000   0.0000   0.0000   0.3395
  22.700   1.0143   0.34312   0.33982  -0.1205  0.0109  1.0000  -1.5081   0.0000   0.0000   0.0000   0.3397
  22.800   1.0118   0.34484   0.34155  -0.1205  0.0109  1.0000  -1.4965   0.0000   0.0000   0.0000   0.3398
  22.900   1.0088   0.34643   0.34315  -0.1204  0.0108  1.0000  -1.4840   0.0000   0.0000   0.0000   0.3399
  23.000   1.0051   0.34786   0.34459  -0.1202  0.0108  1.0000  -1.4703   0.0000   0.0000   0.0000   0.3400
  23.100   0.9989   0.34874   0.34548  -0.1195  0.0108  1.0000  -1.4521   0.0000   0.0000   0.0000   0.3400
  23.200   0.9285   0.33256   0.32941  -0.1083  0.0109  1.0000  -1.3124   0.0000   0.0000   0.0000   0.3378
  23.300   0.9211   0.33197   0.32883  -0.1074  0.0109  1.0000  -1.2921   0.0000   0.0000   0.0000   0.3378
  23.400   0.9149   0.33164   0.32851  -0.1067  0.0108  1.0000  -1.2741   0.0000   0.0000   0.0000   0.3378
  23.500   0.9095   0.33147   0.32835  -0.1062  0.0108  1.0000  -1.2577   0.0000   0.0000   0.0000   0.3378
  23.600   0.9046   0.33141   0.32830  -0.1057  0.0108  1.0000  -1.2426   0.0000   0.0000   0.0000   0.3378
  23.700   0.9002   0.33143   0.32834  -0.1053  0.0108  1.0000  -1.2284   0.0000   0.0000   0.0000   0.3378
  23.800   0.8962   0.33152   0.32844  -0.1050  0.0108  1.0000  -1.2149   0.0000   0.0000   0.0000   0.3379
  23.900   0.8925   0.33167   0.32860  -0.1047  0.0108  1.0000  -1.2022   0.0000   0.0000   0.0000   0.3380
  24.000   0.8890   0.33185   0.32879  -0.1044  0.0107  1.0000  -1.1900   0.0000   0.0000   0.0000   0.3380
  24.100   0.8857   0.33206   0.32901  -0.1042  0.0107  1.0000  -1.1782   0.0000   0.0000   0.0000   0.3381
  24.200   0.8826   0.33230   0.32926  -0.1040  0.0107  1.0000  -1.1670   0.0000   0.0000   0.0000   0.3382
  24.300   0.8797   0.33257   0.32954  -0.1039  0.0107  1.0000  -1.1561   0.0000   0.0000   0.0000   0.3383
  24.400   0.8770   0.33287   0.32985  -0.1037  0.0107  1.0000  -1.1457   0.0000   0.0000   0.0000   0.3384
  24.500   0.8744   0.33319   0.33018  -0.1036  0.0106  1.0000  -1.1356   0.0000   0.0000   0.0000   0.3385
  24.600   0.8719   0.33352   0.33052  -0.1035  0.0106  1.0000  -1.1258   0.0000   0.0000   0.0000   0.3386
  24.700   0.8695   0.33388   0.33089  -0.1034  0.0106  1.0000  -1.1164   0.0000   0.0000   0.0000   0.3387
  24.800   0.8673   0.33425   0.33127  -0.1034  0.0106  1.0000  -1.1072   0.0000   0.0000   0.0000   0.3388
  24.900   0.8652   0.33464   0.33166  -0.1033  0.0106  1.0000  -1.0983   0.0000   0.0000   0.0000   0.3389
  25.000   0.8631   0.33504   0.33207  -0.1033  0.0105  1.0000  -1.0896   0.0000   0.0000   0.0000   0.3390
  25.100   0.8611   0.33545   0.33249  -0.1033  0.0105  1.0000  -1.0812   0.0000   0.0000   0.0000   0.3391
  25.200   0.8593   0.33588   0.33293  -0.1033  0.0105  1.0000  -1.0730   0.0000   0.0000   0.0000   0.3393
  25.300   0.8575   0.33631   0.33337  -0.1033  0.0105  1.0000  -1.0650   0.0000   0.0000   0.0000   0.3394
  25.400   0.8557   0.33675   0.33382  -0.1033  0.0105  1.0000  -1.0572   0.0000   0.0000   0.0000   0.3395
  25.500   0.8541   0.33721   0.33428  -0.1033  0.0104  1.0000  -1.0497   0.0000   0.0000   0.0000   0.3396
  25.600   0.8525   0.33767   0.33475  -0.1034  0.0104  1.0000  -1.0423   0.0000   0.0000   0.0000   0.3398
  25.700   0.8509   0.33814   0.33523  -0.1034  0.0104  1.0000  -1.0350   0.0000   0.0000   0.0000   0.3399
  25.800   0.8494   0.33862   0.33571  -0.1035  0.0104  1.0000  -1.0280   0.0000   0.0000   0.0000   0.3400
  25.900   0.8480   0.33910   0.33621  -0.1035  0.0104  1.0000  -1.0211   0.0000   0.0000   0.0000   0.3402
  26.000   0.8466   0.33959   0.33670  -0.1036  0.0103  1.0000  -1.0143   0.0000   0.0000   0.0000   0.3403
  26.100   0.8452   0.34009   0.33721  -0.1037  0.0103  1.0000  -1.0077   0.0000   0.0000   0.0000   0.3404
  26.200   0.8439   0.34059   0.33772  -0.1038  0.0103  1.0000  -1.0013   0.0000   0.0000   0.0000   0.3406
  26.300   0.8427   0.34110   0.33824  -0.1039  0.0103  1.0000  -0.9950   0.0000   0.0000   0.0000   0.3407
  26.400   0.8415   0.34162   0.33876  -0.1040  0.0103  1.0000  -0.9888   0.0000   0.0000   0.0000   0.3408
  26.500   0.8403   0.34214   0.33929  -0.1041  0.0102  1.0000  -0.9828   0.0000   0.0000   0.0000   0.3410
  26.600   0.8392   0.34266   0.33982  -0.1042  0.0102  1.0000  -0.9768   0.0000   0.0000   0.0000   0.3411
  26.700   0.8381   0.34319   0.34035  -0.1043  0.0102  1.0000  -0.9710   0.0000   0.0000   0.0000   0.3413
  26.800   0.8370   0.34372   0.34090  -0.1044  0.0102  1.0000  -0.9653   0.0000   0.0000   0.0000   0.3414
  26.900   0.8360   0.34426   0.34144  -0.1046  0.0102  1.0000  -0.9598   0.0000   0.0000   0.0000   0.3416
  27.000   0.8349   0.34480   0.34199  -0.1047  0.0101  1.0000  -0.9543   0.0000   0.0000   0.0000   0.3417
  27.100   0.8340   0.34535   0.34254  -0.1048  0.0101  1.0000  -0.9489   0.0000   0.0000   0.0000   0.3418
  27.200   0.8330   0.34590   0.34310  -0.1050  0.0101  1.0000  -0.9437   0.0000   0.0000   0.0000   0.3420
  27.300   0.8321   0.34645   0.34366  -0.1051  0.0101  1.0000  -0.9385   0.0000   0.0000   0.0000   0.3421
  27.400   0.8312   0.34701   0.34422  -0.1053  0.0101  1.0000  -0.9334   0.0000   0.0000   0.0000   0.3423
  27.500   0.8303   0.34757   0.34479  -0.1054  0.0100  1.0000  -0.9284   0.0000   0.0000   0.0000   0.3424
  27.600   0.8295   0.34813   0.34536  -0.1056  0.0100  1.0000  -0.9236   0.0000   0.0000   0.0000   0.3426
  27.700   0.8287   0.34870   0.34594  -0.1058  0.0100  1.0000  -0.9188   0.0000   0.0000   0.0000   0.3427
  27.800   0.8279   0.34927   0.34651  -0.1059  0.0100  1.0000  -0.9140   0.0000   0.0000   0.0000   0.3429
  27.900   0.8271   0.34984   0.34709  -0.1061  0.0100  1.0000  -0.9094   0.0000   0.0000   0.0000   0.3430
  28.000   0.8263   0.35041   0.34767  -0.1063  0.0099  1.0000  -0.9049   0.0000   0.0000   0.0000   0.3432
  28.100   0.8256   0.35099   0.34826  -0.1065  0.0099  1.0000  -0.9004   0.0000   0.0000   0.0000   0.3434
  28.200   0.8248   0.35157   0.34885  -0.1067  0.0099  1.0000  -0.8960   0.0000   0.0000   0.0000   0.3435
  28.300   0.8241   0.35215   0.34944  -0.1069  0.0099  1.0000  -0.8917   0.0000   0.0000   0.0000   0.3437
  28.400   0.8234   0.35274   0.35003  -0.1071  0.0099  1.0000  -0.8874   0.0000   0.0000   0.0000   0.3438
  28.500   0.8228   0.35333   0.35062  -0.1073  0.0098  1.0000  -0.8832   0.0000   0.0000   0.0000   0.3440
  28.600   0.8221   0.35392   0.35122  -0.1075  0.0098  1.0000  -0.8791   0.0000   0.0000   0.0000   0.3441
  28.700   0.8215   0.35451   0.35182  -0.1077  0.0098  1.0000  -0.8751   0.0000   0.0000   0.0000   0.3443
  28.800   0.8208   0.35510   0.35242  -0.1079  0.0098  1.0000  -0.8711   0.0000   0.0000   0.0000   0.3444
  28.900   0.8202   0.35570   0.35302  -0.1081  0.0098  1.0000  -0.8671   0.0000   0.0000   0.0000   0.3446
  29.000   0.8196   0.35630   0.35363  -0.1083  0.0097  1.0000  -0.8633   0.0000   0.0000   0.0000   0.3448
  29.100   0.8190   0.35690   0.35424  -0.1085  0.0097  1.0000  -0.8595   0.0000   0.0000   0.0000   0.3449
  29.200   0.8161   0.35748   0.35486  -0.1086  0.0108  1.0000  -0.8478   0.0000   0.0000   0.0000   0.3453
  29.300   0.8148   0.35803   0.35539  -0.1087  0.0110  1.0000  -0.8479   0.0000   0.0000   0.0000   0.3455
  29.400   0.8139   0.35861   0.35596  -0.1089  0.0111  1.0000  -0.8461   0.0000   0.0000   0.0000   0.3457
  29.500   0.8133   0.35922   0.35658  -0.1091  0.0111  1.0000  -0.8430   0.0000   0.0000   0.0000   0.3458
  29.600   0.8127   0.35985   0.35721  -0.1093  0.0111  1.0000  -0.8390   0.0000   0.0000   0.0000   0.3460
  29.700   0.8123   0.36050   0.35786  -0.1096  0.0110  1.0000  -0.8346   0.0000   0.0000   0.0000   0.3462
  29.800   0.8119   0.36115   0.35851  -0.1098  0.0110  1.0000  -0.8299   0.0000   0.0000   0.0000   0.3464
  29.900   0.8116   0.36180   0.35917  -0.1101  0.0109  1.0000  -0.8252   0.0000   0.0000   0.0000   0.3465
  30.000   0.8113   0.36245   0.35983  -0.1103  0.0109  1.0000  -0.8206   0.0000   0.0000   0.0000   0.3467


