xflr5 v6.61

 Calculated polar for: NACA M6 AIRFOIL

 1 1 Reynolds number fixed          Mach number fixed         

 xtrf =   1.000 (top)        1.000 (bottom)
 Mach =   0.000     Re =     0.450 e 6     Ncrit =   9.000

  alpha     CL        CD       CDp       Cm    Top Xtr Bot Xtr   Cpmin    Chinge    XCp    
 ------- -------- --------- --------- -------- ------- ------- -------- --------- ---------
 -10.000  -0.4942   0.10917   0.10645  -0.0017  1.0000  0.0492  -1.6012   0.0000   0.0000   0.0000   0.2380
  -9.900  -0.4929   0.10761   0.10490  -0.0026  1.0000  0.0493  -1.6104   0.0000   0.0000   0.0000   0.2364
  -9.800  -0.4917   0.10605   0.10334  -0.0035  1.0000  0.0493  -1.6200   0.0000   0.0000   0.0000   0.2347
  -9.700  -0.4906   0.10447   0.10177  -0.0044  1.0000  0.0494  -1.6302   0.0000   0.0000   0.0000   0.2329
  -9.600  -0.4896   0.10288   0.10019  -0.0054  1.0000  0.0494  -1.6410   0.0000   0.0000   0.0000   0.2310
  -9.500  -0.4888   0.10126   0.09857  -0.0064  1.0000  0.0494  -1.6527   0.0000   0.0000   0.0000   0.2290
  -9.400  -0.4882   0.09961   0.09693  -0.0075  1.0000  0.0495  -1.6655   0.0000   0.0000   0.0000   0.2269
  -9.300  -0.4878   0.09792   0.09525  -0.0087  1.0000  0.0495  -1.6796   0.0000   0.0000   0.0000   0.2246
  -9.200  -0.4878   0.09617   0.09350  -0.0100  1.0000  0.0495  -1.6955   0.0000   0.0000   0.0000   0.2221
  -9.100  -0.4879   0.09432   0.09165  -0.0114  1.0000  0.0495  -1.7138   0.0000   0.0000   0.0000   0.2192
  -9.000  -0.4882   0.09228   0.08963  -0.0133  1.0000  0.0496  -1.7354   0.0000   0.0000   0.0000   0.2156
  -8.900  -0.4893   0.09001   0.08736  -0.0157  1.0000  0.0496  -1.7630   0.0000   0.0000   0.0000   0.2109
  -8.800  -0.4911   0.08780   0.08514  -0.0179  1.0000  0.0496  -1.7913   0.0000   0.0000   0.0000   0.2068
  -8.700  -0.4933   0.08587   0.08319  -0.0193  1.0000  0.0496  -1.8157   0.0000   0.0000   0.0000   0.2043
  -8.600  -0.4962   0.08406   0.08137  -0.0203  1.0000  0.0496  -1.8394   0.0000   0.0000   0.0000   0.2026
  -8.500  -0.4993   0.08239   0.07968  -0.0210  1.0000  0.0497  -1.8611   0.0000   0.0000   0.0000   0.2017
  -8.400  -0.5022   0.08081   0.07809  -0.0213  1.0000  0.0497  -1.8806   0.0000   0.0000   0.0000   0.2014
  -8.300  -0.5047   0.07926   0.07652  -0.0216  1.0000  0.0497  -1.8987   0.0000   0.0000   0.0000   0.2013
  -8.200  -0.5059   0.07767   0.07490  -0.0219  1.0000  0.0497  -1.9154   0.0000   0.0000   0.0000   0.2008
  -8.100  -0.5062   0.07605   0.07327  -0.0223  1.0000  0.0497  -1.9303   0.0000   0.0000   0.0000   0.2001
  -8.000  -0.5064   0.07450   0.07168  -0.0226  1.0000  0.0497  -1.9433   0.0000   0.0000   0.0000   0.1997
  -7.900  -0.5063   0.07297   0.07012  -0.0228  1.0000  0.0498  -1.9550   0.0000   0.0000   0.0000   0.1993
  -7.800  -0.5058   0.07145   0.06857  -0.0230  1.0000  0.0498  -1.9655   0.0000   0.0000   0.0000   0.1990
  -7.700  -0.5048   0.06995   0.06704  -0.0231  1.0000  0.0498  -1.9749   0.0000   0.0000   0.0000   0.1988
  -7.600  -0.5035   0.06847   0.06552  -0.0232  1.0000  0.0498  -1.9833   0.0000   0.0000   0.0000   0.1985
  -7.500  -0.5018   0.06700   0.06402  -0.0232  1.0000  0.0498  -1.9906   0.0000   0.0000   0.0000   0.1983
  -7.400  -0.4997   0.06556   0.06254  -0.0233  1.0000  0.0498  -1.9966   0.0000   0.0000   0.0000   0.1981
  -7.300  -0.4962   0.06406   0.06100  -0.0236  0.9888  0.0498  -2.0006   0.0000   0.0000   0.0000   0.1972
  -7.200  -0.4904   0.06246   0.05933  -0.0243  0.9738  0.0499  -2.0018   0.0000   0.0000   0.0000   0.1952
  -7.100  -0.4837   0.06084   0.05764  -0.0252  0.9614  0.0499  -2.0012   0.0000   0.0000   0.0000   0.1927
  -7.000  -0.4769   0.05929   0.05602  -0.0259  0.9491  0.0499  -1.9996   0.0000   0.0000   0.0000   0.1906
  -6.900  -0.4735   0.05803   0.05470  -0.0256  0.9388  0.0499  -1.9991   0.0000   0.0000   0.0000   0.1908
  -6.800  -0.4700   0.05682   0.05342  -0.0252  0.9283  0.0499  -1.9977   0.0000   0.0000   0.0000   0.1913
  -6.700  -0.4667   0.05567   0.05219  -0.0246  0.9178  0.0499  -1.9956   0.0000   0.0000   0.0000   0.1922
  -6.600  -0.4634   0.05456   0.05100  -0.0240  0.9067  0.0499  -1.9927   0.0000   0.0000   0.0000   0.1932
  -6.500  -0.5000   0.04281   0.03878  -0.0221  0.8986  0.0525  -2.3106   0.0000   0.0000   0.0000   0.2005
  -6.400  -0.4959   0.04133   0.03726  -0.0217  0.8952  0.0531  -2.2969   0.0000   0.0000   0.0000   0.2010
  -6.300  -0.4901   0.04029   0.03619  -0.0214  0.8908  0.0536  -2.2730   0.0000   0.0000   0.0000   0.2013
  -6.200  -0.4839   0.03941   0.03528  -0.0210  0.8853  0.0541  -2.2457   0.0000   0.0000   0.0000   0.2016
  -6.100  -0.4775   0.03862   0.03446  -0.0206  0.8789  0.0545  -2.2169   0.0000   0.0000   0.0000   0.2019
  -6.000  -0.4709   0.03790   0.03370  -0.0201  0.8717  0.0550  -2.1872   0.0000   0.0000   0.0000   0.2022
  -5.900  -0.4640   0.03725   0.03300  -0.0197  0.8638  0.0554  -2.1557   0.0000   0.0000   0.0000   0.2026
  -5.800  -0.4569   0.03666   0.03237  -0.0193  0.8554  0.0558  -2.1221   0.0000   0.0000   0.0000   0.2029
  -5.700  -0.4497   0.03609   0.03176  -0.0188  0.8463  0.0562  -2.0889   0.0000   0.0000   0.0000   0.2033
  -5.600  -0.4426   0.03554   0.03115  -0.0184  0.8356  0.0567  -2.0560   0.0000   0.0000   0.0000   0.2037
  -5.500  -0.4351   0.03500   0.03056  -0.0180  0.8226  0.0572  -2.0229   0.0000   0.0000   0.0000   0.2039
  -5.400  -0.4271   0.03446   0.02997  -0.0178  0.8087  0.0577  -1.9894   0.0000   0.0000   0.0000   0.2037
  -5.300  -0.4187   0.03391   0.02939  -0.0176  0.7995  0.0583  -1.9559   0.0000   0.0000   0.0000   0.2033
  -5.200  -0.4103   0.03334   0.02879  -0.0174  0.7979  0.0590  -1.9230   0.0000   0.0000   0.0000   0.2030
  -5.100  -0.4019   0.03277   0.02819  -0.0171  0.7957  0.0597  -1.8909   0.0000   0.0000   0.0000   0.2028
  -5.000  -0.3935   0.03221   0.02760  -0.0169  0.7930  0.0606  -1.8594   0.0000   0.0000   0.0000   0.2025
  -4.900  -0.3850   0.03166   0.02701  -0.0166  0.7898  0.0615  -1.8287   0.0000   0.0000   0.0000   0.2023
  -4.800  -0.3763   0.03112   0.02643  -0.0164  0.7861  0.0625  -1.7989   0.0000   0.0000   0.0000   0.2020
  -4.700  -0.3676   0.03060   0.02585  -0.0161  0.7822  0.0637  -1.7697   0.0000   0.0000   0.0000   0.2017
  -4.600  -0.3587   0.03009   0.02529  -0.0158  0.7781  0.0650  -1.7413   0.0000   0.0000   0.0000   0.2013
  -4.500  -0.3497   0.02963   0.02477  -0.0155  0.7735  0.0665  -1.7133   0.0000   0.0000   0.0000   0.2010
  -4.400  -0.3403   0.02927   0.02434  -0.0153  0.7687  0.0682  -1.6850   0.0000   0.0000   0.0000   0.2006
  -4.300  -0.3303   0.02910   0.02410  -0.0150  0.7635  0.0700  -1.6541   0.0000   0.0000   0.0000   0.2001
  -4.200  -0.3191   0.02933   0.02427  -0.0148  0.7578  0.0719  -1.6158   0.0000   0.0000   0.0000   0.1992
  -4.100  -0.3063   0.03027   0.02518  -0.0146  0.7515  0.0736  -1.5629   0.0000   0.0000   0.0000   0.1977
  -4.000  -0.2940   0.03126   0.02611  -0.0144  0.7443  0.0745  -1.5110   0.0000   0.0000   0.0000   0.1963
  -3.900  -0.2838   0.03139   0.02616  -0.0141  0.7363  0.0747  -1.4773   0.0000   0.0000   0.0000   0.1956
  -3.800  -0.2888   0.02551   0.01996  -0.0129  0.7309  0.0790  -1.5612   0.0000   0.0000   0.0000   0.2005
  -3.700  -0.2800   0.02491   0.01934  -0.0128  0.7221  0.0803  -1.5256   0.0000   0.0000   0.0000   0.1994
  -3.600  -0.2702   0.02453   0.01896  -0.0129  0.7131  0.0814  -1.4860   0.0000   0.0000   0.0000   0.1977
  -3.500  -0.2600   0.02423   0.01868  -0.0130  0.7043  0.0826  -1.4453   0.0000   0.0000   0.0000   0.1954
  -3.400  -0.2497   0.02397   0.01846  -0.0130  0.6997  0.0840  -1.4049   0.0000   0.0000   0.0000   0.1931
  -3.300  -0.2394   0.02374   0.01825  -0.0130  0.6991  0.0855  -1.3651   0.0000   0.0000   0.0000   0.1909
  -3.200  -0.2289   0.02355   0.01809  -0.0130  0.6984  0.0873  -1.3261   0.0000   0.0000   0.0000   0.1885
  -3.100  -0.2183   0.02344   0.01799  -0.0130  0.6976  0.0894  -1.2874   0.0000   0.0000   0.0000   0.1857
  -3.000  -0.2073   0.02343   0.01800  -0.0130  0.6967  0.0918  -1.2486   0.0000   0.0000   0.0000   0.1826
  -2.900  -0.1958   0.02361   0.01820  -0.0130  0.6955  0.0943  -1.2081   0.0000   0.0000   0.0000   0.1789
  -2.800  -0.1835   0.02412   0.01874  -0.0130  0.6942  0.0967  -1.1631   0.0000   0.0000   0.0000   0.1741
  -2.700  -0.1699   0.02522   0.01990  -0.0131  0.6926  0.0987  -1.1089   0.0000   0.0000   0.0000   0.1677
  -2.600  -0.1703   0.02080   0.01519  -0.0123  0.6915  0.1098  -1.1493   0.0000   0.0000   0.0000   0.1727
  -2.500  -0.1608   0.02028   0.01473  -0.0123  0.6898  0.1134  -1.1142   0.0000   0.0000   0.0000   0.1685
  -2.400  -0.1511   0.01995   0.01443  -0.0123  0.6879  0.1166  -1.0781   0.0000   0.0000   0.0000   0.1638
  -2.300  -0.1411   0.01967   0.01420  -0.0122  0.6859  0.1201  -1.0418   0.0000   0.0000   0.0000   0.1582
  -2.200  -0.1310   0.01943   0.01399  -0.0122  0.6837  0.1241  -1.0063   0.0000   0.0000   0.0000   0.1515
  -2.100  -0.1207   0.01923   0.01382  -0.0122  0.6813  0.1289  -0.9720   0.0000   0.0000   0.0000   0.1437
  -2.000  -0.1101   0.01911   0.01371  -0.0121  0.6787  0.1344  -0.9391   0.0000   0.0000   0.0000   0.1344
  -1.900  -0.0991   0.01911   0.01372  -0.0121  0.6760  0.1398  -0.9069   0.0000   0.0000   0.0000   0.1225
  -1.800  -0.0873   0.01947   0.01410  -0.0120  0.6727  0.1448  -0.8712   0.0000   0.0000   0.0000   0.1062
  -1.700  -0.0730   0.02115   0.01584  -0.0121  0.6682  0.1490  -0.8181   0.0000   0.0000   0.0000   0.0782
  -1.600  -0.0713   0.01731   0.01183  -0.0116  0.6656  0.1628  -0.8336   0.0000   0.0000   0.0000   0.0812
  -1.500  -0.0617   0.01693   0.01150  -0.0114  0.6609  0.1673  -0.8045   0.0000   0.0000   0.0000   0.0588
  -1.400  -0.0519   0.01667   0.01126  -0.0112  0.6554  0.1716  -0.7760   0.0000   0.0000   0.0000   0.0276
  -1.300  -0.0421   0.01646   0.01104  -0.0110  0.6490  0.1762  -0.7485   0.0000   0.0000   0.0000  -0.0182
  -1.200  -0.0320   0.01630   0.01086  -0.0107  0.6413  0.1812  -0.7223   0.0000   0.0000   0.0000  -0.0930
  -1.100  -0.0032   0.01252   0.00536  -0.0080  0.6388  0.0632  -1.0123   0.0000   0.0000   0.0000  -2.3759
  -1.000   0.0077   0.01220   0.00484  -0.0074  0.6298  0.0564  -1.0199   0.0000   0.0000   0.0000   1.2767
  -0.900   0.0186   0.01216   0.00474  -0.0073  0.6196  0.0544  -0.9911   0.0000   0.0000   0.0000   0.6679
  -0.800   0.0296   0.01216   0.00471  -0.0073  0.6095  0.0531  -0.9582   0.0000   0.0000   0.0000   0.5099
  -0.700   0.0408   0.01220   0.00474  -0.0073  0.6000  0.0520  -0.9236   0.0000   0.0000   0.0000   0.4386
  -0.600   0.0519   0.01215   0.00469  -0.0073  0.5993  0.0510  -0.8882   0.0000   0.0000   0.0000   0.3966
   0.100   0.1243   0.01072   0.00303  -0.0057  0.5818  0.0443  -0.7327   0.0000   0.0000   0.0000   0.2962
   0.200   0.1350   0.01063   0.00290  -0.0056  0.5764  0.0435  -0.7056   0.0000   0.0000   0.0000   0.2913
   0.300   0.1457   0.01056   0.00279  -0.0055  0.5707  0.0427  -0.6781   0.0000   0.0000   0.0000   0.2873
   0.400   0.1564   0.01051   0.00270  -0.0054  0.5654  0.0419  -0.6500   0.0000   0.0000   0.0000   0.2839
   0.500   0.1672   0.01046   0.00262  -0.0053  0.5602  0.0412  -0.6214   0.0000   0.0000   0.0000   0.2810
   0.600   0.1781   0.01043   0.00254  -0.0052  0.5552  0.0406  -0.6202   0.0000   0.0000   0.0000   0.2785
   0.700   0.1895   0.01037   0.00260  -0.0053  0.5598  0.0400  -0.6300   0.0000   0.0000   0.0000   0.2771
   0.800   0.2005   0.01035   0.00254  -0.0054  0.5570  0.0395  -0.6398   0.0000   0.0000   0.0000   0.2754
   0.900   0.2115   0.01033   0.00247  -0.0053  0.5535  0.0391  -0.6496   0.0000   0.0000   0.0000   0.2738
   1.000   0.2224   0.01032   0.00241  -0.0053  0.5498  0.0386  -0.6594   0.0000   0.0000   0.0000   0.2724
   1.100   0.2333   0.01031   0.00236  -0.0053  0.5458  0.0382  -0.6692   0.0000   0.0000   0.0000   0.2712
   1.200   0.2442   0.01031   0.00231  -0.0053  0.5415  0.0379  -0.6790   0.0000   0.0000   0.0000   0.2700
   1.300   0.2551   0.01031   0.00226  -0.0053  0.5369  0.0375  -0.6888   0.0000   0.0000   0.0000   0.2690
   1.400   0.2659   0.01032   0.00222  -0.0054  0.5318  0.0372  -0.6986   0.0000   0.0000   0.0000   0.2681
   1.500   0.2768   0.01033   0.00218  -0.0054  0.5264  0.0370  -0.7103   0.0000   0.0000   0.0000   0.2672
   1.600   0.2878   0.01033   0.00215  -0.0054  0.5209  0.0367  -0.7222   0.0000   0.0000   0.0000   0.2665
   1.700   0.2988   0.01034   0.00213  -0.0054  0.5155  0.0365  -0.7340   0.0000   0.0000   0.0000   0.2658
   1.800   0.3098   0.01036   0.00212  -0.0055  0.5104  0.0364  -0.7459   0.0000   0.0000   0.0000   0.2653
   1.900   0.3208   0.01037   0.00212  -0.0056  0.5058  0.0363  -0.7578   0.0000   0.0000   0.0000   0.2647
   2.000   0.3319   0.01039   0.00212  -0.0056  0.5013  0.0362  -0.7698   0.0000   0.0000   0.0000   0.2643
   2.100   0.3430   0.01038   0.00211  -0.0057  0.4997  0.0362  -0.7819   0.0000   0.0000   0.0000   0.2639
   2.200   0.3542   0.01037   0.00210  -0.0058  0.4993  0.0363  -0.7942   0.0000   0.0000   0.0000   0.2634
   2.300   0.3653   0.01035   0.00208  -0.0058  0.4987  0.0365  -0.8065   0.0000   0.0000   0.0000   0.2631
   2.400   0.3765   0.01034   0.00206  -0.0059  0.4978  0.0369  -0.8189   0.0000   0.0000   0.0000   0.2627
   2.500   0.3876   0.01032   0.00204  -0.0060  0.4966  0.0375  -0.8313   0.0000   0.0000   0.0000   0.2623
   2.600   0.3989   0.01034   0.00199  -0.0061  0.4949  0.0395  -0.8439   0.0000   0.0000   0.0000   0.2620
   2.700   0.4100   0.01033   0.00200  -0.0061  0.4924  0.0445  -0.8564   0.0000   0.0000   0.0000   0.2616
   2.800   0.4208   0.01030   0.00215  -0.0061  0.4892  0.0492  -0.8686   0.0000   0.0000   0.0000   0.2612
   3.000   0.4186   0.00779   0.00226  -0.0013  0.4844  0.8812  -0.8777   0.0000   0.0000   0.0000   0.2497
   3.100   0.4381   0.00789   0.00243  -0.0030  0.4786  0.9162  -0.9111   0.0000   0.0000   0.0000   0.2533
   3.200   0.4563   0.00802   0.00257  -0.0045  0.4718  0.9351  -0.9591   0.0000   0.0000   0.0000   0.2561
   3.300   0.4665   0.00811   0.00264  -0.0042  0.4655  0.9434  -0.9944   0.0000   0.0000   0.0000   0.2553
   3.400   0.4742   0.00820   0.00269  -0.0035  0.4590  0.9484  -1.0259   0.0000   0.0000   0.0000   0.2534
   3.500   0.4877   0.00830   0.00274  -0.0041  0.4507  0.9525  -1.0673   0.0000   0.0000   0.0000   0.2544
   3.600   0.5057   0.00842   0.00280  -0.0057  0.4411  0.9562  -1.1163   0.0000   0.0000   0.0000   0.2572
   3.700   0.5229   0.00853   0.00286  -0.0071  0.4314  0.9593  -1.1646   0.0000   0.0000   0.0000   0.2595
   3.800   0.5396   0.00864   0.00292  -0.0085  0.4214  0.9619  -1.2123   0.0000   0.0000   0.0000   0.2615
   3.900   0.5557   0.00873   0.00298  -0.0097  0.4114  0.9644  -1.2596   0.0000   0.0000   0.0000   0.2631
   4.000   0.5714   0.00881   0.00305  -0.0108  0.4028  0.9669  -1.3067   0.0000   0.0000   0.0000   0.2645
   4.100   0.5877   0.00888   0.00311  -0.0120  0.3993  0.9696  -1.3553   0.0000   0.0000   0.0000   0.2660
   4.200   0.6143   0.00903   0.00327  -0.0153  0.3975  0.9770  -1.4231   0.0000   0.0000   0.0000   0.2704
   4.300   0.6574   0.00935   0.00359  -0.0219  0.3940  0.9899  -1.5225   0.0000   0.0000   0.0000   0.2787
   4.400   0.7003   0.00961   0.00384  -0.0286  0.3882  0.9987  -1.6234   0.0000   0.0000   0.0000   0.2860
   4.500   0.7181   0.00968   0.00388  -0.0301  0.3827  0.9999  -1.6778   0.0000   0.0000   0.0000   0.2871
   4.600   0.7285   0.00973   0.00390  -0.0301  0.3759  1.0000  -1.7187   0.0000   0.0000   0.0000   0.2864
   4.700   0.7385   0.00980   0.00392  -0.0301  0.3651  1.0000  -1.7588   0.0000   0.0000   0.0000   0.2857
   4.800   0.7482   0.00994   0.00394  -0.0300  0.3492  1.0000  -1.7987   0.0000   0.0000   0.0000   0.2850
   4.900   0.7577   0.01011   0.00400  -0.0300  0.3299  1.0000  -1.8382   0.0000   0.0000   0.0000   0.2843
   5.000   0.7673   0.01025   0.00405  -0.0299  0.3072  1.0000  -1.8777   0.0000   0.0000   0.0000   0.2836
   5.100   0.7771   0.01033   0.00409  -0.0298  0.2964  1.0000  -1.9178   0.0000   0.0000   0.0000   0.2829
   5.200   0.7868   0.01041   0.00413  -0.0297  0.2888  1.0000  -1.9577   0.0000   0.0000   0.0000   0.2822
   5.300   0.7962   0.01056   0.00419  -0.0296  0.2754  1.0000  -1.9969   0.0000   0.0000   0.0000   0.2816
   5.400   0.8051   0.01085   0.00429  -0.0295  0.2502  1.0000  -2.0344   0.0000   0.0000   0.0000   0.2809
   5.500   0.8134   0.01124   0.00447  -0.0294  0.2073  1.0000  -2.0696   0.0000   0.0000   0.0000   0.2803
   5.600   0.8207   0.01182   0.00472  -0.0293  0.1670  1.0000  -2.1001   0.0000   0.0000   0.0000   0.2797
   5.700   0.8251   0.01299   0.00533  -0.0290  0.0888  1.0000  -2.1186   0.0000   0.0000   0.0000   0.2791
   5.800   0.8312   0.01362   0.00573  -0.0285  0.0547  1.0000  -2.1385   0.0000   0.0000   0.0000   0.2781
   5.900   0.8393   0.01376   0.00586  -0.0281  0.0486  1.0000  -2.1665   0.0000   0.0000   0.0000   0.2772
   6.000   0.8474   0.01387   0.00597  -0.0277  0.0472  1.0000  -2.1978   0.0000   0.0000   0.0000   0.2763
   6.100   0.8553   0.01396   0.00608  -0.0272  0.0463  1.0000  -2.2297   0.0000   0.0000   0.0000   0.2753
   6.200   0.8629   0.01406   0.00619  -0.0267  0.0457  1.0000  -2.2618   0.0000   0.0000   0.0000   0.2743
   6.300   0.8705   0.01416   0.00630  -0.0262  0.0451  1.0000  -2.2944   0.0000   0.0000   0.0000   0.2734
   6.400   0.8782   0.01426   0.00642  -0.0257  0.0447  1.0000  -2.3274   0.0000   0.0000   0.0000   0.2724
   6.500   0.8860   0.01437   0.00654  -0.0252  0.0443  1.0000  -2.3609   0.0000   0.0000   0.0000   0.2715
   6.600   0.8939   0.01448   0.00667  -0.0247  0.0439  1.0000  -2.3952   0.0000   0.0000   0.0000   0.2706
   6.700   0.9019   0.01461   0.00681  -0.0243  0.0434  1.0000  -2.4311   0.0000   0.0000   0.0000   0.2698
   6.800   0.9099   0.01475   0.00696  -0.0238  0.0427  1.0000  -2.4682   0.0000   0.0000   0.0000   0.2689
   6.900   0.9178   0.01490   0.00711  -0.0234  0.0420  1.0000  -2.5063   0.0000   0.0000   0.0000   0.2681
   7.000   0.9257   0.01505   0.00726  -0.0230  0.0412  1.0000  -2.5450   0.0000   0.0000   0.0000   0.2673
   7.100   0.9336   0.01521   0.00742  -0.0225  0.0403  1.0000  -2.5840   0.0000   0.0000   0.0000   0.2665
   7.200   0.9415   0.01538   0.00758  -0.0221  0.0396  1.0000  -2.6228   0.0000   0.0000   0.0000   0.2657
   7.300   0.9493   0.01554   0.00775  -0.0216  0.0389  1.0000  -2.6613   0.0000   0.0000   0.0000   0.2649
   7.400   0.9571   0.01570   0.00792  -0.0212  0.0383  1.0000  -2.6992   0.0000   0.0000   0.0000   0.2641
   7.500   0.9648   0.01586   0.00810  -0.0207  0.0380  1.0000  -2.7365   0.0000   0.0000   0.0000   0.2633
   7.600   0.9724   0.01603   0.00828  -0.0202  0.0378  1.0000  -2.7736   0.0000   0.0000   0.0000   0.2625
   7.700   0.9799   0.01620   0.00847  -0.0196  0.0375  1.0000  -2.8107   0.0000   0.0000   0.0000   0.2617
   7.800   0.9873   0.01637   0.00866  -0.0191  0.0372  1.0000  -2.8477   0.0000   0.0000   0.0000   0.2609
   7.900   0.9945   0.01655   0.00886  -0.0185  0.0369  1.0000  -2.8847   0.0000   0.0000   0.0000   0.2600
   8.000   1.0015   0.01674   0.00906  -0.0179  0.0367  1.0000  -2.9215   0.0000   0.0000   0.0000   0.2592
   8.100   1.0084   0.01693   0.00927  -0.0172  0.0364  1.0000  -2.9581   0.0000   0.0000   0.0000   0.2583
   8.200   1.0151   0.01712   0.00949  -0.0166  0.0361  1.0000  -2.9945   0.0000   0.0000   0.0000   0.2574
   8.300   1.0216   0.01732   0.00971  -0.0159  0.0358  1.0000  -3.0307   0.0000   0.0000   0.0000   0.2565
   8.400   1.0279   0.01753   0.00993  -0.0152  0.0356  1.0000  -3.0668   0.0000   0.0000   0.0000   0.2555
   8.500   1.0341   0.01773   0.01016  -0.0144  0.0353  1.0000  -3.1027   0.0000   0.0000   0.0000   0.2546
   8.600   1.0401   0.01795   0.01039  -0.0137  0.0350  1.0000  -3.1383   0.0000   0.0000   0.0000   0.2536
   8.700   1.0459   0.01817   0.01063  -0.0129  0.0347  1.0000  -3.1738   0.0000   0.0000   0.0000   0.2527
   8.800   1.0516   0.01839   0.01087  -0.0120  0.0344  1.0000  -3.2090   0.0000   0.0000   0.0000   0.2517
   8.900   1.0571   0.01862   0.01112  -0.0112  0.0341  1.0000  -3.2440   0.0000   0.0000   0.0000   0.2507
   9.000   1.0624   0.01886   0.01138  -0.0103  0.0338  1.0000  -3.2788   0.0000   0.0000   0.0000   0.2497
   9.100   1.0675   0.01910   0.01164  -0.0094  0.0335  1.0000  -3.3133   0.0000   0.0000   0.0000   0.2487
   9.200   1.0725   0.01935   0.01191  -0.0085  0.0332  1.0000  -3.3474   0.0000   0.0000   0.0000   0.2476
   9.300   1.0904   0.01873   0.01133  -0.0102  0.0207  1.0000  -3.7628   0.0000   0.0000   0.0000   0.2489
   9.400   1.0973   0.01885   0.01138  -0.0097  0.0185  1.0000  -3.8817   0.0000   0.0000   0.0000   0.2482
   9.500   1.1021   0.01912   0.01157  -0.0088  0.0171  1.0000  -3.9698   0.0000   0.0000   0.0000   0.2472
   9.600   1.1062   0.01942   0.01185  -0.0078  0.0160  1.0000  -4.0424   0.0000   0.0000   0.0000   0.2461
   9.700   1.1095   0.01977   0.01220  -0.0066  0.0151  1.0000  -4.1046   0.0000   0.0000   0.0000   0.2449
   9.800   1.1118   0.02015   0.01262  -0.0053  0.0144  1.0000  -4.1589   0.0000   0.0000   0.0000   0.2435
   9.900   1.1133   0.02057   0.01309  -0.0038  0.0139  1.0000  -4.2068   0.0000   0.0000   0.0000   0.2420
  10.000   1.1137   0.02101   0.01359  -0.0022  0.0135  1.0000  -4.2488   0.0000   0.0000   0.0000   0.2404
  10.100   1.1133   0.02149   0.01412  -0.0005  0.0132  1.0000  -4.2857   0.0000   0.0000   0.0000   0.2388
  10.200   1.1117   0.02198   0.01467   0.0014  0.0130  1.0000  -4.3164   0.0000   0.0000   0.0000   0.2369
  10.300   1.1086   0.02247   0.01522   0.0034  0.0128  1.0000  -4.3408   0.0000   0.0000   0.0000   0.2349
  10.400   1.1057   0.02304   0.01585   0.0053  0.0127  1.0000  -4.3641   0.0000   0.0000   0.0000   0.2330
  10.500   1.1033   0.02370   0.01656   0.0069  0.0126  1.0000  -4.3873   0.0000   0.0000   0.0000   0.2313
  10.600   1.1008   0.02439   0.01728   0.0084  0.0125  1.0000  -4.4095   0.0000   0.0000   0.0000   0.2298
  10.700   1.1004   0.02501   0.01795   0.0095  0.0125  1.0000  -4.4402   0.0000   0.0000   0.0000   0.2286
  10.800   1.1007   0.02567   0.01865   0.0105  0.0125  1.0000  -4.4730   0.0000   0.0000   0.0000   0.2275
  10.900   1.1014   0.02634   0.01937   0.0114  0.0125  1.0000  -4.5066   0.0000   0.0000   0.0000   0.2265
  11.000   1.1022   0.02706   0.02013   0.0122  0.0124  1.0000  -4.5404   0.0000   0.0000   0.0000   0.2256
  11.100   1.1030   0.02780   0.02092   0.0130  0.0124  1.0000  -4.5738   0.0000   0.0000   0.0000   0.2247
  11.200   1.1032   0.02862   0.02179   0.0137  0.0124  1.0000  -4.6047   0.0000   0.0000   0.0000   0.2239
  11.300   1.1028   0.02952   0.02274   0.0143  0.0124  1.0000  -4.6324   0.0000   0.0000   0.0000   0.2231
  11.400   1.1030   0.03041   0.02368   0.0149  0.0124  1.0000  -4.6620   0.0000   0.0000   0.0000   0.2224
  11.500   1.1034   0.03129   0.02461   0.0155  0.0124  1.0000  -4.6926   0.0000   0.0000   0.0000   0.2217
  11.600   1.1040   0.03218   0.02555   0.0161  0.0124  1.0000  -4.7233   0.0000   0.0000   0.0000   0.2209
  11.700   1.1045   0.03308   0.02651   0.0167  0.0124  1.0000  -4.7536   0.0000   0.0000   0.0000   0.2202
  11.800   1.1050   0.03401   0.02749   0.0173  0.0124  1.0000  -4.7833   0.0000   0.0000   0.0000   0.2195
  11.900   1.1053   0.03496   0.02850   0.0179  0.0124  1.0000  -4.8119   0.0000   0.0000   0.0000   0.2188
  12.000   1.1055   0.03595   0.02954   0.0184  0.0124  1.0000  -4.8393   0.0000   0.0000   0.0000   0.2181
  12.100   1.1051   0.03697   0.03062   0.0190  0.0124  1.0000  -4.8641   0.0000   0.0000   0.0000   0.2174
  12.200   1.1032   0.03812   0.03184   0.0195  0.0124  1.0000  -4.8825   0.0000   0.0000   0.0000   0.2167
  12.300   1.1014   0.03931   0.03308   0.0200  0.0124  1.0000  -4.9003   0.0000   0.0000   0.0000   0.2160
  12.400   1.1001   0.04049   0.03433   0.0204  0.0124  1.0000  -4.9193   0.0000   0.0000   0.0000   0.2154
  12.800   1.0983   0.04511   0.03922   0.0221  0.0126  1.0000  -5.0175   0.0000   0.0000   0.0000   0.2130
  12.900   1.1011   0.04588   0.04003   0.0223  0.0127  1.0000  -5.0679   0.0000   0.0000   0.0000   0.2128
  13.000   1.1039   0.04665   0.04082   0.0224  0.0128  1.0000  -5.1198   0.0000   0.0000   0.0000   0.2125
  13.100   1.1068   0.04741   0.04161   0.0224  0.0129  1.0000  -5.1728   0.0000   0.0000   0.0000   0.2123
  13.200   1.1097   0.04817   0.04239   0.0225  0.0130  1.0000  -5.2261   0.0000   0.0000   0.0000   0.2121
  13.300   1.1125   0.04895   0.04320   0.0225  0.0131  1.0000  -5.2794   0.0000   0.0000   0.0000   0.2120
  13.400   1.1151   0.04975   0.04403   0.0225  0.0132  1.0000  -5.3319   0.0000   0.0000   0.0000   0.2118
  13.500   1.1173   0.05061   0.04491   0.0225  0.0133  1.0000  -5.3819   0.0000   0.0000   0.0000   0.2116
  13.600   1.1160   0.05191   0.04626   0.0222  0.0134  1.0000  -5.4107   0.0000   0.0000   0.0000   0.2117
  13.700   1.1158   0.05310   0.04748   0.0219  0.0136  1.0000  -5.4450   0.0000   0.0000   0.0000   0.2116
  13.800   1.1171   0.05411   0.04852   0.0218  0.0137  1.0000  -5.4881   0.0000   0.0000   0.0000   0.2115
  13.900   1.1189   0.05506   0.04951   0.0217  0.0139  1.0000  -5.5327   0.0000   0.0000   0.0000   0.2114
  14.000   1.1207   0.05603   0.05052   0.0217  0.0142  1.0000  -5.5747   0.0000   0.0000   0.0000   0.2112
  14.100   1.1219   0.05708   0.05162   0.0218  0.0145  1.0000  -5.6085   0.0000   0.0000   0.0000   0.2110
  14.200   1.1214   0.05839   0.05302   0.0220  0.0149  1.0000  -5.6179   0.0000   0.0000   0.0000   0.2106
  14.300   1.0818   0.06580   0.06109   0.0234  0.0173  1.0000  -5.1613   0.0000   0.0000   0.0000   0.2085
  14.400   1.0604   0.07001   0.06552   0.0230  0.0180  1.0000  -4.9924   0.0000   0.0000   0.0000   0.2082
  14.500   1.0461   0.07331   0.06894   0.0221  0.0182  1.0000  -4.9066   0.0000   0.0000   0.0000   0.2086
  14.600   1.0363   0.07603   0.07172   0.0207  0.0182  1.0000  -4.8752   0.0000   0.0000   0.0000   0.2095
  14.700   1.0220   0.07967   0.07549   0.0195  0.0185  1.0000  -4.7805   0.0000   0.0000   0.0000   0.2102
  14.800   1.0076   0.08352   0.07946   0.0182  0.0189  1.0000  -4.6787   0.0000   0.0000   0.0000   0.2110
  14.900   0.9947   0.08717   0.08322   0.0167  0.0192  1.0000  -4.5942   0.0000   0.0000   0.0000   0.2119
  15.000   0.9833   0.09065   0.08678   0.0152  0.0194  1.0000  -4.5258   0.0000   0.0000   0.0000   0.2131
  15.100   0.9740   0.09386   0.09005   0.0133  0.0193  1.0000  -4.4849   0.0000   0.0000   0.0000   0.2146
  15.200   0.9661   0.09697   0.09320   0.0112  0.0192  1.0000  -4.4609   0.0000   0.0000   0.0000   0.2164
  15.300   0.9555   0.10062   0.09692   0.0094  0.0193  1.0000  -4.3943   0.0000   0.0000   0.0000   0.2181
  15.400   0.9442   0.10445   0.10083   0.0075  0.0194  1.0000  -4.3144   0.0000   0.0000   0.0000   0.2197
  15.500   0.9332   0.10831   0.10476   0.0056  0.0196  1.0000  -4.2354   0.0000   0.0000   0.0000   0.2216
  15.600   0.9229   0.11220   0.10872   0.0034  0.0196  1.0000  -4.1622   0.0000   0.0000   0.0000   0.2236
  15.700   0.9141   0.11591   0.11248   0.0012  0.0195  1.0000  -4.1087   0.0000   0.0000   0.0000   0.2259
  15.800   0.9067   0.11948   0.11609  -0.0012  0.0192  1.0000  -4.0723   0.0000   0.0000   0.0000   0.2284
  15.900   0.8965   0.12360   0.12026  -0.0036  0.0192  1.0000  -3.9915   0.0000   0.0000   0.0000   0.2308
  16.000   0.8848   0.12819   0.12490  -0.0060  0.0193  1.0000  -3.8829   0.0000   0.0000   0.0000   0.2335
  16.100   0.8723   0.13319   0.12996  -0.0086  0.0194  1.0000  -3.7570   0.0000   0.0000   0.0000   0.2366
  16.200   0.8599   0.13859   0.13542  -0.0115  0.0193  1.0000  -3.6277   0.0000   0.0000   0.0000   0.2402
  16.300   0.8407   0.14637   0.14324  -0.0153  0.0194  1.0000  -3.3842   0.0000   0.0000   0.0000   0.2452
  16.400   0.8046   0.15977   0.15667  -0.0207  0.0208  1.0000  -2.8228   0.0000   0.0000   0.0000   0.2536
  16.500   0.7850   0.16771   0.16461  -0.0240  0.0224  1.0000  -2.5006   0.0000   0.0000   0.0000   0.2587
  16.600   0.7524   0.17978   0.17671  -0.0277  0.0249  1.0000  -1.9829   0.0000   0.0000   0.0000   0.2654
  16.700   0.7519   0.18236   0.17929  -0.0285  0.0249  1.0000  -1.9484   0.0000   0.0000   0.0000   0.2664
  16.800   0.7520   0.18483   0.18175  -0.0294  0.0249  1.0000  -1.9206   0.0000   0.0000   0.0000   0.2675
  16.900   0.7523   0.18725   0.18416  -0.0302  0.0249  1.0000  -1.8963   0.0000   0.0000   0.0000   0.2684
  17.000   0.7528   0.18962   0.18653  -0.0310  0.0250  1.0000  -1.8746   0.0000   0.0000   0.0000   0.2694
  17.100   0.7534   0.19196   0.18887  -0.0318  0.0250  1.0000  -1.8548   0.0000   0.0000   0.0000   0.2703
  17.200   0.7543   0.19427   0.19118  -0.0326  0.0250  1.0000  -1.8366   0.0000   0.0000   0.0000   0.2712
  17.300   0.7552   0.19657   0.19347  -0.0334  0.0250  1.0000  -1.8196   0.0000   0.0000   0.0000   0.2721
  17.400   0.7562   0.19884   0.19573  -0.0341  0.0250  1.0000  -1.8039   0.0000   0.0000   0.0000   0.2729
  17.500   0.7574   0.20109   0.19799  -0.0349  0.0250  1.0000  -1.7891   0.0000   0.0000   0.0000   0.2738
  17.600   0.7586   0.20333   0.20022  -0.0356  0.0250  1.0000  -1.7752   0.0000   0.0000   0.0000   0.2746
  17.700   0.7599   0.20556   0.20245  -0.0364  0.0250  1.0000  -1.7621   0.0000   0.0000   0.0000   0.2753
  17.800   0.7613   0.20778   0.20467  -0.0371  0.0250  1.0000  -1.7497   0.0000   0.0000   0.0000   0.2761
  17.900   0.7627   0.20999   0.20687  -0.0378  0.0250  1.0000  -1.7380   0.0000   0.0000   0.0000   0.2769
  18.000   0.7642   0.21220   0.20907  -0.0386  0.0250  1.0000  -1.7269   0.0000   0.0000   0.0000   0.2776
  18.100   0.7657   0.21440   0.21127  -0.0393  0.0250  1.0000  -1.7164   0.0000   0.0000   0.0000   0.2783
  18.200   0.7673   0.21659   0.21346  -0.0400  0.0250  1.0000  -1.7063   0.0000   0.0000   0.0000   0.2790
  18.300   0.7688   0.21870   0.21557  -0.0408  0.0250  1.0000  -1.6965   0.0000   0.0000   0.0000   0.2798
  18.400   0.7704   0.22074   0.21761  -0.0416  0.0250  1.0000  -1.6873   0.0000   0.0000   0.0000   0.2806
  18.500   0.7720   0.22276   0.21962  -0.0424  0.0249  1.0000  -1.6789   0.0000   0.0000   0.0000   0.2815
  18.600   0.7736   0.22475   0.22161  -0.0433  0.0249  1.0000  -1.6713   0.0000   0.0000   0.0000   0.2823
  18.700   0.7753   0.22672   0.22358  -0.0441  0.0249  1.0000  -1.6645   0.0000   0.0000   0.0000   0.2830
  18.800   0.7771   0.22867   0.22553  -0.0449  0.0248  1.0000  -1.6586   0.0000   0.0000   0.0000   0.2838
  18.900   0.7789   0.23058   0.22744  -0.0456  0.0248  1.0000  -1.6537   0.0000   0.0000   0.0000   0.2845
  19.000   0.7808   0.23246   0.22932  -0.0464  0.0248  1.0000  -1.6499   0.0000   0.0000   0.0000   0.2853
  19.100   0.7828   0.23430   0.23115  -0.0472  0.0247  1.0000  -1.6475   0.0000   0.0000   0.0000   0.2860
  19.200   0.7849   0.23608   0.23293  -0.0480  0.0247  1.0000  -1.6468   0.0000   0.0000   0.0000   0.2866
  19.300   0.7872   0.23777   0.23462  -0.0487  0.0246  1.0000  -1.6483   0.0000   0.0000   0.0000   0.2873
  19.400   0.7896   0.23934   0.23619  -0.0495  0.0245  1.0000  -1.6535   0.0000   0.0000   0.0000   0.2879
  19.500   0.7925   0.24066   0.23751  -0.0503  0.0243  1.0000  -1.6652   0.0000   0.0000   0.0000   0.2885
  19.600   0.7966   0.24142   0.23826  -0.0510  0.0239  1.0000  -1.6933   0.0000   0.0000   0.0000   0.2889
  19.700   0.8034   0.24108   0.23792  -0.0518  0.0228  1.0000  -1.7538   0.0000   0.0000   0.0000   0.2891
  19.800   0.8085   0.24170   0.23854  -0.0529  0.0212  1.0000  -1.7819   0.0000   0.0000   0.0000   0.2898
  19.900   0.8116   0.24318   0.24001  -0.0539  0.0198  1.0000  -1.7919   0.0000   0.0000   0.0000   0.2906
  20.000   0.8142   0.24467   0.24151  -0.0547  0.0186  1.0000  -1.8093   0.0000   0.0000   0.0000   0.2912
  20.100   0.8168   0.24606   0.24289  -0.0553  0.0177  1.0000  -1.8346   0.0000   0.0000   0.0000   0.2916
  20.200   0.8194   0.24732   0.24415  -0.0559  0.0169  1.0000  -1.8669   0.0000   0.0000   0.0000   0.2919
  20.300   0.8222   0.24846   0.24529  -0.0565  0.0163  1.0000  -1.9058   0.0000   0.0000   0.0000   0.2921
  20.400   0.8251   0.24950   0.24632  -0.0570  0.0158  1.0000  -1.9504   0.0000   0.0000   0.0000   0.2922
  20.500   0.8282   0.25044   0.24725  -0.0574  0.0154  1.0000  -2.0005   0.0000   0.0000   0.0000   0.2922
  20.600   0.8314   0.25128   0.24809  -0.0578  0.0150  1.0000  -2.0559   0.0000   0.0000   0.0000   0.2922
  20.700   0.8348   0.25204   0.24885  -0.0581  0.0147  1.0000  -2.1168   0.0000   0.0000   0.0000   0.2920
  20.800   0.8381   0.25277   0.24958  -0.0584  0.0144  1.0000  -2.1796   0.0000   0.0000   0.0000   0.2918
  20.900   0.8415   0.25349   0.25030  -0.0587  0.0142  1.0000  -2.2444   0.0000   0.0000   0.0000   0.2915
  21.000   0.8440   0.25452   0.25132  -0.0591  0.0139  1.0000  -2.2957   0.0000   0.0000   0.0000   0.2915
  21.100   0.8455   0.25590   0.25270  -0.0595  0.0135  1.0000  -2.3340   0.0000   0.0000   0.0000   0.2917
  21.200   0.8284   0.26790   0.26467  -0.0612  0.0124  1.0000  -1.9099   0.0000   0.0000   0.0000   0.2958
  21.300   0.8296   0.27021   0.26699  -0.0620  0.0124  1.0000  -1.8922   0.0000   0.0000   0.0000   0.2965
  21.400   0.8308   0.27251   0.26929  -0.0627  0.0124  1.0000  -1.8754   0.0000   0.0000   0.0000   0.2971
  21.500   0.8320   0.27480   0.27158  -0.0635  0.0124  1.0000  -1.8594   0.0000   0.0000   0.0000   0.2978
  21.600   0.8332   0.27707   0.27385  -0.0642  0.0123  1.0000  -1.8441   0.0000   0.0000   0.0000   0.2984
  21.700   0.8345   0.27933   0.27612  -0.0649  0.0123  1.0000  -1.8295   0.0000   0.0000   0.0000   0.2990
  21.800   0.8357   0.28158   0.27837  -0.0656  0.0123  1.0000  -1.8155   0.0000   0.0000   0.0000   0.2996
  21.900   0.8369   0.28383   0.28061  -0.0663  0.0123  1.0000  -1.8020   0.0000   0.0000   0.0000   0.3001
  22.000   0.8381   0.28606   0.28285  -0.0670  0.0123  1.0000  -1.7889   0.0000   0.0000   0.0000   0.3007
  22.100   0.8393   0.28828   0.28507  -0.0677  0.0122  1.0000  -1.7763   0.0000   0.0000   0.0000   0.3013
  22.200   0.8405   0.29050   0.28729  -0.0683  0.0122  1.0000  -1.7640   0.0000   0.0000   0.0000   0.3018
  22.300   0.8416   0.29270   0.28950  -0.0690  0.0122  1.0000  -1.7522   0.0000   0.0000   0.0000   0.3023
  22.400   0.8427   0.29491   0.29170  -0.0696  0.0122  1.0000  -1.7407   0.0000   0.0000   0.0000   0.3029
  22.500   0.8439   0.29710   0.29390  -0.0703  0.0122  1.0000  -1.7296   0.0000   0.0000   0.0000   0.3034
  22.600   0.8449   0.29929   0.29609  -0.0709  0.0121  1.0000  -1.7186   0.0000   0.0000   0.0000   0.3039
  22.700   0.8460   0.30147   0.29827  -0.0716  0.0121  1.0000  -1.7078   0.0000   0.0000   0.0000   0.3044
  22.800   0.8470   0.30364   0.30045  -0.0722  0.0121  1.0000  -1.6973   0.0000   0.0000   0.0000   0.3048
  22.900   0.8479   0.30581   0.30262  -0.0728  0.0121  1.0000  -1.6870   0.0000   0.0000   0.0000   0.3053
  23.000   0.8489   0.30797   0.30478  -0.0734  0.0121  1.0000  -1.6769   0.0000   0.0000   0.0000   0.3058
  23.100   0.8498   0.31012   0.30693  -0.0740  0.0120  1.0000  -1.6671   0.0000   0.0000   0.0000   0.3062
  23.200   0.8506   0.31226   0.30908  -0.0745  0.0120  1.0000  -1.6574   0.0000   0.0000   0.0000   0.3067
  23.300   0.8514   0.31440   0.31122  -0.0751  0.0120  1.0000  -1.6479   0.0000   0.0000   0.0000   0.3071
  23.400   0.8522   0.31653   0.31336  -0.0757  0.0120  1.0000  -1.6382   0.0000   0.0000   0.0000   0.3076
  23.500   0.8529   0.31866   0.31549  -0.0762  0.0120  1.0000  -1.6282   0.0000   0.0000   0.0000   0.3080
  23.600   0.8535   0.32077   0.31761  -0.0768  0.0119  1.0000  -1.6184   0.0000   0.0000   0.0000   0.3084
  23.700   0.8540   0.32288   0.31971  -0.0773  0.0119  1.0000  -1.6088   0.0000   0.0000   0.0000   0.3089
  23.800   0.8545   0.32497   0.32181  -0.0778  0.0119  1.0000  -1.5992   0.0000   0.0000   0.0000   0.3093
  23.900   0.8550   0.32705   0.32389  -0.0783  0.0119  1.0000  -1.5897   0.0000   0.0000   0.0000   0.3097
  24.000   0.8553   0.32912   0.32596  -0.0788  0.0118  1.0000  -1.5803   0.0000   0.0000   0.0000   0.3101
  24.100   0.8556   0.33119   0.32804  -0.0793  0.0118  1.0000  -1.5696   0.0000   0.0000   0.0000   0.3105
  24.200   0.8557   0.33324   0.33009  -0.0798  0.0118  1.0000  -1.5588   0.0000   0.0000   0.0000   0.3109
  24.300   0.8557   0.33527   0.33213  -0.0803  0.0118  1.0000  -1.5482   0.0000   0.0000   0.0000   0.3113
  24.400   0.8557   0.33728   0.33414  -0.0807  0.0118  1.0000  -1.5375   0.0000   0.0000   0.0000   0.3117
  24.500   0.8555   0.33926   0.33613  -0.0811  0.0117  1.0000  -1.5269   0.0000   0.0000   0.0000   0.3121
  24.600   0.8552   0.34122   0.33809  -0.0815  0.0117  1.0000  -1.5163   0.0000   0.0000   0.0000   0.3124
  24.700   0.8550   0.34299   0.33997  -0.0818  0.0118  1.0000  -1.5139   0.0000   0.0000   0.0000   0.3126
  24.800   0.8545   0.34484   0.34183  -0.0821  0.0117  1.0000  -1.5052   0.0000   0.0000   0.0000   0.3129
  24.900   0.8538   0.34667   0.34367  -0.0824  0.0117  1.0000  -1.4952   0.0000   0.0000   0.0000   0.3132
  25.000   0.8529   0.34845   0.34547  -0.0827  0.0117  1.0000  -1.4847   0.0000   0.0000   0.0000   0.3135
  25.100   0.8517   0.35018   0.34721  -0.0829  0.0117  1.0000  -1.4737   0.0000   0.0000   0.0000   0.3138
  25.200   0.8503   0.35185   0.34888  -0.0831  0.0117  1.0000  -1.4622   0.0000   0.0000   0.0000   0.3141
  25.300   0.8486   0.35343   0.35047  -0.0832  0.0117  1.0000  -1.4502   0.0000   0.0000   0.0000   0.3144
  25.400   0.8465   0.35490   0.35196  -0.0833  0.0117  1.0000  -1.4375   0.0000   0.0000   0.0000   0.3146
  25.500   0.8438   0.35623   0.35330  -0.0833  0.0116  1.0000  -1.4239   0.0000   0.0000   0.0000   0.3149
  25.600   0.8401   0.35727   0.35434  -0.0831  0.0116  1.0000  -1.4081   0.0000   0.0000   0.0000   0.3150
  25.700   0.7802   0.34216   0.33931  -0.0737  0.0116  1.0000  -1.2780   0.0000   0.0000   0.0000   0.3124
  25.800   0.7739   0.34153   0.33870  -0.0730  0.0116  1.0000  -1.2576   0.0000   0.0000   0.0000   0.3124
  25.900   0.7688   0.34118   0.33835  -0.0726  0.0116  1.0000  -1.2395   0.0000   0.0000   0.0000   0.3125
  26.000   0.7643   0.34099   0.33818  -0.0722  0.0116  1.0000  -1.2231   0.0000   0.0000   0.0000   0.3126
  26.100   0.7604   0.34092   0.33812  -0.0720  0.0116  1.0000  -1.2082   0.0000   0.0000   0.0000   0.3128
  26.200   0.7569   0.34093   0.33814  -0.0718  0.0115  1.0000  -1.1946   0.0000   0.0000   0.0000   0.3130
  26.300   0.7538   0.34101   0.33823  -0.0716  0.0115  1.0000  -1.1818   0.0000   0.0000   0.0000   0.3132
  26.400   0.7509   0.34113   0.33837  -0.0715  0.0115  1.0000  -1.1695   0.0000   0.0000   0.0000   0.3134
  26.500   0.7481   0.34129   0.33853  -0.0714  0.0115  1.0000  -1.1578   0.0000   0.0000   0.0000   0.3136
  26.600   0.7456   0.34148   0.33874  -0.0713  0.0115  1.0000  -1.1465   0.0000   0.0000   0.0000   0.3138
  26.700   0.7433   0.34171   0.33897  -0.0713  0.0115  1.0000  -1.1357   0.0000   0.0000   0.0000   0.3141
  26.800   0.7411   0.34196   0.33923  -0.0713  0.0114  1.0000  -1.1253   0.0000   0.0000   0.0000   0.3143
  26.900   0.7390   0.34224   0.33952  -0.0713  0.0114  1.0000  -1.1152   0.0000   0.0000   0.0000   0.3146
  27.000   0.7371   0.34253   0.33982  -0.0714  0.0114  1.0000  -1.1055   0.0000   0.0000   0.0000   0.3148
  27.100   0.7353   0.34285   0.34015  -0.0714  0.0114  1.0000  -1.0961   0.0000   0.0000   0.0000   0.3151
  27.200   0.7336   0.34318   0.34049  -0.0715  0.0114  1.0000  -1.0870   0.0000   0.0000   0.0000   0.3154
  27.300   0.7320   0.34353   0.34085  -0.0716  0.0113  1.0000  -1.0781   0.0000   0.0000   0.0000   0.3156
  27.400   0.7305   0.34389   0.34121  -0.0717  0.0113  1.0000  -1.0695   0.0000   0.0000   0.0000   0.3159
  27.500   0.7290   0.34426   0.34160  -0.0718  0.0113  1.0000  -1.0612   0.0000   0.0000   0.0000   0.3162
  27.600   0.7276   0.34465   0.34199  -0.0719  0.0113  1.0000  -1.0531   0.0000   0.0000   0.0000   0.3165
  27.700   0.7263   0.34504   0.34239  -0.0720  0.0113  1.0000  -1.0452   0.0000   0.0000   0.0000   0.3168
  27.800   0.7251   0.34544   0.34280  -0.0722  0.0113  1.0000  -1.0375   0.0000   0.0000   0.0000   0.3171
  27.900   0.7239   0.34586   0.34322  -0.0723  0.0112  1.0000  -1.0300   0.0000   0.0000   0.0000   0.3174
  28.000   0.7228   0.34628   0.34365  -0.0725  0.0112  1.0000  -1.0227   0.0000   0.0000   0.0000   0.3177
  28.100   0.7217   0.34671   0.34409  -0.0726  0.0112  1.0000  -1.0155   0.0000   0.0000   0.0000   0.3180
  28.200   0.7207   0.34714   0.34453  -0.0728  0.0112  1.0000  -1.0085   0.0000   0.0000   0.0000   0.3183
  28.300   0.7197   0.34758   0.34498  -0.0730  0.0112  1.0000  -1.0017   0.0000   0.0000   0.0000   0.3186
  28.400   0.7188   0.34803   0.34543  -0.0732  0.0112  1.0000  -0.9951   0.0000   0.0000   0.0000   0.3189
  28.500   0.7179   0.34848   0.34589  -0.0734  0.0111  1.0000  -0.9886   0.0000   0.0000   0.0000   0.3192
  28.600   0.7170   0.34894   0.34636  -0.0736  0.0111  1.0000  -0.9823   0.0000   0.0000   0.0000   0.3195
  28.700   0.7162   0.34940   0.34683  -0.0738  0.0111  1.0000  -0.9761   0.0000   0.0000   0.0000   0.3198
  28.800   0.7154   0.34987   0.34731  -0.0740  0.0111  1.0000  -0.9700   0.0000   0.0000   0.0000   0.3202
  28.900   0.7147   0.35034   0.34779  -0.0742  0.0111  1.0000  -0.9640   0.0000   0.0000   0.0000   0.3205
  29.000   0.7140   0.35082   0.34827  -0.0744  0.0111  1.0000  -0.9582   0.0000   0.0000   0.0000   0.3208
  29.100   0.7133   0.35130   0.34876  -0.0747  0.0110  1.0000  -0.9525   0.0000   0.0000   0.0000   0.3211
  29.200   0.7126   0.35178   0.34925  -0.0749  0.0110  1.0000  -0.9470   0.0000   0.0000   0.0000   0.3214
  29.300   0.7120   0.35227   0.34974  -0.0751  0.0110  1.0000  -0.9415   0.0000   0.0000   0.0000   0.3218
  29.400   0.7114   0.35276   0.35024  -0.0754  0.0110  1.0000  -0.9361   0.0000   0.0000   0.0000   0.3221
  29.500   0.7108   0.35325   0.35074  -0.0756  0.0110  1.0000  -0.9309   0.0000   0.0000   0.0000   0.3224
  29.600   0.7102   0.35375   0.35124  -0.0759  0.0110  1.0000  -0.9258   0.0000   0.0000   0.0000   0.3227
  29.700   0.7097   0.35425   0.35175  -0.0761  0.0109  1.0000  -0.9207   0.0000   0.0000   0.0000   0.3231
  29.800   0.7092   0.35475   0.35226  -0.0764  0.0109  1.0000  -0.9158   0.0000   0.0000   0.0000   0.3234
  29.900   0.7087   0.35526   0.35277  -0.0767  0.0109  1.0000  -0.9109   0.0000   0.0000   0.0000   0.3237
  30.000   0.7082   0.35576   0.35328  -0.0769  0.0109  1.0000  -0.9062   0.0000   0.0000   0.0000   0.3240


