xflr5 v6.61

 Calculated polar for: NACA65413a=0.8

 1 1 Reynolds number fixed          Mach number fixed         

 xtrf =   1.000 (top)        1.000 (bottom)
 Mach =   0.000     Re =     0.500 e 6     Ncrit =   9.000

  alpha     CL        CD       CDp       Cm    Top Xtr Bot Xtr   Cpmin    Chinge    XCp    
 ------- -------- --------- --------- -------- ------- ------- -------- --------- ---------
 -10.000  -0.3654   0.06698   0.06443  -0.0942  0.9589  0.0289  -2.7577   0.0000   0.0000   0.0000  -0.0227
  -9.900  -0.3718   0.06530   0.06269  -0.0952  0.9540  0.0289  -2.7936   0.0000   0.0000   0.0000  -0.0205
  -9.800  -0.3785   0.06380   0.06115  -0.0959  0.9494  0.0289  -2.8251   0.0000   0.0000   0.0000  -0.0171
  -9.700  -0.3856   0.06247   0.05977  -0.0962  0.9444  0.0289  -2.8529   0.0000   0.0000   0.0000  -0.0128
  -9.600  -0.3929   0.06129   0.05854  -0.0961  0.9399  0.0289  -2.8773   0.0000   0.0000   0.0000  -0.0075
  -9.500  -0.4001   0.06021   0.05741  -0.0958  0.9358  0.0289  -2.8985   0.0000   0.0000   0.0000  -0.0020
  -9.400  -0.4067   0.05920   0.05636  -0.0952  0.9314  0.0289  -2.9157   0.0000   0.0000   0.0000   0.0037
  -9.300  -0.4120   0.05817   0.05527  -0.0946  0.9277  0.0289  -2.9279   0.0000   0.0000   0.0000   0.0084
  -9.200  -0.4159   0.05704   0.05408  -0.0942  0.9247  0.0289  -2.9355   0.0000   0.0000   0.0000   0.0118
  -9.100  -0.4189   0.05592   0.05289  -0.0937  0.9219  0.0289  -2.9396   0.0000   0.0000   0.0000   0.0148
  -9.000  -0.4204   0.05469   0.05160  -0.0936  0.9190  0.0289  -2.9393   0.0000   0.0000   0.0000   0.0161
  -8.900  -0.4606   0.04676   0.04340  -0.0935  0.9129  0.0297  -3.3013   0.0000   0.0000   0.0000   0.0364
  -8.800  -0.4628   0.04493   0.04148  -0.0931  0.9103  0.0300  -3.3078   0.0000   0.0000   0.0000   0.0384
  -8.700  -0.4624   0.04355   0.04004  -0.0927  0.9081  0.0302  -3.2908   0.0000   0.0000   0.0000   0.0392
  -8.600  -0.4608   0.04237   0.03878  -0.0922  0.9061  0.0304  -3.2641   0.0000   0.0000   0.0000   0.0396
  -8.500  -0.4576   0.04124   0.03758  -0.0921  0.9040  0.0306  -3.2293   0.0000   0.0000   0.0000   0.0387
  -8.400  -0.4538   0.04016   0.03645  -0.0919  0.9016  0.0307  -3.1899   0.0000   0.0000   0.0000   0.0374
  -8.300  -0.4492   0.03920   0.03543  -0.0917  0.8992  0.0309  -3.1438   0.0000   0.0000   0.0000   0.0358
  -8.200  -0.4440   0.03831   0.03449  -0.0915  0.8969  0.0311  -3.0929   0.0000   0.0000   0.0000   0.0341
  -8.100  -0.4388   0.03744   0.03358  -0.0912  0.8948  0.0312  -3.0418   0.0000   0.0000   0.0000   0.0323
  -8.000  -0.4334   0.03661   0.03268  -0.0909  0.8927  0.0314  -2.9905   0.0000   0.0000   0.0000   0.0305
  -7.900  -0.4279   0.03579   0.03180  -0.0905  0.8908  0.0316  -2.9390   0.0000   0.0000   0.0000   0.0287
  -7.800  -0.4223   0.03500   0.03094  -0.0902  0.8889  0.0318  -2.8874   0.0000   0.0000   0.0000   0.0268
  -7.700  -0.4162   0.03421   0.03009  -0.0899  0.8870  0.0320  -2.8350   0.0000   0.0000   0.0000   0.0244
  -7.600  -0.4094   0.03340   0.02921  -0.0898  0.8848  0.0322  -2.7809   0.0000   0.0000   0.0000   0.0211
  -7.500  -0.4025   0.03260   0.02835  -0.0896  0.8826  0.0324  -2.7272   0.0000   0.0000   0.0000   0.0177
  -7.400  -0.3955   0.03181   0.02749  -0.0894  0.8803  0.0327  -2.6741   0.0000   0.0000   0.0000   0.0143
  -7.300  -0.3884   0.03103   0.02664  -0.0892  0.8782  0.0330  -2.6215   0.0000   0.0000   0.0000   0.0108
  -7.200  -0.3812   0.03026   0.02579  -0.0889  0.8762  0.0332  -2.5798   0.0000   0.0000   0.0000   0.0070
  -7.100  -0.3738   0.02949   0.02493  -0.0886  0.8744  0.0335  -2.5515   0.0000   0.0000   0.0000   0.0032
  -6.800  -0.3518   0.02463   0.01941  -0.0865  0.8692  0.0267  -2.7627   0.0000   0.0000   0.0000  -0.0058
  -6.700  -0.3450   0.02299   0.01759  -0.0860  0.8674  0.0255  -2.8009   0.0000   0.0000   0.0000  -0.0094
  -6.600  -0.3367   0.02157   0.01602  -0.0857  0.8656  0.0245  -2.8334   0.0000   0.0000   0.0000  -0.0147
  -6.500  -0.3279   0.02035   0.01461  -0.0854  0.8636  0.0238  -2.8606   0.0000   0.0000   0.0000  -0.0206
  -6.400  -0.3187   0.01925   0.01336  -0.0850  0.8616  0.0232  -2.8806   0.0000   0.0000   0.0000  -0.0272
  -6.300  -0.3092   0.01834   0.01234  -0.0847  0.8597  0.0228  -2.8851   0.0000   0.0000   0.0000  -0.0346
  -6.200  -0.2994   0.01761   0.01152  -0.0845  0.8578  0.0227  -2.8738   0.0000   0.0000   0.0000  -0.0428
  -6.100  -0.2897   0.01700   0.01085  -0.0842  0.8560  0.0226  -2.8510   0.0000   0.0000   0.0000  -0.0517
  -6.000  -0.2798   0.01647   0.01026  -0.0840  0.8543  0.0227  -2.8221   0.0000   0.0000   0.0000  -0.0612
  -5.900  -0.2700   0.01601   0.00975  -0.0838  0.8526  0.0228  -2.7885   0.0000   0.0000   0.0000  -0.0714
  -5.800  -0.2602   0.01560   0.00929  -0.0836  0.8510  0.0231  -2.7513   0.0000   0.0000   0.0000  -0.0825
  -5.700  -0.2503   0.01524   0.00888  -0.0834  0.8494  0.0234  -2.7116   0.0000   0.0000   0.0000  -0.0945
  -5.600  -0.2404   0.01493   0.00853  -0.0832  0.8477  0.0239  -2.6699   0.0000   0.0000   0.0000  -0.1076
  -5.500  -0.2301   0.01464   0.00822  -0.0831  0.8459  0.0245  -2.6251   0.0000   0.0000   0.0000  -0.1229
  -5.400  -0.2198   0.01439   0.00796  -0.0830  0.8440  0.0253  -2.5774   0.0000   0.0000   0.0000  -0.1399
  -5.300  -0.2093   0.01419   0.00774  -0.0830  0.8419  0.0262  -2.5259   0.0000   0.0000   0.0000  -0.1589
  -5.200  -0.1986   0.01404   0.00758  -0.0830  0.8397  0.0271  -2.4688   0.0000   0.0000   0.0000  -0.1803
  -5.100  -0.1879   0.01394   0.00747  -0.0829  0.8376  0.0278  -2.4059   0.0000   0.0000   0.0000  -0.2045
  -5.000  -0.1770   0.01388   0.00739  -0.0829  0.8355  0.0283  -2.3389   0.0000   0.0000   0.0000  -0.2319
  -4.900  -0.1660   0.01385   0.00733  -0.0829  0.8336  0.0287  -2.2692   0.0000   0.0000   0.0000  -0.2633
  -4.800  -0.1553   0.01376   0.00722  -0.0829  0.8317  0.0290  -2.2029   0.0000   0.0000   0.0000  -0.2982
  -4.700  -0.1471   0.01303   0.00645  -0.0825  0.8298  0.0298  -2.1775   0.0000   0.0000   0.0000  -0.3256
  -4.600  -0.1378   0.01264   0.00601  -0.0822  0.8280  0.0304  -2.1308   0.0000   0.0000   0.0000  -0.3623
  -4.500  -0.1281   0.01236   0.00570  -0.0821  0.8260  0.0310  -2.0771   0.0000   0.0000   0.0000  -0.4071
  -4.400  -0.1179   0.01213   0.00546  -0.0820  0.8242  0.0315  -2.0194   0.0000   0.0000   0.0000  -0.4630
  -4.300  -0.1075   0.01192   0.00525  -0.0820  0.8222  0.0319  -1.9597   0.0000   0.0000   0.0000  -0.5310
  -4.200  -0.0970   0.01173   0.00505  -0.0820  0.8202  0.0324  -1.8989   0.0000   0.0000   0.0000  -0.6145
  -4.100  -0.0865   0.01156   0.00487  -0.0820  0.8180  0.0328  -1.8369   0.0000   0.0000   0.0000  -0.7190
  -4.000  -0.0759   0.01140   0.00465  -0.0819  0.8159  0.0330  -1.7736   0.0000   0.0000   0.0000  -0.8530
  -3.900  -0.0653   0.01124   0.00448  -0.0819  0.8139  0.0335  -1.7133   0.0000   0.0000   0.0000  -1.0314
  -3.800  -0.0546   0.01109   0.00431  -0.0819  0.8119  0.0339  -1.6533   0.0000   0.0000   0.0000  -1.2804
  -3.700  -0.0439   0.01095   0.00415  -0.0819  0.8100  0.0344  -1.5937   0.0000   0.0000   0.0000  -1.6517
  -3.600  -0.0332   0.01082   0.00399  -0.0819  0.8082  0.0350  -1.5347   0.0000   0.0000   0.0000  -2.2658
  -3.500  -0.0224   0.01069   0.00384  -0.0819  0.8064  0.0356  -1.4762   0.0000   0.0000   0.0000  -3.4758
  -3.400  -0.0115   0.01059   0.00371  -0.0818  0.8045  0.0365  -1.4173   0.0000   0.0000   0.0000  -6.9737
  -3.200   0.0104   0.01041   0.00350  -0.0819  0.8008  0.0389  -1.2994   0.0000   0.0000   0.0000   8.2504
  -3.100   0.0215   0.01032   0.00341  -0.0820  0.7989  0.0401  -1.2558   0.0000   0.0000   0.0000   4.1264
  -3.000   0.0324   0.01019   0.00326  -0.0820  0.7969  0.0424  -1.2299   0.0000   0.0000   0.0000   2.8200
  -2.900   0.0430   0.00995   0.00305  -0.0820  0.7948  0.0514  -1.2196   0.0000   0.0000   0.0000   2.1846
  -2.800   0.0525   0.00947   0.00283  -0.0820  0.7927  0.1126  -1.2103   0.0000   0.0000   0.0000   1.8326
  -2.700   0.0597   0.00852   0.00257  -0.0821  0.7906  0.2970  -1.1847   0.0000   0.0000   0.0000   1.6432
  -2.600   0.0670   0.00770   0.00240  -0.0820  0.7885  0.4752  -1.1523   0.0000   0.0000   0.0000   1.4905
  -2.500   0.0769   0.00750   0.00242  -0.0819  0.7866  0.5451  -1.1115   0.0000   0.0000   0.0000   1.3287
  -2.400   0.0877   0.00744   0.00243  -0.0818  0.7846  0.5730  -1.0679   0.0000   0.0000   0.0000   1.1946
  -2.300   0.0988   0.00743   0.00241  -0.0818  0.7827  0.5898  -1.0234   0.0000   0.0000   0.0000   1.0875
  -2.200   0.1098   0.00742   0.00242  -0.0818  0.7806  0.6038  -0.9788   0.0000   0.0000   0.0000   1.0026
  -2.100   0.1213   0.00746   0.00242  -0.0818  0.7782  0.6136  -0.9336   0.0000   0.0000   0.0000   0.9316
  -2.000   0.1323   0.00743   0.00244  -0.0818  0.7766  0.6221  -0.8891   0.0000   0.0000   0.0000   0.8743
  -1.900   0.1435   0.00743   0.00245  -0.0819  0.7747  0.6299  -0.8440   0.0000   0.0000   0.0000   0.8255
  -1.800   0.1549   0.00743   0.00243  -0.0819  0.7727  0.6363  -0.7950   0.0000   0.0000   0.0000   0.7833
  -1.700   0.1662   0.00745   0.00245  -0.0820  0.7707  0.6460  -0.7515   0.0000   0.0000   0.0000   0.7470
  -1.600   0.1769   0.00747   0.00253  -0.0818  0.7688  0.6595  -0.7092   0.0000   0.0000   0.0000   0.7158
  -1.500   0.1880   0.00755   0.00259  -0.0817  0.7668  0.6720  -0.6663   0.0000   0.0000   0.0000   0.6876
  -1.400   0.1985   0.00757   0.00268  -0.0815  0.7650  0.6836  -0.6252   0.0000   0.0000   0.0000   0.6631
  -1.300   0.2094   0.00765   0.00276  -0.0813  0.7631  0.6930  -0.5835   0.0000   0.0000   0.0000   0.6406
  -1.200   0.2207   0.00773   0.00280  -0.0813  0.7613  0.6986  -0.5704   0.0000   0.0000   0.0000   0.6203
  -1.100   0.2316   0.00770   0.00279  -0.0813  0.7595  0.7041  -0.5758   0.0000   0.0000   0.0000   0.6023
  -1.000   0.2427   0.00772   0.00281  -0.0812  0.7577  0.7079  -0.5813   0.0000   0.0000   0.0000   0.5859
  -0.900   0.2541   0.00775   0.00282  -0.0813  0.7557  0.7104  -0.5868   0.0000   0.0000   0.0000   0.5709
  -0.700   0.2770   0.00780   0.00284  -0.0815  0.7521  0.7142  -0.5978   0.0000   0.0000   0.0000   0.5447
  -0.600   0.2885   0.00780   0.00284  -0.0816  0.7506  0.7159  -0.6033   0.0000   0.0000   0.0000   0.5333
  -0.500   0.2999   0.00780   0.00284  -0.0817  0.7491  0.7176  -0.6088   0.0000   0.0000   0.0000   0.5227
  -0.400   0.3114   0.00780   0.00283  -0.0819  0.7473  0.7193  -0.6143   0.0000   0.0000   0.0000   0.5129
  -0.300   0.3229   0.00781   0.00283  -0.0820  0.7455  0.7209  -0.6198   0.0000   0.0000   0.0000   0.5038
  -0.200   0.3344   0.00782   0.00283  -0.0821  0.7436  0.7226  -0.6254   0.0000   0.0000   0.0000   0.4953
  -0.100   0.3459   0.00783   0.00283  -0.0823  0.7417  0.7242  -0.6309   0.0000   0.0000   0.0000   0.4873
   0.000   0.3574   0.00784   0.00282  -0.0824  0.7398  0.7256  -0.6365   0.0000   0.0000   0.0000   0.4798
   0.100   0.3687   0.00781   0.00280  -0.0825  0.7380  0.7278  -0.6420   0.0000   0.0000   0.0000   0.4729
   0.200   0.3800   0.00780   0.00278  -0.0825  0.7362  0.7298  -0.6475   0.0000   0.0000   0.0000   0.4663
   0.300   0.3914   0.00780   0.00277  -0.0826  0.7344  0.7316  -0.6530   0.0000   0.0000   0.0000   0.4600
   0.400   0.4027   0.00781   0.00278  -0.0827  0.7327  0.7333  -0.6585   0.0000   0.0000   0.0000   0.4542
   0.500   0.4142   0.00783   0.00279  -0.0828  0.7309  0.7350  -0.6640   0.0000   0.0000   0.0000   0.4486
   0.600   0.4256   0.00787   0.00281  -0.0829  0.7290  0.7367  -0.6695   0.0000   0.0000   0.0000   0.4434
   0.700   0.4371   0.00792   0.00285  -0.0830  0.7269  0.7384  -0.6754   0.0000   0.0000   0.0000   0.4385
   0.800   0.4485   0.00793   0.00287  -0.0831  0.7258  0.7402  -0.6813   0.0000   0.0000   0.0000   0.4338
   0.900   0.4599   0.00793   0.00289  -0.0833  0.7245  0.7420  -0.6871   0.0000   0.0000   0.0000   0.4294
   1.000   0.4713   0.00794   0.00291  -0.0834  0.7231  0.7439  -0.6930   0.0000   0.0000   0.0000   0.4251
   1.100   0.4827   0.00796   0.00293  -0.0835  0.7216  0.7458  -0.6989   0.0000   0.0000   0.0000   0.4211
   1.200   0.4941   0.00797   0.00295  -0.0836  0.7200  0.7476  -0.7048   0.0000   0.0000   0.0000   0.4173
   1.300   0.5055   0.00799   0.00297  -0.0837  0.7183  0.7494  -0.7107   0.0000   0.0000   0.0000   0.4136
   1.400   0.5170   0.00801   0.00299  -0.0839  0.7166  0.7511  -0.7166   0.0000   0.0000   0.0000   0.4101
   1.500   0.5283   0.00801   0.00299  -0.0840  0.7148  0.7532  -0.7225   0.0000   0.0000   0.0000   0.4067
   1.600   0.5395   0.00800   0.00300  -0.0840  0.7130  0.7554  -0.7284   0.0000   0.0000   0.0000   0.4034
   1.700   0.5507   0.00800   0.00301  -0.0841  0.7113  0.7574  -0.7343   0.0000   0.0000   0.0000   0.4002
   1.800   0.5620   0.00801   0.00306  -0.0841  0.7097  0.7594  -0.7401   0.0000   0.0000   0.0000   0.3972
   1.900   0.5733   0.00803   0.00309  -0.0842  0.7080  0.7613  -0.7461   0.0000   0.0000   0.0000   0.3943
   2.000   0.5846   0.00805   0.00311  -0.0843  0.7065  0.7632  -0.7520   0.0000   0.0000   0.0000   0.3915
   2.100   0.5960   0.00809   0.00314  -0.0844  0.7048  0.7652  -0.7579   0.0000   0.0000   0.0000   0.3888
   2.200   0.6075   0.00813   0.00319  -0.0845  0.7031  0.7673  -0.7638   0.0000   0.0000   0.0000   0.3862
   2.300   0.6190   0.00820   0.00324  -0.0847  0.7011  0.7693  -0.7696   0.0000   0.0000   0.0000   0.3838
   2.400   0.6303   0.00825   0.00330  -0.0848  0.6994  0.7714  -0.7816   0.0000   0.0000   0.0000   0.3814
   2.500   0.6416   0.00825   0.00333  -0.0849  0.6980  0.7734  -0.8236   0.0000   0.0000   0.0000   0.3791
   2.600   0.6528   0.00826   0.00335  -0.0850  0.6963  0.7753  -0.8661   0.0000   0.0000   0.0000   0.3769
   2.800   0.6750   0.00824   0.00338  -0.0850  0.6919  0.7794  -0.9519   0.0000   0.0000   0.0000   0.3726
   2.900   0.6860   0.00823   0.00340  -0.0850  0.6893  0.7816  -0.9953   0.0000   0.0000   0.0000   0.3705
   3.000   0.6970   0.00822   0.00341  -0.0850  0.6868  0.7839  -1.0392   0.0000   0.0000   0.0000   0.3684
   3.100   0.7080   0.00821   0.00342  -0.0850  0.6842  0.7862  -1.0836   0.0000   0.0000   0.0000   0.3664
   3.200   0.7190   0.00821   0.00343  -0.0850  0.6814  0.7887  -1.1285   0.0000   0.0000   0.0000   0.3644
   3.300   0.7300   0.00823   0.00343  -0.0850  0.6780  0.7912  -1.1740   0.0000   0.0000   0.0000   0.3625
   3.400   0.7411   0.00830   0.00345  -0.0850  0.6721  0.7938  -1.2201   0.0000   0.0000   0.0000   0.3607
   3.500   0.7513   0.00823   0.00342  -0.0848  0.6673  0.7965  -1.2648   0.0000   0.0000   0.0000   0.3587
   3.600   0.7616   0.00817   0.00337  -0.0846  0.6596  0.7989  -1.3102   0.0000   0.0000   0.0000   0.3568
   3.700   0.7718   0.00815   0.00330  -0.0843  0.6505  0.8011  -1.3561   0.0000   0.0000   0.0000   0.3550
   3.800   0.7817   0.00816   0.00328  -0.0841  0.6418  0.8039  -1.4015   0.0000   0.0000   0.0000   0.3531
   3.900   0.7919   0.00812   0.00328  -0.0839  0.6346  0.8066  -1.4562   0.0000   0.0000   0.0000   0.3514
   4.000   0.8021   0.00811   0.00334  -0.0837  0.6272  0.8092  -1.5203   0.0000   0.0000   0.0000   0.3497
   4.100   0.8123   0.00814   0.00335  -0.0835  0.6210  0.8119  -1.5812   0.0000   0.0000   0.0000   0.3481
   4.200   0.8224   0.00820   0.00338  -0.0833  0.6146  0.8148  -1.6418   0.0000   0.0000   0.0000   0.3465
   4.300   0.8331   0.00820   0.00343  -0.0833  0.6095  0.8176  -1.7045   0.0000   0.0000   0.0000   0.3451
   4.400   0.8435   0.00822   0.00346  -0.0832  0.6019  0.8205  -1.7669   0.0000   0.0000   0.0000   0.3436
   4.500   0.8534   0.00827   0.00348  -0.0830  0.5923  0.8233  -1.8284   0.0000   0.0000   0.0000   0.3421
   4.600   0.8628   0.00833   0.00352  -0.0827  0.5824  0.8264  -1.8890   0.0000   0.0000   0.0000   0.3406
   4.700   0.8724   0.00836   0.00356  -0.0824  0.5696  0.8296  -1.9505   0.0000   0.0000   0.0000   0.3392
   4.800   0.8805   0.00846   0.00360  -0.0819  0.5541  0.8331  -2.0083   0.0000   0.0000   0.0000   0.3376
   4.900   0.8892   0.00855   0.00366  -0.0814  0.5341  0.8367  -2.0680   0.0000   0.0000   0.0000   0.3361
   5.000   0.8964   0.00873   0.00374  -0.0807  0.5083  0.8406  -2.1236   0.0000   0.0000   0.0000   0.3345
   5.100   0.9013   0.00905   0.00388  -0.0797  0.4704  0.8448  -2.1727   0.0000   0.0000   0.0000   0.3327
   5.200   0.9034   0.00951   0.00410  -0.0782  0.4197  0.8494  -2.2129   0.0000   0.0000   0.0000   0.3307
   5.300   0.9036   0.01009   0.00442  -0.0765  0.3648  0.8549  -2.2470   0.0000   0.0000   0.0000   0.3287
   5.400   0.9040   0.01069   0.00476  -0.0748  0.3134  0.8612  -2.2814   0.0000   0.0000   0.0000   0.3267
   5.600   0.9049   0.01181   0.00543  -0.0715  0.2162  0.8763  -2.3499   0.0000   0.0000   0.0000   0.3227
   5.700   0.9050   0.01234   0.00576  -0.0698  0.1730  0.8870  -2.3828   0.0000   0.0000   0.0000   0.3207
   5.800   0.9042   0.01281   0.00608  -0.0678  0.1347  0.9023  -2.4125   0.0000   0.0000   0.0000   0.3185
   5.900   0.9030   0.01326   0.00639  -0.0657  0.0992  0.9306  -2.4406   0.0000   0.0000   0.0000   0.3161
   6.000   0.9093   0.01385   0.00678  -0.0654  0.0611  1.0000  -2.4877   0.0000   0.0000   0.0000   0.3152
   6.100   0.9134   0.01422   0.00706  -0.0644  0.0480  1.0000  -2.5272   0.0000   0.0000   0.0000   0.3136
   6.200   0.9188   0.01452   0.00730  -0.0635  0.0425  1.0000  -2.5716   0.0000   0.0000   0.0000   0.3122
   6.300   0.9230   0.01489   0.00764  -0.0625  0.0374  1.0000  -2.6036   0.0000   0.0000   0.0000   0.3107
   6.400   0.9308   0.01506   0.00783  -0.0620  0.0366  1.0000  -2.6595   0.0000   0.0000   0.0000   0.3095
   6.500   0.9381   0.01526   0.00804  -0.0615  0.0356  1.0000  -2.7134   0.0000   0.0000   0.0000   0.3083
   6.600   0.9452   0.01547   0.00826  -0.0610  0.0347  1.0000  -2.7668   0.0000   0.0000   0.0000   0.3072
   6.700   0.9522   0.01568   0.00849  -0.0605  0.0338  1.0000  -2.8201   0.0000   0.0000   0.0000   0.3060
   6.800   0.9590   0.01591   0.00873  -0.0599  0.0329  1.0000  -2.8734   0.0000   0.0000   0.0000   0.3048
   6.900   0.9657   0.01614   0.00897  -0.0593  0.0320  1.0000  -2.9263   0.0000   0.0000   0.0000   0.3037
   7.000   0.9720   0.01640   0.00923  -0.0587  0.0311  1.0000  -2.9779   0.0000   0.0000   0.0000   0.3025
   7.100   0.9779   0.01669   0.00958  -0.0580  0.0302  1.0000  -3.0490   0.0000   0.0000   0.0000   0.3014
   7.200   0.9832   0.01701   0.00991  -0.0572  0.0293  1.0000  -3.1200   0.0000   0.0000   0.0000   0.3001
   7.300   0.9875   0.01740   0.01032  -0.0563  0.0282  1.0000  -3.1801   0.0000   0.0000   0.0000   0.2988
   7.400   0.9894   0.01794   0.01090  -0.0551  0.0270  1.0000  -3.2230   0.0000   0.0000   0.0000   0.2973
   7.500   0.9902   0.01856   0.01157  -0.0537  0.0260  1.0000  -3.2579   0.0000   0.0000   0.0000   0.2957
   7.600   0.9976   0.01877   0.01179  -0.0533  0.0257  1.0000  -3.3379   0.0000   0.0000   0.0000   0.2948
   7.700   1.0044   0.01902   0.01206  -0.0527  0.0254  1.0000  -3.4140   0.0000   0.0000   0.0000   0.2938
   7.800   1.0105   0.01932   0.01237  -0.0522  0.0250  1.0000  -3.4862   0.0000   0.0000   0.0000   0.2928
   7.900   1.0162   0.01965   0.01273  -0.0515  0.0246  1.0000  -3.5550   0.0000   0.0000   0.0000   0.2917
   8.000   1.0215   0.02001   0.01311  -0.0508  0.0242  1.0000  -3.6215   0.0000   0.0000   0.0000   0.2907
   8.100   1.0266   0.02039   0.01352  -0.0501  0.0238  1.0000  -3.6866   0.0000   0.0000   0.0000   0.2896
   8.200   1.0314   0.02080   0.01395  -0.0493  0.0235  1.0000  -3.7502   0.0000   0.0000   0.0000   0.2885
   8.300   1.0362   0.02122   0.01440  -0.0486  0.0233  1.0000  -3.8134   0.0000   0.0000   0.0000   0.2874
   8.400   1.0409   0.02165   0.01486  -0.0478  0.0231  1.0000  -3.8764   0.0000   0.0000   0.0000   0.2864
   8.500   1.0457   0.02210   0.01533  -0.0471  0.0229  1.0000  -3.9395   0.0000   0.0000   0.0000   0.2853
   8.600   1.0506   0.02255   0.01582  -0.0464  0.0227  1.0000  -4.0030   0.0000   0.0000   0.0000   0.2843
   8.700   1.0556   0.02302   0.01631  -0.0457  0.0226  1.0000  -4.0667   0.0000   0.0000   0.0000   0.2833
   8.800   1.0606   0.02349   0.01681  -0.0450  0.0225  1.0000  -4.1307   0.0000   0.0000   0.0000   0.2823
   8.900   1.0659   0.02397   0.01732  -0.0443  0.0224  1.0000  -4.1952   0.0000   0.0000   0.0000   0.2813
   9.000   1.0715   0.02446   0.01784  -0.0437  0.0223  1.0000  -4.2607   0.0000   0.0000   0.0000   0.2804
   9.100   1.0774   0.02495   0.01836  -0.0431  0.0223  1.0000  -4.3275   0.0000   0.0000   0.0000   0.2795
   9.200   1.0838   0.02545   0.01889  -0.0426  0.0223  1.0000  -4.3958   0.0000   0.0000   0.0000   0.2786
   9.300   1.0907   0.02596   0.01944  -0.0421  0.0223  1.0000  -4.4657   0.0000   0.0000   0.0000   0.2778
   9.400   1.0980   0.02643   0.01994  -0.0416  0.0222  1.0000  -4.5407   0.0000   0.0000   0.0000   0.2770
   9.500   1.1052   0.02685   0.02038  -0.0413  0.0219  1.0000  -4.6221   0.0000   0.0000   0.0000   0.2763
   9.600   1.1122   0.02724   0.02079  -0.0409  0.0216  1.0000  -4.7062   0.0000   0.0000   0.0000   0.2756
   9.700   1.1191   0.02762   0.02120  -0.0405  0.0213  1.0000  -4.7916   0.0000   0.0000   0.0000   0.2749
   9.800   1.1260   0.02801   0.02161  -0.0401  0.0210  1.0000  -4.8772   0.0000   0.0000   0.0000   0.2742
   9.900   1.1333   0.02845   0.02207  -0.0397  0.0208  1.0000  -4.9608   0.0000   0.0000   0.0000   0.2735
  10.000   1.1408   0.02890   0.02256  -0.0394  0.0206  1.0000  -5.0441   0.0000   0.0000   0.0000   0.2728
  10.100   1.1480   0.02935   0.02309  -0.0390  0.0204  1.0000  -5.1220   0.0000   0.0000   0.0000   0.2722
  10.200   1.1552   0.02980   0.02357  -0.0387  0.0202  1.0000  -5.2058   0.0000   0.0000   0.0000   0.2715
  10.300   1.1619   0.03024   0.02403  -0.0383  0.0200  1.0000  -5.2910   0.0000   0.0000   0.0000   0.2709
  10.400   1.1683   0.03067   0.02449  -0.0379  0.0197  1.0000  -5.3775   0.0000   0.0000   0.0000   0.2702
  10.500   1.1743   0.03110   0.02493  -0.0375  0.0194  1.0000  -5.4652   0.0000   0.0000   0.0000   0.2696
  10.600   1.1800   0.03153   0.02538  -0.0371  0.0191  1.0000  -5.5539   0.0000   0.0000   0.0000   0.2689
  10.700   1.1857   0.03199   0.02586  -0.0367  0.0187  1.0000  -5.6429   0.0000   0.0000   0.0000   0.2683
  10.800   1.1918   0.03254   0.02642  -0.0364  0.0183  1.0000  -5.7305   0.0000   0.0000   0.0000   0.2677
  10.900   1.1996   0.03337   0.02728  -0.0361  0.0177  1.0000  -5.8115   0.0000   0.0000   0.0000   0.2672
  11.000   1.2161   0.03634   0.03050  -0.0368  0.0164  1.0000  -5.8229   0.0000   0.0000   0.0000   0.2673
  11.100   1.2177   0.03636   0.03054  -0.0359  0.0163  1.0000  -5.9092   0.0000   0.0000   0.0000   0.2663
  11.200   1.2199   0.03646   0.03066  -0.0352  0.0161  1.0000  -5.9956   0.0000   0.0000   0.0000   0.2655
  11.300   1.2227   0.03661   0.03083  -0.0345  0.0160  1.0000  -6.0837   0.0000   0.0000   0.0000   0.2647
  11.400   1.2258   0.03682   0.03106  -0.0339  0.0157  1.0000  -6.1720   0.0000   0.0000   0.0000   0.2640
  11.500   1.2291   0.03708   0.03136  -0.0334  0.0155  1.0000  -6.2584   0.0000   0.0000   0.0000   0.2633
  11.600   1.2327   0.03739   0.03170  -0.0328  0.0152  1.0000  -6.3442   0.0000   0.0000   0.0000   0.2626
  11.700   1.2364   0.03774   0.03208  -0.0323  0.0149  1.0000  -6.4288   0.0000   0.0000   0.0000   0.2620
  11.800   1.2400   0.03814   0.03251  -0.0319  0.0145  1.0000  -6.5101   0.0000   0.0000   0.0000   0.2613
  11.900   1.2434   0.03858   0.03298  -0.0314  0.0141  1.0000  -6.5880   0.0000   0.0000   0.0000   0.2607
  12.000   1.2468   0.03906   0.03350  -0.0309  0.0138  1.0000  -6.6738   0.0000   0.0000   0.0000   0.2601
  12.100   1.2501   0.03956   0.03404  -0.0304  0.0134  1.0000  -6.7684   0.0000   0.0000   0.0000   0.2595
  12.200   1.2535   0.04011   0.03462  -0.0299  0.0130  1.0000  -6.8614   0.0000   0.0000   0.0000   0.2589
  12.300   1.2563   0.04070   0.03526  -0.0295  0.0127  1.0000  -6.9498   0.0000   0.0000   0.0000   0.2582
  12.400   1.2590   0.04132   0.03591  -0.0290  0.0123  1.0000  -7.0377   0.0000   0.0000   0.0000   0.2577
  12.500   1.2616   0.04195   0.03658  -0.0286  0.0121  1.0000  -7.1265   0.0000   0.0000   0.0000   0.2571
  12.600   1.2642   0.04259   0.03725  -0.0281  0.0118  1.0000  -7.2163   0.0000   0.0000   0.0000   0.2565
  12.700   1.2667   0.04324   0.03794  -0.0277  0.0116  1.0000  -7.3063   0.0000   0.0000   0.0000   0.2560
  12.900   1.2708   0.04459   0.03939  -0.0270  0.0112  1.0000  -7.4803   0.0000   0.0000   0.0000   0.2549
  13.000   1.2728   0.04531   0.04014  -0.0266  0.0110  1.0000  -7.5675   0.0000   0.0000   0.0000   0.2544
  13.100   1.2747   0.04607   0.04093  -0.0262  0.0108  1.0000  -7.6536   0.0000   0.0000   0.0000   0.2539
  13.200   1.2762   0.04688   0.04178  -0.0259  0.0107  1.0000  -7.7351   0.0000   0.0000   0.0000   0.2534
  13.300   1.2770   0.04777   0.04272  -0.0255  0.0105  1.0000  -7.8094   0.0000   0.0000   0.0000   0.2529
  13.400   1.2774   0.04874   0.04374  -0.0251  0.0104  1.0000  -7.8772   0.0000   0.0000   0.0000   0.2524
  13.500   1.2773   0.04983   0.04489  -0.0247  0.0102  1.0000  -7.9360   0.0000   0.0000   0.0000   0.2520
  13.600   1.2764   0.05109   0.04622  -0.0243  0.0100  1.0000  -7.9812   0.0000   0.0000   0.0000   0.2515
  13.700   1.2740   0.05257   0.04778  -0.0238  0.0099  1.0000  -8.0066   0.0000   0.0000   0.0000   0.2510
  13.800   1.2700   0.05430   0.04961  -0.0234  0.0097  1.0000  -8.0106   0.0000   0.0000   0.0000   0.2505
  13.900   1.2645   0.05626   0.05169  -0.0229  0.0096  1.0000  -7.9948   0.0000   0.0000   0.0000   0.2500
  14.000   1.2578   0.05842   0.05398  -0.0225  0.0095  1.0000  -7.9625   0.0000   0.0000   0.0000   0.2496
  14.100   1.2498   0.06071   0.05639  -0.0222  0.0094  1.0000  -7.9205   0.0000   0.0000   0.0000   0.2493
  14.200   1.2413   0.06308   0.05889  -0.0220  0.0093  1.0000  -7.8733   0.0000   0.0000   0.0000   0.2491
  14.300   1.2325   0.06551   0.06145  -0.0219  0.0093  1.0000  -7.8229   0.0000   0.0000   0.0000   0.2490
  14.400   1.2234   0.06793   0.06398  -0.0219  0.0092  1.0000  -7.7750   0.0000   0.0000   0.0000   0.2489
  14.500   1.2143   0.07040   0.06656  -0.0220  0.0092  1.0000  -7.7262   0.0000   0.0000   0.0000   0.2490
  14.600   1.2052   0.07291   0.06918  -0.0223  0.0092  1.0000  -7.6789   0.0000   0.0000   0.0000   0.2491
  14.700   1.1962   0.07547   0.07184  -0.0227  0.0092  1.0000  -7.6328   0.0000   0.0000   0.0000   0.2494
  14.800   1.1874   0.07809   0.07456  -0.0232  0.0092  1.0000  -7.5864   0.0000   0.0000   0.0000   0.2498
  14.900   1.1786   0.08073   0.07729  -0.0239  0.0091  1.0000  -7.5431   0.0000   0.0000   0.0000   0.2503
  15.000   1.1701   0.08344   0.08008  -0.0247  0.0091  1.0000  -7.4984   0.0000   0.0000   0.0000   0.2509
  15.100   1.1617   0.08617   0.08290  -0.0256  0.0091  1.0000  -7.4566   0.0000   0.0000   0.0000   0.2516
  15.200   1.1534   0.08895   0.08576  -0.0266  0.0091  1.0000  -7.4138   0.0000   0.0000   0.0000   0.2525
  15.300   1.1454   0.09178   0.08867  -0.0277  0.0091  1.0000  -7.3725   0.0000   0.0000   0.0000   0.2534
  15.400   1.1375   0.09465   0.09161  -0.0289  0.0091  1.0000  -7.3310   0.0000   0.0000   0.0000   0.2545
  15.500   1.1298   0.09757   0.09460  -0.0303  0.0091  1.0000  -7.2896   0.0000   0.0000   0.0000   0.2556
  15.600   1.1223   0.10054   0.09765  -0.0318  0.0091  1.0000  -7.2483   0.0000   0.0000   0.0000   0.2569
  15.700   1.1150   0.10357   0.10075  -0.0333  0.0091  1.0000  -7.2064   0.0000   0.0000   0.0000   0.2583
  15.800   1.1078   0.10665   0.10389  -0.0350  0.0092  1.0000  -7.1641   0.0000   0.0000   0.0000   0.2598
  15.900   1.1009   0.10977   0.10707  -0.0368  0.0092  1.0000  -7.1213   0.0000   0.0000   0.0000   0.2614
  16.000   1.0941   0.11294   0.11030  -0.0386  0.0092  1.0000  -7.0768   0.0000   0.0000   0.0000   0.2631
  16.100   1.0875   0.11620   0.11362  -0.0406  0.0092  1.0000  -7.0314   0.0000   0.0000   0.0000   0.2650
  16.200   1.0810   0.11952   0.11700  -0.0426  0.0092  1.0000  -6.9828   0.0000   0.0000   0.0000   0.2669
  16.300   1.0747   0.12296   0.12049  -0.0448  0.0092  1.0000  -6.9316   0.0000   0.0000   0.0000   0.2690
  16.400   1.0685   0.12649   0.12408  -0.0470  0.0093  1.0000  -6.8765   0.0000   0.0000   0.0000   0.2712
  16.500   1.0623   0.13014   0.12778  -0.0494  0.0093  1.0000  -6.8157   0.0000   0.0000   0.0000   0.2735
  16.600   1.0562   0.13392   0.13161  -0.0518  0.0093  1.0000  -6.7477   0.0000   0.0000   0.0000   0.2759
  16.700   1.0498   0.13791   0.13565  -0.0544  0.0094  1.0000  -6.6687   0.0000   0.0000   0.0000   0.2785
  16.800   1.0431   0.14220   0.14000  -0.0571  0.0095  1.0000  -6.5714   0.0000   0.0000   0.0000   0.2814
  16.900   1.0350   0.14712   0.14497  -0.0602  0.0095  1.0000  -6.4356   0.0000   0.0000   0.0000   0.2847
  17.400   0.9083   0.21142   0.20927  -0.0883  0.0164  1.0000  -2.7217   0.0000   0.0000   0.0000   0.3261
  17.500   0.9101   0.21353   0.21138  -0.0894  0.0163  1.0000  -2.6919   0.0000   0.0000   0.0000   0.3270
  17.600   0.9119   0.21561   0.21346  -0.0905  0.0163  1.0000  -2.6584   0.0000   0.0000   0.0000   0.3279
  17.700   0.9138   0.21768   0.21553  -0.0917  0.0163  1.0000  -2.6206   0.0000   0.0000   0.0000   0.3288
  17.800   0.9157   0.21974   0.21759  -0.0928  0.0162  1.0000  -2.5788   0.0000   0.0000   0.0000   0.3296
  17.900   0.9178   0.22177   0.21962  -0.0939  0.0162  1.0000  -2.5355   0.0000   0.0000   0.0000   0.3305
  18.000   0.9202   0.22373   0.22158  -0.0950  0.0161  1.0000  -2.4955   0.0000   0.0000   0.0000   0.3313
  18.100   0.9263   0.22445   0.22230  -0.0969  0.0119  1.0000  -2.5661   0.0000   0.0000   0.0000   0.3325
  18.200   0.9296   0.22536   0.22320  -0.0976  0.0114  1.0000  -2.6222   0.0000   0.0000   0.0000   0.3327
  18.300   0.9336   0.22578   0.22363  -0.0981  0.0109  1.0000  -2.7189   0.0000   0.0000   0.0000   0.3325
  18.400   0.9389   0.22535   0.22321  -0.0982  0.0104  1.0000  -2.8898   0.0000   0.0000   0.0000   0.3317
  18.500   0.9442   0.22474   0.22261  -0.0983  0.0100  1.0000  -3.0791   0.0000   0.0000   0.0000   0.3309
  18.600   0.9475   0.22516   0.22303  -0.0989  0.0097  1.0000  -3.1838   0.0000   0.0000   0.0000   0.3309
  18.700   0.9490   0.22645   0.22432  -0.0998  0.0094  1.0000  -3.2148   0.0000   0.0000   0.0000   0.3315
  18.800   0.9450   0.23086   0.22871  -0.1017  0.0091  1.0000  -2.9743   0.0000   0.0000   0.0000   0.3339
  18.900   0.9457   0.23421   0.23204  -0.1036  0.0086  1.0000  -2.8462   0.0000   0.0000   0.0000   0.3358
  19.000   0.9478   0.23630   0.23413  -0.1047  0.0085  1.0000  -2.7974   0.0000   0.0000   0.0000   0.3366
  19.100   0.9459   0.23995   0.23777  -0.1056  0.0089  1.0000  -2.6176   0.0000   0.0000   0.0000   0.3376
  19.200   0.9481   0.24200   0.23982  -0.1066  0.0089  1.0000  -2.5809   0.0000   0.0000   0.0000   0.3382
  19.300   0.9503   0.24403   0.24185  -0.1076  0.0089  1.0000  -2.5476   0.0000   0.0000   0.0000   0.3389
  19.400   0.9525   0.24603   0.24385  -0.1085  0.0089  1.0000  -2.5171   0.0000   0.0000   0.0000   0.3395
  19.500   0.9548   0.24802   0.24583  -0.1095  0.0089  1.0000  -2.4891   0.0000   0.0000   0.0000   0.3400
  19.600   0.9572   0.24999   0.24780  -0.1105  0.0089  1.0000  -2.4633   0.0000   0.0000   0.0000   0.3406
  19.700   0.9595   0.25194   0.24975  -0.1114  0.0089  1.0000  -2.4392   0.0000   0.0000   0.0000   0.3412
  19.800   0.9619   0.25388   0.25169  -0.1124  0.0089  1.0000  -2.4168   0.0000   0.0000   0.0000   0.3417
  19.900   0.9644   0.25581   0.25362  -0.1133  0.0089  1.0000  -2.3957   0.0000   0.0000   0.0000   0.3422
  20.000   0.9668   0.25773   0.25554  -0.1143  0.0089  1.0000  -2.3759   0.0000   0.0000   0.0000   0.3427
  20.100   0.9693   0.25964   0.25745  -0.1152  0.0089  1.0000  -2.3572   0.0000   0.0000   0.0000   0.3432
  20.200   0.9718   0.26155   0.25936  -0.1162  0.0089  1.0000  -2.3396   0.0000   0.0000   0.0000   0.3437
  20.300   0.9743   0.26345   0.26126  -0.1171  0.0089  1.0000  -2.3228   0.0000   0.0000   0.0000   0.3442
  20.400   0.9768   0.26534   0.26315  -0.1181  0.0089  1.0000  -2.3068   0.0000   0.0000   0.0000   0.3447
  20.500   0.9793   0.26723   0.26504  -0.1190  0.0089  1.0000  -2.2916   0.0000   0.0000   0.0000   0.3452
  20.600   0.9819   0.26911   0.26692  -0.1199  0.0089  1.0000  -2.2771   0.0000   0.0000   0.0000   0.3456
  20.700   0.9844   0.27099   0.26880  -0.1209  0.0089  1.0000  -2.2633   0.0000   0.0000   0.0000   0.3461
  20.800   0.9870   0.27286   0.27067  -0.1218  0.0089  1.0000  -2.2500   0.0000   0.0000   0.0000   0.3465
  20.900   0.9895   0.27473   0.27254  -0.1227  0.0089  1.0000  -2.2373   0.0000   0.0000   0.0000   0.3470
  21.000   0.9921   0.27660   0.27440  -0.1237  0.0089  1.0000  -2.2251   0.0000   0.0000   0.0000   0.3474
  21.100   0.9947   0.27846   0.27627  -0.1246  0.0089  1.0000  -2.2134   0.0000   0.0000   0.0000   0.3478
  21.200   0.9973   0.28032   0.27813  -0.1255  0.0089  1.0000  -2.2021   0.0000   0.0000   0.0000   0.3482
  21.300   0.9999   0.28218   0.27999  -0.1265  0.0089  1.0000  -2.1912   0.0000   0.0000   0.0000   0.3486
  21.400   1.0025   0.28403   0.28184  -0.1274  0.0089  1.0000  -2.1808   0.0000   0.0000   0.0000   0.3491
  21.500   1.0051   0.28589   0.28370  -0.1283  0.0089  1.0000  -2.1707   0.0000   0.0000   0.0000   0.3495
  21.600   1.0076   0.28774   0.28555  -0.1292  0.0089  1.0000  -2.1609   0.0000   0.0000   0.0000   0.3499
  21.700   1.0102   0.28959   0.28740  -0.1302  0.0089  1.0000  -2.1515   0.0000   0.0000   0.0000   0.3502
  21.800   1.0128   0.29143   0.28925  -0.1311  0.0089  1.0000  -2.1423   0.0000   0.0000   0.0000   0.3506
  21.900   1.0154   0.29328   0.29109  -0.1320  0.0089  1.0000  -2.1335   0.0000   0.0000   0.0000   0.3510
  22.000   1.0180   0.29513   0.29294  -0.1329  0.0089  1.0000  -2.1250   0.0000   0.0000   0.0000   0.3514
  22.100   1.0206   0.29697   0.29479  -0.1339  0.0089  1.0000  -2.1168   0.0000   0.0000   0.0000   0.3518
  22.200   1.0232   0.29881   0.29663  -0.1348  0.0089  1.0000  -2.1087   0.0000   0.0000   0.0000   0.3521
  22.300   1.0258   0.30065   0.29847  -0.1357  0.0089  1.0000  -2.1009   0.0000   0.0000   0.0000   0.3525
  22.400   1.0284   0.30249   0.30031  -0.1366  0.0088  1.0000  -2.0933   0.0000   0.0000   0.0000   0.3529
  22.500   1.0310   0.30433   0.30215  -0.1376  0.0088  1.0000  -2.0859   0.0000   0.0000   0.0000   0.3532
  22.600   1.0335   0.30617   0.30399  -0.1385  0.0088  1.0000  -2.0787   0.0000   0.0000   0.0000   0.3536
  22.700   1.0361   0.30800   0.30584  -0.1394  0.0088  1.0000  -2.0705   0.0000   0.0000   0.0000   0.3539
  22.800   1.0387   0.30983   0.30768  -0.1403  0.0088  1.0000  -2.0636   0.0000   0.0000   0.0000   0.3543
  22.900   1.0413   0.31167   0.30951  -0.1413  0.0088  1.0000  -2.0570   0.0000   0.0000   0.0000   0.3546
  23.000   1.0438   0.31350   0.31135  -0.1422  0.0088  1.0000  -2.0504   0.0000   0.0000   0.0000   0.3550
  23.100   1.0464   0.31534   0.31319  -0.1431  0.0088  1.0000  -2.0441   0.0000   0.0000   0.0000   0.3553
  23.200   1.0489   0.31717   0.31502  -0.1440  0.0088  1.0000  -2.0379   0.0000   0.0000   0.0000   0.3557
  23.300   1.0515   0.31900   0.31685  -0.1450  0.0088  1.0000  -2.0320   0.0000   0.0000   0.0000   0.3560
  23.400   1.0540   0.32083   0.31868  -0.1459  0.0088  1.0000  -2.0262   0.0000   0.0000   0.0000   0.3563
  23.500   1.0565   0.32266   0.32052  -0.1468  0.0088  1.0000  -2.0205   0.0000   0.0000   0.0000   0.3567
  23.600   1.0591   0.32449   0.32235  -0.1478  0.0088  1.0000  -2.0151   0.0000   0.0000   0.0000   0.3570
  23.700   1.0616   0.32632   0.32418  -0.1487  0.0088  1.0000  -2.0097   0.0000   0.0000   0.0000   0.3573
  23.800   1.0641   0.32815   0.32601  -0.1496  0.0088  1.0000  -2.0043   0.0000   0.0000   0.0000   0.3576
  23.900   1.0666   0.32998   0.32784  -0.1505  0.0088  1.0000  -1.9990   0.0000   0.0000   0.0000   0.3579
  24.000   1.0691   0.33181   0.32967  -0.1515  0.0088  1.0000  -1.9938   0.0000   0.0000   0.0000   0.3583
  24.100   1.0716   0.33364   0.33150  -0.1524  0.0088  1.0000  -1.9888   0.0000   0.0000   0.0000   0.3586
  24.200   1.0741   0.33547   0.33333  -0.1533  0.0088  1.0000  -1.9839   0.0000   0.0000   0.0000   0.3589
  24.300   1.0766   0.33729   0.33516  -0.1543  0.0088  1.0000  -1.9791   0.0000   0.0000   0.0000   0.3592
  24.400   1.0790   0.33912   0.33699  -0.1552  0.0087  1.0000  -1.9745   0.0000   0.0000   0.0000   0.3595
  24.500   1.0815   0.34095   0.33882  -0.1561  0.0087  1.0000  -1.9695   0.0000   0.0000   0.0000   0.3598
  24.600   1.0839   0.34278   0.34065  -0.1571  0.0087  1.0000  -1.9653   0.0000   0.0000   0.0000   0.3601
  24.700   1.0864   0.34460   0.34248  -0.1580  0.0087  1.0000  -1.9615   0.0000   0.0000   0.0000   0.3604
  24.800   1.0888   0.34643   0.34431  -0.1590  0.0087  1.0000  -1.9578   0.0000   0.0000   0.0000   0.3607
  24.900   1.0912   0.34825   0.34613  -0.1599  0.0087  1.0000  -1.9541   0.0000   0.0000   0.0000   0.3610
  25.000   1.0936   0.35009   0.34797  -0.1609  0.0087  1.0000  -1.9493   0.0000   0.0000   0.0000   0.3614
  25.100   1.0960   0.35191   0.34980  -0.1618  0.0087  1.0000  -1.9441   0.0000   0.0000   0.0000   0.3617
  25.200   1.0983   0.35374   0.35163  -0.1628  0.0087  1.0000  -1.9391   0.0000   0.0000   0.0000   0.3620
  25.300   1.1007   0.35557   0.35346  -0.1637  0.0087  1.0000  -1.9341   0.0000   0.0000   0.0000   0.3623
  25.400   1.1031   0.35740   0.35529  -0.1647  0.0087  1.0000  -1.9292   0.0000   0.0000   0.0000   0.3626
  25.500   1.1054   0.35923   0.35712  -0.1657  0.0087  1.0000  -1.9244   0.0000   0.0000   0.0000   0.3629
  25.600   1.1078   0.36105   0.35895  -0.1666  0.0086  1.0000  -1.9196   0.0000   0.0000   0.0000   0.3632
  25.700   1.1101   0.36288   0.36078  -0.1676  0.0086  1.0000  -1.9150   0.0000   0.0000   0.0000   0.3635
  25.800   1.1125   0.36471   0.36261  -0.1686  0.0086  1.0000  -1.9104   0.0000   0.0000   0.0000   0.3638
  25.900   1.1148   0.36654   0.36444  -0.1695  0.0086  1.0000  -1.9059   0.0000   0.0000   0.0000   0.3641
  26.000   1.1171   0.36836   0.36627  -0.1705  0.0086  1.0000  -1.9014   0.0000   0.0000   0.0000   0.3644
  26.100   1.1195   0.37019   0.36810  -0.1714  0.0086  1.0000  -1.8969   0.0000   0.0000   0.0000   0.3647
  26.200   1.1218   0.37202   0.36993  -0.1724  0.0086  1.0000  -1.8925   0.0000   0.0000   0.0000   0.3650
  26.300   1.1241   0.37384   0.37176  -0.1734  0.0085  1.0000  -1.8881   0.0000   0.0000   0.0000   0.3653
  26.400   1.1264   0.37567   0.37358  -0.1743  0.0085  1.0000  -1.8837   0.0000   0.0000   0.0000   0.3656
  26.500   1.1287   0.37749   0.37541  -0.1753  0.0085  1.0000  -1.8793   0.0000   0.0000   0.0000   0.3658
  26.600   1.1311   0.37932   0.37724  -0.1763  0.0085  1.0000  -1.8749   0.0000   0.0000   0.0000   0.3661
  26.700   1.1334   0.38115   0.37907  -0.1772  0.0084  1.0000  -1.8704   0.0000   0.0000   0.0000   0.3664
  26.800   1.1357   0.38294   0.38089  -0.1782  0.0084  1.0000  -1.8658   0.0000   0.0000   0.0000   0.3667
  26.900   1.1380   0.38481   0.38276  -0.1792  0.0084  1.0000  -1.8612   0.0000   0.0000   0.0000   0.3669
  27.000   1.1404   0.38664   0.38459  -0.1801  0.0083  1.0000  -1.8565   0.0000   0.0000   0.0000   0.3672
  27.100   1.1427   0.38848   0.38643  -0.1811  0.0083  1.0000  -1.8517   0.0000   0.0000   0.0000   0.3675
  27.200   1.1450   0.39031   0.38827  -0.1820  0.0083  1.0000  -1.8468   0.0000   0.0000   0.0000   0.3677
  27.300   1.1474   0.39215   0.39011  -0.1830  0.0082  1.0000  -1.8418   0.0000   0.0000   0.0000   0.3680
  27.400   1.1497   0.39400   0.39196  -0.1839  0.0081  1.0000  -1.8367   0.0000   0.0000   0.0000   0.3682
  27.500   1.1521   0.39585   0.39382  -0.1849  0.0081  1.0000  -1.8316   0.0000   0.0000   0.0000   0.3684
  27.600   1.1544   0.39772   0.39569  -0.1858  0.0080  1.0000  -1.8268   0.0000   0.0000   0.0000   0.3687
  27.700   1.1567   0.39959   0.39756  -0.1868  0.0079  1.0000  -1.8223   0.0000   0.0000   0.0000   0.3689
  27.800   1.1590   0.40147   0.39945  -0.1877  0.0078  1.0000  -1.8183   0.0000   0.0000   0.0000   0.3691
  27.900   1.1612   0.40337   0.40135  -0.1886  0.0077  1.0000  -1.8149   0.0000   0.0000   0.0000   0.3693
  28.000   1.1634   0.40526   0.40325  -0.1895  0.0076  1.0000  -1.8121   0.0000   0.0000   0.0000   0.3695
  28.100   1.1656   0.40717   0.40516  -0.1905  0.0075  1.0000  -1.8098   0.0000   0.0000   0.0000   0.3697
  28.200   1.1678   0.40907   0.40707  -0.1914  0.0074  1.0000  -1.8081   0.0000   0.0000   0.0000   0.3699
  28.300   1.1699   0.41098   0.40898  -0.1923  0.0073  1.0000  -1.8067   0.0000   0.0000   0.0000   0.3701
  28.400   1.1719   0.41289   0.41089  -0.1932  0.0072  1.0000  -1.8058   0.0000   0.0000   0.0000   0.3703
  28.500   1.1740   0.41480   0.41281  -0.1941  0.0071  1.0000  -1.8052   0.0000   0.0000   0.0000   0.3705
  28.600   1.1760   0.41672   0.41472  -0.1950  0.0070  1.0000  -1.8048   0.0000   0.0000   0.0000   0.3707
  28.700   1.1780   0.41863   0.41664  -0.1959  0.0070  1.0000  -1.8047   0.0000   0.0000   0.0000   0.3709
  28.800   1.1800   0.42055   0.41856  -0.1968  0.0069  1.0000  -1.8047   0.0000   0.0000   0.0000   0.3711
  28.900   1.1820   0.42246   0.42048  -0.1977  0.0068  1.0000  -1.8050   0.0000   0.0000   0.0000   0.3713
  29.000   1.1839   0.42438   0.42241  -0.1986  0.0067  1.0000  -1.8054   0.0000   0.0000   0.0000   0.3715
  29.100   1.1859   0.42630   0.42433  -0.1996  0.0066  1.0000  -1.8137   0.0000   0.0000   0.0000   0.3717
  29.200   1.1878   0.42823   0.42626  -0.2005  0.0066  1.0000  -1.8253   0.0000   0.0000   0.0000   0.3719
  29.300   1.1897   0.43015   0.42819  -0.2014  0.0065  1.0000  -1.8370   0.0000   0.0000   0.0000   0.3721
  29.400   1.1915   0.43208   0.43012  -0.2023  0.0064  1.0000  -1.8487   0.0000   0.0000   0.0000   0.3723
  29.500   1.1934   0.43401   0.43205  -0.2032  0.0064  1.0000  -1.8603   0.0000   0.0000   0.0000   0.3725
  29.600   1.1952   0.43594   0.43399  -0.2041  0.0063  1.0000  -1.8720   0.0000   0.0000   0.0000   0.3727
  29.700   1.1971   0.43787   0.43593  -0.2050  0.0062  1.0000  -1.8837   0.0000   0.0000   0.0000   0.3729
  29.800   1.1989   0.43981   0.43786  -0.2059  0.0062  1.0000  -1.8954   0.0000   0.0000   0.0000   0.3731
  29.900   1.2006   0.44174   0.43980  -0.2068  0.0061  1.0000  -1.9071   0.0000   0.0000   0.0000   0.3732
  30.000   1.2024   0.44367   0.44174  -0.2077  0.0060  1.0000  -1.9192   0.0000   0.0000   0.0000   0.3734


