xflr5 v6.61

 Calculated polar for: NACA 0015

 1 1 Reynolds number fixed          Mach number fixed         

 xtrf =   1.000 (top)        1.000 (bottom)
 Mach =   0.000     Re =     0.200 e 6     Ncrit =   9.000

  alpha     CL        CD       CDp       Cm    Top Xtr Bot Xtr   Cpmin    Chinge    XCp    
 ------- -------- --------- --------- -------- ------- ------- -------- --------- ---------
 -10.000  -0.9534   0.02686   0.01904  -0.0202  1.0000  0.0468  -3.8132   0.0000   0.0000   0.0000   0.2156
  -9.900  -0.9489   0.02651   0.01866  -0.0193  1.0000  0.0471  -3.7820   0.0000   0.0000   0.0000   0.2166
  -9.800  -0.9441   0.02620   0.01833  -0.0184  1.0000  0.0474  -3.7474   0.0000   0.0000   0.0000   0.2175
  -9.700  -0.9387   0.02594   0.01804  -0.0176  1.0000  0.0478  -3.7091   0.0000   0.0000   0.0000   0.2184
  -9.600  -0.9329   0.02573   0.01781  -0.0169  1.0000  0.0482  -3.6674   0.0000   0.0000   0.0000   0.2192
  -9.500  -0.9269   0.02556   0.01764  -0.0162  1.0000  0.0487  -3.6225   0.0000   0.0000   0.0000   0.2199
  -9.400  -0.9206   0.02546   0.01753  -0.0156  1.0000  0.0491  -3.5743   0.0000   0.0000   0.0000   0.2207
  -9.300  -0.9140   0.02541   0.01749  -0.0149  1.0000  0.0495  -3.5230   0.0000   0.0000   0.0000   0.2213
  -9.200  -0.9073   0.02544   0.01753  -0.0143  1.0000  0.0498  -3.4685   0.0000   0.0000   0.0000   0.2220
  -9.100  -0.9030   0.02495   0.01703  -0.0134  1.0000  0.0507  -3.4407   0.0000   0.0000   0.0000   0.2231
  -9.000  -0.9012   0.02413   0.01613  -0.0120  1.0000  0.0522  -3.4345   0.0000   0.0000   0.0000   0.2248
  -8.900  -0.8991   0.02349   0.01546  -0.0106  1.0000  0.0538  -3.4220   0.0000   0.0000   0.0000   0.2264
  -8.800  -0.8968   0.02298   0.01493  -0.0093  1.0000  0.0554  -3.4044   0.0000   0.0000   0.0000   0.2280
  -8.700  -0.8940   0.02255   0.01450  -0.0080  1.0000  0.0570  -3.3825   0.0000   0.0000   0.0000   0.2296
  -8.600  -0.8907   0.02217   0.01413  -0.0067  1.0000  0.0585  -3.3570   0.0000   0.0000   0.0000   0.2311
  -8.500  -0.8872   0.02182   0.01378  -0.0055  1.0000  0.0598  -3.3314   0.0000   0.0000   0.0000   0.2325
  -8.400  -0.8838   0.02146   0.01340  -0.0042  1.0000  0.0608  -3.3089   0.0000   0.0000   0.0000   0.2341
  -8.300  -0.8804   0.02110   0.01302  -0.0029  1.0000  0.0618  -3.2864   0.0000   0.0000   0.0000   0.2357
  -8.200  -0.8773   0.02071   0.01257  -0.0015  1.0000  0.0629  -3.2607   0.0000   0.0000   0.0000   0.2374
  -8.100  -0.8747   0.02027   0.01169   0.0000  1.0000  0.0643  -3.2284   0.0000   0.0000   0.0000   0.2393
  -8.000  -0.8708   0.01995   0.01138   0.0012  1.0000  0.0666  -3.2087   0.0000   0.0000   0.0000   0.2408
  -7.900  -0.8669   0.01963   0.01106   0.0025  1.0000  0.0697  -3.1909   0.0000   0.0000   0.0000   0.2424
  -7.800  -0.8626   0.01933   0.01074   0.0036  1.0000  0.0736  -3.1746   0.0000   0.0000   0.0000   0.2439
  -7.700  -0.8658   0.01852   0.01016   0.0059  1.0000  0.0876  -3.1897   0.0000   0.0000   0.0000   0.2466
  -7.600  -0.8618   0.01819   0.00992   0.0070  1.0000  0.0991  -3.1702   0.0000   0.0000   0.0000   0.2481
  -7.500  -0.8604   0.01770   0.00955   0.0086  1.0000  0.1192  -3.1595   0.0000   0.0000   0.0000   0.2500
  -7.400  -0.8565   0.01740   0.00937   0.0097  1.0000  0.1302  -3.1313   0.0000   0.0000   0.0000   0.2515
  -7.300  -0.8509   0.01721   0.00923   0.0106  1.0000  0.1384  -3.0977   0.0000   0.0000   0.0000   0.2527
  -7.200  -0.8444   0.01708   0.00910   0.0113  1.0000  0.1443  -3.0610   0.0000   0.0000   0.0000   0.2538
  -7.100  -0.8372   0.01700   0.00899   0.0120  1.0000  0.1480  -3.0221   0.0000   0.0000   0.0000   0.2548
  -7.000  -0.8301   0.01690   0.00888   0.0126  1.0000  0.1514  -2.9832   0.0000   0.0000   0.0000   0.2558
  -6.900  -0.8249   0.01667   0.00868   0.0136  1.0000  0.1605  -2.9501   0.0000   0.0000   0.0000   0.2572
  -6.800  -0.8194   0.01647   0.00854   0.0144  1.0000  0.1687  -2.9150   0.0000   0.0000   0.0000   0.2584
  -6.700  -0.8135   0.01629   0.00842   0.0152  1.0000  0.1757  -2.8786   0.0000   0.0000   0.0000   0.2597
  -6.600  -0.8071   0.01613   0.00831   0.0159  1.0000  0.1822  -2.8409   0.0000   0.0000   0.0000   0.2608
  -6.500  -0.8001   0.01601   0.00820   0.0166  1.0000  0.1882  -2.8020   0.0000   0.0000   0.0000   0.2619
  -6.400  -0.7927   0.01590   0.00810   0.0171  1.0000  0.1933  -2.7622   0.0000   0.0000   0.0000   0.2629
  -6.300  -0.7849   0.01582   0.00801   0.0177  1.0000  0.1974  -2.7216   0.0000   0.0000   0.0000   0.2639
  -6.200  -0.7770   0.01575   0.00792   0.0181  1.0000  0.2009  -2.6807   0.0000   0.0000   0.0000   0.2648
  -6.100  -0.7706   0.01555   0.00777   0.0188  1.0000  0.2100  -2.6442   0.0000   0.0000   0.0000   0.2660
  -6.000  -0.7641   0.01537   0.00767   0.0195  1.0000  0.2183  -2.6068   0.0000   0.0000   0.0000   0.2672
  -5.900  -0.7572   0.01521   0.00759   0.0201  1.0000  0.2263  -2.5685   0.0000   0.0000   0.0000   0.2683
  -5.800  -0.7499   0.01508   0.00752   0.0206  1.0000  0.2340  -2.5293   0.0000   0.0000   0.0000   0.2694
  -5.700  -0.7421   0.01498   0.00745   0.0211  1.0000  0.2408  -2.4894   0.0000   0.0000   0.0000   0.2704
  -5.600  -0.7340   0.01491   0.00739   0.0215  1.0000  0.2461  -2.4490   0.0000   0.0000   0.0000   0.2713
  -5.500  -0.7257   0.01487   0.00733   0.0218  1.0000  0.2500  -2.4083   0.0000   0.0000   0.0000   0.2723
  -5.400  -0.7187   0.01469   0.00725   0.0224  1.0000  0.2593  -2.3712   0.0000   0.0000   0.0000   0.2734
  -5.300  -0.7120   0.01452   0.00719   0.0230  1.0000  0.2676  -2.3340   0.0000   0.0000   0.0000   0.2747
  -5.200  -0.7048   0.01439   0.00715   0.0235  1.0000  0.2752  -2.2961   0.0000   0.0000   0.0000   0.2758
  -5.100  -0.6972   0.01429   0.00711   0.0239  1.0000  0.2824  -2.2574   0.0000   0.0000   0.0000   0.2769
  -5.000  -0.6834   0.01420   0.00706   0.0232  0.9987  0.2903  -2.2060   0.0000   0.0000   0.0000   0.2766
  -4.900  -0.6689   0.01415   0.00700   0.0223  0.9971  0.2964  -2.1534   0.0000   0.0000   0.0000   0.2762
  -4.800  -0.6542   0.01411   0.00695   0.0215  0.9952  0.3014  -2.1008   0.0000   0.0000   0.0000   0.2757
  -4.700  -0.6401   0.01397   0.00685   0.0207  0.9931  0.3171  -2.0508   0.0000   0.0000   0.0000   0.2753
  -4.600  -0.6263   0.01383   0.00680   0.0199  0.9907  0.3329  -2.0013   0.0000   0.0000   0.0000   0.2749
  -4.500  -0.6125   0.01370   0.00677   0.0192  0.9881  0.3465  -1.9518   0.0000   0.0000   0.0000   0.2744
  -4.400  -0.5984   0.01359   0.00676   0.0184  0.9853  0.3585  -1.9019   0.0000   0.0000   0.0000   0.2739
  -4.300  -0.5839   0.01350   0.00674   0.0176  0.9824  0.3693  -1.8517   0.0000   0.0000   0.0000   0.2733
  -4.200  -0.5691   0.01344   0.00671   0.0166  0.9794  0.3788  -1.8011   0.0000   0.0000   0.0000   0.2725
  -4.100  -0.5538   0.01340   0.00669   0.0157  0.9763  0.3872  -1.7501   0.0000   0.0000   0.0000   0.2716
  -4.000  -0.5382   0.01338   0.00668   0.0146  0.9733  0.3941  -1.6987   0.0000   0.0000   0.0000   0.2705
  -3.900  -0.5219   0.01339   0.00666   0.0134  0.9702  0.3989  -1.6462   0.0000   0.0000   0.0000   0.2691
  -3.800  -0.5052   0.01329   0.00662   0.0121  0.9672  0.4146  -1.5942   0.0000   0.0000   0.0000   0.2675
  -3.700  -0.4887   0.01314   0.00662   0.0109  0.9641  0.4372  -1.5427   0.0000   0.0000   0.0000   0.2658
  -3.600  -0.4715   0.01301   0.00666   0.0096  0.9612  0.4558  -1.4899   0.0000   0.0000   0.0000   0.2638
  -3.500  -0.4531   0.01294   0.00670   0.0080  0.9584  0.4717  -1.4354   0.0000   0.0000   0.0000   0.2613
  -3.400  -0.4339   0.01292   0.00673   0.0063  0.9558  0.4842  -1.3800   0.0000   0.0000   0.0000   0.2582
  -3.300  -0.4144   0.01295   0.00677   0.0046  0.9533  0.4930  -1.3247   0.0000   0.0000   0.0000   0.2547
  -3.200  -0.3951   0.01304   0.00684   0.0029  0.9509  0.4985  -1.2703   0.0000   0.0000   0.0000   0.2509
  -3.100  -0.3831   0.01293   0.00676   0.0027  0.9479  0.5099  -1.2298   0.0000   0.0000   0.0000   0.2507
  -3.000  -0.3746   0.01272   0.00665   0.0033  0.9439  0.5279  -1.1958   0.0000   0.0000   0.0000   0.2525
  -2.900  -0.3650   0.01257   0.00663   0.0037  0.9396  0.5431  -1.1595   0.0000   0.0000   0.0000   0.2539
  -2.800  -0.3535   0.01247   0.00663   0.0037  0.9355  0.5558  -1.1203   0.0000   0.0000   0.0000   0.2544
  -2.700  -0.3405   0.01238   0.00663   0.0034  0.9316  0.5670  -1.0790   0.0000   0.0000   0.0000   0.2540
  -2.600  -0.3264   0.01232   0.00660   0.0029  0.9279  0.5765  -1.0364   0.0000   0.0000   0.0000   0.2528
  -2.500  -0.3115   0.01226   0.00656   0.0022  0.9245  0.5843  -0.9929   0.0000   0.0000   0.0000   0.2510
  -2.400  -0.2962   0.01221   0.00651   0.0014  0.9213  0.5904  -0.9493   0.0000   0.0000   0.0000   0.2487
  -2.300  -0.2808   0.01217   0.00645   0.0006  0.9181  0.5951  -0.9096   0.0000   0.0000   0.0000   0.2461
  -2.200  -0.2654   0.01213   0.00640  -0.0002  0.9150  0.5988  -0.8870   0.0000   0.0000   0.0000   0.2433
  -2.100  -0.2493   0.01200   0.00630  -0.0011  0.9123  0.6102  -0.8655   0.0000   0.0000   0.0000   0.2395
  -2.000  -0.2337   0.01184   0.00623  -0.0019  0.9096  0.6273  -0.8444   0.0000   0.0000   0.0000   0.2358
  -1.900  -0.2180   0.01173   0.00622  -0.0026  0.9067  0.6408  -0.8230   0.0000   0.0000   0.0000   0.2320
  -1.800  -0.2018   0.01166   0.00623  -0.0034  0.9034  0.6521  -0.8013   0.0000   0.0000   0.0000   0.2270
  -1.700  -0.1869   0.01163   0.00625  -0.0040  0.8996  0.6617  -0.7807   0.0000   0.0000   0.0000   0.2225
  -1.600  -0.1793   0.01157   0.00623  -0.0031  0.8960  0.6696  -0.7665   0.0000   0.0000   0.0000   0.2268
  -1.500  -0.1716   0.01152   0.00621  -0.0023  0.8914  0.6769  -0.7521   0.0000   0.0000   0.0000   0.2310
  -1.400  -0.1632   0.01147   0.00617  -0.0015  0.8859  0.6834  -0.7372   0.0000   0.0000   0.0000   0.2349
  -1.300  -0.1542   0.01143   0.00614  -0.0009  0.8797  0.6890  -0.7219   0.0000   0.0000   0.0000   0.2383
  -1.200  -0.1444   0.01140   0.00609  -0.0005  0.8732  0.6936  -0.7061   0.0000   0.0000   0.0000   0.2410
  -1.100  -0.1342   0.01136   0.00606  -0.0002  0.8667  0.6973  -0.6899   0.0000   0.0000   0.0000   0.2433
  -1.000  -0.1236   0.01134   0.00602   0.0001  0.8603  0.7001  -0.6735   0.0000   0.0000   0.0000   0.2454
  -0.900  -0.1101   0.01119   0.00592  -0.0003  0.8545  0.7155  -0.6551   0.0000   0.0000   0.0000   0.2420
  -0.800  -0.0964   0.01111   0.00590  -0.0005  0.8485  0.7287  -0.6364   0.0000   0.0000   0.0000   0.2390
  -0.700  -0.0827   0.01106   0.00591  -0.0007  0.8421  0.7397  -0.6176   0.0000   0.0000   0.0000   0.2358
  -0.600  -0.0689   0.01103   0.00592  -0.0009  0.8353  0.7493  -0.6007   0.0000   0.0000   0.0000   0.2314
  -0.500  -0.0552   0.01101   0.00593  -0.0010  0.8275  0.7581  -0.5845   0.0000   0.0000   0.0000   0.2251
  -0.400  -0.0417   0.01102   0.00594  -0.0012  0.8180  0.7662  -0.5684   0.0000   0.0000   0.0000   0.2143
  -0.300  -0.0282   0.01109   0.00600  -0.0015  0.8059  0.7736  -0.5526   0.0000   0.0000   0.0000   0.1889
  -0.200  -0.0176   0.01114   0.00606  -0.0013  0.7984  0.7801  -0.5402   0.0000   0.0000   0.0000   0.1694
  -0.100  -0.0088   0.01112   0.00606  -0.0006  0.7951  0.7859  -0.5305   0.0000   0.0000   0.0000   0.1700
   0.000  -0.0000   0.01111   0.00606   0.0000  0.7909  0.7909  -0.5208   0.0000   0.0000   0.0000   0.4418
   0.100   0.0088   0.01112   0.00606   0.0006  0.7859  0.7951  -0.5305   0.0000   0.0000   0.0000   0.1700
   0.200   0.0176   0.01114   0.00606   0.0013  0.7801  0.7984  -0.5402   0.0000   0.0000   0.0000   0.1694
   0.300   0.0282   0.01109   0.00600   0.0015  0.7736  0.8059  -0.5526   0.0000   0.0000   0.0000   0.1889
   0.400   0.0417   0.01102   0.00594   0.0012  0.7662  0.8180  -0.5684   0.0000   0.0000   0.0000   0.2143
   0.500   0.0552   0.01101   0.00593   0.0010  0.7581  0.8275  -0.5845   0.0000   0.0000   0.0000   0.2251
   0.600   0.0689   0.01103   0.00592   0.0009  0.7493  0.8353  -0.6007   0.0000   0.0000   0.0000   0.2314
   0.700   0.0827   0.01106   0.00591   0.0007  0.7397  0.8421  -0.6176   0.0000   0.0000   0.0000   0.2358
   0.800   0.0964   0.01111   0.00590   0.0005  0.7287  0.8485  -0.6364   0.0000   0.0000   0.0000   0.2389
   0.900   0.1100   0.01119   0.00592   0.0003  0.7155  0.8545  -0.6551   0.0000   0.0000   0.0000   0.2420
   1.000   0.1236   0.01134   0.00602  -0.0001  0.7001  0.8603  -0.6734   0.0000   0.0000   0.0000   0.2454
   1.100   0.1342   0.01136   0.00605   0.0002  0.6973  0.8667  -0.6899   0.0000   0.0000   0.0000   0.2433
   1.200   0.1444   0.01140   0.00609   0.0005  0.6936  0.8732  -0.7061   0.0000   0.0000   0.0000   0.2410
   1.300   0.1542   0.01143   0.00614   0.0009  0.6890  0.8797  -0.7219   0.0000   0.0000   0.0000   0.2383
   1.400   0.1632   0.01147   0.00617   0.0015  0.6834  0.8859  -0.7372   0.0000   0.0000   0.0000   0.2349
   1.500   0.1715   0.01152   0.00621   0.0023  0.6769  0.8914  -0.7520   0.0000   0.0000   0.0000   0.2310
   1.600   0.1793   0.01157   0.00623   0.0031  0.6696  0.8961  -0.7664   0.0000   0.0000   0.0000   0.2267
   1.700   0.1868   0.01163   0.00625   0.0040  0.6617  0.8996  -0.7807   0.0000   0.0000   0.0000   0.2224
   1.800   0.2018   0.01166   0.00623   0.0034  0.6521  0.9035  -0.8013   0.0000   0.0000   0.0000   0.2270
   1.900   0.2180   0.01173   0.00622   0.0026  0.6409  0.9067  -0.8230   0.0000   0.0000   0.0000   0.2320
   2.000   0.2337   0.01184   0.00622   0.0019  0.6273  0.9096  -0.8444   0.0000   0.0000   0.0000   0.2358
   2.100   0.2493   0.01200   0.00630   0.0011  0.6102  0.9123  -0.8655   0.0000   0.0000   0.0000   0.2395
   2.200   0.2653   0.01213   0.00640   0.0002  0.5988  0.9150  -0.8870   0.0000   0.0000   0.0000   0.2433
   2.300   0.2808   0.01217   0.00645  -0.0006  0.5951  0.9181  -0.9096   0.0000   0.0000   0.0000   0.2461
   2.400   0.2962   0.01221   0.00651  -0.0014  0.5904  0.9213  -0.9492   0.0000   0.0000   0.0000   0.2487
   2.500   0.3115   0.01226   0.00656  -0.0022  0.5843  0.9246  -0.9928   0.0000   0.0000   0.0000   0.2510
   2.600   0.3264   0.01232   0.00660  -0.0029  0.5765  0.9280  -1.0363   0.0000   0.0000   0.0000   0.2528
   2.700   0.3405   0.01238   0.00663  -0.0034  0.5670  0.9317  -1.0790   0.0000   0.0000   0.0000   0.2540
   2.800   0.3534   0.01246   0.00663  -0.0037  0.5558  0.9356  -1.1202   0.0000   0.0000   0.0000   0.2543
   2.900   0.3649   0.01257   0.00663  -0.0037  0.5431  0.9397  -1.1594   0.0000   0.0000   0.0000   0.2539
   3.000   0.3745   0.01272   0.00665  -0.0033  0.5280  0.9440  -1.1956   0.0000   0.0000   0.0000   0.2525
   3.100   0.3829   0.01293   0.00676  -0.0026  0.5100  0.9479  -1.2295   0.0000   0.0000   0.0000   0.2506
   3.200   0.3951   0.01303   0.00683  -0.0029  0.4985  0.9510  -1.2704   0.0000   0.0000   0.0000   0.2509
   3.300   0.4144   0.01294   0.00676  -0.0046  0.4930  0.9534  -1.3248   0.0000   0.0000   0.0000   0.2547
   3.400   0.4340   0.01291   0.00672  -0.0064  0.4842  0.9559  -1.3802   0.0000   0.0000   0.0000   0.2583
   3.500   0.4532   0.01293   0.00670  -0.0081  0.4716  0.9585  -1.4355   0.0000   0.0000   0.0000   0.2614
   3.600   0.4715   0.01300   0.00666  -0.0096  0.4558  0.9613  -1.4900   0.0000   0.0000   0.0000   0.2639
   3.700   0.4887   0.01313   0.00661  -0.0109  0.4371  0.9642  -1.5428   0.0000   0.0000   0.0000   0.2659
   3.800   0.5052   0.01328   0.00661  -0.0121  0.4146  0.9673  -1.5943   0.0000   0.0000   0.0000   0.2675
   3.900   0.5219   0.01338   0.00666  -0.0134  0.3989  0.9703  -1.6463   0.0000   0.0000   0.0000   0.2691
   4.000   0.5382   0.01337   0.00667  -0.0146  0.3941  0.9734  -1.6988   0.0000   0.0000   0.0000   0.2705
   4.100   0.5539   0.01339   0.00668  -0.0157  0.3872  0.9765  -1.7501   0.0000   0.0000   0.0000   0.2716
   4.200   0.5691   0.01344   0.00670  -0.0167  0.3788  0.9795  -1.8011   0.0000   0.0000   0.0000   0.2725
   4.300   0.5839   0.01350   0.00673  -0.0176  0.3693  0.9825  -1.8517   0.0000   0.0000   0.0000   0.2733
   4.400   0.5984   0.01358   0.00675  -0.0184  0.3585  0.9854  -1.9019   0.0000   0.0000   0.0000   0.2739
   4.500   0.6125   0.01369   0.00677  -0.0192  0.3465  0.9882  -1.9518   0.0000   0.0000   0.0000   0.2744
   4.600   0.6263   0.01382   0.00679  -0.0199  0.3329  0.9908  -2.0013   0.0000   0.0000   0.0000   0.2749
   4.700   0.6401   0.01396   0.00684  -0.0207  0.3171  0.9933  -2.0508   0.0000   0.0000   0.0000   0.2753
   4.800   0.6542   0.01410   0.00694  -0.0215  0.3014  0.9953  -2.1009   0.0000   0.0000   0.0000   0.2757
   4.900   0.6689   0.01414   0.00699  -0.0223  0.2964  0.9972  -2.1534   0.0000   0.0000   0.0000   0.2762
   5.000   0.6834   0.01419   0.00704  -0.0232  0.2903  0.9988  -2.2060   0.0000   0.0000   0.0000   0.2767
   5.100   0.6967   0.01428   0.00710  -0.0238  0.2826  1.0000  -2.2564   0.0000   0.0000   0.0000   0.2768
   5.200   0.7043   0.01438   0.00714  -0.0234  0.2754  1.0000  -2.2951   0.0000   0.0000   0.0000   0.2757
   5.300   0.7115   0.01451   0.00718  -0.0229  0.2677  1.0000  -2.3331   0.0000   0.0000   0.0000   0.2746
   5.400   0.7183   0.01468   0.00724  -0.0223  0.2594  1.0000  -2.3702   0.0000   0.0000   0.0000   0.2734
   5.500   0.7252   0.01486   0.00732  -0.0218  0.2501  1.0000  -2.4074   0.0000   0.0000   0.0000   0.2722
   5.600   0.7336   0.01490   0.00738  -0.0214  0.2462  1.0000  -2.4481   0.0000   0.0000   0.0000   0.2712
   5.700   0.7417   0.01497   0.00744  -0.0210  0.2409  1.0000  -2.4885   0.0000   0.0000   0.0000   0.2703
   5.800   0.7494   0.01507   0.00751  -0.0205  0.2341  1.0000  -2.5284   0.0000   0.0000   0.0000   0.2693
   5.900   0.7568   0.01520   0.00758  -0.0200  0.2265  1.0000  -2.5676   0.0000   0.0000   0.0000   0.2682
   6.000   0.7637   0.01536   0.00765  -0.0194  0.2185  1.0000  -2.6059   0.0000   0.0000   0.0000   0.2671
   6.100   0.7702   0.01554   0.00775  -0.0188  0.2101  1.0000  -2.6434   0.0000   0.0000   0.0000   0.2659
   6.200   0.7766   0.01574   0.00790  -0.0181  0.2010  1.0000  -2.6799   0.0000   0.0000   0.0000   0.2647
   6.300   0.7845   0.01581   0.00799  -0.0176  0.1974  1.0000  -2.7207   0.0000   0.0000   0.0000   0.2638
   6.400   0.7923   0.01589   0.00809  -0.0171  0.1934  1.0000  -2.7613   0.0000   0.0000   0.0000   0.2628
   6.500   0.7997   0.01599   0.00819  -0.0165  0.1883  1.0000  -2.8011   0.0000   0.0000   0.0000   0.2618
   6.600   0.8067   0.01612   0.00830  -0.0159  0.1824  1.0000  -2.8400   0.0000   0.0000   0.0000   0.2607
   6.700   0.8131   0.01627   0.00841  -0.0151  0.1759  1.0000  -2.8778   0.0000   0.0000   0.0000   0.2596
   6.800   0.8190   0.01646   0.00853  -0.0143  0.1688  1.0000  -2.9141   0.0000   0.0000   0.0000   0.2584
   6.900   0.8245   0.01666   0.00867  -0.0135  0.1607  1.0000  -2.9493   0.0000   0.0000   0.0000   0.2571
   7.000   0.8298   0.01689   0.00887  -0.0126  0.1515  1.0000  -2.9825   0.0000   0.0000   0.0000   0.2557
   7.100   0.8369   0.01699   0.00898  -0.0119  0.1481  1.0000  -3.0212   0.0000   0.0000   0.0000   0.2547
   7.200   0.8440   0.01707   0.00909  -0.0112  0.1444  1.0000  -3.0601   0.0000   0.0000   0.0000   0.2537
   7.300   0.8506   0.01720   0.00921  -0.0105  0.1386  1.0000  -3.0969   0.0000   0.0000   0.0000   0.2526
   7.400   0.8562   0.01739   0.00936  -0.0096  0.1304  1.0000  -3.1306   0.0000   0.0000   0.0000   0.2514
   7.500   0.8601   0.01768   0.00954  -0.0085  0.1194  1.0000  -3.1590   0.0000   0.0000   0.0000   0.2500
   7.600   0.8615   0.01818   0.00991  -0.0069  0.0992  1.0000  -3.1697   0.0000   0.0000   0.0000   0.2480
   7.700   0.8656   0.01850   0.01015  -0.0059  0.0878  1.0000  -3.1895   0.0000   0.0000   0.0000   0.2466
   7.800   0.8624   0.01932   0.01073  -0.0036  0.0736  1.0000  -3.1743   0.0000   0.0000   0.0000   0.2438
   7.900   0.8667   0.01962   0.01104  -0.0024  0.0697  1.0000  -3.1906   0.0000   0.0000   0.0000   0.2423
   8.000   0.8707   0.01994   0.01136  -0.0012  0.0666  1.0000  -3.2085   0.0000   0.0000   0.0000   0.2408
   8.100   0.8746   0.02026   0.01168   0.0000  0.0643  1.0000  -3.2282   0.0000   0.0000   0.0000   0.2393
   8.200   0.8772   0.02069   0.01255   0.0016  0.0629  1.0000  -3.2604   0.0000   0.0000   0.0000   0.2374
   8.300   0.8804   0.02108   0.01300   0.0029  0.0618  1.0000  -3.2863   0.0000   0.0000   0.0000   0.2357
   8.400   0.8838   0.02145   0.01339   0.0042  0.0608  1.0000  -3.3089   0.0000   0.0000   0.0000   0.2341
   8.500   0.8873   0.02181   0.01377   0.0055  0.0598  1.0000  -3.3315   0.0000   0.0000   0.0000   0.2325
   8.600   0.8908   0.02216   0.01412   0.0067  0.0585  1.0000  -3.3572   0.0000   0.0000   0.0000   0.2311
   8.700   0.8941   0.02254   0.01449   0.0079  0.0570  1.0000  -3.3827   0.0000   0.0000   0.0000   0.2296
   8.800   0.8969   0.02297   0.01492   0.0092  0.0554  1.0000  -3.4048   0.0000   0.0000   0.0000   0.2280
   8.900   0.8993   0.02349   0.01545   0.0106  0.0537  1.0000  -3.4223   0.0000   0.0000   0.0000   0.2264
   9.000   0.9014   0.02413   0.01613   0.0120  0.0521  1.0000  -3.4348   0.0000   0.0000   0.0000   0.2248
   9.100   0.9034   0.02496   0.01704   0.0133  0.0507  1.0000  -3.4410   0.0000   0.0000   0.0000   0.2232
   9.200   0.9078   0.02542   0.01751   0.0142  0.0498  1.0000  -3.4703   0.0000   0.0000   0.0000   0.2221
   9.300   0.9147   0.02540   0.01747   0.0148  0.0495  1.0000  -3.5250   0.0000   0.0000   0.0000   0.2215
   9.400   0.9213   0.02544   0.01751   0.0154  0.0491  1.0000  -3.5765   0.0000   0.0000   0.0000   0.2208
   9.500   0.9277   0.02555   0.01763   0.0161  0.0486  1.0000  -3.6248   0.0000   0.0000   0.0000   0.2201
   9.600   0.9338   0.02571   0.01780   0.0168  0.0482  1.0000  -3.6698   0.0000   0.0000   0.0000   0.2194
   9.700   0.9397   0.02593   0.01803   0.0175  0.0478  1.0000  -3.7116   0.0000   0.0000   0.0000   0.2186
   9.800   0.9452   0.02620   0.01832   0.0182  0.0474  1.0000  -3.7502   0.0000   0.0000   0.0000   0.2178
   9.900   0.9502   0.02650   0.01865   0.0190  0.0470  1.0000  -3.7849   0.0000   0.0000   0.0000   0.2169
  10.000   0.9548   0.02686   0.01904   0.0199  0.0468  1.0000  -3.8164   0.0000   0.0000   0.0000   0.2159
  10.100   0.9593   0.02724   0.01945   0.0208  0.0465  1.0000  -3.8468   0.0000   0.0000   0.0000   0.2149
  10.200   0.9638   0.02763   0.01987   0.0217  0.0463  1.0000  -3.8771   0.0000   0.0000   0.0000   0.2140
  10.300   0.9684   0.02803   0.02031   0.0225  0.0461  1.0000  -3.9073   0.0000   0.0000   0.0000   0.2131
  10.400   0.9730   0.02844   0.02076   0.0233  0.0459  1.0000  -3.9375   0.0000   0.0000   0.0000   0.2122
  10.500   0.9777   0.02887   0.02122   0.0241  0.0456  1.0000  -3.9677   0.0000   0.0000   0.0000   0.2114
  10.600   0.9823   0.02932   0.02170   0.0249  0.0454  1.0000  -3.9977   0.0000   0.0000   0.0000   0.2106
  10.700   0.9868   0.02978   0.02220   0.0256  0.0452  1.0000  -4.0273   0.0000   0.0000   0.0000   0.2098
  10.800   0.9911   0.03025   0.02271   0.0263  0.0450  1.0000  -4.0564   0.0000   0.0000   0.0000   0.2090
  10.900   0.9953   0.03074   0.02324   0.0271  0.0448  1.0000  -4.0848   0.0000   0.0000   0.0000   0.2082
  11.000   0.9992   0.03124   0.02378   0.0278  0.0446  1.0000  -4.1126   0.0000   0.0000   0.0000   0.2074
  11.100   1.0029   0.03175   0.02434   0.0286  0.0444  1.0000  -4.1399   0.0000   0.0000   0.0000   0.2067
  11.200   1.0066   0.03228   0.02491   0.0293  0.0442  1.0000  -4.1668   0.0000   0.0000   0.0000   0.2059
  11.300   1.0101   0.03282   0.02550   0.0300  0.0440  1.0000  -4.1934   0.0000   0.0000   0.0000   0.2051
  11.400   1.0136   0.03339   0.02611   0.0307  0.0439  1.0000  -4.2196   0.0000   0.0000   0.0000   0.2044
  11.500   1.0169   0.03397   0.02674   0.0314  0.0437  1.0000  -4.2451   0.0000   0.0000   0.0000   0.2037
  11.600   1.0197   0.03458   0.02740   0.0321  0.0435  1.0000  -4.2693   0.0000   0.0000   0.0000   0.2029
  11.700   1.0222   0.03522   0.02809   0.0327  0.0434  1.0000  -4.2925   0.0000   0.0000   0.0000   0.2022
  11.800   1.0246   0.03587   0.02880   0.0334  0.0432  1.0000  -4.3154   0.0000   0.0000   0.0000   0.2015
  11.900   1.0270   0.03655   0.02952   0.0340  0.0430  1.0000  -4.3379   0.0000   0.0000   0.0000   0.2008
  12.000   1.0293   0.03725   0.03027   0.0345  0.0429  1.0000  -4.3601   0.0000   0.0000   0.0000   0.2001
  12.100   1.0315   0.03796   0.03104   0.0351  0.0427  1.0000  -4.3818   0.0000   0.0000   0.0000   0.1995
  12.300   1.0302   0.04062   0.03405   0.0365  0.0444  1.0000  -4.3399   0.0000   0.0000   0.0000   0.1977
  12.400   1.0302   0.04164   0.03514   0.0371  0.0445  1.0000  -4.3447   0.0000   0.0000   0.0000   0.1970
  12.500   1.0301   0.04263   0.03621   0.0376  0.0446  1.0000  -4.3523   0.0000   0.0000   0.0000   0.1963
  12.600   1.0294   0.04364   0.03729   0.0380  0.0446  1.0000  -4.3597   0.0000   0.0000   0.0000   0.1957
  12.700   1.0273   0.04472   0.03844   0.0384  0.0445  1.0000  -4.3640   0.0000   0.0000   0.0000   0.1950
  12.800   1.0250   0.04583   0.03962   0.0388  0.0445  1.0000  -4.3675   0.0000   0.0000   0.0000   0.1943
  12.900   1.0228   0.04697   0.04083   0.0391  0.0445  1.0000  -4.3711   0.0000   0.0000   0.0000   0.1937
  13.000   1.0206   0.04816   0.04209   0.0393  0.0444  1.0000  -4.3743   0.0000   0.0000   0.0000   0.1932
  13.100   1.0182   0.04940   0.04340   0.0395  0.0444  1.0000  -4.3764   0.0000   0.0000   0.0000   0.1928
  13.200   1.0154   0.05071   0.04479   0.0396  0.0443  1.0000  -4.3768   0.0000   0.0000   0.0000   0.1923
  13.300   1.0114   0.05218   0.04632   0.0395  0.0443  1.0000  -4.3724   0.0000   0.0000   0.0000   0.1920
  13.400   1.0061   0.05379   0.04802   0.0393  0.0442  1.0000  -4.3633   0.0000   0.0000   0.0000   0.1918
  13.500   1.0012   0.05543   0.04973   0.0390  0.0442  1.0000  -4.3547   0.0000   0.0000   0.0000   0.1916
  13.600   0.9963   0.05712   0.05150   0.0387  0.0442  1.0000  -4.3450   0.0000   0.0000   0.0000   0.1915
  13.700   0.9910   0.05891   0.05336   0.0383  0.0442  1.0000  -4.3326   0.0000   0.0000   0.0000   0.1915
  13.800   0.9843   0.06088   0.05542   0.0376  0.0441  1.0000  -4.3145   0.0000   0.0000   0.0000   0.1916
  13.900   0.9748   0.06328   0.05789   0.0366  0.0442  1.0000  -4.2843   0.0000   0.0000   0.0000   0.1920
  14.000   0.9663   0.06563   0.06032   0.0356  0.0442  1.0000  -4.2560   0.0000   0.0000   0.0000   0.1924
  14.100   0.9576   0.06805   0.06283   0.0346  0.0442  1.0000  -4.2255   0.0000   0.0000   0.0000   0.1928
  14.200   0.9477   0.07069   0.06555   0.0334  0.0442  1.0000  -4.1883   0.0000   0.0000   0.0000   0.1934
  14.300   0.9319   0.07422   0.06918   0.0314  0.0443  1.0000  -4.1244   0.0000   0.0000   0.0000   0.1946
  14.400   0.9177   0.07764   0.07269   0.0296  0.0444  1.0000  -4.0642   0.0000   0.0000   0.0000   0.1958
  14.500   0.9036   0.08122   0.07636   0.0277  0.0445  1.0000  -4.0007   0.0000   0.0000   0.0000   0.1971
  14.600   0.8848   0.08586   0.08111   0.0249  0.0446  1.0000  -3.9107   0.0000   0.0000   0.0000   0.1993
  14.700   0.8647   0.09108   0.08643   0.0216  0.0444  1.0000  -3.8128   0.0000   0.0000   0.0000   0.2021
  14.800   0.8535   0.09476   0.09017   0.0195  0.0440  1.0000  -3.7621   0.0000   0.0000   0.0000   0.2041
  14.900   0.7613   0.11701   0.11258   0.0062  0.0440  1.0000  -3.1604   0.0000   0.0000   0.0000   0.2188
  15.000   0.8237   0.10421   0.09963   0.0135  0.0426  1.0000  -3.6151   0.0000   0.0000   0.0000   0.2101
  15.200   0.6713   0.14628   0.14188  -0.0070  0.0467  1.0000  -2.2903   0.0000   0.0000   0.0000   0.2380
  15.300   0.6684   0.14901   0.14461  -0.0082  0.0468  1.0000  -2.2412   0.0000   0.0000   0.0000   0.2398
  15.400   0.6663   0.15153   0.14712  -0.0094  0.0469  1.0000  -2.1991   0.0000   0.0000   0.0000   0.2414
  15.500   0.6648   0.15390   0.14948  -0.0104  0.0469  1.0000  -2.1622   0.0000   0.0000   0.0000   0.2430
  15.600   0.6639   0.15614   0.15172  -0.0114  0.0469  1.0000  -2.1294   0.0000   0.0000   0.0000   0.2444
  15.700   0.6633   0.15828   0.15385  -0.0124  0.0469  1.0000  -2.1000   0.0000   0.0000   0.0000   0.2458
  15.800   0.6631   0.16028   0.15585  -0.0133  0.0469  1.0000  -2.0733   0.0000   0.0000   0.0000   0.2471
  15.900   0.6632   0.16218   0.15774  -0.0142  0.0468  1.0000  -2.0490   0.0000   0.0000   0.0000   0.2484
  16.000   0.6635   0.16400   0.15956  -0.0151  0.0467  1.0000  -2.0265   0.0000   0.0000   0.0000   0.2496
  16.100   0.6641   0.16578   0.16133  -0.0160  0.0466  1.0000  -2.0055   0.0000   0.0000   0.0000   0.2508
  16.200   0.6647   0.16753   0.16308  -0.0169  0.0465  1.0000  -1.9858   0.0000   0.0000   0.0000   0.2520
  16.300   0.6656   0.16926   0.16481  -0.0178  0.0464  1.0000  -1.9671   0.0000   0.0000   0.0000   0.2532
  16.400   0.6665   0.17098   0.16652  -0.0186  0.0462  1.0000  -1.9493   0.0000   0.0000   0.0000   0.2543
  16.500   0.6676   0.17269   0.16822  -0.0195  0.0460  1.0000  -1.9321   0.0000   0.0000   0.0000   0.2555
  16.600   0.6687   0.17440   0.16992  -0.0204  0.0458  1.0000  -1.9155   0.0000   0.0000   0.0000   0.2566
  16.700   0.6699   0.17610   0.17162  -0.0212  0.0456  1.0000  -1.8993   0.0000   0.0000   0.0000   0.2578
  16.800   0.6711   0.17780   0.17331  -0.0221  0.0453  1.0000  -1.8835   0.0000   0.0000   0.0000   0.2589
  16.900   0.6724   0.17950   0.17501  -0.0230  0.0450  1.0000  -1.8680   0.0000   0.0000   0.0000   0.2600
  17.000   0.6737   0.18119   0.17670  -0.0239  0.0446  1.0000  -1.8530   0.0000   0.0000   0.0000   0.2612
  17.100   0.6750   0.18289   0.17839  -0.0248  0.0442  1.0000  -1.8384   0.0000   0.0000   0.0000   0.2623
  17.200   0.6762   0.18463   0.18012  -0.0257  0.0438  1.0000  -1.8224   0.0000   0.0000   0.0000   0.2635
  17.300   0.6773   0.18637   0.18186  -0.0266  0.0433  1.0000  -1.8063   0.0000   0.0000   0.0000   0.2647
  17.400   0.6784   0.18810   0.18358  -0.0276  0.0427  1.0000  -1.7911   0.0000   0.0000   0.0000   0.2659
  17.500   0.6796   0.18979   0.18527  -0.0285  0.0421  1.0000  -1.7779   0.0000   0.0000   0.0000   0.2671
  17.600   0.6810   0.19144   0.18692  -0.0294  0.0413  1.0000  -1.7675   0.0000   0.0000   0.0000   0.2682
  17.700   0.6826   0.19304   0.18851  -0.0303  0.0405  1.0000  -1.7603   0.0000   0.0000   0.0000   0.2692
  17.800   0.6845   0.19457   0.19003  -0.0311  0.0397  1.0000  -1.7567   0.0000   0.0000   0.0000   0.2701
  17.900   0.6865   0.19602   0.19147  -0.0319  0.0387  1.0000  -1.7575   0.0000   0.0000   0.0000   0.2710
  18.000   0.6888   0.19737   0.19282  -0.0326  0.0377  1.0000  -1.7633   0.0000   0.0000   0.0000   0.2717
  18.100   0.6915   0.19862   0.19406  -0.0332  0.0366  1.0000  -1.7746   0.0000   0.0000   0.0000   0.2723
  18.200   0.6944   0.19974   0.19518  -0.0338  0.0355  1.0000  -1.7920   0.0000   0.0000   0.0000   0.2728
  18.300   0.6977   0.20071   0.19615  -0.0344  0.0344  1.0000  -1.8161   0.0000   0.0000   0.0000   0.2731
  18.400   0.7015   0.20153   0.19696  -0.0348  0.0334  1.0000  -1.8475   0.0000   0.0000   0.0000   0.2733
  18.500   0.7056   0.20217   0.19759  -0.0352  0.0325  1.0000  -1.8865   0.0000   0.0000   0.0000   0.2733
  18.600   0.7102   0.20264   0.19805  -0.0355  0.0316  1.0000  -1.9333   0.0000   0.0000   0.0000   0.2731
  18.700   0.7153   0.20293   0.19834  -0.0357  0.0308  1.0000  -1.9876   0.0000   0.0000   0.0000   0.2728
  18.800   0.7205   0.20313   0.19853  -0.0358  0.0301  1.0000  -2.0458   0.0000   0.0000   0.0000   0.2723
  18.900   0.7250   0.20352   0.19891  -0.0361  0.0294  1.0000  -2.0965   0.0000   0.0000   0.0000   0.2722
  19.000   0.7295   0.20385   0.19924  -0.0364  0.0288  1.0000  -2.1500   0.0000   0.0000   0.0000   0.2720
  19.100   0.7340   0.20419   0.19956  -0.0367  0.0283  1.0000  -2.2042   0.0000   0.0000   0.0000   0.2717
  19.300   0.7341   0.20932   0.20482  -0.0387  0.0288  1.0000  -2.1033   0.0000   0.0000   0.0000   0.2744
  19.400   0.7360   0.21095   0.20645  -0.0394  0.0287  1.0000  -2.0983   0.0000   0.0000   0.0000   0.2751
  19.500   0.7391   0.21202   0.20753  -0.0399  0.0284  1.0000  -2.1199   0.0000   0.0000   0.0000   0.2753
  19.600   0.7426   0.21284   0.20835  -0.0403  0.0280  1.0000  -2.1541   0.0000   0.0000   0.0000   0.2753
  19.700   0.7459   0.21365   0.20915  -0.0406  0.0275  1.0000  -2.1922   0.0000   0.0000   0.0000   0.2753
  19.800   0.7477   0.21499   0.21050  -0.0410  0.0267  1.0000  -2.2165   0.0000   0.0000   0.0000   0.2755
  19.900   0.7142   0.23624   0.23165  -0.0477  0.0354  1.0000  -1.5314   0.0000   0.0000   0.0000   0.2890
  20.000   0.7152   0.23872   0.23413  -0.0485  0.0362  1.0000  -1.5054   0.0000   0.0000   0.0000   0.2900
  20.100   0.7168   0.24077   0.23618  -0.0493  0.0364  1.0000  -1.4951   0.0000   0.0000   0.0000   0.2908
  20.200   0.7187   0.24272   0.23813  -0.0500  0.0363  1.0000  -1.4889   0.0000   0.0000   0.0000   0.2915
  20.300   0.7206   0.24462   0.24003  -0.0507  0.0361  1.0000  -1.4846   0.0000   0.0000   0.0000   0.2921
  20.400   0.7225   0.24649   0.24190  -0.0514  0.0359  1.0000  -1.4813   0.0000   0.0000   0.0000   0.2927
  20.500   0.7244   0.24836   0.24376  -0.0520  0.0356  1.0000  -1.4788   0.0000   0.0000   0.0000   0.2933
  20.600   0.7264   0.25022   0.24562  -0.0527  0.0354  1.0000  -1.4767   0.0000   0.0000   0.0000   0.2939
  20.700   0.7284   0.25207   0.24747  -0.0534  0.0351  1.0000  -1.4749   0.0000   0.0000   0.0000   0.2945
  20.800   0.7304   0.25392   0.24932  -0.0540  0.0349  1.0000  -1.4735   0.0000   0.0000   0.0000   0.2951
  20.900   0.7323   0.25577   0.25116  -0.0547  0.0346  1.0000  -1.4723   0.0000   0.0000   0.0000   0.2956
  21.000   0.7343   0.25761   0.25301  -0.0553  0.0344  1.0000  -1.4713   0.0000   0.0000   0.0000   0.2962
  21.100   0.7363   0.25946   0.25486  -0.0560  0.0341  1.0000  -1.4706   0.0000   0.0000   0.0000   0.2967
  21.200   0.7383   0.26131   0.25670  -0.0566  0.0339  1.0000  -1.4701   0.0000   0.0000   0.0000   0.2972
  21.500   0.7441   0.26685   0.26237  -0.0586  0.0338  1.0000  -1.4573   0.0000   0.0000   0.0000   0.2988
  21.600   0.7460   0.26869   0.26421  -0.0592  0.0335  1.0000  -1.4573   0.0000   0.0000   0.0000   0.2993
  21.700   0.7479   0.27053   0.26606  -0.0598  0.0333  1.0000  -1.4577   0.0000   0.0000   0.0000   0.2998
  21.800   0.7499   0.27237   0.26790  -0.0604  0.0331  1.0000  -1.4583   0.0000   0.0000   0.0000   0.3002
  21.900   0.7518   0.27422   0.26975  -0.0610  0.0328  1.0000  -1.4591   0.0000   0.0000   0.0000   0.3007
  22.000   0.7536   0.27606   0.27160  -0.0616  0.0326  1.0000  -1.4600   0.0000   0.0000   0.0000   0.3011
  22.100   0.7555   0.27791   0.27345  -0.0622  0.0324  1.0000  -1.4611   0.0000   0.0000   0.0000   0.3015
  22.200   0.7573   0.27976   0.27530  -0.0628  0.0322  1.0000  -1.4623   0.0000   0.0000   0.0000   0.3020
  22.300   0.7592   0.28162   0.27715  -0.0634  0.0320  1.0000  -1.4636   0.0000   0.0000   0.0000   0.3024
  22.400   0.7610   0.28347   0.27900  -0.0640  0.0318  1.0000  -1.4650   0.0000   0.0000   0.0000   0.3028
  22.500   0.7628   0.28532   0.28086  -0.0645  0.0316  1.0000  -1.4665   0.0000   0.0000   0.0000   0.3032
  22.600   0.7645   0.28718   0.28272  -0.0651  0.0314  1.0000  -1.4680   0.0000   0.0000   0.0000   0.3036
  22.700   0.7662   0.28904   0.28458  -0.0657  0.0312  1.0000  -1.4696   0.0000   0.0000   0.0000   0.3040
  22.800   0.7680   0.29091   0.28645  -0.0662  0.0310  1.0000  -1.4711   0.0000   0.0000   0.0000   0.3043
  22.900   0.7696   0.29277   0.28831  -0.0668  0.0309  1.0000  -1.4727   0.0000   0.0000   0.0000   0.3047
  23.000   0.7713   0.29464   0.29019  -0.0673  0.0307  1.0000  -1.4742   0.0000   0.0000   0.0000   0.3051
  23.100   0.7729   0.29651   0.29206  -0.0678  0.0306  1.0000  -1.4757   0.0000   0.0000   0.0000   0.3054
  23.200   0.7745   0.29839   0.29394  -0.0684  0.0304  1.0000  -1.4772   0.0000   0.0000   0.0000   0.3058
  23.300   0.7760   0.30027   0.29582  -0.0689  0.0303  1.0000  -1.4786   0.0000   0.0000   0.0000   0.3061
  23.400   0.7775   0.30215   0.29770  -0.0694  0.0301  1.0000  -1.4800   0.0000   0.0000   0.0000   0.3065
  23.500   0.7789   0.30403   0.29959  -0.0699  0.0300  1.0000  -1.4812   0.0000   0.0000   0.0000   0.3068
  23.600   0.7804   0.30592   0.30147  -0.0704  0.0299  1.0000  -1.4824   0.0000   0.0000   0.0000   0.3072
  23.700   0.7817   0.30781   0.30336  -0.0709  0.0297  1.0000  -1.4834   0.0000   0.0000   0.0000   0.3075
  23.800   0.7831   0.30970   0.30526  -0.0714  0.0296  1.0000  -1.4844   0.0000   0.0000   0.0000   0.3078
  23.900   0.7843   0.31159   0.30715  -0.0719  0.0295  1.0000  -1.4852   0.0000   0.0000   0.0000   0.3081
  24.000   0.7856   0.31348   0.30905  -0.0724  0.0294  1.0000  -1.4859   0.0000   0.0000   0.0000   0.3084
  24.100   0.7867   0.31538   0.31095  -0.0728  0.0293  1.0000  -1.4864   0.0000   0.0000   0.0000   0.3087
  24.200   0.7879   0.31727   0.31284  -0.0733  0.0292  1.0000  -1.4867   0.0000   0.0000   0.0000   0.3091
  24.300   0.7889   0.31916   0.31474  -0.0737  0.0291  1.0000  -1.4869   0.0000   0.0000   0.0000   0.3094
  24.400   0.7899   0.32106   0.31664  -0.0742  0.0290  1.0000  -1.4869   0.0000   0.0000   0.0000   0.3097
  24.500   0.7908   0.32295   0.31853  -0.0746  0.0289  1.0000  -1.4867   0.0000   0.0000   0.0000   0.3100
  24.600   0.7925   0.32448   0.32007  -0.0748  0.0286  1.0000  -1.5046   0.0000   0.0000   0.0000   0.3098
  24.700   0.7944   0.32600   0.32159  -0.0750  0.0282  1.0000  -1.5257   0.0000   0.0000   0.0000   0.3096
  24.800   0.7963   0.32756   0.32315  -0.0751  0.0279  1.0000  -1.5483   0.0000   0.0000   0.0000   0.3093
  24.900   0.7983   0.32920   0.32479  -0.0751  0.0276  1.0000  -1.5721   0.0000   0.0000   0.0000   0.3090
  25.000   0.8003   0.33097   0.32657  -0.0751  0.0273  1.0000  -1.5973   0.0000   0.0000   0.0000   0.3085
  25.100   0.8026   0.33298   0.32858  -0.0750  0.0269  1.0000  -1.6238   0.0000   0.0000   0.0000   0.3080
  25.200   0.8046   0.33556   0.33117  -0.0748  0.0265  1.0000  -1.6470   0.0000   0.0000   0.0000   0.3074
  25.300   0.7854   0.35046   0.34604  -0.0745  0.0249  1.0000  -1.4180   0.0000   0.0000   0.0000   0.3101
  25.400   0.7849   0.35202   0.34761  -0.0749  0.0249  1.0000  -1.4098   0.0000   0.0000   0.0000   0.3106
  25.500   0.7842   0.35354   0.34913  -0.0753  0.0249  1.0000  -1.4015   0.0000   0.0000   0.0000   0.3110
  25.600   0.7833   0.35500   0.35060  -0.0756  0.0249  1.0000  -1.3930   0.0000   0.0000   0.0000   0.3115
  25.700   0.7822   0.35640   0.35201  -0.0759  0.0249  1.0000  -1.3844   0.0000   0.0000   0.0000   0.3119
  25.800   0.7809   0.35773   0.35334  -0.0762  0.0248  1.0000  -1.3755   0.0000   0.0000   0.0000   0.3123
  25.900   0.7794   0.35896   0.35459  -0.0764  0.0248  1.0000  -1.3663   0.0000   0.0000   0.0000   0.3127
  26.000   0.7775   0.36009   0.35573  -0.0765  0.0248  1.0000  -1.3566   0.0000   0.0000   0.0000   0.3131
  26.100   0.7752   0.36106   0.35671  -0.0766  0.0247  1.0000  -1.3459   0.0000   0.0000   0.0000   0.3134
  26.200   0.7722   0.36183   0.35749  -0.0766  0.0247  1.0000  -1.3342   0.0000   0.0000   0.0000   0.3138
  26.500   0.7114   0.34706   0.34286  -0.0679  0.0246  1.0000  -1.1931   0.0000   0.0000   0.0000   0.3122
  26.600   0.7064   0.34628   0.34210  -0.0676  0.0246  1.0000  -1.1779   0.0000   0.0000   0.0000   0.3125
  26.700   0.7023   0.34569   0.34152  -0.0673  0.0246  1.0000  -1.1646   0.0000   0.0000   0.0000   0.3128
  26.800   0.6986   0.34519   0.34103  -0.0671  0.0245  1.0000  -1.1522   0.0000   0.0000   0.0000   0.3131
  26.900   0.6953   0.34476   0.34062  -0.0670  0.0245  1.0000  -1.1407   0.0000   0.0000   0.0000   0.3134
  27.000   0.6924   0.34439   0.34026  -0.0670  0.0244  1.0000  -1.1301   0.0000   0.0000   0.0000   0.3138
  27.100   0.6899   0.34408   0.33996  -0.0670  0.0243  1.0000  -1.1206   0.0000   0.0000   0.0000   0.3142
  27.200   0.6876   0.34380   0.33969  -0.0671  0.0242  1.0000  -1.1118   0.0000   0.0000   0.0000   0.3146
  27.300   0.6856   0.34353   0.33943  -0.0672  0.0241  1.0000  -1.1037   0.0000   0.0000   0.0000   0.3151
  27.400   0.6835   0.34313   0.33904  -0.0674  0.0240  1.0000  -1.0934   0.0000   0.0000   0.0000   0.3157
  27.500   0.6818   0.34276   0.33868  -0.0677  0.0238  1.0000  -1.0838   0.0000   0.0000   0.0000   0.3163
  27.600   0.6807   0.34245   0.33838  -0.0682  0.0235  1.0000  -1.0747   0.0000   0.0000   0.0000   0.3171
  27.700   0.6806   0.34234   0.33827  -0.0689  0.0230  1.0000  -1.0654   0.0000   0.0000   0.0000   0.3180
  27.800   0.6820   0.34275   0.33869  -0.0698  0.0221  1.0000  -1.0539   0.0000   0.0000   0.0000   0.3191
  27.900   0.6828   0.34346   0.33941  -0.0705  0.0209  1.0000  -1.0431   0.0000   0.0000   0.0000   0.3199
  28.000   0.6825   0.34398   0.33995  -0.0709  0.0200  1.0000  -1.0366   0.0000   0.0000   0.0000   0.3204
  28.100   0.6818   0.34439   0.34036  -0.0711  0.0192  1.0000  -1.0332   0.0000   0.0000   0.0000   0.3208
  28.200   0.6810   0.34473   0.34071  -0.0713  0.0185  1.0000  -1.0318   0.0000   0.0000   0.0000   0.3212
  28.300   0.6803   0.34503   0.34102  -0.0715  0.0179  1.0000  -1.0322   0.0000   0.0000   0.0000   0.3215
  28.400   0.6796   0.34530   0.34130  -0.0717  0.0173  1.0000  -1.0341   0.0000   0.0000   0.0000   0.3218
  28.500   0.6789   0.34556   0.34157  -0.0718  0.0168  1.0000  -1.0373   0.0000   0.0000   0.0000   0.3221
  28.600   0.6783   0.34580   0.34181  -0.0720  0.0164  1.0000  -1.0417   0.0000   0.0000   0.0000   0.3224
  28.700   0.6778   0.34602   0.34204  -0.0722  0.0160  1.0000  -1.0475   0.0000   0.0000   0.0000   0.3226
  28.800   0.6773   0.34622   0.34225  -0.0724  0.0156  1.0000  -1.0544   0.0000   0.0000   0.0000   0.3228
  28.900   0.6769   0.34641   0.34244  -0.0726  0.0153  1.0000  -1.0625   0.0000   0.0000   0.0000   0.3231
  29.000   0.6766   0.34658   0.34262  -0.0727  0.0150  1.0000  -1.0718   0.0000   0.0000   0.0000   0.3232
  29.100   0.6763   0.34673   0.34278  -0.0729  0.0147  1.0000  -1.0821   0.0000   0.0000   0.0000   0.3234
  29.200   0.6760   0.34687   0.34293  -0.0731  0.0145  1.0000  -1.0936   0.0000   0.0000   0.0000   0.3236
  29.300   0.6758   0.34700   0.34306  -0.0732  0.0143  1.0000  -1.1061   0.0000   0.0000   0.0000   0.3237
  29.400   0.6757   0.34711   0.34318  -0.0734  0.0141  1.0000  -1.1197   0.0000   0.0000   0.0000   0.3238
  29.500   0.6755   0.34721   0.34328  -0.0735  0.0139  1.0000  -1.1344   0.0000   0.0000   0.0000   0.3238
  29.600   0.6754   0.34731   0.34339  -0.0736  0.0137  1.0000  -1.1500   0.0000   0.0000   0.0000   0.3238
  29.700   0.6754   0.34742   0.34350  -0.0736  0.0136  1.0000  -1.1667   0.0000   0.0000   0.0000   0.3238
  29.800   0.6753   0.34756   0.34365  -0.0737  0.0134  1.0000  -1.1843   0.0000   0.0000   0.0000   0.3237
  29.900   0.6754   0.34775   0.34385  -0.0737  0.0133  1.0000  -1.2031   0.0000   0.0000   0.0000   0.3235
  30.000   0.6755   0.34810   0.34421  -0.0735  0.0131  1.0000  -1.2230   0.0000   0.0000   0.0000   0.3231


