xflr5 v6.61

 Calculated polar for: NACA 0015

 1 1 Reynolds number fixed          Mach number fixed         

 xtrf =   1.000 (top)        1.000 (bottom)
 Mach =   0.000     Re =     0.625 e 6     Ncrit =   9.000

  alpha     CL        CD       CDp       Cm    Top Xtr Bot Xtr   Cpmin    Chinge    XCp    
 ------- -------- --------- --------- -------- ------- ------- -------- --------- ---------
 -10.000  -1.0095   0.02028   0.01429  -0.0119  1.0000  0.0260  -4.0432   0.0000   0.0000   0.0000   0.2252
  -9.900  -1.0065   0.01994   0.01391  -0.0106  1.0000  0.0262  -4.0161   0.0000   0.0000   0.0000   0.2266
  -9.800  -1.0036   0.01960   0.01354  -0.0092  1.0000  0.0263  -3.9889   0.0000   0.0000   0.0000   0.2281
  -9.700  -1.0006   0.01929   0.01319  -0.0079  1.0000  0.0264  -3.9613   0.0000   0.0000   0.0000   0.2295
  -9.600  -0.9975   0.01898   0.01285  -0.0066  1.0000  0.0265  -3.9333   0.0000   0.0000   0.0000   0.2310
  -9.500  -0.9944   0.01869   0.01253  -0.0052  1.0000  0.0267  -3.9050   0.0000   0.0000   0.0000   0.2325
  -9.400  -0.9913   0.01842   0.01222  -0.0039  1.0000  0.0268  -3.8764   0.0000   0.0000   0.0000   0.2339
  -9.300  -0.9881   0.01815   0.01192  -0.0025  1.0000  0.0269  -3.8476   0.0000   0.0000   0.0000   0.2354
  -9.200  -0.9848   0.01789   0.01164  -0.0012  1.0000  0.0271  -3.8185   0.0000   0.0000   0.0000   0.2369
  -9.100  -0.9814   0.01764   0.01136   0.0002  1.0000  0.0272  -3.7891   0.0000   0.0000   0.0000   0.2384
  -9.000  -0.9779   0.01741   0.01109   0.0015  1.0000  0.0274  -3.7591   0.0000   0.0000   0.0000   0.2399
  -8.900  -0.9741   0.01718   0.01083   0.0028  1.0000  0.0276  -3.7285   0.0000   0.0000   0.0000   0.2414
  -8.800  -0.9702   0.01695   0.01058   0.0040  1.0000  0.0278  -3.6975   0.0000   0.0000   0.0000   0.2428
  -8.700  -0.9662   0.01674   0.01033   0.0053  1.0000  0.0280  -3.6661   0.0000   0.0000   0.0000   0.2442
  -8.600  -0.9621   0.01653   0.01010   0.0065  1.0000  0.0282  -3.6346   0.0000   0.0000   0.0000   0.2456
  -8.500  -0.9581   0.01634   0.00987   0.0077  1.0000  0.0284  -3.6032   0.0000   0.0000   0.0000   0.2471
  -8.400  -0.9545   0.01616   0.00967   0.0090  1.0000  0.0287  -3.5726   0.0000   0.0000   0.0000   0.2486
  -8.300  -0.9477   0.01595   0.00943   0.0097  0.9998  0.0290  -3.5347   0.0000   0.0000   0.0000   0.2495
  -8.200  -0.9365   0.01570   0.00915   0.0095  0.9992  0.0295  -3.4869   0.0000   0.0000   0.0000   0.2495
  -8.100  -0.9253   0.01547   0.00888   0.0093  0.9986  0.0300  -3.4383   0.0000   0.0000   0.0000   0.2496
  -8.000  -0.9139   0.01524   0.00861   0.0091  0.9979  0.0308  -3.3882   0.0000   0.0000   0.0000   0.2496
  -7.900  -0.9027   0.01499   0.00812   0.0089  0.9971  0.0351  -3.3087   0.0000   0.0000   0.0000   0.2496
  -7.800  -0.8909   0.01480   0.00791   0.0086  0.9962  0.0352  -3.2611   0.0000   0.0000   0.0000   0.2495
  -7.700  -0.8790   0.01463   0.00771   0.0083  0.9953  0.0352  -3.2136   0.0000   0.0000   0.0000   0.2494
  -7.600  -0.8668   0.01445   0.00751   0.0080  0.9943  0.0353  -3.1659   0.0000   0.0000   0.0000   0.2493
  -7.500  -0.8543   0.01428   0.00731   0.0076  0.9931  0.0354  -3.1180   0.0000   0.0000   0.0000   0.2490
  -7.400  -0.8416   0.01412   0.00712   0.0072  0.9918  0.0356  -3.0699   0.0000   0.0000   0.0000   0.2488
  -7.300  -0.8286   0.01395   0.00693   0.0067  0.9904  0.0358  -3.0219   0.0000   0.0000   0.0000   0.2484
  -7.200  -0.8155   0.01379   0.00674   0.0062  0.9888  0.0361  -2.9743   0.0000   0.0000   0.0000   0.2480
  -7.100  -0.8023   0.01363   0.00656   0.0057  0.9872  0.0365  -2.9275   0.0000   0.0000   0.0000   0.2476
  -7.000  -0.7891   0.01346   0.00637   0.0052  0.9855  0.0371  -2.8824   0.0000   0.0000   0.0000   0.2471
  -6.900  -0.7761   0.01329   0.00617   0.0047  0.9837  0.0384  -2.8407   0.0000   0.0000   0.0000   0.2468
  -6.800  -0.7638   0.01305   0.00596   0.0044  0.9819  0.0418  -2.8077   0.0000   0.0000   0.0000   0.2465
  -6.700  -0.7527   0.01269   0.00572   0.0042  0.9799  0.0513  -2.7802   0.0000   0.0000   0.0000   0.2465
  -6.600  -0.7425   0.01224   0.00545   0.0040  0.9779  0.0715  -2.7389   0.0000   0.0000   0.0000   0.2464
  -6.500  -0.7310   0.01194   0.00528   0.0037  0.9760  0.0840  -2.6921   0.0000   0.0000   0.0000   0.2461
  -6.400  -0.7193   0.01166   0.00513   0.0033  0.9742  0.0941  -2.6437   0.0000   0.0000   0.0000   0.2457
  -6.300  -0.7064   0.01151   0.00502   0.0028  0.9726  0.0992  -2.5922   0.0000   0.0000   0.0000   0.2451
  -6.200  -0.6930   0.01140   0.00492   0.0022  0.9712  0.1072  -2.5400   0.0000   0.0000   0.0000   0.2444
  -6.100  -0.6798   0.01125   0.00482   0.0016  0.9697  0.1176  -2.4884   0.0000   0.0000   0.0000   0.2437
  -6.000  -0.6667   0.01108   0.00472   0.0010  0.9682  0.1264  -2.4370   0.0000   0.0000   0.0000   0.2430
  -5.900  -0.6535   0.01092   0.00462   0.0004  0.9667  0.1341  -2.3854   0.0000   0.0000   0.0000   0.2421
  -5.800  -0.6399   0.01078   0.00453  -0.0002  0.9653  0.1408  -2.3334   0.0000   0.0000   0.0000   0.2412
  -5.700  -0.6260   0.01066   0.00445  -0.0009  0.9640  0.1455  -2.2809   0.0000   0.0000   0.0000   0.2401
  -5.600  -0.6118   0.01057   0.00437  -0.0017  0.9627  0.1486  -2.2281   0.0000   0.0000   0.0000   0.2389
  -5.500  -0.5975   0.01049   0.00429  -0.0024  0.9614  0.1537  -2.1755   0.0000   0.0000   0.0000   0.2376
  -5.400  -0.5832   0.01036   0.00420  -0.0032  0.9599  0.1644  -2.1234   0.0000   0.0000   0.0000   0.2362
  -5.300  -0.5689   0.01020   0.00411  -0.0040  0.9581  0.1743  -2.0716   0.0000   0.0000   0.0000   0.2347
  -5.200  -0.5542   0.01005   0.00403  -0.0049  0.9560  0.1832  -2.0195   0.0000   0.0000   0.0000   0.2330
  -5.100  -0.5393   0.00994   0.00396  -0.0058  0.9534  0.1904  -1.9671   0.0000   0.0000   0.0000   0.2311
  -5.000  -0.5246   0.00986   0.00391  -0.0067  0.9500  0.1956  -1.9154   0.0000   0.0000   0.0000   0.2292
  -4.900  -0.5146   0.00977   0.00382  -0.0064  0.9482  0.1987  -1.8733   0.0000   0.0000   0.0000   0.2295
  -4.800  -0.5045   0.00967   0.00374  -0.0062  0.9460  0.2041  -1.8314   0.0000   0.0000   0.0000   0.2298
  -4.700  -0.4945   0.00955   0.00365  -0.0060  0.9433  0.2141  -1.7900   0.0000   0.0000   0.0000   0.2301
  -4.600  -0.4847   0.00940   0.00357  -0.0058  0.9404  0.2232  -1.7492   0.0000   0.0000   0.0000   0.2303
  -4.500  -0.4746   0.00926   0.00349  -0.0056  0.9374  0.2313  -1.7082   0.0000   0.0000   0.0000   0.2305
  -4.400  -0.4641   0.00914   0.00342  -0.0055  0.9343  0.2383  -1.6666   0.0000   0.0000   0.0000   0.2305
  -4.300  -0.4531   0.00904   0.00335  -0.0055  0.9311  0.2438  -1.6243   0.0000   0.0000   0.0000   0.2303
  -4.200  -0.4414   0.00895   0.00328  -0.0056  0.9278  0.2480  -1.5810   0.0000   0.0000   0.0000   0.2297
  -4.100  -0.4295   0.00886   0.00321  -0.0058  0.9245  0.2535  -1.5378   0.0000   0.0000   0.0000   0.2290
  -4.000  -0.4182   0.00870   0.00311  -0.0059  0.9209  0.2644  -1.4960   0.0000   0.0000   0.0000   0.2284
  -3.900  -0.4069   0.00853   0.00302  -0.0060  0.9172  0.2740  -1.4547   0.0000   0.0000   0.0000   0.2279
  -3.800  -0.3954   0.00839   0.00294  -0.0061  0.9131  0.2825  -1.4130   0.0000   0.0000   0.0000   0.2272
  -3.700  -0.3835   0.00829   0.00288  -0.0063  0.9086  0.2894  -1.3710   0.0000   0.0000   0.0000   0.2263
  -3.500  -0.3599   0.00818   0.00279  -0.0066  0.8995  0.2982  -1.2885   0.0000   0.0000   0.0000   0.2244
  -3.400  -0.3496   0.00813   0.00275  -0.0065  0.8980  0.3024  -1.2504   0.0000   0.0000   0.0000   0.2244
  -3.300  -0.3395   0.00808   0.00272  -0.0062  0.8960  0.3127  -1.2129   0.0000   0.0000   0.0000   0.2245
  -3.200  -0.3296   0.00801   0.00268  -0.0060  0.8935  0.3250  -1.1762   0.0000   0.0000   0.0000   0.2248
  -3.100  -0.3199   0.00792   0.00265  -0.0057  0.8901  0.3366  -1.1400   0.0000   0.0000   0.0000   0.2251
  -3.000  -0.3103   0.00783   0.00261  -0.0054  0.8858  0.3473  -1.1043   0.0000   0.0000   0.0000   0.2256
  -2.900  -0.3006   0.00773   0.00256  -0.0051  0.8804  0.3574  -1.0686   0.0000   0.0000   0.0000   0.2261
  -2.800  -0.2907   0.00764   0.00251  -0.0049  0.8739  0.3668  -1.0328   0.0000   0.0000   0.0000   0.2264
  -2.700  -0.2804   0.00756   0.00246  -0.0047  0.8667  0.3752  -0.9967   0.0000   0.0000   0.0000   0.2265
  -2.600  -0.2697   0.00750   0.00242  -0.0045  0.8590  0.3820  -0.9602   0.0000   0.0000   0.0000   0.2263
  -2.500  -0.2588   0.00745   0.00238  -0.0045  0.8513  0.3871  -0.9238   0.0000   0.0000   0.0000   0.2260
  -2.400  -0.2479   0.00742   0.00233  -0.0044  0.8430  0.3914  -0.8981   0.0000   0.0000   0.0000   0.2255
  -2.300  -0.2371   0.00739   0.00229  -0.0043  0.8335  0.3952  -0.8770   0.0000   0.0000   0.0000   0.2252
  -2.200  -0.2261   0.00737   0.00225  -0.0042  0.8225  0.3983  -0.8558   0.0000   0.0000   0.0000   0.2246
  -2.100  -0.2148   0.00736   0.00222  -0.0043  0.8108  0.4037  -0.8381   0.0000   0.0000   0.0000   0.2234
  -2.000  -0.2036   0.00732   0.00220  -0.0043  0.8000  0.4180  -0.8206   0.0000   0.0000   0.0000   0.2220
  -1.900  -0.1935   0.00724   0.00219  -0.0041  0.7984  0.4329  -0.8042   0.0000   0.0000   0.0000   0.2220
  -1.800  -0.1838   0.00715   0.00217  -0.0038  0.7961  0.4464  -0.7880   0.0000   0.0000   0.0000   0.2224
  -1.700  -0.1740   0.00706   0.00215  -0.0036  0.7928  0.4587  -0.7718   0.0000   0.0000   0.0000   0.2228
  -1.600  -0.1640   0.00699   0.00213  -0.0033  0.7884  0.4700  -0.7554   0.0000   0.0000   0.0000   0.2230
  -1.500  -0.1536   0.00694   0.00211  -0.0032  0.7827  0.4793  -0.7389   0.0000   0.0000   0.0000   0.2228
  -1.400  -0.1430   0.00691   0.00209  -0.0030  0.7759  0.4862  -0.7221   0.0000   0.0000   0.0000   0.2222
  -1.300  -0.1322   0.00689   0.00206  -0.0029  0.7684  0.4912  -0.7053   0.0000   0.0000   0.0000   0.2212
  -1.200  -0.1213   0.00688   0.00204  -0.0028  0.7604  0.4948  -0.6885   0.0000   0.0000   0.0000   0.2199
  -1.100  -0.1104   0.00689   0.00201  -0.0027  0.7514  0.4977  -0.6718   0.0000   0.0000   0.0000   0.2184
  -1.000  -0.0997   0.00691   0.00198  -0.0026  0.7401  0.5002  -0.6553   0.0000   0.0000   0.0000   0.2170
  -0.900  -0.0895   0.00692   0.00194  -0.0024  0.7244  0.5137  -0.6394   0.0000   0.0000   0.0000   0.2167
  -0.800  -0.0794   0.00690   0.00193  -0.0022  0.7065  0.5309  -0.6238   0.0000   0.0000   0.0000   0.2159
  -0.700  -0.0696   0.00682   0.00193  -0.0019  0.6986  0.5468  -0.6104   0.0000   0.0000   0.0000   0.2159
  -0.600  -0.0599   0.00675   0.00193  -0.0016  0.6946  0.5608  -0.5970   0.0000   0.0000   0.0000   0.2164
  -0.500  -0.0498   0.00670   0.00192  -0.0014  0.6878  0.5729  -0.5835   0.0000   0.0000   0.0000   0.2161
  -0.400  -0.0396   0.00669   0.00191  -0.0011  0.6772  0.5825  -0.5699   0.0000   0.0000   0.0000   0.2148
  -0.300  -0.0295   0.00671   0.00190  -0.0009  0.6631  0.5895  -0.5563   0.0000   0.0000   0.0000   0.2134
  -0.200  -0.0196   0.00677   0.00188  -0.0006  0.6467  0.5947  -0.5449   0.0000   0.0000   0.0000   0.2142
  -0.100  -0.0101   0.00684   0.00186  -0.0002  0.6267  0.5983  -0.5347   0.0000   0.0000   0.0000   0.2221
   0.000   0.0000   0.00689   0.00186  -0.0000  0.6055  0.6055  -0.5243   0.0000   0.0000   0.0000   0.4600
   0.100   0.0101   0.00684   0.00186   0.0002  0.5983  0.6267  -0.5347   0.0000   0.0000   0.0000   0.2221
   0.200   0.0196   0.00677   0.00188   0.0006  0.5947  0.6467  -0.5449   0.0000   0.0000   0.0000   0.2142
   0.300   0.0295   0.00671   0.00190   0.0009  0.5895  0.6631  -0.5563   0.0000   0.0000   0.0000   0.2134
   0.400   0.0396   0.00669   0.00191   0.0011  0.5825  0.6772  -0.5699   0.0000   0.0000   0.0000   0.2148
   0.500   0.0498   0.00670   0.00192   0.0014  0.5729  0.6878  -0.5835   0.0000   0.0000   0.0000   0.2161
   0.600   0.0599   0.00675   0.00193   0.0016  0.5608  0.6946  -0.5970   0.0000   0.0000   0.0000   0.2164
   0.700   0.0696   0.00682   0.00193   0.0019  0.5468  0.6986  -0.6104   0.0000   0.0000   0.0000   0.2159
   0.800   0.0794   0.00690   0.00193   0.0022  0.5309  0.7065  -0.6238   0.0000   0.0000   0.0000   0.2159
   0.900   0.0895   0.00692   0.00194   0.0024  0.5137  0.7244  -0.6394   0.0000   0.0000   0.0000   0.2167
   1.000   0.0997   0.00691   0.00198   0.0026  0.5002  0.7401  -0.6553   0.0000   0.0000   0.0000   0.2170
   1.100   0.1104   0.00689   0.00201   0.0027  0.4977  0.7514  -0.6718   0.0000   0.0000   0.0000   0.2184
   1.200   0.1213   0.00688   0.00204   0.0028  0.4948  0.7604  -0.6885   0.0000   0.0000   0.0000   0.2199
   1.300   0.1322   0.00689   0.00206   0.0029  0.4912  0.7684  -0.7053   0.0000   0.0000   0.0000   0.2212
   1.400   0.1430   0.00691   0.00208   0.0030  0.4862  0.7759  -0.7221   0.0000   0.0000   0.0000   0.2222
   1.500   0.1536   0.00694   0.00211   0.0032  0.4793  0.7827  -0.7389   0.0000   0.0000   0.0000   0.2228
   1.600   0.1640   0.00699   0.00213   0.0033  0.4700  0.7884  -0.7554   0.0000   0.0000   0.0000   0.2230
   1.700   0.1740   0.00706   0.00215   0.0036  0.4587  0.7928  -0.7718   0.0000   0.0000   0.0000   0.2228
   1.800   0.1838   0.00715   0.00217   0.0038  0.4464  0.7961  -0.7880   0.0000   0.0000   0.0000   0.2224
   1.900   0.1935   0.00724   0.00219   0.0041  0.4329  0.7984  -0.8042   0.0000   0.0000   0.0000   0.2220
   2.000   0.2036   0.00732   0.00220   0.0043  0.4180  0.8000  -0.8206   0.0000   0.0000   0.0000   0.2220
   2.100   0.2148   0.00736   0.00222   0.0043  0.4036  0.8108  -0.8381   0.0000   0.0000   0.0000   0.2234
   2.200   0.2261   0.00737   0.00225   0.0042  0.3983  0.8225  -0.8558   0.0000   0.0000   0.0000   0.2246
   2.300   0.2371   0.00739   0.00229   0.0043  0.3952  0.8335  -0.8770   0.0000   0.0000   0.0000   0.2252
   2.400   0.2479   0.00742   0.00233   0.0044  0.3914  0.8430  -0.8981   0.0000   0.0000   0.0000   0.2256
   2.500   0.2588   0.00745   0.00237   0.0045  0.3871  0.8513  -0.9238   0.0000   0.0000   0.0000   0.2260
   2.600   0.2697   0.00750   0.00242   0.0045  0.3820  0.8590  -0.9603   0.0000   0.0000   0.0000   0.2263
   2.700   0.2804   0.00756   0.00246   0.0047  0.3752  0.8667  -0.9967   0.0000   0.0000   0.0000   0.2265
   2.800   0.2907   0.00764   0.00251   0.0049  0.3668  0.8739  -1.0328   0.0000   0.0000   0.0000   0.2264
   2.900   0.3006   0.00773   0.00256   0.0051  0.3574  0.8804  -1.0686   0.0000   0.0000   0.0000   0.2261
   3.000   0.3103   0.00783   0.00261   0.0054  0.3473  0.8858  -1.1043   0.0000   0.0000   0.0000   0.2256
   3.100   0.3199   0.00792   0.00265   0.0057  0.3366  0.8901  -1.1400   0.0000   0.0000   0.0000   0.2252
   3.200   0.3296   0.00801   0.00268   0.0060  0.3250  0.8935  -1.1762   0.0000   0.0000   0.0000   0.2248
   3.300   0.3395   0.00808   0.00272   0.0062  0.3127  0.8960  -1.2130   0.0000   0.0000   0.0000   0.2245
   3.400   0.3496   0.00813   0.00275   0.0065  0.3024  0.8980  -1.2504   0.0000   0.0000   0.0000   0.2244
   3.500   0.3599   0.00818   0.00279   0.0066  0.2982  0.8995  -1.2885   0.0000   0.0000   0.0000   0.2244
   3.700   0.3835   0.00829   0.00288   0.0063  0.2894  0.9086  -1.3711   0.0000   0.0000   0.0000   0.2263
   3.800   0.3954   0.00839   0.00294   0.0061  0.2825  0.9131  -1.4130   0.0000   0.0000   0.0000   0.2272
   3.900   0.4070   0.00853   0.00302   0.0060  0.2740  0.9172  -1.4547   0.0000   0.0000   0.0000   0.2279
   4.000   0.4182   0.00870   0.00311   0.0059  0.2644  0.9209  -1.4960   0.0000   0.0000   0.0000   0.2285
   4.100   0.4295   0.00886   0.00321   0.0058  0.2535  0.9245  -1.5378   0.0000   0.0000   0.0000   0.2290
   4.200   0.4414   0.00895   0.00328   0.0056  0.2480  0.9279  -1.5811   0.0000   0.0000   0.0000   0.2297
   4.300   0.4532   0.00903   0.00334   0.0055  0.2438  0.9311  -1.6244   0.0000   0.0000   0.0000   0.2303
   4.400   0.4642   0.00913   0.00341   0.0055  0.2383  0.9343  -1.6667   0.0000   0.0000   0.0000   0.2305
   4.500   0.4746   0.00926   0.00349   0.0056  0.2313  0.9375  -1.7082   0.0000   0.0000   0.0000   0.2305
   4.600   0.4847   0.00940   0.00356   0.0058  0.2232  0.9405  -1.7493   0.0000   0.0000   0.0000   0.2303
   4.700   0.4945   0.00955   0.00365   0.0060  0.2141  0.9433  -1.7901   0.0000   0.0000   0.0000   0.2301
   4.800   0.5045   0.00967   0.00374   0.0062  0.2041  0.9460  -1.8314   0.0000   0.0000   0.0000   0.2298
   4.900   0.5146   0.00977   0.00382   0.0064  0.1987  0.9483  -1.8734   0.0000   0.0000   0.0000   0.2295
   5.000   0.5246   0.00986   0.00391   0.0067  0.1956  0.9501  -1.9156   0.0000   0.0000   0.0000   0.2292
   5.100   0.5394   0.00994   0.00396   0.0058  0.1904  0.9535  -1.9673   0.0000   0.0000   0.0000   0.2311
   5.200   0.5543   0.01005   0.00403   0.0049  0.1832  0.9560  -2.0197   0.0000   0.0000   0.0000   0.2330
   5.300   0.5690   0.01020   0.00411   0.0040  0.1743  0.9581  -2.0718   0.0000   0.0000   0.0000   0.2348
   5.400   0.5833   0.01036   0.00420   0.0032  0.1644  0.9600  -2.1236   0.0000   0.0000   0.0000   0.2363
   5.500   0.5976   0.01048   0.00429   0.0024  0.1537  0.9615  -2.1757   0.0000   0.0000   0.0000   0.2377
   5.600   0.6119   0.01057   0.00437   0.0017  0.1486  0.9628  -2.2283   0.0000   0.0000   0.0000   0.2390
   5.700   0.6261   0.01066   0.00445   0.0009  0.1455  0.9641  -2.2811   0.0000   0.0000   0.0000   0.2402
   5.800   0.6400   0.01077   0.00453   0.0002  0.1408  0.9654  -2.3336   0.0000   0.0000   0.0000   0.2412
   5.900   0.6536   0.01091   0.00462  -0.0004  0.1340  0.9668  -2.3857   0.0000   0.0000   0.0000   0.2422
   6.000   0.6669   0.01108   0.00472  -0.0011  0.1263  0.9682  -2.4373   0.0000   0.0000   0.0000   0.2430
   6.100   0.6799   0.01125   0.00481  -0.0016  0.1176  0.9697  -2.4887   0.0000   0.0000   0.0000   0.2438
   6.200   0.6931   0.01140   0.00492  -0.0022  0.1071  0.9712  -2.5402   0.0000   0.0000   0.0000   0.2445
   6.300   0.7065   0.01151   0.00501  -0.0028  0.0992  0.9727  -2.5925   0.0000   0.0000   0.0000   0.2452
   6.400   0.7194   0.01166   0.00512  -0.0033  0.0940  0.9743  -2.6440   0.0000   0.0000   0.0000   0.2458
   6.500   0.7311   0.01194   0.00528  -0.0037  0.0839  0.9761  -2.6924   0.0000   0.0000   0.0000   0.2461
   6.600   0.7427   0.01223   0.00544  -0.0041  0.0715  0.9780  -2.7393   0.0000   0.0000   0.0000   0.2464
   6.700   0.7529   0.01268   0.00572  -0.0043  0.0510  0.9800  -2.7804   0.0000   0.0000   0.0000   0.2465
   6.800   0.7639   0.01304   0.00596  -0.0044  0.0417  0.9820  -2.8079   0.0000   0.0000   0.0000   0.2466
   6.900   0.7763   0.01328   0.00617  -0.0048  0.0384  0.9838  -2.8411   0.0000   0.0000   0.0000   0.2468
   7.000   0.7893   0.01346   0.00636  -0.0052  0.0371  0.9856  -2.8828   0.0000   0.0000   0.0000   0.2472
   7.100   0.8025   0.01362   0.00655  -0.0057  0.0365  0.9873  -2.9279   0.0000   0.0000   0.0000   0.2476
   7.200   0.8157   0.01378   0.00674  -0.0063  0.0360  0.9889  -2.9747   0.0000   0.0000   0.0000   0.2481
   7.300   0.8289   0.01395   0.00693  -0.0068  0.0358  0.9905  -3.0224   0.0000   0.0000   0.0000   0.2485
   7.400   0.8419   0.01411   0.00712  -0.0072  0.0356  0.9919  -3.0704   0.0000   0.0000   0.0000   0.2488
   7.500   0.8546   0.01428   0.00731  -0.0077  0.0354  0.9932  -3.1185   0.0000   0.0000   0.0000   0.2491
   7.600   0.8671   0.01445   0.00750  -0.0081  0.0353  0.9944  -3.1665   0.0000   0.0000   0.0000   0.2493
   7.700   0.8792   0.01462   0.00770  -0.0084  0.0352  0.9954  -3.2142   0.0000   0.0000   0.0000   0.2495
   7.800   0.8912   0.01480   0.00790  -0.0087  0.0352  0.9963  -3.2618   0.0000   0.0000   0.0000   0.2496
   7.900   0.9030   0.01498   0.00811  -0.0090  0.0351  0.9972  -3.3094   0.0000   0.0000   0.0000   0.2496
   8.000   0.9142   0.01523   0.00861  -0.0092  0.0308  0.9980  -3.3890   0.0000   0.0000   0.0000   0.2496
   8.100   0.9256   0.01546   0.00887  -0.0094  0.0300  0.9987  -3.4391   0.0000   0.0000   0.0000   0.2496
   8.200   0.9369   0.01570   0.00914  -0.0096  0.0295  0.9993  -3.4877   0.0000   0.0000   0.0000   0.2496
   8.300   0.9480   0.01594   0.00942  -0.0098  0.0290  0.9998  -3.5355   0.0000   0.0000   0.0000   0.2496
   8.400   0.9540   0.01614   0.00965  -0.0089  0.0287  1.0000  -3.5715   0.0000   0.0000   0.0000   0.2485
   8.500   0.9577   0.01632   0.00986  -0.0077  0.0284  1.0000  -3.6023   0.0000   0.0000   0.0000   0.2470
   8.600   0.9617   0.01652   0.01008  -0.0064  0.0282  1.0000  -3.6338   0.0000   0.0000   0.0000   0.2456
   8.700   0.9658   0.01672   0.01032  -0.0052  0.0280  1.0000  -3.6655   0.0000   0.0000   0.0000   0.2442
   8.800   0.9699   0.01694   0.01056  -0.0040  0.0278  1.0000  -3.6969   0.0000   0.0000   0.0000   0.2427
   8.900   0.9739   0.01716   0.01081  -0.0027  0.0276  1.0000  -3.7280   0.0000   0.0000   0.0000   0.2413
   9.000   0.9776   0.01739   0.01108  -0.0014  0.0274  1.0000  -3.7586   0.0000   0.0000   0.0000   0.2399
   9.100   0.9812   0.01763   0.01135  -0.0001  0.0272  1.0000  -3.7887   0.0000   0.0000   0.0000   0.2384
   9.200   0.9846   0.01788   0.01162   0.0012  0.0271  1.0000  -3.8182   0.0000   0.0000   0.0000   0.2369
   9.300   0.9880   0.01814   0.01191   0.0025  0.0269  1.0000  -3.8474   0.0000   0.0000   0.0000   0.2354
   9.400   0.9912   0.01840   0.01221   0.0039  0.0268  1.0000  -3.8763   0.0000   0.0000   0.0000   0.2339
   9.500   0.9944   0.01868   0.01252   0.0052  0.0267  1.0000  -3.9050   0.0000   0.0000   0.0000   0.2325
   9.600   0.9976   0.01897   0.01284   0.0066  0.0265  1.0000  -3.9335   0.0000   0.0000   0.0000   0.2310
   9.700   1.0008   0.01928   0.01318   0.0079  0.0264  1.0000  -3.9617   0.0000   0.0000   0.0000   0.2296
   9.800   1.0039   0.01960   0.01353   0.0092  0.0263  1.0000  -3.9895   0.0000   0.0000   0.0000   0.2281
   9.900   1.0069   0.01993   0.01390   0.0105  0.0262  1.0000  -4.0168   0.0000   0.0000   0.0000   0.2267
  10.000   1.0100   0.02028   0.01429   0.0118  0.0260  1.0000  -4.0442   0.0000   0.0000   0.0000   0.2253
  10.100   1.0132   0.02065   0.01470   0.0130  0.0259  1.0000  -4.0715   0.0000   0.0000   0.0000   0.2240
  10.200   1.0166   0.02105   0.01513   0.0142  0.0258  1.0000  -4.0988   0.0000   0.0000   0.0000   0.2228
  10.300   1.0196   0.02147   0.01559   0.0154  0.0257  1.0000  -4.1248   0.0000   0.0000   0.0000   0.2215
  10.400   1.0220   0.02189   0.01605   0.0167  0.0256  1.0000  -4.1494   0.0000   0.0000   0.0000   0.2201
  10.500   1.0245   0.02234   0.01655   0.0179  0.0255  1.0000  -4.1735   0.0000   0.0000   0.0000   0.2188
  10.600   1.0271   0.02283   0.01708   0.0191  0.0254  1.0000  -4.1974   0.0000   0.0000   0.0000   0.2176
  10.700   1.0299   0.02335   0.01764   0.0202  0.0253  1.0000  -4.2209   0.0000   0.0000   0.0000   0.2164
  10.800   1.0327   0.02390   0.01825   0.0212  0.0252  1.0000  -4.2439   0.0000   0.0000   0.0000   0.2153
  10.900   1.0354   0.02449   0.01889   0.0223  0.0251  1.0000  -4.2660   0.0000   0.0000   0.0000   0.2142
  11.000   1.0380   0.02513   0.01958   0.0233  0.0250  1.0000  -4.2869   0.0000   0.0000   0.0000   0.2131
  11.100   1.0446   0.02525   0.01969   0.0238  0.0250  1.0000  -4.3399   0.0000   0.0000   0.0000   0.2126
  11.200   1.0513   0.02535   0.01978   0.0242  0.0249  1.0000  -4.3953   0.0000   0.0000   0.0000   0.2122
  11.300   1.0578   0.02546   0.01990   0.0247  0.0249  1.0000  -4.4491   0.0000   0.0000   0.0000   0.2117
  11.400   1.0641   0.02560   0.02003   0.0252  0.0249  1.0000  -4.5023   0.0000   0.0000   0.0000   0.2112
  11.500   1.0704   0.02574   0.02017   0.0257  0.0249  1.0000  -4.5556   0.0000   0.0000   0.0000   0.2108
  11.700   1.0759   0.02696   0.02156   0.0275  0.0260  1.0000  -4.5574   0.0000   0.0000   0.0000   0.2088
  11.800   1.0820   0.02718   0.02180   0.0280  0.0263  1.0000  -4.5993   0.0000   0.0000   0.0000   0.2084
  11.900   1.0851   0.02767   0.02232   0.0287  0.0263  1.0000  -4.6284   0.0000   0.0000   0.0000   0.2076
  12.000   1.0874   0.02825   0.02294   0.0295  0.0263  1.0000  -4.6535   0.0000   0.0000   0.0000   0.2068
  12.100   1.0896   0.02888   0.02361   0.0302  0.0263  1.0000  -4.6773   0.0000   0.0000   0.0000   0.2060
  12.200   1.0917   0.02955   0.02433   0.0309  0.0262  1.0000  -4.7003   0.0000   0.0000   0.0000   0.2052
  12.300   1.0937   0.03025   0.02508   0.0316  0.0261  1.0000  -4.7221   0.0000   0.0000   0.0000   0.2045
  12.400   1.0954   0.03100   0.02588   0.0322  0.0261  1.0000  -4.7425   0.0000   0.0000   0.0000   0.2038
  12.500   1.0969   0.03179   0.02673   0.0328  0.0260  1.0000  -4.7613   0.0000   0.0000   0.0000   0.2031
  12.600   1.0979   0.03263   0.02763   0.0335  0.0259  1.0000  -4.7783   0.0000   0.0000   0.0000   0.2023
  12.700   1.0984   0.03352   0.02858   0.0341  0.0258  1.0000  -4.7932   0.0000   0.0000   0.0000   0.2016
  12.800   1.0984   0.03447   0.02959   0.0347  0.0258  1.0000  -4.8058   0.0000   0.0000   0.0000   0.2009
  12.900   1.0976   0.03548   0.03067   0.0352  0.0257  1.0000  -4.8155   0.0000   0.0000   0.0000   0.2002
  13.000   1.0947   0.03662   0.03188   0.0357  0.0256  1.0000  -4.8194   0.0000   0.0000   0.0000   0.1994
  13.100   1.0916   0.03776   0.03309   0.0362  0.0256  1.0000  -4.8222   0.0000   0.0000   0.0000   0.1986
  13.200   1.0888   0.03893   0.03432   0.0367  0.0255  1.0000  -4.8247   0.0000   0.0000   0.0000   0.1979
  13.300   1.0860   0.04016   0.03563   0.0371  0.0254  1.0000  -4.8259   0.0000   0.0000   0.0000   0.1972
  13.400   1.0828   0.04147   0.03701   0.0374  0.0254  1.0000  -4.8254   0.0000   0.0000   0.0000   0.1966
  13.500   1.0791   0.04287   0.03848   0.0376  0.0253  1.0000  -4.8226   0.0000   0.0000   0.0000   0.1961
  13.600   1.0742   0.04441   0.04010   0.0376  0.0253  1.0000  -4.8157   0.0000   0.0000   0.0000   0.1956
  13.700   1.0680   0.04613   0.04189   0.0374  0.0252  1.0000  -4.8048   0.0000   0.0000   0.0000   0.1953
  13.800   1.0627   0.04784   0.04366   0.0373  0.0252  1.0000  -4.7950   0.0000   0.0000   0.0000   0.1951
  13.900   1.0574   0.04958   0.04548   0.0370  0.0252  1.0000  -4.7842   0.0000   0.0000   0.0000   0.1949
  14.000   1.0518   0.05139   0.04736   0.0367  0.0251  1.0000  -4.7716   0.0000   0.0000   0.0000   0.1947
  14.100   1.0456   0.05329   0.04934   0.0363  0.0251  1.0000  -4.7567   0.0000   0.0000   0.0000   0.1946
  14.200   1.0373   0.05554   0.05166   0.0354  0.0251  1.0000  -4.7356   0.0000   0.0000   0.0000   0.1950
  14.300   1.0300   0.05771   0.05389   0.0345  0.0251  1.0000  -4.7159   0.0000   0.0000   0.0000   0.1952
  14.400   1.0231   0.05984   0.05609   0.0338  0.0250  1.0000  -4.6963   0.0000   0.0000   0.0000   0.1955
  14.500   1.0161   0.06201   0.05833   0.0330  0.0250  1.0000  -4.6753   0.0000   0.0000   0.0000   0.1958
  14.600   1.0086   0.06428   0.06067   0.0321  0.0250  1.0000  -4.6523   0.0000   0.0000   0.0000   0.1962
  14.700   0.9990   0.06701   0.06346   0.0305  0.0250  1.0000  -4.6226   0.0000   0.0000   0.0000   0.1971
  14.800   0.9904   0.06957   0.06609   0.0291  0.0250  1.0000  -4.5943   0.0000   0.0000   0.0000   0.1979
  14.900   0.9825   0.07196   0.06853   0.0280  0.0250  1.0000  -4.5675   0.0000   0.0000   0.0000   0.1985
  15.000   0.9746   0.07440   0.07103   0.0269  0.0250  1.0000  -4.5396   0.0000   0.0000   0.0000   0.1992
  15.100   0.9666   0.07697   0.07366   0.0256  0.0250  1.0000  -4.5096   0.0000   0.0000   0.0000   0.2000
  15.200   0.9578   0.07984   0.07659   0.0240  0.0250  1.0000  -4.4757   0.0000   0.0000   0.0000   0.2011
  15.300   0.9472   0.08338   0.08018   0.0217  0.0251  1.0000  -4.4330   0.0000   0.0000   0.0000   0.2031
  15.400   0.9390   0.08631   0.08317   0.0201  0.0251  1.0000  -4.3973   0.0000   0.0000   0.0000   0.2043
  15.500   0.9312   0.08919   0.08610   0.0186  0.0251  1.0000  -4.3616   0.0000   0.0000   0.0000   0.2055
  15.600   0.9235   0.09214   0.08910   0.0170  0.0251  1.0000  -4.3240   0.0000   0.0000   0.0000   0.2067
  15.700   0.9153   0.09521   0.09222   0.0154  0.0251  1.0000  -4.2834   0.0000   0.0000   0.0000   0.2081
  15.800   0.9063   0.09859   0.09566   0.0134  0.0252  1.0000  -4.2367   0.0000   0.0000   0.0000   0.2099
  15.900   0.8959   0.10265   0.09977   0.0109  0.0252  1.0000  -4.1788   0.0000   0.0000   0.0000   0.2124
  16.000   0.8863   0.10638   0.10355   0.0087  0.0253  1.0000  -4.1231   0.0000   0.0000   0.0000   0.2145
  16.100   0.8751   0.11061   0.10782   0.0062  0.0254  1.0000  -4.0551   0.0000   0.0000   0.0000   0.2171
  16.200   0.8641   0.11486   0.11212   0.0037  0.0254  1.0000  -3.9833   0.0000   0.0000   0.0000   0.2197
  16.300   0.8532   0.11901   0.11632   0.0014  0.0255  1.0000  -3.9089   0.0000   0.0000   0.0000   0.2222
  16.400   0.8381   0.12438   0.12173  -0.0016  0.0257  1.0000  -3.8001   0.0000   0.0000   0.0000   0.2257
  16.500   0.8256   0.12899   0.12638  -0.0041  0.0258  1.0000  -3.7024   0.0000   0.0000   0.0000   0.2286
  16.600   0.8113   0.13410   0.13153  -0.0067  0.0259  1.0000  -3.5831   0.0000   0.0000   0.0000   0.2318
  16.700   0.9331   0.10908   0.10617   0.0068  0.0246  1.0000  -4.5416   0.0000   0.0000   0.0000   0.2156
  16.800   0.9361   0.11028   0.10738   0.0061  0.0246  1.0000  -4.5762   0.0000   0.0000   0.0000   0.2162
  16.900   0.9394   0.11142   0.10852   0.0054  0.0245  1.0000  -4.6126   0.0000   0.0000   0.0000   0.2168
  17.000   0.9420   0.11266   0.10976   0.0046  0.0245  1.0000  -4.6442   0.0000   0.0000   0.0000   0.2174
  17.100   0.9439   0.11402   0.11113   0.0038  0.0244  1.0000  -4.6703   0.0000   0.0000   0.0000   0.2180
  17.200   0.9453   0.11546   0.11257   0.0030  0.0244  1.0000  -4.6921   0.0000   0.0000   0.0000   0.2187
  17.300   0.9463   0.11695   0.11406   0.0022  0.0243  1.0000  -4.7115   0.0000   0.0000   0.0000   0.2194
  17.400   0.9473   0.11842   0.11555   0.0013  0.0243  1.0000  -4.7306   0.0000   0.0000   0.0000   0.2200
  17.500   0.9484   0.11986   0.11699   0.0005  0.0242  1.0000  -4.7511   0.0000   0.0000   0.0000   0.2207
  17.600   0.9498   0.12123   0.11837  -0.0002  0.0242  1.0000  -4.7737   0.0000   0.0000   0.0000   0.2213
  17.700   0.9516   0.12257   0.11971  -0.0010  0.0241  1.0000  -4.7983   0.0000   0.0000   0.0000   0.2219
  17.800   0.9539   0.12382   0.12097  -0.0017  0.0240  1.0000  -4.8276   0.0000   0.0000   0.0000   0.2224
  17.900   0.9578   0.12477   0.12191  -0.0023  0.0239  1.0000  -4.8700   0.0000   0.0000   0.0000   0.2228
  18.000   0.9622   0.12562   0.12275  -0.0028  0.0238  1.0000  -4.9165   0.0000   0.0000   0.0000   0.2231
  18.100   0.9664   0.12649   0.12362  -0.0033  0.0238  1.0000  -4.9619   0.0000   0.0000   0.0000   0.2234
  18.200   0.9703   0.12741   0.12453  -0.0039  0.0237  1.0000  -5.0045   0.0000   0.0000   0.0000   0.2237
  18.300   0.9737   0.12841   0.12553  -0.0044  0.0236  1.0000  -5.0435   0.0000   0.0000   0.0000   0.2241
  18.400   0.9765   0.12949   0.12661  -0.0051  0.0235  1.0000  -5.0783   0.0000   0.0000   0.0000   0.2245
  18.500   0.9789   0.13066   0.12778  -0.0057  0.0234  1.0000  -5.1088   0.0000   0.0000   0.0000   0.2249
  18.600   0.9807   0.13191   0.12903  -0.0064  0.0233  1.0000  -5.1349   0.0000   0.0000   0.0000   0.2254
  18.700   0.9823   0.13321   0.13033  -0.0072  0.0231  1.0000  -5.1583   0.0000   0.0000   0.0000   0.2259
  18.800   0.9837   0.13452   0.13165  -0.0079  0.0230  1.0000  -5.1806   0.0000   0.0000   0.0000   0.2265
  18.900   0.9857   0.13569   0.13282  -0.0086  0.0229  1.0000  -5.2087   0.0000   0.0000   0.0000   0.2269
  19.000   0.9882   0.13679   0.13392  -0.0092  0.0228  1.0000  -5.2396   0.0000   0.0000   0.0000   0.2273
  19.100   0.9909   0.13782   0.13494  -0.0098  0.0226  1.0000  -5.2734   0.0000   0.0000   0.0000   0.2276
  19.200   0.9940   0.13878   0.13590  -0.0104  0.0225  1.0000  -5.3100   0.0000   0.0000   0.0000   0.2279
  19.300   0.9973   0.13971   0.13682  -0.0109  0.0223  1.0000  -5.3485   0.0000   0.0000   0.0000   0.2282
  19.400   1.0012   0.14052   0.13763  -0.0114  0.0221  1.0000  -5.3919   0.0000   0.0000   0.0000   0.2284
  19.500   1.0057   0.14122   0.13832  -0.0118  0.0219  1.0000  -5.4403   0.0000   0.0000   0.0000   0.2285
  19.600   1.0106   0.14181   0.13890  -0.0122  0.0217  1.0000  -5.4934   0.0000   0.0000   0.0000   0.2286
  19.700   1.0161   0.14229   0.13936  -0.0125  0.0215  1.0000  -5.5512   0.0000   0.0000   0.0000   0.2286
  19.800   1.0221   0.14265   0.13971  -0.0128  0.0213  1.0000  -5.6143   0.0000   0.0000   0.0000   0.2285
  19.900   1.0289   0.14288   0.13992  -0.0129  0.0210  1.0000  -5.6837   0.0000   0.0000   0.0000   0.2283
  20.000   1.0367   0.14288   0.13990  -0.0130  0.0207  1.0000  -5.7632   0.0000   0.0000   0.0000   0.2280
  20.100   1.1836   0.11805   0.11416   0.0002  0.0161  1.0000  -7.1006   0.0000   0.0000   0.0000   0.2148
  20.200   1.1793   0.12024   0.11635  -0.0009  0.0159  1.0000  -7.0893   0.0000   0.0000   0.0000   0.2155
  20.300   1.1741   0.12257   0.11870  -0.0022  0.0157  1.0000  -7.0698   0.0000   0.0000   0.0000   0.2163
  20.400   1.1670   0.12525   0.12141  -0.0036  0.0155  1.0000  -7.0325   0.0000   0.0000   0.0000   0.2173
  20.600   0.8524   0.19515   0.19254  -0.0405  0.0191  1.0000  -3.7383   0.0000   0.0000   0.0000   0.2641
  20.700   0.8570   0.19575   0.19314  -0.0410  0.0188  1.0000  -3.7988   0.0000   0.0000   0.0000   0.2641
  20.800   0.8618   0.19631   0.19369  -0.0415  0.0185  1.0000  -3.8618   0.0000   0.0000   0.0000   0.2641
  20.900   0.8668   0.19678   0.19416  -0.0419  0.0182  1.0000  -3.9287   0.0000   0.0000   0.0000   0.2640
  21.000   0.8722   0.19713   0.19451  -0.0422  0.0180  1.0000  -4.0013   0.0000   0.0000   0.0000   0.2638
  21.100   0.8779   0.19740   0.19477  -0.0426  0.0177  1.0000  -4.0781   0.0000   0.0000   0.0000   0.2635
  21.200   0.8839   0.19759   0.19496  -0.0429  0.0175  1.0000  -4.1587   0.0000   0.0000   0.0000   0.2632
  21.300   0.8902   0.19770   0.19506  -0.0431  0.0173  1.0000  -4.2437   0.0000   0.0000   0.0000   0.2629
  21.400   0.8968   0.19772   0.19507  -0.0433  0.0170  1.0000  -4.3334   0.0000   0.0000   0.0000   0.2624
  21.500   0.9038   0.19765   0.19499  -0.0435  0.0169  1.0000  -4.4279   0.0000   0.0000   0.0000   0.2619
  21.600   0.9111   0.19747   0.19481  -0.0436  0.0167  1.0000  -4.5278   0.0000   0.0000   0.0000   0.2613
  21.700   0.9189   0.19718   0.19450  -0.0437  0.0165  1.0000  -4.6336   0.0000   0.0000   0.0000   0.2606
  21.800   0.9271   0.19677   0.19407  -0.0437  0.0163  1.0000  -4.7458   0.0000   0.0000   0.0000   0.2599
  21.900   0.9362   0.19613   0.19342  -0.0436  0.0161  1.0000  -4.8685   0.0000   0.0000   0.0000   0.2589
  22.000   0.9467   0.19510   0.19235  -0.0433  0.0159  1.0000  -5.0104   0.0000   0.0000   0.0000   0.2577
  22.100   0.9834   0.18721   0.18437  -0.0398  0.0158  1.0000  -5.4762   0.0000   0.0000   0.0000   0.2515
  22.200   0.9989   0.18507   0.18215  -0.0389  0.0155  1.0000  -5.6759   0.0000   0.0000   0.0000   0.2495
  22.300   1.0069   0.18480   0.18182  -0.0389  0.0151  1.0000  -5.7864   0.0000   0.0000   0.0000   0.2489
  22.400   1.0101   0.18570   0.18268  -0.0395  0.0146  1.0000  -5.8389   0.0000   0.0000   0.0000   0.2491
  22.500   1.0098   0.18746   0.18441  -0.0406  0.0140  1.0000  -5.8478   0.0000   0.0000   0.0000   0.2499
  22.600   1.0042   0.19054   0.18750  -0.0423  0.0132  1.0000  -5.7889   0.0000   0.0000   0.0000   0.2517
  22.700   0.9588   0.20460   0.20169  -0.0490  0.0125  1.0000  -5.2092   0.0000   0.0000   0.0000   0.2612
  22.800   0.9508   0.20877   0.20589  -0.0510  0.0124  1.0000  -5.1050   0.0000   0.0000   0.0000   0.2637


