xflr5 v6.61

 Calculated polar for: NACA 65-209

 1 1 Reynolds number fixed          Mach number fixed         

 xtrf =   1.000 (top)        1.000 (bottom)
 Mach =   0.000     Re =     0.500 e 6     Ncrit =   9.000

  alpha     CL        CD       CDp       Cm    Top Xtr Bot Xtr   Cpmin    Chinge    XCp    
 ------- -------- --------- --------- -------- ------- ------- -------- --------- ---------
 -10.000  -0.4483   0.09297   0.09045  -0.0347  1.0000  0.0146  -2.1714   0.0000   0.0000   0.0000   0.1665
  -9.900  -0.4466   0.09226   0.08975  -0.0342  1.0000  0.0149  -2.0887   0.0000   0.0000   0.0000   0.1675
  -9.800  -0.4462   0.09105   0.08854  -0.0344  1.0000  0.0151  -2.0693   0.0000   0.0000   0.0000   0.1670
  -9.700  -0.4465   0.08961   0.08711  -0.0349  1.0000  0.0152  -2.0749   0.0000   0.0000   0.0000   0.1661
  -9.600  -0.4469   0.08816   0.08567  -0.0354  1.0000  0.0152  -2.0817   0.0000   0.0000   0.0000   0.1652
  -9.500  -0.4475   0.08671   0.08423  -0.0359  1.0000  0.0153  -2.0897   0.0000   0.0000   0.0000   0.1642
  -9.400  -0.4482   0.08524   0.08277  -0.0364  1.0000  0.0154  -2.0992   0.0000   0.0000   0.0000   0.1632
  -9.300  -0.4491   0.08373   0.08128  -0.0370  1.0000  0.0154  -2.1105   0.0000   0.0000   0.0000   0.1622
  -8.700  -0.4604   0.07363   0.07124  -0.0426  1.0000  0.0157  -2.2457   0.0000   0.0000   0.0000   0.1528
  -8.600  -0.4651   0.07136   0.06897  -0.0447  1.0000  0.0156  -2.3040   0.0000   0.0000   0.0000   0.1493
  -8.500  -0.4709   0.06935   0.06695  -0.0464  1.0000  0.0156  -2.3594   0.0000   0.0000   0.0000   0.1471
  -8.400  -0.4777   0.06766   0.06525  -0.0474  1.0000  0.0156  -2.4077   0.0000   0.0000   0.0000   0.1465
  -8.300  -0.4852   0.06623   0.06381  -0.0478  1.0000  0.0155  -2.4509   0.0000   0.0000   0.0000   0.1474
  -8.200  -0.4938   0.06506   0.06263  -0.0475  1.0000  0.0155  -2.4899   0.0000   0.0000   0.0000   0.1497
  -8.100  -0.5035   0.06418   0.06174  -0.0465  1.0000  0.0155  -2.5259   0.0000   0.0000   0.0000   0.1537
  -8.000  -0.5141   0.06352   0.06108  -0.0448  1.0000  0.0154  -2.5586   0.0000   0.0000   0.0000   0.1589
  -7.900  -0.5232   0.06280   0.06034  -0.0432  1.0000  0.0154  -2.5849   0.0000   0.0000   0.0000   0.1638
  -7.800  -0.5299   0.06185   0.05938  -0.0420  1.0000  0.0154  -2.6041   0.0000   0.0000   0.0000   0.1672
  -7.700  -0.5367   0.06099   0.05851  -0.0406  1.0000  0.0155  -2.6215   0.0000   0.0000   0.0000   0.1708
  -7.600  -0.5436   0.06019   0.05770  -0.0391  1.0000  0.0155  -2.6372   0.0000   0.0000   0.0000   0.1746
  -7.500  -0.5499   0.05938   0.05687  -0.0376  1.0000  0.0155  -2.6503   0.0000   0.0000   0.0000   0.1781
  -7.400  -0.5471   0.05767   0.05511  -0.0385  0.9992  0.0156  -2.6439   0.0000   0.0000   0.0000   0.1762
  -7.300  -0.5435   0.05598   0.05337  -0.0394  0.9982  0.0157  -2.6339   0.0000   0.0000   0.0000   0.1743
  -7.200  -0.5394   0.05432   0.05165  -0.0401  0.9970  0.0159  -2.6205   0.0000   0.0000   0.0000   0.1723
  -7.100  -0.5347   0.05269   0.04996  -0.0409  0.9957  0.0161  -2.6040   0.0000   0.0000   0.0000   0.1703
  -7.000  -0.5295   0.05108   0.04829  -0.0416  0.9942  0.0162  -2.5847   0.0000   0.0000   0.0000   0.1683
  -6.900  -0.5240   0.04947   0.04662  -0.0422  0.9925  0.0165  -2.5638   0.0000   0.0000   0.0000   0.1662
  -6.800  -0.5185   0.04773   0.04480  -0.0429  0.9905  0.0167  -2.5490   0.0000   0.0000   0.0000   0.1642
  -6.700  -0.5120   0.04617   0.04316  -0.0435  0.9884  0.0169  -2.5263   0.0000   0.0000   0.0000   0.1620
  -6.600  -0.5051   0.04463   0.04154  -0.0440  0.9862  0.0172  -2.5023   0.0000   0.0000   0.0000   0.1597
  -6.500  -0.4976   0.04310   0.03993  -0.0446  0.9839  0.0175  -2.4772   0.0000   0.0000   0.0000   0.1574
  -6.400  -0.4895   0.04157   0.03832  -0.0451  0.9816  0.0179  -2.4511   0.0000   0.0000   0.0000   0.1549
  -6.300  -0.4809   0.04005   0.03671  -0.0456  0.9794  0.0183  -2.4241   0.0000   0.0000   0.0000   0.1522
  -5.800  -0.4322   0.03121   0.02708  -0.0470  0.9693  0.0218  -2.2943   0.0000   0.0000   0.0000   0.1381
  -5.300  -0.3781   0.01599   0.01015  -0.0454  0.9589  0.0160  -3.0530   0.0000   0.0000   0.0000   0.1263
  -5.200  -0.3644   0.01622   0.01044  -0.0463  0.9563  0.0173  -2.8469   0.0000   0.0000   0.0000   0.1192
  -5.100  -0.3510   0.01631   0.01057  -0.0471  0.9531  0.0184  -2.6652   0.0000   0.0000   0.0000   0.1122
  -5.000  -0.3392   0.01623   0.01048  -0.0475  0.9497  0.0194  -2.5138   0.0000   0.0000   0.0000   0.1064
  -4.900  -0.3291   0.01602   0.01025  -0.0474  0.9483  0.0201  -2.3850   0.0000   0.0000   0.0000   0.1026
  -4.800  -0.3190   0.01575   0.00996  -0.0472  0.9466  0.0206  -2.2622   0.0000   0.0000   0.0000   0.0986
  -4.700  -0.3089   0.01544   0.00963  -0.0471  0.9446  0.0211  -2.1434   0.0000   0.0000   0.0000   0.0942
  -4.600  -0.2986   0.01513   0.00929  -0.0469  0.9424  0.0215  -2.0861   0.0000   0.0000   0.0000   0.0894
  -4.500  -0.2882   0.01479   0.00893  -0.0468  0.9401  0.0218  -2.0387   0.0000   0.0000   0.0000   0.0841
  -4.400  -0.2779   0.01446   0.00857  -0.0467  0.9376  0.0221  -1.9938   0.0000   0.0000   0.0000   0.0785
  -4.300  -0.2674   0.01420   0.00829  -0.0466  0.9350  0.0225  -1.9414   0.0000   0.0000   0.0000   0.0722
  -4.200  -0.2566   0.01420   0.00829  -0.0467  0.9323  0.0234  -1.8638   0.0000   0.0000   0.0000   0.0648
  -4.100  -0.2457   0.01438   0.00849  -0.0467  0.9296  0.0244  -1.7742   0.0000   0.0000   0.0000   0.0566
  -4.000  -0.2344   0.01500   0.00914  -0.0469  0.9268  0.0254  -1.6583   0.0000   0.0000   0.0000   0.0468
  -3.300  -0.1013   0.00000  -0.00220  -0.0150  0.5785  0.0281  -0.5428   0.0000   0.0000   0.0000   0.1207
  -3.200  -0.0884   0.00000  -0.00219  -0.0151  0.5736  0.0278  -0.5017   0.0000   0.0000   0.0000   0.1007
  -3.100  -0.0780   0.00000  -0.00218  -0.0147  0.5701  0.0277  -0.4685   0.0000   0.0000   0.0000   0.0858
  -3.000  -0.0694   0.00000  -0.00217  -0.0140  0.5670  0.0278  -0.4409   0.0000   0.0000   0.0000   0.0749
  -2.900  -0.0631   0.00000  -0.00217  -0.0133  0.5642  0.0281  -0.4194   0.0000   0.0000   0.0000   0.0685
  -2.800  -0.0580   0.00000  -0.00217  -0.0125  0.5615  0.0286  -0.4019   0.0000   0.0000   0.0000   0.0649
  -2.700  -0.0540   0.00000  -0.00217  -0.0119  0.5590  0.0293  -0.3877   0.0000   0.0000   0.0000   0.0629
  -2.600  -0.0510   0.00000  -0.00217  -0.0113  0.5559  0.0303  -0.3769   0.0000   0.0000   0.0000   0.0631
  -2.500  -0.0366   0.00000  -0.00211  -0.0142  0.5403  0.0360  -0.3559   0.0000   0.0000   0.0000  -0.0923
  -2.400  -0.0313   0.00000  -0.00205  -0.0153  0.5266  0.0433  -0.3452   0.0000   0.0000   0.0000  -0.1867
  -2.300  -0.0288   0.00000  -0.00204  -0.0151  0.5207  0.0502  -0.3320   0.0000   0.0000   0.0000  -0.2187
  -2.200  -0.0527   0.00879   0.00223  -0.0434  0.8748  0.0480  -1.3271   0.0000   0.0000   0.0000  -0.5802
  -2.100  -0.0436   0.00821   0.00206  -0.0434  0.8716  0.1565  -1.2929   0.0000   0.0000   0.0000  -0.7520
  -2.000  -0.0356   0.00735   0.00185  -0.0435  0.8683  0.3437  -1.2505   0.0000   0.0000   0.0000  -0.9817
  -1.900  -0.0275   0.00663   0.00175  -0.0435  0.8649  0.5126  -1.2039   0.0000   0.0000   0.0000  -1.3427
  -1.800  -0.0181   0.00638   0.00177  -0.0433  0.8612  0.5930  -1.1519   0.0000   0.0000   0.0000  -2.1509
  -1.700  -0.0084   0.00626   0.00181  -0.0430  0.8571  0.6422  -1.0983   0.0000   0.0000   0.0000  -4.8998
  -1.600   0.0018   0.00621   0.00187  -0.0428  0.8523  0.6714  -1.0438   0.0000   0.0000   0.0000  24.6949
  -1.500   0.0123   0.00620   0.00191  -0.0427  0.8496  0.6920  -0.9886   0.0000   0.0000   0.0000   3.7488
  -1.400   0.0230   0.00618   0.00191  -0.0427  0.8482  0.7042  -0.9333   0.0000   0.0000   0.0000   2.1137
  -1.300   0.0332   0.00613   0.00192  -0.0424  0.8464  0.7180  -0.8799   0.0000   0.0000   0.0000   1.5354
  -1.200   0.0435   0.00611   0.00194  -0.0423  0.8443  0.7285  -0.8264   0.0000   0.0000   0.0000   1.2247
  -1.100   0.0541   0.00610   0.00195  -0.0421  0.8419  0.7378  -0.7731   0.0000   0.0000   0.0000   1.0318
  -1.000   0.0649   0.00611   0.00195  -0.0421  0.8392  0.7448  -0.7199   0.0000   0.0000   0.0000   0.9007
  -0.900   0.0757   0.00613   0.00195  -0.0420  0.8365  0.7505  -0.6673   0.0000   0.0000   0.0000   0.8067
  -0.800   0.0855   0.00608   0.00197  -0.0417  0.8337  0.7642  -0.6177   0.0000   0.0000   0.0000   0.7388
  -0.700   0.0951   0.00607   0.00202  -0.0413  0.8309  0.7756  -0.5689   0.0000   0.0000   0.0000   0.6847
  -0.600   0.1051   0.00609   0.00207  -0.0409  0.8280  0.7853  -0.5202   0.0000   0.0000   0.0000   0.6402
  -0.500   0.1153   0.00613   0.00210  -0.0407  0.8252  0.7926  -0.4715   0.0000   0.0000   0.0000   0.6032
  -0.400   0.1257   0.00617   0.00213  -0.0405  0.8223  0.7975  -0.4232   0.0000   0.0000   0.0000   0.5722
  -0.300   0.1363   0.00619   0.00214  -0.0403  0.8194  0.8018  -0.3755   0.0000   0.0000   0.0000   0.5462
  -0.200   0.1467   0.00616   0.00212  -0.0402  0.8162  0.8088  -0.3483   0.0000   0.0000   0.0000   0.5242
  -0.100   0.1570   0.00616   0.00212  -0.0401  0.8128  0.8138  -0.3526   0.0000   0.0000   0.0000   0.5050
   0.000   0.1675   0.00617   0.00213  -0.0400  0.8090  0.8175  -0.3570   0.0000   0.0000   0.0000   0.4883
   0.100   0.1782   0.00620   0.00216  -0.0399  0.8046  0.8207  -0.3614   0.0000   0.0000   0.0000   0.4737
   0.200   0.1891   0.00625   0.00221  -0.0400  0.8003  0.8237  -0.3657   0.0000   0.0000   0.0000   0.4609
   0.300   0.1998   0.00624   0.00222  -0.0399  0.7990  0.8268  -0.3704   0.0000   0.0000   0.0000   0.4492
   0.400   0.2105   0.00622   0.00221  -0.0398  0.7971  0.8297  -0.3755   0.0000   0.0000   0.0000   0.4387
   0.500   0.2211   0.00621   0.00220  -0.0398  0.7944  0.8326  -0.4146   0.0000   0.0000   0.0000   0.4292
   0.600   0.2318   0.00619   0.00218  -0.0397  0.7907  0.8354  -0.4661   0.0000   0.0000   0.0000   0.4204
   0.700   0.2423   0.00617   0.00216  -0.0395  0.7863  0.8382  -0.5184   0.0000   0.0000   0.0000   0.4124
   0.800   0.2529   0.00616   0.00214  -0.0394  0.7812  0.8408  -0.5717   0.0000   0.0000   0.0000   0.4050
   0.900   0.2634   0.00616   0.00211  -0.0393  0.7754  0.8433  -0.6256   0.0000   0.0000   0.0000   0.3982
   1.000   0.2737   0.00617   0.00208  -0.0390  0.7686  0.8456  -0.6801   0.0000   0.0000   0.0000   0.3917
   1.100   0.2838   0.00620   0.00205  -0.0388  0.7593  0.8476  -0.7350   0.0000   0.0000   0.0000   0.3857
   1.200   0.2943   0.00625   0.00206  -0.0387  0.7494  0.8493  -0.7914   0.0000   0.0000   0.0000   0.3803
   1.300   0.3048   0.00619   0.00201  -0.0385  0.7439  0.8539  -0.8487   0.0000   0.0000   0.0000   0.3753
   1.400   0.3149   0.00615   0.00198  -0.0383  0.7357  0.8592  -0.9058   0.0000   0.0000   0.0000   0.3705
   1.500   0.3246   0.00614   0.00195  -0.0380  0.7262  0.8636  -0.9627   0.0000   0.0000   0.0000   0.3657
   1.600   0.3342   0.00615   0.00193  -0.0376  0.7167  0.8674  -1.0199   0.0000   0.0000   0.0000   0.3612
   1.700   0.3437   0.00620   0.00193  -0.0372  0.7063  0.8709  -1.0774   0.0000   0.0000   0.0000   0.3569
   1.800   0.3536   0.00622   0.00195  -0.0370  0.6988  0.8743  -1.1368   0.0000   0.0000   0.0000   0.3531
   1.900   0.3639   0.00622   0.00196  -0.0368  0.6934  0.8776  -1.1976   0.0000   0.0000   0.0000   0.3496
   2.000   0.3740   0.00623   0.00198  -0.0366  0.6852  0.8809  -1.2587   0.0000   0.0000   0.0000   0.3463
   2.100   0.3838   0.00627   0.00198  -0.0363  0.6726  0.8841  -1.3196   0.0000   0.0000   0.0000   0.3430
   2.200   0.3930   0.00636   0.00197  -0.0359  0.6543  0.8872  -1.3791   0.0000   0.0000   0.0000   0.3396
   2.300   0.4030   0.00640   0.00199  -0.0356  0.6398  0.8901  -1.4413   0.0000   0.0000   0.0000   0.3368
   2.400   0.4119   0.00652   0.00198  -0.0352  0.6105  0.8929  -1.5008   0.0000   0.0000   0.0000   0.3337
   2.500   0.4204   0.00670   0.00199  -0.0347  0.5675  0.8955  -1.5587   0.0000   0.0000   0.0000   0.3307
   2.600   0.4271   0.00706   0.00204  -0.0340  0.4987  0.8978  -1.6112   0.0000   0.0000   0.0000   0.3277
   2.700   0.4321   0.00767   0.00219  -0.0331  0.3914  0.9001  -1.6572   0.0000   0.0000   0.0000   0.3247
   2.800   0.4364   0.00834   0.00239  -0.0323  0.2751  0.9071  -1.6990   0.0000   0.0000   0.0000   0.3219
   2.900   0.4399   0.00901   0.00261  -0.0312  0.1661  0.9131  -1.7366   0.0000   0.0000   0.0000   0.3188
   3.000   0.4430   0.00968   0.00285  -0.0300  0.0669  0.9187  -1.7685   0.0000   0.0000   0.0000   0.3155
   3.200   0.4567   0.01033   0.00347  -0.0280  0.0233  0.9283  -1.7198   0.0000   0.0000   0.0000   0.3091
   3.300   0.4650   0.01044   0.00362  -0.0274  0.0229  0.9327  -1.7589   0.0000   0.0000   0.0000   0.3067
   3.400   0.4733   0.01057   0.00378  -0.0269  0.0225  0.9370  -1.7962   0.0000   0.0000   0.0000   0.3044
   3.500   0.4816   0.01072   0.00396  -0.0263  0.0221  0.9410  -1.8323   0.0000   0.0000   0.0000   0.3022
   3.600   0.4898   0.01089   0.00417  -0.0257  0.0219  0.9446  -1.8673   0.0000   0.0000   0.0000   0.3000
   3.700   0.4977   0.01108   0.00439  -0.0251  0.0217  0.9476  -1.9011   0.0000   0.0000   0.0000   0.2979
   3.800   0.5056   0.01128   0.00463  -0.0244  0.0216  0.9503  -1.9342   0.0000   0.0000   0.0000   0.2958
   3.900   0.5168   0.01154   0.00493  -0.0246  0.0215  0.9567  -1.9722   0.0000   0.0000   0.0000   0.2950
   4.000   0.5280   0.01183   0.00526  -0.0248  0.0214  0.9631  -2.0095   0.0000   0.0000   0.0000   0.2943
   4.100   0.5395   0.01215   0.00562  -0.0251  0.0214  0.9690  -2.0462   0.0000   0.0000   0.0000   0.2937
   4.200   0.5511   0.01251   0.00602  -0.0253  0.0214  0.9742  -2.0819   0.0000   0.0000   0.0000   0.2931
   4.300   0.5626   0.01290   0.00645  -0.0255  0.0214  0.9791  -2.1164   0.0000   0.0000   0.0000   0.2925
   4.400   0.5741   0.01332   0.00692  -0.0257  0.0215  0.9838  -2.1496   0.0000   0.0000   0.0000   0.2919
   4.500   0.5856   0.01378   0.00741  -0.0259  0.0216  0.9888  -2.1812   0.0000   0.0000   0.0000   0.2912
   4.600   0.5970   0.01428   0.00795  -0.0261  0.0218  0.9942  -2.2113   0.0000   0.0000   0.0000   0.2906
   4.700   0.6081   0.01482   0.00852  -0.0262  0.0219  1.0000  -2.2390   0.0000   0.0000   0.0000   0.2899
   4.800   0.6170   0.01536   0.00909  -0.0258  0.0221  1.0000  -2.2620   0.0000   0.0000   0.0000   0.2887
   4.900   0.6264   0.01597   0.00972  -0.0256  0.0223  1.0000  -2.2836   0.0000   0.0000   0.0000   0.2875
   5.000   0.6362   0.01665   0.01045  -0.0254  0.0225  1.0000  -2.3027   0.0000   0.0000   0.0000   0.2865
   5.100   0.6463   0.01726   0.01109  -0.0253  0.0225  1.0000  -2.3319   0.0000   0.0000   0.0000   0.2857
   5.200   0.6565   0.01749   0.01133  -0.0252  0.0222  1.0000  -2.3935   0.0000   0.0000   0.0000   0.2849
   5.300   0.6667   0.01755   0.01139  -0.0252  0.0215  1.0000  -2.4718   0.0000   0.0000   0.0000   0.2843
   5.400   0.6769   0.01760   0.01143  -0.0253  0.0207  1.0000  -2.5557   0.0000   0.0000   0.0000   0.2837
   5.500   0.6870   0.01770   0.01153  -0.0253  0.0199  1.0000  -2.6377   0.0000   0.0000   0.0000   0.2831
   5.600   0.6971   0.01797   0.01182  -0.0252  0.0194  1.0000  -2.7047   0.0000   0.0000   0.0000   0.2824
   5.700   0.7072   0.01844   0.01232  -0.0251  0.0192  1.0000  -2.7532   0.0000   0.0000   0.0000   0.2817
   5.800   0.7172   0.01891   0.01282  -0.0251  0.0190  1.0000  -2.8036   0.0000   0.0000   0.0000   0.2810
   5.900   0.7272   0.01938   0.01332  -0.0250  0.0188  1.0000  -2.8565   0.0000   0.0000   0.0000   0.2803
   6.000   0.7372   0.01983   0.01380  -0.0249  0.0185  1.0000  -2.9128   0.0000   0.0000   0.0000   0.2796
   7.800   0.8060   0.05004   0.04680  -0.0040  0.0169  1.0000  -3.0144   0.0000   0.0000   0.0000   0.2500
   7.900   0.8079   0.05085   0.04766  -0.0032  0.0164  1.0000  -3.0549   0.0000   0.0000   0.0000   0.2489
   8.000   0.8089   0.05173   0.04859  -0.0024  0.0161  1.0000  -3.0887   0.0000   0.0000   0.0000   0.2477
   8.100   0.8091   0.05266   0.04956  -0.0014  0.0158  1.0000  -3.1173   0.0000   0.0000   0.0000   0.2465
   8.200   0.8086   0.05361   0.05055  -0.0004  0.0156  1.0000  -3.1414   0.0000   0.0000   0.0000   0.2452
   8.300   0.8074   0.05458   0.05157   0.0006  0.0154  1.0000  -3.1611   0.0000   0.0000   0.0000   0.2438
   8.400   0.8055   0.05556   0.05259   0.0017  0.0153  1.0000  -3.1768   0.0000   0.0000   0.0000   0.2424
   8.500   0.8028   0.05654   0.05362   0.0029  0.0151  1.0000  -3.1884   0.0000   0.0000   0.0000   0.2409
   8.600   0.7994   0.05752   0.05464   0.0041  0.0150  1.0000  -3.1957   0.0000   0.0000   0.0000   0.2393
   8.700   0.7946   0.05842   0.05558   0.0056  0.0150  1.0000  -3.1963   0.0000   0.0000   0.0000   0.2374
   8.800   0.7872   0.05917   0.05636   0.0075  0.0149  1.0000  -3.1867   0.0000   0.0000   0.0000   0.2348
   8.900   0.7795   0.05995   0.05717   0.0094  0.0149  1.0000  -3.1744   0.0000   0.0000   0.0000   0.2322
   9.000   0.7713   0.06078   0.05803   0.0111  0.0149  1.0000  -3.1582   0.0000   0.0000   0.0000   0.2298
   9.100   0.7632   0.06169   0.05898   0.0126  0.0149  1.0000  -3.1398   0.0000   0.0000   0.0000   0.2276
   9.200   0.7548   0.06268   0.06000   0.0139  0.0149  1.0000  -3.1172   0.0000   0.0000   0.0000   0.2256
   9.300   0.7463   0.06374   0.06109   0.0150  0.0149  1.0000  -3.0917   0.0000   0.0000   0.0000   0.2238
   9.400   0.7373   0.06488   0.06227   0.0158  0.0149  1.0000  -3.0605   0.0000   0.0000   0.0000   0.2223
   9.500   0.7283   0.06614   0.06356   0.0165  0.0150  1.0000  -3.0251   0.0000   0.0000   0.0000   0.2211
   9.600   0.7186   0.06754   0.06499   0.0169  0.0150  1.0000  -2.9821   0.0000   0.0000   0.0000   0.2201
   9.700   0.7086   0.06910   0.06659   0.0171  0.0151  1.0000  -2.9314   0.0000   0.0000   0.0000   0.2194
   9.800   0.6986   0.07086   0.06838   0.0169  0.0153  1.0000  -2.8741   0.0000   0.0000   0.0000   0.2192
   9.900   0.6883   0.07288   0.07044   0.0164  0.0154  1.0000  -2.8050   0.0000   0.0000   0.0000   0.2194
  10.000   0.6766   0.07530   0.07289   0.0155  0.0157  1.0000  -2.7150   0.0000   0.0000   0.0000   0.2203
  10.100   0.6647   0.07815   0.07577   0.0141  0.0161  1.0000  -2.6065   0.0000   0.0000   0.0000   0.2220
  10.200   0.6580   0.08042   0.07805   0.0127  0.0163  1.0000  -2.5474   0.0000   0.0000   0.0000   0.2237
  11.800   0.6263   0.11346   0.11099  -0.0051  0.0151  1.0000  -2.1256   0.0000   0.0000   0.0000   0.2501
  11.900   0.6264   0.11523   0.11276  -0.0059  0.0149  1.0000  -2.1188   0.0000   0.0000   0.0000   0.2512
  12.000   0.6268   0.11698   0.11451  -0.0067  0.0148  1.0000  -2.1138   0.0000   0.0000   0.0000   0.2524
  12.200   0.5938   0.09739   0.09581  -0.0843  0.0145  0.8504  -1.0665   0.0000   0.0000   0.0000   0.3888
  12.400   0.5961   0.10056   0.09897  -0.0848  0.0143  0.8576  -1.0684   0.0000   0.0000   0.0000   0.3889
  12.500   0.5964   0.10149   0.09990  -0.0846  0.0141  0.8601  -1.0810   0.0000   0.0000   0.0000   0.3883
  12.600   0.5966   0.10234   0.10074  -0.0843  0.0139  0.8623  -1.0941   0.0000   0.0000   0.0000   0.3878
  12.900   0.6353   0.13224   0.12973  -0.0135  0.0137  1.0000  -2.1312   0.0000   0.0000   0.0000   0.2621
  13.000   0.6371   0.13378   0.13127  -0.0141  0.0135  1.0000  -2.1474   0.0000   0.0000   0.0000   0.2630
  13.100   0.6390   0.13533   0.13281  -0.0148  0.0134  1.0000  -2.1639   0.0000   0.0000   0.0000   0.2638
  13.200   0.6410   0.13689   0.13437  -0.0154  0.0133  1.0000  -2.1806   0.0000   0.0000   0.0000   0.2646
  13.300   0.6430   0.13847   0.13595  -0.0161  0.0132  1.0000  -2.1974   0.0000   0.0000   0.0000   0.2654
  13.400   0.6449   0.14011   0.13759  -0.0167  0.0130  1.0000  -2.2097   0.0000   0.0000   0.0000   0.2663
  13.500   0.6462   0.14189   0.13936  -0.0175  0.0129  1.0000  -2.2087   0.0000   0.0000   0.0000   0.2673
  13.600   0.6475   0.14371   0.14118  -0.0183  0.0128  1.0000  -2.2054   0.0000   0.0000   0.0000   0.2684
  13.700   0.6487   0.14560   0.14307  -0.0191  0.0127  1.0000  -2.1986   0.0000   0.0000   0.0000   0.2695
  13.800   0.6498   0.14758   0.14504  -0.0199  0.0126  1.0000  -2.1863   0.0000   0.0000   0.0000   0.2706
  13.900   0.6505   0.14971   0.14717  -0.0208  0.0124  1.0000  -2.1647   0.0000   0.0000   0.0000   0.2718
  14.000   0.6507   0.15213   0.14959  -0.0217  0.0123  1.0000  -2.1255   0.0000   0.0000   0.0000   0.2732
  14.100   0.6491   0.15545   0.15291  -0.0230  0.0121  1.0000  -2.0315   0.0000   0.0000   0.0000   0.2751
  14.800   0.6560   0.17037   0.16778  -0.0295  0.0117  1.0000  -1.7688   0.0000   0.0000   0.0000   0.2843
  14.900   0.6579   0.17186   0.16927  -0.0303  0.0117  1.0000  -1.7601   0.0000   0.0000   0.0000   0.2853
  15.000   0.6599   0.17327   0.17067  -0.0312  0.0116  1.0000  -1.7539   0.0000   0.0000   0.0000   0.2863
  15.100   0.6621   0.17455   0.17196  -0.0319  0.0115  1.0000  -1.7514   0.0000   0.0000   0.0000   0.2872
  15.200   0.6646   0.17566   0.17306  -0.0327  0.0114  1.0000  -1.7548   0.0000   0.0000   0.0000   0.2881
  15.300   0.6675   0.17659   0.17398  -0.0334  0.0111  1.0000  -1.7637   0.0000   0.0000   0.0000   0.2889
  15.400   0.6695   0.17761   0.17500  -0.0342  0.0108  1.0000  -1.7561   0.0000   0.0000   0.0000   0.2898
  15.500   0.6711   0.17883   0.17623  -0.0351  0.0105  1.0000  -1.7344   0.0000   0.0000   0.0000   0.2909
  15.600   0.6732   0.18021   0.17760  -0.0360  0.0101  1.0000  -1.7143   0.0000   0.0000   0.0000   0.2919
  15.700   0.6755   0.18169   0.17908  -0.0367  0.0098  1.0000  -1.7001   0.0000   0.0000   0.0000   0.2928
  15.800   0.6778   0.18320   0.18059  -0.0375  0.0094  1.0000  -1.6930   0.0000   0.0000   0.0000   0.2936
  15.900   0.6803   0.18470   0.18209  -0.0382  0.0091  1.0000  -1.6923   0.0000   0.0000   0.0000   0.2944
  16.000   0.6827   0.18618   0.18356  -0.0389  0.0088  1.0000  -1.6973   0.0000   0.0000   0.0000   0.2951
  16.100   0.6853   0.18762   0.18500  -0.0396  0.0085  1.0000  -1.7077   0.0000   0.0000   0.0000   0.2958
  16.200   0.6878   0.18903   0.18641  -0.0403  0.0083  1.0000  -1.7236   0.0000   0.0000   0.0000   0.2965
  16.300   0.6905   0.19040   0.18778  -0.0410  0.0081  1.0000  -1.7456   0.0000   0.0000   0.0000   0.2971
  16.400   0.6932   0.19173   0.18911  -0.0416  0.0079  1.0000  -1.7744   0.0000   0.0000   0.0000   0.2977
  16.500   0.6961   0.19302   0.19039  -0.0423  0.0077  1.0000  -1.8113   0.0000   0.0000   0.0000   0.2982
  16.600   0.6992   0.19427   0.19164  -0.0429  0.0075  1.0000  -1.8586   0.0000   0.0000   0.0000   0.2986
  16.700   0.7027   0.19549   0.19286  -0.0434  0.0074  1.0000  -1.9209   0.0000   0.0000   0.0000   0.2989
  16.800   0.7072   0.19675   0.19412  -0.0437  0.0072  1.0000  -2.0131   0.0000   0.0000   0.0000   0.2988
  16.900   0.7086   0.20072   0.19808  -0.0444  0.0068  1.0000  -1.9352   0.0000   0.0000   0.0000   0.2996
  17.000   0.7105   0.20223   0.19958  -0.0452  0.0068  1.0000  -1.9170   0.0000   0.0000   0.0000   0.3004
  17.100   0.7125   0.20370   0.20106  -0.0460  0.0068  1.0000  -1.8996   0.0000   0.0000   0.0000   0.3012
  17.200   0.7144   0.20513   0.20248  -0.0467  0.0068  1.0000  -1.8827   0.0000   0.0000   0.0000   0.3020
  17.300   0.7163   0.20650   0.20385  -0.0475  0.0068  1.0000  -1.8651   0.0000   0.0000   0.0000   0.3028
  17.400   0.7181   0.20781   0.20515  -0.0483  0.0067  1.0000  -1.8453   0.0000   0.0000   0.0000   0.3037
  17.500   0.7190   0.20908   0.20643  -0.0492  0.0066  1.0000  -1.7984   0.0000   0.0000   0.0000   0.3048
  17.600   0.7205   0.21039   0.20774  -0.0502  0.0063  1.0000  -1.7280   0.0000   0.0000   0.0000   0.3059
  17.700   0.7231   0.21192   0.20926  -0.0509  0.0059  1.0000  -1.6866   0.0000   0.0000   0.0000   0.3066
  17.800   0.7258   0.21336   0.21070  -0.0516  0.0056  1.0000  -1.6859   0.0000   0.0000   0.0000   0.3071
  17.900   0.7284   0.21473   0.21207  -0.0522  0.0053  1.0000  -1.6976   0.0000   0.0000   0.0000   0.3077
  18.000   0.7311   0.21604   0.21338  -0.0529  0.0051  1.0000  -1.7175   0.0000   0.0000   0.0000   0.3082
  18.100   0.7338   0.21731   0.21465  -0.0536  0.0050  1.0000  -1.7445   0.0000   0.0000   0.0000   0.3087
  18.200   0.7366   0.21840   0.21576  -0.0542  0.0048  1.0000  -1.8087   0.0000   0.0000   0.0000   0.3091
  18.300   0.7394   0.21954   0.21690  -0.0548  0.0047  1.0000  -1.8631   0.0000   0.0000   0.0000   0.3095
  18.400   0.7424   0.22067   0.21802  -0.0554  0.0046  1.0000  -1.9283   0.0000   0.0000   0.0000   0.3098
  18.500   0.7460   0.22185   0.21919  -0.0559  0.0045  1.0000  -2.0188   0.0000   0.0000   0.0000   0.3099
  18.600   0.7494   0.22411   0.22144  -0.0563  0.0044  1.0000  -2.0406   0.0000   0.0000   0.0000   0.3099
  18.700   0.7515   0.22562   0.22295  -0.0570  0.0044  1.0000  -2.0173   0.0000   0.0000   0.0000   0.3106
  18.800   0.7537   0.22712   0.22444  -0.0577  0.0044  1.0000  -1.9952   0.0000   0.0000   0.0000   0.3112
  18.900   0.7558   0.22860   0.22593  -0.0584  0.0044  1.0000  -1.9743   0.0000   0.0000   0.0000   0.3118
  19.000   0.7580   0.23008   0.22741  -0.0591  0.0044  1.0000  -1.9526   0.0000   0.0000   0.0000   0.3124
  19.100   0.7600   0.23157   0.22889  -0.0598  0.0044  1.0000  -1.9251   0.0000   0.0000   0.0000   0.3130
  19.200   0.7620   0.23304   0.23036  -0.0605  0.0044  1.0000  -1.8978   0.0000   0.0000   0.0000   0.3136
  19.300   0.7641   0.23451   0.23182  -0.0612  0.0044  1.0000  -1.8724   0.0000   0.0000   0.0000   0.3142
  19.400   0.7662   0.23594   0.23325  -0.0619  0.0044  1.0000  -1.8488   0.0000   0.0000   0.0000   0.3148
  19.500   0.7684   0.23732   0.23463  -0.0626  0.0043  1.0000  -1.8269   0.0000   0.0000   0.0000   0.3153
  19.600   0.7706   0.23866   0.23597  -0.0632  0.0043  1.0000  -1.8065   0.0000   0.0000   0.0000   0.3158
  19.700   0.7728   0.23997   0.23728  -0.0639  0.0043  1.0000  -1.7875   0.0000   0.0000   0.0000   0.3163
  19.800   0.7751   0.24125   0.23856  -0.0645  0.0043  1.0000  -1.7698   0.0000   0.0000   0.0000   0.3167
  19.900   0.7774   0.24252   0.23983  -0.0652  0.0043  1.0000  -1.7532   0.0000   0.0000   0.0000   0.3172
  20.000   0.7798   0.24378   0.24109  -0.0658  0.0043  1.0000  -1.7376   0.0000   0.0000   0.0000   0.3176
  20.100   0.7821   0.24503   0.24234  -0.0664  0.0043  1.0000  -1.7230   0.0000   0.0000   0.0000   0.3180
  20.200   0.7845   0.24628   0.24359  -0.0670  0.0043  1.0000  -1.7093   0.0000   0.0000   0.0000   0.3184
  20.300   0.7868   0.24753   0.24484  -0.0676  0.0043  1.0000  -1.6964   0.0000   0.0000   0.0000   0.3188
  20.400   0.7892   0.24877   0.24608  -0.0682  0.0043  1.0000  -1.6843   0.0000   0.0000   0.0000   0.3192
  20.500   0.7916   0.25001   0.24732  -0.0688  0.0043  1.0000  -1.6729   0.0000   0.0000   0.0000   0.3196
  20.600   0.7941   0.25126   0.24856  -0.0695  0.0043  1.0000  -1.6621   0.0000   0.0000   0.0000   0.3199
  20.700   0.7965   0.25250   0.24981  -0.0701  0.0042  1.0000  -1.6520   0.0000   0.0000   0.0000   0.3203
  20.800   0.7989   0.25374   0.25105  -0.0707  0.0042  1.0000  -1.6425   0.0000   0.0000   0.0000   0.3206
  20.900   0.8014   0.25499   0.25230  -0.0713  0.0042  1.0000  -1.6337   0.0000   0.0000   0.0000   0.3210
  21.000   0.8038   0.25624   0.25354  -0.0719  0.0042  1.0000  -1.6253   0.0000   0.0000   0.0000   0.3214
  21.100   0.8062   0.25748   0.25479  -0.0725  0.0042  1.0000  -1.6175   0.0000   0.0000   0.0000   0.3217
  21.200   0.8087   0.25873   0.25604  -0.0731  0.0042  1.0000  -1.6100   0.0000   0.0000   0.0000   0.3220
  21.300   0.8111   0.25999   0.25729  -0.0737  0.0042  1.0000  -1.6030   0.0000   0.0000   0.0000   0.3224
  21.400   0.8136   0.26124   0.25855  -0.0743  0.0042  1.0000  -1.5964   0.0000   0.0000   0.0000   0.3227
  21.500   0.8160   0.26249   0.25980  -0.0749  0.0042  1.0000  -1.5902   0.0000   0.0000   0.0000   0.3230
  21.600   0.8185   0.26375   0.26106  -0.0755  0.0042  1.0000  -1.5843   0.0000   0.0000   0.0000   0.3234
  21.700   0.8209   0.26500   0.26231  -0.0761  0.0042  1.0000  -1.5788   0.0000   0.0000   0.0000   0.3237
  21.800   0.8233   0.26626   0.26357  -0.0767  0.0042  1.0000  -1.5736   0.0000   0.0000   0.0000   0.3240
  21.900   0.8258   0.26752   0.26483  -0.0774  0.0042  1.0000  -1.5686   0.0000   0.0000   0.0000   0.3243
  22.000   0.8282   0.26878   0.26609  -0.0780  0.0041  1.0000  -1.5639   0.0000   0.0000   0.0000   0.3246
  22.100   0.8306   0.27004   0.26735  -0.0786  0.0041  1.0000  -1.5595   0.0000   0.0000   0.0000   0.3249
  22.200   0.8330   0.27130   0.26861  -0.0792  0.0041  1.0000  -1.5553   0.0000   0.0000   0.0000   0.3253
  22.300   0.8354   0.27257   0.26988  -0.0798  0.0041  1.0000  -1.5514   0.0000   0.0000   0.0000   0.3256
  22.400   0.8378   0.27383   0.27114  -0.0804  0.0041  1.0000  -1.5476   0.0000   0.0000   0.0000   0.3259
  22.500   0.8402   0.27509   0.27241  -0.0810  0.0041  1.0000  -1.5441   0.0000   0.0000   0.0000   0.3262
  22.600   0.8426   0.27636   0.27367  -0.0816  0.0041  1.0000  -1.5407   0.0000   0.0000   0.0000   0.3265
  22.700   0.8450   0.27763   0.27494  -0.0822  0.0041  1.0000  -1.5376   0.0000   0.0000   0.0000   0.3268
  22.800   0.8474   0.27889   0.27621  -0.0828  0.0041  1.0000  -1.5345   0.0000   0.0000   0.0000   0.3271
  22.900   0.8498   0.28016   0.27747  -0.0835  0.0041  1.0000  -1.5317   0.0000   0.0000   0.0000   0.3274
  23.000   0.8521   0.28143   0.27874  -0.0841  0.0041  1.0000  -1.5290   0.0000   0.0000   0.0000   0.3276
  23.100   0.8545   0.28270   0.28001  -0.0847  0.0041  1.0000  -1.5264   0.0000   0.0000   0.0000   0.3279
  23.200   0.8568   0.28396   0.28128  -0.0853  0.0041  1.0000  -1.5240   0.0000   0.0000   0.0000   0.3282
  23.300   0.8592   0.28523   0.28255  -0.0859  0.0041  1.0000  -1.5216   0.0000   0.0000   0.0000   0.3285
  23.400   0.8615   0.28650   0.28382  -0.0865  0.0041  1.0000  -1.5194   0.0000   0.0000   0.0000   0.3288
  23.500   0.8638   0.28777   0.28510  -0.0871  0.0040  1.0000  -1.5174   0.0000   0.0000   0.0000   0.3291
  23.600   0.8661   0.28905   0.28637  -0.0878  0.0040  1.0000  -1.5154   0.0000   0.0000   0.0000   0.3294
  23.700   0.8684   0.29032   0.28764  -0.0884  0.0040  1.0000  -1.5135   0.0000   0.0000   0.0000   0.3296
  23.800   0.8707   0.29159   0.28891  -0.0890  0.0040  1.0000  -1.5117   0.0000   0.0000   0.0000   0.3299
  23.900   0.8730   0.29286   0.29019  -0.0896  0.0040  1.0000  -1.5100   0.0000   0.0000   0.0000   0.3302
  24.000   0.8753   0.29413   0.29146  -0.0902  0.0040  1.0000  -1.5084   0.0000   0.0000   0.0000   0.3304
  24.100   0.8776   0.29540   0.29273  -0.0908  0.0040  1.0000  -1.5069   0.0000   0.0000   0.0000   0.3307
  24.200   0.8798   0.29668   0.29401  -0.0915  0.0040  1.0000  -1.5055   0.0000   0.0000   0.0000   0.3310
  24.300   0.8821   0.29795   0.29528  -0.0921  0.0040  1.0000  -1.5041   0.0000   0.0000   0.0000   0.3313
  24.400   0.8843   0.29922   0.29655  -0.0927  0.0040  1.0000  -1.5028   0.0000   0.0000   0.0000   0.3315
  24.500   0.8866   0.30049   0.29783  -0.0933  0.0040  1.0000  -1.5016   0.0000   0.0000   0.0000   0.3318
  24.600   0.8888   0.30177   0.29910  -0.0939  0.0040  1.0000  -1.5005   0.0000   0.0000   0.0000   0.3320
  24.700   0.8910   0.30304   0.30038  -0.0946  0.0040  1.0000  -1.4994   0.0000   0.0000   0.0000   0.3323
  24.800   0.8932   0.30431   0.30165  -0.0952  0.0040  1.0000  -1.4983   0.0000   0.0000   0.0000   0.3326
  24.900   0.8954   0.30559   0.30293  -0.0958  0.0040  1.0000  -1.4974   0.0000   0.0000   0.0000   0.3328
  25.000   0.8976   0.30686   0.30420  -0.0964  0.0040  1.0000  -1.4964   0.0000   0.0000   0.0000   0.3331
  25.100   0.8998   0.30813   0.30547  -0.0970  0.0040  1.0000  -1.4956   0.0000   0.0000   0.0000   0.3333
  25.200   0.9019   0.30940   0.30680  -0.0977  0.0040  1.0000  -1.4953   0.0000   0.0000   0.0000   0.3336
  25.300   0.9041   0.31067   0.30807  -0.0983  0.0040  1.0000  -1.4946   0.0000   0.0000   0.0000   0.3338
  25.400   0.9062   0.31194   0.30935  -0.0989  0.0039  1.0000  -1.4940   0.0000   0.0000   0.0000   0.3341
  25.500   0.9084   0.31321   0.31062  -0.0995  0.0039  1.0000  -1.4934   0.0000   0.0000   0.0000   0.3343
  25.600   0.9105   0.31449   0.31189  -0.1001  0.0039  1.0000  -1.4928   0.0000   0.0000   0.0000   0.3346
  25.700   0.9126   0.31576   0.31317  -0.1008  0.0039  1.0000  -1.4923   0.0000   0.0000   0.0000   0.3348
  25.800   0.9147   0.31703   0.31444  -0.1014  0.0039  1.0000  -1.4918   0.0000   0.0000   0.0000   0.3351
  25.900   0.9168   0.31830   0.31571  -0.1020  0.0039  1.0000  -1.4913   0.0000   0.0000   0.0000   0.3353
  26.000   0.9189   0.31957   0.31699  -0.1026  0.0039  1.0000  -1.4909   0.0000   0.0000   0.0000   0.3355
  26.100   0.9209   0.32084   0.31826  -0.1033  0.0039  1.0000  -1.4905   0.0000   0.0000   0.0000   0.3358
  26.200   0.9230   0.32211   0.31953  -0.1039  0.0039  1.0000  -1.4901   0.0000   0.0000   0.0000   0.3360
  26.300   0.9250   0.32338   0.32081  -0.1045  0.0039  1.0000  -1.4898   0.0000   0.0000   0.0000   0.3362
  26.400   0.9271   0.32465   0.32208  -0.1051  0.0039  1.0000  -1.4895   0.0000   0.0000   0.0000   0.3365
  26.500   0.9291   0.32592   0.32335  -0.1057  0.0039  1.0000  -1.4892   0.0000   0.0000   0.0000   0.3367
  26.600   0.9311   0.32719   0.32462  -0.1064  0.0039  1.0000  -1.4889   0.0000   0.0000   0.0000   0.3369
  26.700   0.9331   0.32846   0.32589  -0.1070  0.0039  1.0000  -1.4887   0.0000   0.0000   0.0000   0.3372
  26.800   0.9351   0.32973   0.32716  -0.1076  0.0039  1.0000  -1.4885   0.0000   0.0000   0.0000   0.3374
  26.900   0.9371   0.33099   0.32843  -0.1082  0.0039  1.0000  -1.4884   0.0000   0.0000   0.0000   0.3376
  27.000   0.9390   0.33226   0.32970  -0.1089  0.0039  1.0000  -1.4882   0.0000   0.0000   0.0000   0.3379
  27.100   0.9410   0.33353   0.33097  -0.1095  0.0039  1.0000  -1.4881   0.0000   0.0000   0.0000   0.3381
  27.200   0.9429   0.33479   0.33224  -0.1101  0.0039  1.0000  -1.4880   0.0000   0.0000   0.0000   0.3383
  27.300   0.9449   0.33606   0.33350  -0.1107  0.0039  1.0000  -1.4880   0.0000   0.0000   0.0000   0.3385
  27.400   0.9468   0.33732   0.33477  -0.1114  0.0039  1.0000  -1.4879   0.0000   0.0000   0.0000   0.3388
  27.500   0.9487   0.33859   0.33604  -0.1120  0.0039  1.0000  -1.4879   0.0000   0.0000   0.0000   0.3390
  27.600   0.9506   0.33985   0.33730  -0.1126  0.0039  1.0000  -1.4879   0.0000   0.0000   0.0000   0.3392
  27.700   0.9525   0.34111   0.33857  -0.1132  0.0038  1.0000  -1.4879   0.0000   0.0000   0.0000   0.3394
  27.800   0.9543   0.34237   0.33983  -0.1139  0.0038  1.0000  -1.4880   0.0000   0.0000   0.0000   0.3396
  27.900   0.9562   0.34363   0.34110  -0.1145  0.0038  1.0000  -1.4880   0.0000   0.0000   0.0000   0.3398
  28.000   0.9580   0.34489   0.34236  -0.1151  0.0038  1.0000  -1.4881   0.0000   0.0000   0.0000   0.3401
  28.100   0.9599   0.34615   0.34362  -0.1158  0.0038  1.0000  -1.4882   0.0000   0.0000   0.0000   0.3403
  28.200   0.9617   0.34741   0.34488  -0.1164  0.0038  1.0000  -1.4884   0.0000   0.0000   0.0000   0.3405
  28.300   0.9635   0.34867   0.34614  -0.1170  0.0038  1.0000  -1.4885   0.0000   0.0000   0.0000   0.3407
  28.400   0.9653   0.34993   0.34740  -0.1176  0.0038  1.0000  -1.4887   0.0000   0.0000   0.0000   0.3409
  28.500   0.9671   0.35118   0.34866  -0.1183  0.0038  1.0000  -1.4888   0.0000   0.0000   0.0000   0.3411
  28.600   0.9688   0.35244   0.34992  -0.1189  0.0038  1.0000  -1.4890   0.0000   0.0000   0.0000   0.3413
  28.700   0.9706   0.35369   0.35118  -0.1195  0.0038  1.0000  -1.4892   0.0000   0.0000   0.0000   0.3415
  28.800   0.9723   0.35494   0.35243  -0.1201  0.0038  1.0000  -1.4894   0.0000   0.0000   0.0000   0.3417
  28.900   0.9741   0.35619   0.35369  -0.1208  0.0038  1.0000  -1.4897   0.0000   0.0000   0.0000   0.3420
  29.000   0.9758   0.35745   0.35494  -0.1214  0.0038  1.0000  -1.4899   0.0000   0.0000   0.0000   0.3422
  29.100   0.9775   0.35870   0.35619  -0.1220  0.0038  1.0000  -1.4902   0.0000   0.0000   0.0000   0.3424
  29.200   0.9792   0.35994   0.35745  -0.1227  0.0038  1.0000  -1.4904   0.0000   0.0000   0.0000   0.3426
  29.300   0.9808   0.36119   0.35870  -0.1233  0.0038  1.0000  -1.4908   0.0000   0.0000   0.0000   0.3428
  29.400   0.9825   0.36244   0.35995  -0.1239  0.0038  1.0000  -1.4913   0.0000   0.0000   0.0000   0.3430
  29.500   0.9842   0.36368   0.36119  -0.1245  0.0038  1.0000  -1.4918   0.0000   0.0000   0.0000   0.3432
  29.600   0.9858   0.36493   0.36244  -0.1252  0.0038  1.0000  -1.4923   0.0000   0.0000   0.0000   0.3434
  29.700   0.9874   0.36617   0.36369  -0.1258  0.0038  1.0000  -1.4928   0.0000   0.0000   0.0000   0.3436
  29.800   0.9890   0.36741   0.36493  -0.1264  0.0038  1.0000  -1.4933   0.0000   0.0000   0.0000   0.3438
  29.900   0.9906   0.36865   0.36618  -0.1270  0.0038  1.0000  -1.4938   0.0000   0.0000   0.0000   0.3440
  30.000   0.9922   0.36989   0.36742  -0.1277  0.0038  1.0000  -1.4943   0.0000   0.0000   0.0000   0.3442


