xflr5 v6.61

 Calculated polar for: NACA 65-209

 1 1 Reynolds number fixed          Mach number fixed         

 xtrf =   1.000 (top)        1.000 (bottom)
 Mach =   0.000     Re =     0.160 e 6     Ncrit =   9.000

  alpha     CL        CD       CDp       Cm    Top Xtr Bot Xtr   Cpmin    Chinge    XCp    
 ------- -------- --------- --------- -------- ------- ------- -------- --------- ---------
 -10.000  -0.4211   0.10150   0.09707  -0.0326  1.0000  0.0424  -1.4119   0.0000   0.0000   0.0000   0.1667
  -9.900  -0.4214   0.10013   0.09572  -0.0331  1.0000  0.0429  -1.4222   0.0000   0.0000   0.0000   0.1658
  -9.800  -0.4218   0.09876   0.09436  -0.0335  1.0000  0.0433  -1.4331   0.0000   0.0000   0.0000   0.1649
  -9.700  -0.4222   0.09739   0.09300  -0.0340  1.0000  0.0437  -1.4449   0.0000   0.0000   0.0000   0.1639
  -9.600  -0.4228   0.09601   0.09164  -0.0345  1.0000  0.0442  -1.4576   0.0000   0.0000   0.0000   0.1629
  -9.500  -0.4235   0.09463   0.09028  -0.0351  1.0000  0.0446  -1.4713   0.0000   0.0000   0.0000   0.1618
  -9.400  -0.4244   0.09325   0.08892  -0.0357  1.0000  0.0450  -1.4862   0.0000   0.0000   0.0000   0.1608
  -9.300  -0.4255   0.09187   0.08755  -0.0363  1.0000  0.0454  -1.5022   0.0000   0.0000   0.0000   0.1596
  -9.200  -0.4267   0.09049   0.08619  -0.0369  1.0000  0.0458  -1.5194   0.0000   0.0000   0.0000   0.1585
  -9.100  -0.4281   0.08909   0.08482  -0.0376  1.0000  0.0462  -1.5380   0.0000   0.0000   0.0000   0.1572
  -9.000  -0.4297   0.08768   0.08342  -0.0383  1.0000  0.0465  -1.5581   0.0000   0.0000   0.0000   0.1559
  -8.900  -0.4313   0.08626   0.08202  -0.0391  1.0000  0.0469  -1.5785   0.0000   0.0000   0.0000   0.1545
  -8.800  -0.4332   0.08483   0.08060  -0.0400  1.0000  0.0472  -1.6004   0.0000   0.0000   0.0000   0.1530
  -8.700  -0.4354   0.08336   0.07916  -0.0409  1.0000  0.0475  -1.6238   0.0000   0.0000   0.0000   0.1514
  -8.600  -0.4380   0.08186   0.07767  -0.0420  1.0000  0.0477  -1.6488   0.0000   0.0000   0.0000   0.1498
  -8.500  -0.4411   0.08029   0.07612  -0.0431  1.0000  0.0478  -1.6752   0.0000   0.0000   0.0000   0.1481
  -8.400  -0.4449   0.07870   0.07454  -0.0442  1.0000  0.0479  -1.7025   0.0000   0.0000   0.0000   0.1465
  -8.300  -0.4493   0.07721   0.07306  -0.0451  1.0000  0.0479  -1.7287   0.0000   0.0000   0.0000   0.1456
  -8.200  -0.4545   0.07586   0.07171  -0.0456  1.0000  0.0479  -1.7530   0.0000   0.0000   0.0000   0.1457
  -8.100  -0.4603   0.07463   0.07049  -0.0458  1.0000  0.0479  -1.7757   0.0000   0.0000   0.0000   0.1466
  -8.000  -0.4668   0.07354   0.06940  -0.0457  1.0000  0.0478  -1.7969   0.0000   0.0000   0.0000   0.1485
  -7.900  -0.4740   0.07258   0.06844  -0.0451  1.0000  0.0478  -1.8166   0.0000   0.0000   0.0000   0.1513
  -7.800  -0.4816   0.07173   0.06760  -0.0442  1.0000  0.0478  -1.8350   0.0000   0.0000   0.0000   0.1548
  -7.700  -0.4890   0.07092   0.06679  -0.0431  1.0000  0.0478  -1.8527   0.0000   0.0000   0.0000   0.1585
  -7.600  -0.4949   0.06999   0.06585  -0.0424  1.0000  0.0479  -1.8710   0.0000   0.0000   0.0000   0.1611
  -7.500  -0.5003   0.06912   0.06495  -0.0416  1.0000  0.0481  -1.8890   0.0000   0.0000   0.0000   0.1636
  -7.400  -0.5054   0.06832   0.06413  -0.0408  1.0000  0.0484  -1.9064   0.0000   0.0000   0.0000   0.1661
  -7.300  -0.5092   0.06773   0.06351  -0.0399  1.0000  0.0488  -1.9180   0.0000   0.0000   0.0000   0.1685
  -7.200  -0.5124   0.06738   0.06311  -0.0389  1.0000  0.0493  -1.9257   0.0000   0.0000   0.0000   0.1711
  -7.100  -0.5152   0.06711   0.06279  -0.0378  1.0000  0.0498  -1.9306   0.0000   0.0000   0.0000   0.1737
  -7.000  -0.5182   0.06671   0.06234  -0.0366  1.0000  0.0501  -1.9347   0.0000   0.0000   0.0000   0.1765
  -6.900  -0.5212   0.06618   0.06176  -0.0354  1.0000  0.0503  -1.9383   0.0000   0.0000   0.0000   0.1792
  -6.800  -0.5240   0.06555   0.06109  -0.0342  1.0000  0.0504  -1.9415   0.0000   0.0000   0.0000   0.1819
  -6.700  -0.5266   0.06485   0.06033  -0.0330  1.0000  0.0505  -1.9441   0.0000   0.0000   0.0000   0.1846
  -6.600  -0.5289   0.06408   0.05951  -0.0318  1.0000  0.0506  -1.9462   0.0000   0.0000   0.0000   0.1872
  -6.500  -0.5310   0.06325   0.05863  -0.0306  1.0000  0.0507  -1.9477   0.0000   0.0000   0.0000   0.1897
  -6.400  -0.5328   0.06236   0.05769  -0.0294  1.0000  0.0508  -1.9486   0.0000   0.0000   0.0000   0.1922
  -6.300  -0.5343   0.06142   0.05669  -0.0282  1.0000  0.0508  -1.9490   0.0000   0.0000   0.0000   0.1946
  -6.200  -0.5357   0.06042   0.05563  -0.0271  1.0000  0.0509  -1.9490   0.0000   0.0000   0.0000   0.1969
  -6.100  -0.5369   0.05935   0.05449  -0.0259  1.0000  0.0509  -1.9486   0.0000   0.0000   0.0000   0.1992
  -6.000  -0.5382   0.05807   0.05320  -0.0248  1.0000  0.0510  -1.9521   0.0000   0.0000   0.0000   0.2014
  -5.900  -0.5479   0.05390   0.04894  -0.0245  1.0000  0.0520  -2.0462   0.0000   0.0000   0.0000   0.2029
  -5.800  -0.5528   0.05085   0.04584  -0.0239  1.0000  0.0529  -2.0802   0.0000   0.0000   0.0000   0.2043
  -5.700  -0.5548   0.04866   0.04363  -0.0231  1.0000  0.0538  -2.0782   0.0000   0.0000   0.0000   0.2059
  -5.600  -0.5548   0.04685   0.04182  -0.0223  1.0000  0.0548  -2.0533   0.0000   0.0000   0.0000   0.2074
  -5.500  -0.5541   0.04508   0.04006  -0.0214  1.0000  0.0560  -2.0168   0.0000   0.0000   0.0000   0.2091
  -5.400  -0.5543   0.04263   0.03733  -0.0201  1.0000  0.0578  -1.9895   0.0000   0.0000   0.0000   0.2114
  -5.300  -0.5517   0.04163   0.03630  -0.0193  1.0000  0.0589  -1.9634   0.0000   0.0000   0.0000   0.2128
  -5.200  -0.5460   0.04050   0.03511  -0.0190  0.9995  0.0604  -1.9336   0.0000   0.0000   0.0000   0.2131
  -5.100  -0.5355   0.03915   0.03366  -0.0195  0.9982  0.0626  -1.8995   0.0000   0.0000   0.0000   0.2114
  -5.000  -0.5245   0.03785   0.03222  -0.0199  0.9967  0.0653  -1.8725   0.0000   0.0000   0.0000   0.2098
  -4.800  -0.4978   0.03250   0.02614  -0.0193  0.9936  0.0433  -2.0989   0.0000   0.0000   0.0000   0.2089
  -4.700  -0.4866   0.02950   0.02278  -0.0190  0.9919  0.0374  -2.2224   0.0000   0.0000   0.0000   0.2086
  -4.600  -0.4740   0.02729   0.02021  -0.0187  0.9900  0.0360  -2.3180   0.0000   0.0000   0.0000   0.2081
  -4.500  -0.4612   0.02618   0.01895  -0.0189  0.9879  0.0384  -2.2983   0.0000   0.0000   0.0000   0.2065
  -4.400  -0.4478   0.02542   0.01807  -0.0194  0.9856  0.0410  -2.2338   0.0000   0.0000   0.0000   0.2043
  -4.300  -0.4342   0.02473   0.01727  -0.0199  0.9832  0.0428  -2.1525   0.0000   0.0000   0.0000   0.2019
  -4.200  -0.4204   0.02413   0.01656  -0.0204  0.9808  0.0442  -2.0579   0.0000   0.0000   0.0000   0.1990
  -4.100  -0.4020   0.02651   0.01896  -0.0217  0.9775  0.0509  -1.8214   0.0000   0.0000   0.0000   0.1938
  -4.000  -0.3916   0.02386   0.01609  -0.0221  0.9755  0.0530  -1.8025   0.0000   0.0000   0.0000   0.1913
  -3.900  -0.3782   0.02289   0.01502  -0.0227  0.9733  0.0536  -1.7538   0.0000   0.0000   0.0000   0.1877
  -3.800  -0.3629   0.02274   0.01482  -0.0234  0.9710  0.0525  -1.7153   0.0000   0.0000   0.0000   0.1832
  -3.500  -0.3193   0.02123   0.01315  -0.0254  0.9651  0.0503  -1.6363   0.0000   0.0000   0.0000   0.1682
  -3.400  -0.3051   0.02044   0.01229  -0.0260  0.9634  0.0500  -1.6245   0.0000   0.0000   0.0000   0.1624
  -3.300  -0.2906   0.01979   0.01159  -0.0267  0.9618  0.0498  -1.6080   0.0000   0.0000   0.0000   0.1558
  -3.200  -0.2758   0.01923   0.01099  -0.0274  0.9602  0.0497  -1.5891   0.0000   0.0000   0.0000   0.1481
  -3.100  -0.2608   0.01873   0.01047  -0.0282  0.9587  0.0497  -1.5683   0.0000   0.0000   0.0000   0.1393
  -3.000  -0.2456   0.01830   0.01001  -0.0291  0.9572  0.0499  -1.5462   0.0000   0.0000   0.0000   0.1290
  -2.900  -0.2302   0.01791   0.00960  -0.0300  0.9557  0.0501  -1.5225   0.0000   0.0000   0.0000   0.1171
  -2.800  -0.2147   0.01759   0.00926  -0.0310  0.9543  0.0505  -1.4973   0.0000   0.0000   0.0000   0.1031
  -2.700  -0.1992   0.01730   0.00897  -0.0320  0.9529  0.0511  -1.4730   0.0000   0.0000   0.0000   0.0867
  -2.600  -0.1849   0.01674   0.00836  -0.0328  0.9514  0.0532  -1.4743   0.0000   0.0000   0.0000   0.0697
  -2.500  -0.1730   0.01636   0.00793  -0.0332  0.9495  0.0565  -1.4720   0.0000   0.0000   0.0000   0.0554
  -2.400  -0.1676   0.01600   0.00754  -0.0321  0.9467  0.0598  -1.4668   0.0000   0.0000   0.0000   0.0555
  -2.300  -0.1610   0.01571   0.00725  -0.0314  0.9436  0.0652  -1.4533   0.0000   0.0000   0.0000   0.0524
  -2.200  -0.1529   0.01548   0.00700  -0.0309  0.9405  0.0734  -1.4374   0.0000   0.0000   0.0000   0.0452
  -2.100  -0.1448   0.01491   0.00664  -0.0305  0.9375  0.1157  -1.4557   0.0000   0.0000   0.0000   0.0366
  -2.000  -0.1512   0.01267   0.00674  -0.0280  0.9338  0.6396  -1.4777   0.0000   0.0000   0.0000   0.0620
  -1.900  -0.1494   0.01267   0.00712  -0.0251  0.9301  0.7426  -1.4673   0.0000   0.0000   0.0000   0.0797
  -1.800  -0.1463   0.01286   0.00747  -0.0224  0.9265  0.7877  -1.4380   0.0000   0.0000   0.0000   0.0946
  -1.700  -0.1413   0.01307   0.00775  -0.0202  0.9232  0.8147  -1.3999   0.0000   0.0000   0.0000   0.1046
  -1.600  -0.1348   0.01331   0.00801  -0.0185  0.9203  0.8339  -1.3556   0.0000   0.0000   0.0000   0.1106
  -1.500  -0.1255   0.01351   0.00817  -0.0176  0.9178  0.8487  -1.3039   0.0000   0.0000   0.0000   0.1074
  -1.400  -0.1164   0.01365   0.00833  -0.0165  0.9154  0.8612  -1.2509   0.0000   0.0000   0.0000   0.1061
  -1.300  -0.1053   0.01386   0.00852  -0.0158  0.9133  0.8708  -1.1926   0.0000   0.0000   0.0000   0.0972
  -1.200  -0.0938   0.01416   0.00881  -0.0151  0.9114  0.8841  -1.1323   0.0000   0.0000   0.0000   0.0868
  -1.100  -0.0823   0.01449   0.00912  -0.0143  0.9094  0.8972  -1.0723   0.0000   0.0000   0.0000   0.0729
  -1.000  -0.0638   0.01473   0.00934  -0.0150  0.9083  0.9078  -0.9947   0.0000   0.0000   0.0000   0.0115
  -0.900  -0.0419   0.01487   0.00943  -0.0170  0.9075  0.9119  -0.9108   0.0000   0.0000   0.0000  -0.1588
  -0.800  -0.0213   0.01490   0.00942  -0.0189  0.9065  0.9140  -0.8325   0.0000   0.0000   0.0000  -0.6460
  -0.700  -0.0004   0.01492   0.00940  -0.0210  0.9056  0.9160  -0.7548   0.0000   0.0000   0.0000  -51.4081
  -0.600   0.0205   0.01493   0.00939  -0.0231  0.9047  0.9179  -0.6785   0.0000   0.0000   0.0000   1.3816
  -0.500   0.0410   0.01495   0.00938  -0.0251  0.9038  0.9197  -0.6046   0.0000   0.0000   0.0000   0.8642
  -0.400   0.0606   0.01497   0.00938  -0.0270  0.9027  0.9215  -0.5344   0.0000   0.0000   0.0000   0.6963
  -0.300   0.0792   0.01503   0.00941  -0.0287  0.9014  0.9234  -0.4681   0.0000   0.0000   0.0000   0.6129
  -0.200   0.0940   0.01510   0.00947  -0.0297  0.8996  0.9260  -0.4117   0.0000   0.0000   0.0000   0.5662
  -0.100   0.1014   0.01510   0.00948  -0.0292  0.8968  0.9300  -0.3726   0.0000   0.0000   0.0000   0.5384
   0.000   0.1079   0.01513   0.00950  -0.0286  0.8935  0.9342  -0.3360   0.0000   0.0000   0.0000   0.5151
   0.100   0.1142   0.01516   0.00954  -0.0280  0.8897  0.9386  -0.3163   0.0000   0.0000   0.0000   0.4946
   0.200   0.1217   0.01520   0.00958  -0.0275  0.8862  0.9426  -0.3193   0.0000   0.0000   0.0000   0.4757
   0.300   0.1296   0.01525   0.00962  -0.0271  0.8828  0.9462  -0.3225   0.0000   0.0000   0.0000   0.4588
   0.400   0.1385   0.01530   0.00968  -0.0269  0.8797  0.9493  -0.3262   0.0000   0.0000   0.0000   0.4435
   0.500   0.1562   0.01524   0.00962  -0.0285  0.8781  0.9518  -0.3339   0.0000   0.0000   0.0000   0.4316
   0.600   0.1767   0.01518   0.00957  -0.0306  0.8769  0.9537  -0.3435   0.0000   0.0000   0.0000   0.4226
   0.700   0.1975   0.01512   0.00951  -0.0328  0.8757  0.9554  -0.3671   0.0000   0.0000   0.0000   0.4153
   0.800   0.2184   0.01505   0.00944  -0.0350  0.8743  0.9570  -0.4406   0.0000   0.0000   0.0000   0.4092
   0.900   0.2390   0.01497   0.00936  -0.0370  0.8729  0.9586  -0.5155   0.0000   0.0000   0.0000   0.4041
   1.000   0.2592   0.01487   0.00928  -0.0390  0.8714  0.9602  -0.5915   0.0000   0.0000   0.0000   0.3996
   1.100   0.2790   0.01478   0.00919  -0.0409  0.8698  0.9618  -0.6682   0.0000   0.0000   0.0000   0.3957
   1.200   0.2985   0.01468   0.00911  -0.0428  0.8683  0.9635  -0.7458   0.0000   0.0000   0.0000   0.3923
   1.300   0.3178   0.01460   0.00905  -0.0446  0.8669  0.9652  -0.8242   0.0000   0.0000   0.0000   0.3892
   1.400   0.3366   0.01453   0.00900  -0.0464  0.8655  0.9671  -0.9030   0.0000   0.0000   0.0000   0.3866
   1.500   0.3552   0.01446   0.00896  -0.0481  0.8642  0.9690  -0.9827   0.0000   0.0000   0.0000   0.3841
   1.600   0.3739   0.01437   0.00890  -0.0497  0.8627  0.9710  -1.0641   0.0000   0.0000   0.0000   0.3818
   1.700   0.3926   0.01427   0.00883  -0.0514  0.8611  0.9729  -1.1470   0.0000   0.0000   0.0000   0.3796
   1.800   0.4112   0.01416   0.00876  -0.0530  0.8593  0.9749  -1.2310   0.0000   0.0000   0.0000   0.3775
   1.900   0.4295   0.01405   0.00868  -0.0545  0.8574  0.9769  -1.3154   0.0000   0.0000   0.0000   0.3755
   2.000   0.4489   0.01381   0.00848  -0.0558  0.8536  0.9786  -1.4057   0.0000   0.0000   0.0000   0.3730
   2.100   0.4629   0.01352   0.00821  -0.0560  0.8459  0.9815  -1.4809   0.0000   0.0000   0.0000   0.3695
   2.200   0.4753   0.01302   0.00773  -0.0556  0.8348  0.9848  -1.5534   0.0000   0.0000   0.0000   0.3655
   2.300   0.4908   0.01234   0.00706  -0.0554  0.8219  0.9872  -1.6371   0.0000   0.0000   0.0000   0.3613
   2.400   0.5058   0.01185   0.00656  -0.0553  0.8119  0.9896  -1.7182   0.0000   0.0000   0.0000   0.3577
   2.500   0.5195   0.01146   0.00612  -0.0549  0.7979  0.9919  -1.7950   0.0000   0.0000   0.0000   0.3540
   2.600   0.5297   0.01110   0.00580  -0.0541  0.7796  0.9950  -1.8591   0.0000   0.0000   0.0000   0.3505
   2.700   0.5411   0.01064   0.00516  -0.0529  0.7511  0.9971  -1.9269   0.0000   0.0000   0.0000   0.3460
   2.800   0.5497   0.01036   0.00470  -0.0515  0.7023  0.9995  -1.9803   0.0000   0.0000   0.0000   0.3418
   2.900   0.5515   0.01033   0.00443  -0.0493  0.6448  1.0000  -2.0070   0.0000   0.0000   0.0000   0.3374
   3.000   0.5480   0.01057   0.00420  -0.0462  0.5454  1.0000  -2.0123   0.0000   0.0000   0.0000   0.3322
   3.100   0.5387   0.01135   0.00415  -0.0426  0.3881  1.0000  -2.0061   0.0000   0.0000   0.0000   0.3269
   3.200   0.5291   0.01241   0.00443  -0.0395  0.2335  1.0000  -1.9974   0.0000   0.0000   0.0000   0.3224
   3.300   0.5207   0.01347   0.00477  -0.0367  0.0966  1.0000  -1.9828   0.0000   0.0000   0.0000   0.3181
   3.400   0.5197   0.01399   0.00508  -0.0346  0.0690  1.0000  -1.9642   0.0000   0.0000   0.0000   0.3143
   3.500   0.5215   0.01427   0.00534  -0.0331  0.0608  1.0000  -1.9643   0.0000   0.0000   0.0000   0.3110
   3.600   0.5233   0.01459   0.00565  -0.0314  0.0551  1.0000  -1.9586   0.0000   0.0000   0.0000   0.3076
   3.700   0.5245   0.01499   0.00611  -0.0297  0.0511  1.0000  -1.9446   0.0000   0.0000   0.0000   0.3040
   3.800   0.5261   0.01541   0.00658  -0.0280  0.0489  1.0000  -1.9361   0.0000   0.0000   0.0000   0.3006
   3.900   0.5310   0.01564   0.00684  -0.0269  0.0482  1.0000  -1.9542   0.0000   0.0000   0.0000   0.2980
   4.000   0.5363   0.01592   0.00714  -0.0259  0.0475  1.0000  -1.9721   0.0000   0.0000   0.0000   0.2956
   4.100   0.5424   0.01623   0.00748  -0.0251  0.0468  1.0000  -1.9903   0.0000   0.0000   0.0000   0.2934
   4.200   0.5491   0.01658   0.00785  -0.0243  0.0462  1.0000  -2.0089   0.0000   0.0000   0.0000   0.2914
   4.300   0.5563   0.01696   0.00826  -0.0236  0.0457  1.0000  -2.0279   0.0000   0.0000   0.0000   0.2895
   4.400   0.5641   0.01737   0.00869  -0.0230  0.0453  1.0000  -2.0473   0.0000   0.0000   0.0000   0.2878
   4.500   0.5723   0.01782   0.00916  -0.0225  0.0450  1.0000  -2.0671   0.0000   0.0000   0.0000   0.2863
   4.600   0.5810   0.01831   0.00966  -0.0221  0.0447  1.0000  -2.0872   0.0000   0.0000   0.0000   0.2849
   4.700   0.5903   0.01883   0.01020  -0.0217  0.0446  1.0000  -2.1076   0.0000   0.0000   0.0000   0.2836
   4.800   0.6001   0.01939   0.01078  -0.0215  0.0445  1.0000  -2.1281   0.0000   0.0000   0.0000   0.2825
   4.900   0.6102   0.01998   0.01141  -0.0212  0.0445  1.0000  -2.1484   0.0000   0.0000   0.0000   0.2814
   5.000   0.6206   0.02062   0.01209  -0.0210  0.0446  1.0000  -2.1684   0.0000   0.0000   0.0000   0.2805
   5.100   0.6311   0.02131   0.01282  -0.0208  0.0448  1.0000  -2.1878   0.0000   0.0000   0.0000   0.2796
   5.200   0.6418   0.02204   0.01361  -0.0207  0.0451  1.0000  -2.2065   0.0000   0.0000   0.0000   0.2787
   5.300   0.6525   0.02283   0.01446  -0.0205  0.0454  1.0000  -2.2241   0.0000   0.0000   0.0000   0.2779
   5.400   0.6630   0.02369   0.01539  -0.0203  0.0457  1.0000  -2.2403   0.0000   0.0000   0.0000   0.2771
   5.500   0.6734   0.02463   0.01640  -0.0202  0.0462  1.0000  -2.2544   0.0000   0.0000   0.0000   0.2762
   5.600   0.6835   0.02567   0.01753  -0.0199  0.0466  1.0000  -2.2657   0.0000   0.0000   0.0000   0.2754
   5.700   0.6932   0.02688   0.01883  -0.0197  0.0472  1.0000  -2.2723   0.0000   0.0000   0.0000   0.2746
   5.800   0.7023   0.02849   0.02056  -0.0193  0.0480  1.0000  -2.2665   0.0000   0.0000   0.0000   0.2737
   6.100   0.7323   0.03083   0.02307  -0.0186  0.0507  1.0000  -2.3411   0.0000   0.0000   0.0000   0.2713
   6.200   0.7380   0.03306   0.02546  -0.0180  0.0499  1.0000  -2.3736   0.0000   0.0000   0.0000   0.2704
  13.100   0.6208   0.14465   0.14025  -0.0174  0.0401  1.0000  -1.4603   0.0000   0.0000   0.0000   0.2693
  13.200   0.6220   0.14631   0.14190  -0.0182  0.0395  1.0000  -1.4535   0.0000   0.0000   0.0000   0.2704
  13.300   0.6233   0.14796   0.14355  -0.0190  0.0389  1.0000  -1.4476   0.0000   0.0000   0.0000   0.2715
  13.400   0.6247   0.14959   0.14518  -0.0198  0.0383  1.0000  -1.4425   0.0000   0.0000   0.0000   0.2726
  13.500   0.6262   0.15122   0.14679  -0.0205  0.0378  1.0000  -1.4382   0.0000   0.0000   0.0000   0.2736
  13.600   0.6277   0.15283   0.14840  -0.0213  0.0373  1.0000  -1.4347   0.0000   0.0000   0.0000   0.2746
  13.700   0.6294   0.15443   0.14999  -0.0220  0.0368  1.0000  -1.4317   0.0000   0.0000   0.0000   0.2756
  13.800   0.6311   0.15601   0.15157  -0.0227  0.0363  1.0000  -1.4294   0.0000   0.0000   0.0000   0.2766
  13.900   0.6329   0.15758   0.15313  -0.0234  0.0358  1.0000  -1.4277   0.0000   0.0000   0.0000   0.2775
  14.600   0.6470   0.16845   0.16399  -0.0283  0.0326  1.0000  -1.4324   0.0000   0.0000   0.0000   0.2836
  14.700   0.6494   0.16993   0.16546  -0.0290  0.0322  1.0000  -1.4370   0.0000   0.0000   0.0000   0.2843
  14.800   0.6518   0.17141   0.16694  -0.0296  0.0317  1.0000  -1.4422   0.0000   0.0000   0.0000   0.2851
  14.900   0.6543   0.17289   0.16842  -0.0303  0.0313  1.0000  -1.4483   0.0000   0.0000   0.0000   0.2858
  15.000   0.6569   0.17438   0.16990  -0.0309  0.0309  1.0000  -1.4552   0.0000   0.0000   0.0000   0.2864
  15.100   0.6596   0.17586   0.17138  -0.0315  0.0305  1.0000  -1.4631   0.0000   0.0000   0.0000   0.2871
  15.200   0.6623   0.17735   0.17287  -0.0321  0.0301  1.0000  -1.4722   0.0000   0.0000   0.0000   0.2877
  15.300   0.6651   0.17886   0.17437  -0.0327  0.0297  1.0000  -1.4824   0.0000   0.0000   0.0000   0.2883
  15.400   0.6681   0.18037   0.17588  -0.0333  0.0294  1.0000  -1.4941   0.0000   0.0000   0.0000   0.2888
  15.500   0.6711   0.18190   0.17741  -0.0338  0.0290  1.0000  -1.5074   0.0000   0.0000   0.0000   0.2893
  15.600   0.6744   0.18345   0.17896  -0.0344  0.0286  1.0000  -1.5228   0.0000   0.0000   0.0000   0.2897
  15.700   0.6778   0.18504   0.18056  -0.0349  0.0282  1.0000  -1.5405   0.0000   0.0000   0.0000   0.2901
  15.800   0.6815   0.18670   0.18221  -0.0353  0.0279  1.0000  -1.5609   0.0000   0.0000   0.0000   0.2904
  15.900   0.6856   0.18844   0.18395  -0.0358  0.0275  1.0000  -1.5848   0.0000   0.0000   0.0000   0.2906
  16.000   0.6902   0.19033   0.18585  -0.0362  0.0271  1.0000  -1.6132   0.0000   0.0000   0.0000   0.2907
  16.100   0.6956   0.19249   0.18801  -0.0365  0.0267  1.0000  -1.6477   0.0000   0.0000   0.0000   0.2907
  16.200   0.7003   0.19474   0.19026  -0.0368  0.0263  1.0000  -1.6774   0.0000   0.0000   0.0000   0.2907
  16.300   0.7045   0.19720   0.19273  -0.0373  0.0258  1.0000  -1.6976   0.0000   0.0000   0.0000   0.2910
  16.400   0.7068   0.19980   0.19533  -0.0380  0.0255  1.0000  -1.6939   0.0000   0.0000   0.0000   0.2917
  16.500   0.7085   0.20315   0.19868  -0.0389  0.0250  1.0000  -1.6702   0.0000   0.0000   0.0000   0.2928
  16.600   0.7076   0.20914   0.20466  -0.0404  0.0243  1.0000  -1.5711   0.0000   0.0000   0.0000   0.2949
  16.700   0.7088   0.21213   0.20758  -0.0414  0.0242  1.0000  -1.5307   0.0000   0.0000   0.0000   0.2962
  16.800   0.7111   0.21367   0.20913  -0.0421  0.0242  1.0000  -1.5270   0.0000   0.0000   0.0000   0.2969
  16.900   0.7135   0.21521   0.21066  -0.0428  0.0241  1.0000  -1.5234   0.0000   0.0000   0.0000   0.2976
  17.000   0.7158   0.21673   0.21217  -0.0435  0.0241  1.0000  -1.5199   0.0000   0.0000   0.0000   0.2983
  17.100   0.7182   0.21823   0.21368  -0.0443  0.0241  1.0000  -1.5165   0.0000   0.0000   0.0000   0.2990
  17.200   0.7205   0.21972   0.21517  -0.0450  0.0241  1.0000  -1.5132   0.0000   0.0000   0.0000   0.2996
  17.300   0.7229   0.22120   0.21664  -0.0457  0.0241  1.0000  -1.5101   0.0000   0.0000   0.0000   0.3003
  17.400   0.7252   0.22265   0.21809  -0.0464  0.0241  1.0000  -1.5070   0.0000   0.0000   0.0000   0.3009
  17.500   0.7275   0.22409   0.21952  -0.0471  0.0240  1.0000  -1.5041   0.0000   0.0000   0.0000   0.3016
  17.600   0.7299   0.22551   0.22094  -0.0478  0.0240  1.0000  -1.5012   0.0000   0.0000   0.0000   0.3022
  17.700   0.7322   0.22691   0.22234  -0.0485  0.0240  1.0000  -1.4985   0.0000   0.0000   0.0000   0.3028
  17.800   0.7345   0.22828   0.22371  -0.0492  0.0240  1.0000  -1.4959   0.0000   0.0000   0.0000   0.3035
  17.900   0.7369   0.22963   0.22506  -0.0498  0.0239  1.0000  -1.4935   0.0000   0.0000   0.0000   0.3041
  18.000   0.7392   0.23096   0.22638  -0.0505  0.0239  1.0000  -1.4911   0.0000   0.0000   0.0000   0.3047
  18.100   0.7415   0.23225   0.22768  -0.0512  0.0239  1.0000  -1.4889   0.0000   0.0000   0.0000   0.3052
  18.200   0.7438   0.23351   0.22893  -0.0519  0.0238  1.0000  -1.4868   0.0000   0.0000   0.0000   0.3058
  18.300   0.7457   0.23437   0.22979  -0.0526  0.0238  1.0000  -1.4843   0.0000   0.0000   0.0000   0.3064
  18.400   0.7471   0.23473   0.23018  -0.0533  0.0236  1.0000  -1.4821   0.0000   0.0000   0.0000   0.3071
  18.500   0.7488   0.23516   0.23060  -0.0540  0.0234  1.0000  -1.4803   0.0000   0.0000   0.0000   0.3077
  18.600   0.7503   0.23541   0.23085  -0.0546  0.0232  1.0000  -1.4779   0.0000   0.0000   0.0000   0.3083
  18.700   0.7508   0.23538   0.23081  -0.0554  0.0230  1.0000  -1.4672   0.0000   0.0000   0.0000   0.3092
  18.800   0.7515   0.23533   0.23075  -0.0562  0.0227  1.0000  -1.4560   0.0000   0.0000   0.0000   0.3100
  18.900   0.7524   0.23535   0.23077  -0.0570  0.0224  1.0000  -1.4444   0.0000   0.0000   0.0000   0.3108
  19.000   0.7538   0.23555   0.23095  -0.0577  0.0220  1.0000  -1.4328   0.0000   0.0000   0.0000   0.3115
  19.100   0.7555   0.23595   0.23136  -0.0585  0.0215  1.0000  -1.4221   0.0000   0.0000   0.0000   0.3122
  19.200   0.7575   0.23660   0.23200  -0.0592  0.0210  1.0000  -1.4132   0.0000   0.0000   0.0000   0.3128
  19.300   0.7598   0.23744   0.23284  -0.0599  0.0205  1.0000  -1.4066   0.0000   0.0000   0.0000   0.3133
  19.400   0.7622   0.23842   0.23381  -0.0606  0.0200  1.0000  -1.4023   0.0000   0.0000   0.0000   0.3138
  19.500   0.7647   0.23947   0.23486  -0.0612  0.0195  1.0000  -1.4000   0.0000   0.0000   0.0000   0.3143
  19.600   0.7672   0.24057   0.23596  -0.0618  0.0190  1.0000  -1.3993   0.0000   0.0000   0.0000   0.3147
  19.700   0.7697   0.24170   0.23708  -0.0625  0.0186  1.0000  -1.3999   0.0000   0.0000   0.0000   0.3151
  19.800   0.7723   0.24284   0.23823  -0.0631  0.0181  1.0000  -1.4018   0.0000   0.0000   0.0000   0.3155
  19.900   0.7748   0.24399   0.23938  -0.0637  0.0177  1.0000  -1.4048   0.0000   0.0000   0.0000   0.3159
  20.000   0.7774   0.24515   0.24053  -0.0643  0.0173  1.0000  -1.4089   0.0000   0.0000   0.0000   0.3163
  20.100   0.7800   0.24631   0.24169  -0.0650  0.0169  1.0000  -1.4140   0.0000   0.0000   0.0000   0.3167
  20.200   0.7825   0.24748   0.24286  -0.0656  0.0165  1.0000  -1.4202   0.0000   0.0000   0.0000   0.3171
  20.300   0.7851   0.24864   0.24402  -0.0662  0.0161  1.0000  -1.4275   0.0000   0.0000   0.0000   0.3174
  20.400   0.7877   0.24981   0.24519  -0.0668  0.0158  1.0000  -1.4359   0.0000   0.0000   0.0000   0.3177
  20.500   0.7903   0.25099   0.24637  -0.0674  0.0154  1.0000  -1.4457   0.0000   0.0000   0.0000   0.3181
  20.600   0.7930   0.25216   0.24754  -0.0680  0.0151  1.0000  -1.4569   0.0000   0.0000   0.0000   0.3184
  20.700   0.7956   0.25335   0.24873  -0.0685  0.0148  1.0000  -1.4697   0.0000   0.0000   0.0000   0.3187
  20.800   0.7983   0.25455   0.24993  -0.0691  0.0145  1.0000  -1.4844   0.0000   0.0000   0.0000   0.3190
  20.900   0.8010   0.25577   0.25115  -0.0697  0.0142  1.0000  -1.5012   0.0000   0.0000   0.0000   0.3192
  21.000   0.8038   0.25702   0.25240  -0.0702  0.0139  1.0000  -1.5206   0.0000   0.0000   0.0000   0.3195
  21.100   0.8067   0.25833   0.25370  -0.0708  0.0136  1.0000  -1.5431   0.0000   0.0000   0.0000   0.3197
  21.200   0.8097   0.25972   0.25509  -0.0713  0.0134  1.0000  -1.5694   0.0000   0.0000   0.0000   0.3198
  21.300   0.8130   0.26126   0.25664  -0.0718  0.0131  1.0000  -1.6008   0.0000   0.0000   0.0000   0.3199
  21.400   0.8166   0.26310   0.25848  -0.0722  0.0129  1.0000  -1.6394   0.0000   0.0000   0.0000   0.3199
  21.500   0.8213   0.26572   0.26111  -0.0726  0.0126  1.0000  -1.6920   0.0000   0.0000   0.0000   0.3196
  22.000   0.8376   0.28052   0.27589  -0.0757  0.0117  1.0000  -1.6620   0.0000   0.0000   0.0000   0.3211
  22.100   0.8391   0.28101   0.27637  -0.0764  0.0116  1.0000  -1.6550   0.0000   0.0000   0.0000   0.3215
  22.200   0.8405   0.28139   0.27675  -0.0771  0.0116  1.0000  -1.6469   0.0000   0.0000   0.0000   0.3220
  22.300   0.8418   0.28168   0.27704  -0.0778  0.0115  1.0000  -1.6379   0.0000   0.0000   0.0000   0.3226
  22.400   0.8427   0.28179   0.27714  -0.0785  0.0115  1.0000  -1.6246   0.0000   0.0000   0.0000   0.3231
  22.500   0.8436   0.28180   0.27715  -0.0792  0.0114  1.0000  -1.6088   0.0000   0.0000   0.0000   0.3238
  22.600   0.8446   0.28182   0.27717  -0.0800  0.0113  1.0000  -1.5924   0.0000   0.0000   0.0000   0.3244
  22.700   0.8458   0.28191   0.27725  -0.0808  0.0112  1.0000  -1.5755   0.0000   0.0000   0.0000   0.3250
  22.800   0.8471   0.28213   0.27747  -0.0815  0.0110  1.0000  -1.5583   0.0000   0.0000   0.0000   0.3255
  22.900   0.8488   0.28254   0.27788  -0.0822  0.0109  1.0000  -1.5415   0.0000   0.0000   0.0000   0.3260
  23.000   0.8508   0.28319   0.27853  -0.0829  0.0107  1.0000  -1.5264   0.0000   0.0000   0.0000   0.3265
  23.100   0.8530   0.28404   0.27938  -0.0836  0.0105  1.0000  -1.5140   0.0000   0.0000   0.0000   0.3269
  23.200   0.8553   0.28505   0.28039  -0.0843  0.0103  1.0000  -1.5046   0.0000   0.0000   0.0000   0.3272
  23.300   0.8576   0.28615   0.28150  -0.0849  0.0101  1.0000  -1.4977   0.0000   0.0000   0.0000   0.3276
  23.400   0.8600   0.28732   0.28267  -0.0856  0.0099  1.0000  -1.4929   0.0000   0.0000   0.0000   0.3279
  23.500   0.8624   0.28852   0.28387  -0.0862  0.0097  1.0000  -1.4897   0.0000   0.0000   0.0000   0.3282
  23.600   0.8648   0.28974   0.28509  -0.0869  0.0095  1.0000  -1.4879   0.0000   0.0000   0.0000   0.3285
  23.700   0.8671   0.29097   0.28632  -0.0875  0.0094  1.0000  -1.4872   0.0000   0.0000   0.0000   0.3288
  23.800   0.8695   0.29221   0.28756  -0.0881  0.0092  1.0000  -1.4874   0.0000   0.0000   0.0000   0.3291
  23.900   0.8718   0.29345   0.28881  -0.0888  0.0090  1.0000  -1.4884   0.0000   0.0000   0.0000   0.3294
  24.000   0.8741   0.29470   0.29006  -0.0894  0.0089  1.0000  -1.4902   0.0000   0.0000   0.0000   0.3297
  24.100   0.8764   0.29594   0.29131  -0.0900  0.0088  1.0000  -1.4926   0.0000   0.0000   0.0000   0.3300
  24.200   0.8787   0.29719   0.29256  -0.0907  0.0086  1.0000  -1.4958   0.0000   0.0000   0.0000   0.3302
  24.300   0.8810   0.29844   0.29381  -0.0913  0.0085  1.0000  -1.4995   0.0000   0.0000   0.0000   0.3305
  24.400   0.8833   0.29969   0.29506  -0.0919  0.0084  1.0000  -1.5040   0.0000   0.0000   0.0000   0.3308
  24.500   0.8855   0.30093   0.29631  -0.0925  0.0083  1.0000  -1.5091   0.0000   0.0000   0.0000   0.3310
  24.600   0.8878   0.30218   0.29756  -0.0932  0.0081  1.0000  -1.5150   0.0000   0.0000   0.0000   0.3313
  24.700   0.8900   0.30343   0.29880  -0.0938  0.0080  1.0000  -1.5216   0.0000   0.0000   0.0000   0.3316
  24.800   0.8922   0.30467   0.30005  -0.0944  0.0079  1.0000  -1.5290   0.0000   0.0000   0.0000   0.3318
  24.900   0.8945   0.30592   0.30130  -0.0951  0.0078  1.0000  -1.5373   0.0000   0.0000   0.0000   0.3321
  25.000   0.8967   0.30718   0.30256  -0.0957  0.0077  1.0000  -1.5465   0.0000   0.0000   0.0000   0.3323
  25.100   0.8989   0.30845   0.30392  -0.0963  0.0077  1.0000  -1.5507   0.0000   0.0000   0.0000   0.3326
  25.200   0.9011   0.30971   0.30519  -0.0970  0.0076  1.0000  -1.5603   0.0000   0.0000   0.0000   0.3328
  25.300   0.9033   0.31098   0.30647  -0.0976  0.0075  1.0000  -1.5716   0.0000   0.0000   0.0000   0.3331
  25.400   0.9054   0.31227   0.30776  -0.0982  0.0075  1.0000  -1.5845   0.0000   0.0000   0.0000   0.3333
  25.500   0.9076   0.31359   0.30908  -0.0988  0.0074  1.0000  -1.5993   0.0000   0.0000   0.0000   0.3335
  25.600   0.9099   0.31494   0.31044  -0.0994  0.0073  1.0000  -1.6162   0.0000   0.0000   0.0000   0.3337
  25.700   0.9121   0.31636   0.31186  -0.1000  0.0072  1.0000  -1.6357   0.0000   0.0000   0.0000   0.3339
  25.800   0.9145   0.31791   0.31341  -0.1006  0.0072  1.0000  -1.6585   0.0000   0.0000   0.0000   0.3341
  25.900   0.9170   0.31967   0.31518  -0.1012  0.0071  1.0000  -1.6862   0.0000   0.0000   0.0000   0.3342
  26.000   0.9200   0.32196   0.31748  -0.1017  0.0070  1.0000  -1.7226   0.0000   0.0000   0.0000   0.3342


