xflr5 v6.61

 Calculated polar for: NACA 65(1)-212 a=0.6

 1 1 Reynolds number fixed          Mach number fixed         

 xtrf =   1.000 (top)        1.000 (bottom)
 Mach =   0.000     Re =     0.719 e 6     Ncrit =   9.000

  alpha     CL        CD       CDp       Cm    Top Xtr Bot Xtr   Cpmin    Chinge    XCp    
 ------- -------- --------- --------- -------- ------- ------- -------- --------- ---------
 -10.000  -0.8062   0.02127   0.01619  -0.0483  0.9001  0.0066  -7.9446   0.0000   0.0000   0.0000   0.1806
  -9.900  -0.8012   0.02089   0.01577  -0.0475  0.8988  0.0067  -7.8346   0.0000   0.0000   0.0000   0.1814
  -9.800  -0.7957   0.02056   0.01540  -0.0467  0.8972  0.0067  -7.7181   0.0000   0.0000   0.0000   0.1820
  -9.700  -0.7897   0.02026   0.01507  -0.0460  0.8953  0.0068  -7.5971   0.0000   0.0000   0.0000   0.1826
  -9.600  -0.7833   0.01999   0.01477  -0.0454  0.8931  0.0068  -7.4729   0.0000   0.0000   0.0000   0.1830
  -9.500  -0.7767   0.01973   0.01449  -0.0448  0.8906  0.0069  -7.3465   0.0000   0.0000   0.0000   0.1835
  -9.400  -0.7699   0.01949   0.01422  -0.0442  0.8880  0.0070  -7.2187   0.0000   0.0000   0.0000   0.1838
  -9.300  -0.7630   0.01926   0.01396  -0.0436  0.8851  0.0070  -7.0904   0.0000   0.0000   0.0000   0.1842
  -9.200  -0.7559   0.01903   0.01371  -0.0430  0.8820  0.0071  -6.9619   0.0000   0.0000   0.0000   0.1845
  -9.100  -0.7487   0.01881   0.01346  -0.0424  0.8789  0.0072  -6.8336   0.0000   0.0000   0.0000   0.1849
  -9.000  -0.7415   0.01859   0.01321  -0.0419  0.8757  0.0073  -6.7055   0.0000   0.0000   0.0000   0.1852
  -8.900  -0.7342   0.01838   0.01296  -0.0413  0.8724  0.0074  -6.5777   0.0000   0.0000   0.0000   0.1855
  -8.800  -0.7268   0.01818   0.01272  -0.0408  0.8689  0.0075  -6.4501   0.0000   0.0000   0.0000   0.1858
  -8.700  -0.7192   0.01798   0.01249  -0.0402  0.8652  0.0077  -6.3224   0.0000   0.0000   0.0000   0.1860
  -8.600  -0.7113   0.01780   0.01226  -0.0398  0.8611  0.0078  -6.1940   0.0000   0.0000   0.0000   0.1862
  -8.500  -0.7030   0.01764   0.01206  -0.0394  0.8565  0.0080  -6.0639   0.0000   0.0000   0.0000   0.1862
  -8.400  -0.6943   0.01750   0.01190  -0.0391  0.8517  0.0081  -5.9316   0.0000   0.0000   0.0000   0.1860
  -8.300  -0.6851   0.01738   0.01176  -0.0389  0.8500  0.0083  -5.7968   0.0000   0.0000   0.0000   0.1856
  -8.200  -0.6756   0.01728   0.01165  -0.0387  0.8489  0.0084  -5.6611   0.0000   0.0000   0.0000   0.1852
  -8.100  -0.6660   0.01722   0.01159  -0.0385  0.8478  0.0085  -5.5243   0.0000   0.0000   0.0000   0.1847
  -8.000  -0.6562   0.01719   0.01155  -0.0384  0.8464  0.0086  -5.3866   0.0000   0.0000   0.0000   0.1841
  -7.900  -0.6462   0.01720   0.01156  -0.0383  0.8448  0.0087  -5.2478   0.0000   0.0000   0.0000   0.1835
  -7.800  -0.6426   0.01602   0.01027  -0.0373  0.8429  0.0094  -5.2283   0.0000   0.0000   0.0000   0.1848
  -7.700  -0.6338   0.01584   0.01010  -0.0370  0.8409  0.0097  -5.1127   0.0000   0.0000   0.0000   0.1845
  -7.600  -0.6242   0.01580   0.01008  -0.0369  0.8388  0.0099  -4.9816   0.0000   0.0000   0.0000   0.1839
  -7.500  -0.6142   0.01584   0.01014  -0.0368  0.8364  0.0101  -4.8433   0.0000   0.0000   0.0000   0.1832
  -7.400  -0.6040   0.01592   0.01025  -0.0368  0.8339  0.0103  -4.7000   0.0000   0.0000   0.0000   0.1823
  -7.300  -0.5937   0.01606   0.01041  -0.0367  0.8314  0.0106  -4.5505   0.0000   0.0000   0.0000   0.1814
  -7.200  -0.5832   0.01629   0.01068  -0.0367  0.8288  0.0109  -4.3862   0.0000   0.0000   0.0000   0.1804
  -7.100  -0.5698   0.01766   0.01218  -0.0373  0.8261  0.0122  -4.0363   0.0000   0.0000   0.0000   0.1781
  -7.000  -0.5603   0.01759   0.01208  -0.0371  0.8235  0.0124  -3.9390   0.0000   0.0000   0.0000   0.1774
  -6.900  -0.5507   0.01752   0.01199  -0.0369  0.8208  0.0127  -3.8442   0.0000   0.0000   0.0000   0.1766
  -6.800  -0.5411   0.01745   0.01190  -0.0368  0.8179  0.0129  -3.7511   0.0000   0.0000   0.0000   0.1758
  -6.700  -0.5313   0.01740   0.01181  -0.0366  0.8146  0.0130  -3.6591   0.0000   0.0000   0.0000   0.1749
  -6.600  -0.5214   0.01735   0.01174  -0.0365  0.8111  0.0132  -3.5677   0.0000   0.0000   0.0000   0.1739
  -6.500  -0.5114   0.01733   0.01170  -0.0364  0.8075  0.0133  -3.4762   0.0000   0.0000   0.0000   0.1727
  -6.400  -0.5012   0.01732   0.01168  -0.0364  0.8037  0.0135  -3.3842   0.0000   0.0000   0.0000   0.1714
  -6.300  -0.4909   0.01734   0.01168  -0.0364  0.8008  0.0136  -3.2913   0.0000   0.0000   0.0000   0.1699
  -6.200  -0.4805   0.01738   0.01171  -0.0363  0.8002  0.0137  -3.1966   0.0000   0.0000   0.0000   0.1685
  -6.100  -0.4700   0.01747   0.01180  -0.0363  0.7996  0.0138  -3.0986   0.0000   0.0000   0.0000   0.1668
  -6.000  -0.4606   0.01700   0.01129  -0.0361  0.7988  0.0139  -3.0488   0.0000   0.0000   0.0000   0.1657
  -5.900  -0.4527   0.01584   0.01004  -0.0357  0.7980  0.0142  -3.0622   0.0000   0.0000   0.0000   0.1653
  -5.800  -0.4441   0.01506   0.00920  -0.0354  0.7971  0.0145  -3.0478   0.0000   0.0000   0.0000   0.1646
  -5.700  -0.4354   0.01448   0.00857  -0.0351  0.7961  0.0147  -3.0197   0.0000   0.0000   0.0000   0.1637
  -5.600  -0.4264   0.01401   0.00806  -0.0348  0.7950  0.0149  -2.9836   0.0000   0.0000   0.0000   0.1628
  -5.500  -0.4173   0.01361   0.00763  -0.0345  0.7938  0.0151  -2.9422   0.0000   0.0000   0.0000   0.1617
  -5.400  -0.4080   0.01328   0.00727  -0.0342  0.7925  0.0153  -2.8971   0.0000   0.0000   0.0000   0.1604
  -5.300  -0.3976   0.01316   0.00713  -0.0342  0.7911  0.0150  -2.8397   0.0000   0.0000   0.0000   0.1584
  -5.200  -0.3886   0.01282   0.00675  -0.0339  0.7897  0.0153  -2.7971   0.0000   0.0000   0.0000   0.1572
  -5.100  -0.3794   0.01251   0.00642  -0.0336  0.7882  0.0155  -2.7512   0.0000   0.0000   0.0000   0.1558
  -5.000  -0.3700   0.01224   0.00613  -0.0334  0.7867  0.0158  -2.7023   0.0000   0.0000   0.0000   0.1542
  -4.900  -0.3605   0.01200   0.00587  -0.0332  0.7851  0.0161  -2.6503   0.0000   0.0000   0.0000   0.1524
  -4.800  -0.3508   0.01179   0.00564  -0.0330  0.7835  0.0165  -2.5944   0.0000   0.0000   0.0000   0.1504
  -4.700  -0.3410   0.01162   0.00545  -0.0329  0.7818  0.0169  -2.5326   0.0000   0.0000   0.0000   0.1481
  -4.600  -0.3308   0.01150   0.00533  -0.0328  0.7801  0.0175  -2.4590   0.0000   0.0000   0.0000   0.1454
  -4.500  -0.3150   0.01246   0.00639  -0.0341  0.7785  0.0219  -2.1646   0.0000   0.0000   0.0000   0.1363
  -4.400  -0.3056   0.01213   0.00603  -0.0338  0.7767  0.0218  -2.1356   0.0000   0.0000   0.0000   0.1339
  -4.300  -0.2961   0.01183   0.00569  -0.0335  0.7748  0.0218  -2.1058   0.0000   0.0000   0.0000   0.1314
  -4.200  -0.2867   0.01155   0.00537  -0.0332  0.7729  0.0218  -2.0750   0.0000   0.0000   0.0000   0.1286
  -4.100  -0.2772   0.01130   0.00507  -0.0329  0.7709  0.0218  -2.0433   0.0000   0.0000   0.0000   0.1256
  -4.000  -0.2676   0.01106   0.00479  -0.0327  0.7687  0.0219  -2.0104   0.0000   0.0000   0.0000   0.1223
  -3.900  -0.2579   0.01085   0.00453  -0.0325  0.7663  0.0220  -1.9768   0.0000   0.0000   0.0000   0.1185
  -3.800  -0.2480   0.01065   0.00429  -0.0323  0.7637  0.0222  -1.9423   0.0000   0.0000   0.0000   0.1142
  -3.700  -0.2380   0.01048   0.00407  -0.0321  0.7610  0.0224  -1.9068   0.0000   0.0000   0.0000   0.1093
  -3.600  -0.2278   0.01032   0.00388  -0.0320  0.7581  0.0227  -1.8706   0.0000   0.0000   0.0000   0.1037
  -3.500  -0.2174   0.01019   0.00371  -0.0319  0.7551  0.0230  -1.8335   0.0000   0.0000   0.0000   0.0973
  -3.400  -0.2069   0.01008   0.00357  -0.0319  0.7520  0.0235  -1.7954   0.0000   0.0000   0.0000   0.0899
  -3.300  -0.1962   0.00996   0.00342  -0.0319  0.7508  0.0241  -1.7555   0.0000   0.0000   0.0000   0.0816
  -3.200  -0.1855   0.00985   0.00329  -0.0319  0.7504  0.0248  -1.7125   0.0000   0.0000   0.0000   0.0721
  -3.100  -0.1746   0.00975   0.00319  -0.0319  0.7499  0.0254  -1.6651   0.0000   0.0000   0.0000   0.0611
  -3.000  -0.1636   0.00968   0.00312  -0.0319  0.7494  0.0260  -1.6132   0.0000   0.0000   0.0000   0.0484
  -2.900  -0.1526   0.00962   0.00308  -0.0320  0.7488  0.0263  -1.5581   0.0000   0.0000   0.0000   0.0336
  -2.800  -0.1424   0.00934   0.00266  -0.0317  0.7481  0.0330  -1.5683   0.0000   0.0000   0.0000   0.0201
  -2.700  -0.1314   0.00923   0.00253  -0.0317  0.7473  0.0380  -1.5290   0.0000   0.0000   0.0000   0.0014
  -2.600  -0.1205   0.00913   0.00245  -0.0317  0.7465  0.0429  -1.4803   0.0000   0.0000   0.0000  -0.0209
  -2.500  -0.1097   0.00902   0.00238  -0.0318  0.7455  0.0485  -1.4288   0.0000   0.0000   0.0000  -0.0477
  -2.400  -0.0992   0.00886   0.00230  -0.0318  0.7444  0.0702  -1.3770   0.0000   0.0000   0.0000  -0.0789
  -2.300  -0.0902   0.00843   0.00217  -0.0317  0.7432  0.1387  -1.3288   0.0000   0.0000   0.0000  -0.1102
  -2.200  -0.0809   0.00806   0.00205  -0.0316  0.7420  0.2124  -1.2786   0.0000   0.0000   0.0000  -0.1508
  -2.100  -0.0723   0.00756   0.00192  -0.0316  0.7407  0.3105  -1.2303   0.0000   0.0000   0.0000  -0.1967
  -2.000  -0.0645   0.00697   0.00178  -0.0314  0.7394  0.4301  -1.1836   0.0000   0.0000   0.0000  -0.2479
  -1.900  -0.0555   0.00662   0.00175  -0.0312  0.7382  0.5155  -1.1335   0.0000   0.0000   0.0000  -0.3244
  -1.800  -0.0449   0.00652   0.00174  -0.0312  0.7370  0.5472  -1.0791   0.0000   0.0000   0.0000  -0.4603
  -1.700  -0.0342   0.00642   0.00174  -0.0312  0.7358  0.5702  -1.0253   0.0000   0.0000   0.0000  -0.6800
  -1.600  -0.0232   0.00637   0.00174  -0.0312  0.7345  0.5869  -0.9710   0.0000   0.0000   0.0000  -1.1203
  -1.500  -0.0119   0.00636   0.00173  -0.0313  0.7332  0.5962  -0.9166   0.0000   0.0000   0.0000  -2.4301
  -1.400  -0.0008   0.00632   0.00172  -0.0314  0.7319  0.6087  -0.8634   0.0000   0.0000   0.0000  -40.2392
  -1.300   0.0098   0.00624   0.00174  -0.0313  0.7305  0.6275  -0.8119   0.0000   0.0000   0.0000   3.4980
  -1.200   0.0208   0.00622   0.00175  -0.0313  0.7291  0.6419  -0.7601   0.0000   0.0000   0.0000   1.7796
  -1.100   0.0320   0.00622   0.00175  -0.0314  0.7277  0.6509  -0.7082   0.0000   0.0000   0.0000   1.2421
  -1.000   0.0426   0.00616   0.00177  -0.0313  0.7262  0.6682  -0.6588   0.0000   0.0000   0.0000   0.9936
  -0.900   0.0534   0.00613   0.00179  -0.0312  0.7247  0.6793  -0.6094   0.0000   0.0000   0.0000   0.8416
  -0.800   0.0645   0.00613   0.00180  -0.0312  0.7231  0.6870  -0.5601   0.0000   0.0000   0.0000   0.7396
  -0.700   0.0757   0.00614   0.00180  -0.0313  0.7215  0.6921  -0.5112   0.0000   0.0000   0.0000   0.6671
  -0.600   0.0871   0.00616   0.00180  -0.0314  0.7197  0.6952  -0.4628   0.0000   0.0000   0.0000   0.6133
  -0.500   0.0986   0.00618   0.00181  -0.0315  0.7178  0.6972  -0.4516   0.0000   0.0000   0.0000   0.5721
  -0.400   0.1100   0.00620   0.00181  -0.0316  0.7158  0.6985  -0.4565   0.0000   0.0000   0.0000   0.5394
  -0.300   0.1213   0.00620   0.00181  -0.0318  0.7135  0.7026  -0.4614   0.0000   0.0000   0.0000   0.5131
  -0.200   0.1324   0.00620   0.00183  -0.0318  0.7112  0.7096  -0.4662   0.0000   0.0000   0.0000   0.4912
  -0.100   0.1433   0.00620   0.00187  -0.0318  0.7085  0.7169  -0.4708   0.0000   0.0000   0.0000   0.4727
   0.000   0.1541   0.00622   0.00194  -0.0318  0.7056  0.7234  -0.4754   0.0000   0.0000   0.0000   0.4567
   0.100   0.1650   0.00626   0.00202  -0.0318  0.7024  0.7293  -0.4801   0.0000   0.0000   0.0000   0.4430
   0.200   0.1761   0.00628   0.00206  -0.0319  0.7010  0.7346  -0.4855   0.0000   0.0000   0.0000   0.4308
   0.300   0.1874   0.00627   0.00207  -0.0319  0.7006  0.7392  -0.4912   0.0000   0.0000   0.0000   0.4200
   0.400   0.1987   0.00627   0.00208  -0.0320  0.7001  0.7426  -0.4969   0.0000   0.0000   0.0000   0.4105
   0.500   0.2102   0.00628   0.00209  -0.0321  0.6995  0.7451  -0.5027   0.0000   0.0000   0.0000   0.4021
   0.600   0.2217   0.00628   0.00209  -0.0322  0.6989  0.7468  -0.5084   0.0000   0.0000   0.0000   0.3946
   0.700   0.2332   0.00628   0.00211  -0.0324  0.6983  0.7481  -0.5142   0.0000   0.0000   0.0000   0.3879
   0.800   0.2446   0.00628   0.00211  -0.0325  0.6976  0.7504  -0.5199   0.0000   0.0000   0.0000   0.3819
   0.900   0.2557   0.00623   0.00209  -0.0326  0.6968  0.7556  -0.5254   0.0000   0.0000   0.0000   0.3762
   1.000   0.2668   0.00619   0.00206  -0.0326  0.6957  0.7598  -0.5311   0.0000   0.0000   0.0000   0.3710
   1.100   0.2778   0.00615   0.00203  -0.0326  0.6941  0.7634  -0.5367   0.0000   0.0000   0.0000   0.3661
   1.200   0.2888   0.00610   0.00199  -0.0326  0.6919  0.7667  -0.5425   0.0000   0.0000   0.0000   0.3615
   1.300   0.2999   0.00604   0.00193  -0.0326  0.6889  0.7698  -0.5484   0.0000   0.0000   0.0000   0.3572
   1.400   0.3110   0.00599   0.00186  -0.0326  0.6849  0.7728  -0.5544   0.0000   0.0000   0.0000   0.3532
   1.500   0.3220   0.00594   0.00179  -0.0326  0.6799  0.7758  -0.5604   0.0000   0.0000   0.0000   0.3494
   1.600   0.3330   0.00590   0.00171  -0.0326  0.6737  0.7786  -0.5845   0.0000   0.0000   0.0000   0.3459
   1.700   0.3438   0.00590   0.00164  -0.0325  0.6659  0.7812  -0.6378   0.0000   0.0000   0.0000   0.3426
   1.800   0.3547   0.00593   0.00161  -0.0325  0.6566  0.7838  -0.6918   0.0000   0.0000   0.0000   0.3397
   1.900   0.3659   0.00595   0.00160  -0.0326  0.6506  0.7863  -0.7474   0.0000   0.0000   0.0000   0.3370
   2.000   0.3774   0.00591   0.00156  -0.0327  0.6488  0.7886  -0.8046   0.0000   0.0000   0.0000   0.3345
   2.100   0.3888   0.00589   0.00154  -0.0329  0.6464  0.7906  -0.8625   0.0000   0.0000   0.0000   0.3322
   2.200   0.4002   0.00587   0.00152  -0.0330  0.6437  0.7924  -0.9213   0.0000   0.0000   0.0000   0.3300
   2.300   0.4116   0.00586   0.00151  -0.0331  0.6404  0.7940  -0.9808   0.0000   0.0000   0.0000   0.3279
   2.400   0.4229   0.00586   0.00149  -0.0332  0.6352  0.7954  -1.0409   0.0000   0.0000   0.0000   0.3259
   2.500   0.4339   0.00586   0.00145  -0.0332  0.6266  0.7965  -1.1013   0.0000   0.0000   0.0000   0.3238
   2.600   0.4445   0.00591   0.00141  -0.0331  0.6137  0.7974  -1.1612   0.0000   0.0000   0.0000   0.3218
   2.700   0.4551   0.00596   0.00140  -0.0331  0.6000  0.7982  -1.2218   0.0000   0.0000   0.0000   0.3199
   2.800   0.4663   0.00597   0.00139  -0.0332  0.5930  0.7989  -1.2849   0.0000   0.0000   0.0000   0.3183
   2.900   0.4774   0.00600   0.00139  -0.0333  0.5816  0.8023  -1.3483   0.0000   0.0000   0.0000   0.3167
   3.000   0.4883   0.00606   0.00140  -0.0333  0.5694  0.8072  -1.4117   0.0000   0.0000   0.0000   0.3152
   3.100   0.4988   0.00615   0.00141  -0.0333  0.5541  0.8121  -1.4744   0.0000   0.0000   0.0000   0.3137
   3.200   0.5098   0.00620   0.00144  -0.0334  0.5436  0.8169  -1.5395   0.0000   0.0000   0.0000   0.3123
   3.300   0.5200   0.00631   0.00148  -0.0334  0.5195  0.8217  -1.6027   0.0000   0.0000   0.0000   0.3109
   3.400   0.5293   0.00651   0.00154  -0.0332  0.4870  0.8266  -1.6634   0.0000   0.0000   0.0000   0.3093
   3.600   0.5424   0.00742   0.00191  -0.0321  0.3614  0.8371  -1.7684   0.0000   0.0000   0.0000   0.3057
   3.700   0.5476   0.00795   0.00217  -0.0314  0.2921  0.8432  -1.8166   0.0000   0.0000   0.0000   0.3037
   3.800   0.5525   0.00840   0.00245  -0.0304  0.2360  0.8499  -1.8640   0.0000   0.0000   0.0000   0.3014
   3.900   0.5542   0.00889   0.00287  -0.0285  0.1914  0.8511  -1.9024   0.0000   0.0000   0.0000   0.2976
   4.000   0.5579   0.00933   0.00317  -0.0271  0.1480  0.8551  -1.9465   0.0000   0.0000   0.0000   0.2946
   4.100   0.5621   0.00971   0.00343  -0.0259  0.1138  0.8591  -1.9920   0.0000   0.0000   0.0000   0.2919
   4.200   0.5659   0.01010   0.00368  -0.0245  0.0786  0.8628  -2.0357   0.0000   0.0000   0.0000   0.2892
   4.300   0.5695   0.01046   0.00391  -0.0232  0.0501  0.8662  -2.0783   0.0000   0.0000   0.0000   0.2864
   4.400   0.5756   0.01063   0.00406  -0.0221  0.0407  0.8693  -2.1263   0.0000   0.0000   0.0000   0.2841
   4.500   0.5802   0.01089   0.00430  -0.0207  0.0231  0.8724  -2.1281   0.0000   0.0000   0.0000   0.2813
   4.600   0.5867   0.01099   0.00442  -0.0198  0.0219  0.8754  -2.1746   0.0000   0.0000   0.0000   0.2791
   4.700   0.5929   0.01110   0.00457  -0.0187  0.0205  0.8784  -2.2137   0.0000   0.0000   0.0000   0.2770
   4.900   0.6276   0.01145   0.00482  -0.0226  0.0181  0.8928  -2.3414   0.0000   0.0000   0.0000   0.2813
   5.000   0.6356   0.01161   0.00500  -0.0220  0.0177  0.8952  -2.3861   0.0000   0.0000   0.0000   0.2798
   5.100   0.6430   0.01179   0.00521  -0.0213  0.0174  0.8969  -2.4297   0.0000   0.0000   0.0000   0.2782
   5.200   0.6499   0.01197   0.00543  -0.0205  0.0171  0.8982  -2.4723   0.0000   0.0000   0.0000   0.2765
   5.300   0.6565   0.01217   0.00567  -0.0196  0.0169  0.8992  -2.5137   0.0000   0.0000   0.0000   0.2747
   5.400   0.6632   0.01235   0.00588  -0.0188  0.0168  0.9004  -2.5553   0.0000   0.0000   0.0000   0.2731
   5.500   0.6705   0.01251   0.00607  -0.0181  0.0166  0.9022  -2.5976   0.0000   0.0000   0.0000   0.2718
   5.600   0.6773   0.01269   0.00627  -0.0174  0.0165  0.9041  -2.6385   0.0000   0.0000   0.0000   0.2704
   5.700   0.6837   0.01287   0.00648  -0.0166  0.0165  0.9060  -2.6778   0.0000   0.0000   0.0000   0.2689
   5.800   0.6896   0.01306   0.00671  -0.0158  0.0164  0.9078  -2.7152   0.0000   0.0000   0.0000   0.2673
   5.900   0.6949   0.01326   0.00694  -0.0148  0.0164  0.9097  -2.7509   0.0000   0.0000   0.0000   0.2656
   6.000   0.6997   0.01347   0.00719  -0.0137  0.0164  0.9115  -2.7848   0.0000   0.0000   0.0000   0.2638
   6.100   0.7039   0.01369   0.00744  -0.0124  0.0164  0.9134  -2.8167   0.0000   0.0000   0.0000   0.2619
   6.200   0.7073   0.01391   0.00770  -0.0111  0.0164  0.9152  -2.8466   0.0000   0.0000   0.0000   0.2598
   6.300   0.7147   0.01395   0.00785  -0.0106  0.0143  0.9169  -2.9962   0.0000   0.0000   0.0000   0.2588
   6.400   0.7144   0.01412   0.00805  -0.0086  0.0135  0.9188  -3.0353   0.0000   0.0000   0.0000   0.2559
   6.500   0.7133   0.01432   0.00828  -0.0063  0.0132  0.9207  -3.0616   0.0000   0.0000   0.0000   0.2527
   6.600   0.7131   0.01454   0.00854  -0.0043  0.0130  0.9226  -3.0889   0.0000   0.0000   0.0000   0.2497
   6.700   0.7130   0.01478   0.00882  -0.0023  0.0128  0.9243  -3.1157   0.0000   0.0000   0.0000   0.2468
   6.800   0.7124   0.01504   0.00911  -0.0003  0.0126  0.9260  -3.1406   0.0000   0.0000   0.0000   0.2439
   6.900   0.7123   0.01532   0.00943   0.0016  0.0125  0.9276  -3.1658   0.0000   0.0000   0.0000   0.2411
   7.000   0.7128   0.01562   0.00976   0.0033  0.0123  0.9291  -3.1920   0.0000   0.0000   0.0000   0.2386
   7.100   0.7140   0.01594   0.01012   0.0050  0.0122  0.9305  -3.2190   0.0000   0.0000   0.0000   0.2362
   7.200   0.7157   0.01628   0.01050   0.0065  0.0121  0.9319  -3.2465   0.0000   0.0000   0.0000   0.2339
   7.300   0.7179   0.01665   0.01090   0.0079  0.0120  0.9331  -3.2743   0.0000   0.0000   0.0000   0.2319
   7.400   0.7206   0.01707   0.01138   0.0093  0.0119  0.9343  -3.2997   0.0000   0.0000   0.0000   0.2300
   7.500   0.7245   0.01750   0.01184   0.0104  0.0118  0.9354  -3.3289   0.0000   0.0000   0.0000   0.2284
   7.600   0.7294   0.01796   0.01233   0.0114  0.0117  0.9365  -3.3591   0.0000   0.0000   0.0000   0.2271
   7.700   0.7357   0.01848   0.01289   0.0121  0.0116  0.9376  -3.3904   0.0000   0.0000   0.0000   0.2261
   7.800   0.7440   0.01909   0.01355   0.0125  0.0115  0.9387  -3.4228   0.0000   0.0000   0.0000   0.2257
   7.900   0.7560   0.01989   0.01440   0.0122  0.0114  0.9396  -3.4569   0.0000   0.0000   0.0000   0.2262
   8.000   0.7694   0.02067   0.01522   0.0117  0.0113  0.9404  -3.5023   0.0000   0.0000   0.0000   0.2271
   8.100   0.7722   0.02075   0.01532   0.0130  0.0112  0.9416  -3.5614   0.0000   0.0000   0.0000   0.2253
   8.200   0.7759   0.02088   0.01546   0.0142  0.0112  0.9427  -3.6220   0.0000   0.0000   0.0000   0.2238
   8.300   0.7802   0.02103   0.01563   0.0152  0.0112  0.9437  -3.6833   0.0000   0.0000   0.0000   0.2225
   8.400   0.7849   0.02120   0.01582   0.0161  0.0111  0.9446  -3.7452   0.0000   0.0000   0.0000   0.2213
   8.500   0.7898   0.02139   0.01603   0.0170  0.0111  0.9453  -3.8075   0.0000   0.0000   0.0000   0.2202
   8.600   0.7950   0.02159   0.01626   0.0178  0.0110  0.9460  -3.8702   0.0000   0.0000   0.0000   0.2192
   8.700   0.8003   0.02181   0.01650   0.0186  0.0110  0.9465  -3.9331   0.0000   0.0000   0.0000   0.2182
   8.800   0.8055   0.02204   0.01675   0.0194  0.0110  0.9470  -3.9955   0.0000   0.0000   0.0000   0.2173
   8.900   0.8105   0.02228   0.01702   0.0202  0.0109  0.9475  -4.0570   0.0000   0.0000   0.0000   0.2163
   9.000   0.8154   0.02253   0.01729   0.0210  0.0109  0.9479  -4.1181   0.0000   0.0000   0.0000   0.2154
   9.100   0.8203   0.02279   0.01758   0.0219  0.0108  0.9483  -4.1791   0.0000   0.0000   0.0000   0.2144
   9.200   0.8251   0.02306   0.01787   0.0227  0.0107  0.9486  -4.2402   0.0000   0.0000   0.0000   0.2135
   9.300   0.8300   0.02333   0.01816   0.0234  0.0107  0.9489  -4.3017   0.0000   0.0000   0.0000   0.2126
   9.400   0.8349   0.02361   0.01847   0.0242  0.0106  0.9492  -4.3634   0.0000   0.0000   0.0000   0.2117
   9.500   0.8316   0.02275   0.01757   0.0261  0.0101  0.9496  -4.5371   0.0000   0.0000   0.0000   0.2091
  10.000   0.8526   0.02333   0.01818   0.0298  0.0091  0.9524  -4.9939   0.0000   0.0000   0.0000   0.2049
  10.100   0.8575   0.02355   0.01841   0.0304  0.0090  0.9531  -5.0756   0.0000   0.0000   0.0000   0.2043
  10.200   0.8625   0.02377   0.01865   0.0310  0.0089  0.9539  -5.1578   0.0000   0.0000   0.0000   0.2037
  10.300   0.8676   0.02400   0.01889   0.0315  0.0088  0.9547  -5.2408   0.0000   0.0000   0.0000   0.2031
  10.400   0.8726   0.02423   0.01913   0.0321  0.0087  0.9554  -5.3244   0.0000   0.0000   0.0000   0.2025
  10.500   0.8775   0.02447   0.01938   0.0326  0.0085  0.9559  -5.4089   0.0000   0.0000   0.0000   0.2019
  10.600   0.8824   0.02470   0.01963   0.0332  0.0084  0.9564  -5.4941   0.0000   0.0000   0.0000   0.2014
  10.700   0.8872   0.02493   0.01987   0.0338  0.0084  0.9568  -5.5802   0.0000   0.0000   0.0000   0.2008
  10.800   0.8916   0.02518   0.02013   0.0343  0.0083  0.9573  -5.6652   0.0000   0.0000   0.0000   0.2002
  10.900   0.8955   0.02544   0.02041   0.0350  0.0082  0.9579  -5.7477   0.0000   0.0000   0.0000   0.1995
  11.000   0.8993   0.02572   0.02069   0.0356  0.0081  0.9589  -5.8310   0.0000   0.0000   0.0000   0.1989
  11.100   0.9033   0.02598   0.02097   0.0361  0.0080  0.9602  -5.9172   0.0000   0.0000   0.0000   0.1983
  11.200   0.9076   0.02625   0.02124   0.0366  0.0079  0.9617  -6.0065   0.0000   0.0000   0.0000   0.1978
  11.300   0.9122   0.02651   0.02152   0.0371  0.0078  0.9634  -6.0983   0.0000   0.0000   0.0000   0.1973
  11.400   0.9169   0.02678   0.02179   0.0375  0.0078  0.9651  -6.1921   0.0000   0.0000   0.0000   0.1969
  11.500   0.9217   0.02706   0.02208   0.0379  0.0077  0.9668  -6.2873   0.0000   0.0000   0.0000   0.1965
  11.600   0.9265   0.02734   0.02237   0.0383  0.0076  0.9683  -6.3828   0.0000   0.0000   0.0000   0.1962
  11.700   0.9311   0.02764   0.02268   0.0387  0.0075  0.9695  -6.4775   0.0000   0.0000   0.0000   0.1958
  11.800   0.9355   0.02796   0.02301   0.0391  0.0074  0.9704  -6.5699   0.0000   0.0000   0.0000   0.1954
  11.900   0.9392   0.02832   0.02337   0.0396  0.0074  0.9709  -6.6565   0.0000   0.0000   0.0000   0.1949
  12.000   0.9419   0.02873   0.02380   0.0402  0.0073  0.9713  -6.7337   0.0000   0.0000   0.0000   0.1942
  12.100   0.9441   0.02920   0.02428   0.0408  0.0072  0.9715  -6.8049   0.0000   0.0000   0.0000   0.1935
  12.200   0.9462   0.02971   0.02482   0.0414  0.0071  0.9717  -6.8705   0.0000   0.0000   0.0000   0.1928
  12.300   0.9479   0.03033   0.02548   0.0420  0.0069  0.9718  -6.9245   0.0000   0.0000   0.0000   0.1920
  12.400   0.9480   0.03122   0.02643   0.0428  0.0067  0.9720  -6.9479   0.0000   0.0000   0.0000   0.1911
  12.500   0.9404   0.03327   0.02867   0.0441  0.0064  0.9720  -6.8370   0.0000   0.0000   0.0000   0.1892
  12.600   0.9442   0.03355   0.02896   0.0445  0.0064  0.9721  -6.9358   0.0000   0.0000   0.0000   0.1888
  12.700   0.9481   0.03384   0.02926   0.0449  0.0064  0.9723  -7.0358   0.0000   0.0000   0.0000   0.1884
  12.800   0.9520   0.03413   0.02957   0.0453  0.0063  0.9724  -7.1363   0.0000   0.0000   0.0000   0.1880
  12.900   0.9559   0.03444   0.02990   0.0456  0.0063  0.9726  -7.2368   0.0000   0.0000   0.0000   0.1877
  13.000   0.9597   0.03477   0.03024   0.0460  0.0063  0.9727  -7.3370   0.0000   0.0000   0.0000   0.1873
  13.100   0.9626   0.03516   0.03064   0.0464  0.0063  0.9728  -7.4298   0.0000   0.0000   0.0000   0.1869
  13.200   0.9648   0.03560   0.03111   0.0468  0.0062  0.9730  -7.5165   0.0000   0.0000   0.0000   0.1864
  13.300   0.9672   0.03604   0.03157   0.0472  0.0062  0.9732  -7.6055   0.0000   0.0000   0.0000   0.1859
  13.400   0.9700   0.03647   0.03202   0.0476  0.0061  0.9733  -7.6984   0.0000   0.0000   0.0000   0.1855
  13.500   0.9731   0.03691   0.03247   0.0479  0.0061  0.9734  -7.7934   0.0000   0.0000   0.0000   0.1851
  13.600   0.9763   0.03735   0.03293   0.0482  0.0060  0.9736  -7.8894   0.0000   0.0000   0.0000   0.1848
  13.800   0.9750   0.03920   0.03498   0.0492  0.0061  0.9738  -7.8959   0.0000   0.0000   0.0000   0.1833
  13.900   0.9765   0.03986   0.03568   0.0495  0.0061  0.9739  -7.9562   0.0000   0.0000   0.0000   0.1829
  14.000   0.9786   0.04044   0.03629   0.0498  0.0061  0.9740  -8.0336   0.0000   0.0000   0.0000   0.1825
  14.100   0.9800   0.04106   0.03694   0.0501  0.0060  0.9742  -8.1102   0.0000   0.0000   0.0000   0.1821
  14.200   0.9806   0.04173   0.03765   0.0504  0.0060  0.9743  -8.1817   0.0000   0.0000   0.0000   0.1817
  14.300   0.9818   0.04239   0.03833   0.0506  0.0059  0.9745  -8.2603   0.0000   0.0000   0.0000   0.1813
  14.400   0.9835   0.04301   0.03898   0.0508  0.0059  0.9746  -8.3458   0.0000   0.0000   0.0000   0.1810
  14.500   0.9856   0.04363   0.03962   0.0510  0.0058  0.9747  -8.4350   0.0000   0.0000   0.0000   0.1807
  14.600   0.9877   0.04425   0.04026   0.0512  0.0057  0.9749  -8.5257   0.0000   0.0000   0.0000   0.1804
  14.700   0.9897   0.04489   0.04093   0.0513  0.0057  0.9750  -8.6163   0.0000   0.0000   0.0000   0.1802
  14.800   0.9917   0.04555   0.04161   0.0515  0.0056  0.9751  -8.7064   0.0000   0.0000   0.0000   0.1800
  14.900   0.9934   0.04623   0.04232   0.0516  0.0055  0.9753  -8.7956   0.0000   0.0000   0.0000   0.1797
  15.000   0.9948   0.04696   0.04308   0.0517  0.0054  0.9754  -8.8814   0.0000   0.0000   0.0000   0.1795
  15.100   0.9941   0.04787   0.04402   0.0517  0.0054  0.9756  -8.9464   0.0000   0.0000   0.0000   0.1792
  15.200   0.9936   0.04877   0.04495   0.0518  0.0053  0.9757  -9.0135   0.0000   0.0000   0.0000   0.1789
  15.300   0.9940   0.04961   0.04581   0.0518  0.0053  0.9758  -9.0909   0.0000   0.0000   0.0000   0.1787
  15.400   0.9950   0.05041   0.04665   0.0518  0.0052  0.9759  -9.1739   0.0000   0.0000   0.0000   0.1785
  15.500   0.9962   0.05122   0.04748   0.0518  0.0051  0.9761  -9.2604   0.0000   0.0000   0.0000   0.1784
  15.600   0.9974   0.05204   0.04832   0.0517  0.0051  0.9762  -9.3482   0.0000   0.0000   0.0000   0.1783
  15.700   0.9987   0.05287   0.04917   0.0516  0.0050  0.9763  -9.4360   0.0000   0.0000   0.0000   0.1782
  15.800   0.9997   0.05373   0.05006   0.0515  0.0050  0.9765  -9.5224   0.0000   0.0000   0.0000   0.1781
  15.900   0.9986   0.05484   0.05119   0.0514  0.0049  0.9766  -9.5828   0.0000   0.0000   0.0000   0.1780
  16.000   0.9971   0.05601   0.05240   0.0511  0.0049  0.9768  -9.6381   0.0000   0.0000   0.0000   0.1779
  16.100   0.9971   0.05706   0.05346   0.0509  0.0049  0.9769  -9.7113   0.0000   0.0000   0.0000   0.1779
  16.200   0.9977   0.05804   0.05447   0.0507  0.0048  0.9771  -9.7927   0.0000   0.0000   0.0000   0.1780
  16.300   0.9986   0.05902   0.05547   0.0504  0.0048  0.9772  -9.8770   0.0000   0.0000   0.0000   0.1781
  16.400   0.9995   0.06001   0.05648   0.0502  0.0048  0.9774  -9.9610   0.0000   0.0000   0.0000   0.1781
  16.500   1.0002   0.06104   0.05753   0.0499  0.0047  0.9775  -10.0425   0.0000   0.0000   0.0000   0.1783
  16.600   0.9996   0.06225   0.05876   0.0495  0.0047  0.9777  -10.1067   0.0000   0.0000   0.0000   0.1784
  16.700   0.9964   0.06382   0.06037   0.0489  0.0047  0.9778  -10.1363   0.0000   0.0000   0.0000   0.1785
  16.800   0.9953   0.06517   0.06175   0.0484  0.0047  0.9780  -10.1918   0.0000   0.0000   0.0000   0.1787
  16.900   0.9950   0.06643   0.06303   0.0479  0.0046  0.9781  -10.2571   0.0000   0.0000   0.0000   0.1790
  17.000   0.9947   0.06769   0.06432   0.0474  0.0046  0.9783  -10.3231   0.0000   0.0000   0.0000   0.1792
  17.100   0.9942   0.06901   0.06567   0.0469  0.0046  0.9784  -10.3843   0.0000   0.0000   0.0000   0.1795
  17.200   0.9918   0.07063   0.06732   0.0462  0.0046  0.9785  -10.4182   0.0000   0.0000   0.0000   0.1799
  17.300   0.9867   0.07271   0.06945   0.0452  0.0045  0.9787  -10.4112   0.0000   0.0000   0.0000   0.1804
  17.400   0.9841   0.07445   0.07122   0.0444  0.0045  0.9788  -10.4383   0.0000   0.0000   0.0000   0.1808
  17.500   0.9818   0.07615   0.07296   0.0436  0.0045  0.9789  -10.4689   0.0000   0.0000   0.0000   0.1813
  17.600   0.9790   0.07797   0.07482   0.0427  0.0045  0.9790  -10.4896   0.0000   0.0000   0.0000   0.1819
  17.700   0.9711   0.08070   0.07762   0.0413  0.0045  0.9791  -10.4289   0.0000   0.0000   0.0000   0.1827
  17.800   0.9655   0.08310   0.08007   0.0400  0.0045  0.9791  -10.4012   0.0000   0.0000   0.0000   0.1836
  17.900   0.9606   0.08540   0.08241   0.0387  0.0045  0.9791  -10.3805   0.0000   0.0000   0.0000   0.1845
  18.000   0.9502   0.08878   0.08588   0.0368  0.0045  0.9791  -10.2659   0.0000   0.0000   0.0000   0.1858
  18.100   0.9408   0.09207   0.08924   0.0349  0.0045  0.9791  -10.1622   0.0000   0.0000   0.0000   0.1872
  18.200   0.9318   0.09539   0.09263   0.0331  0.0045  0.9790  -10.0579   0.0000   0.0000   0.0000   0.1887
  18.300   0.9070   0.10212   0.09952   0.0292  0.0045  0.9787  -9.6615   0.0000   0.0000   0.0000   0.1919


