xflr5 v6.61

 Calculated polar for: NACA 65(1)-212 a=0.6

 1 1 Reynolds number fixed          Mach number fixed         

 xtrf =   1.000 (top)        1.000 (bottom)
 Mach =   0.000     Re =     0.130 e 6     Ncrit =   9.000

  alpha     CL        CD       CDp       Cm    Top Xtr Bot Xtr   Cpmin    Chinge    XCp    
 ------- -------- --------- --------- -------- ------- ------- -------- --------- ---------
 -10.000  -0.3859   0.08774   0.08332  -0.0526  1.0000  0.0653  -1.5454   0.0000   0.0000   0.0000   0.1037
  -9.900  -0.3896   0.08636   0.08196  -0.0529  1.0000  0.0658  -1.5626   0.0000   0.0000   0.0000   0.1044
  -9.800  -0.3938   0.08496   0.08060  -0.0532  1.0000  0.0663  -1.5817   0.0000   0.0000   0.0000   0.1054
  -9.700  -0.3987   0.08357   0.07924  -0.0535  1.0000  0.0666  -1.6027   0.0000   0.0000   0.0000   0.1066
  -9.600  -0.4043   0.08219   0.07789  -0.0537  1.0000  0.0669  -1.6256   0.0000   0.0000   0.0000   0.1081
  -9.500  -0.4107   0.08083   0.07657  -0.0538  1.0000  0.0672  -1.6507   0.0000   0.0000   0.0000   0.1100
  -9.400  -0.4182   0.07950   0.07527  -0.0539  1.0000  0.0673  -1.6779   0.0000   0.0000   0.0000   0.1125
  -9.300  -0.4270   0.07822   0.07403  -0.0538  1.0000  0.0673  -1.7074   0.0000   0.0000   0.0000   0.1155
  -9.200  -0.4371   0.07707   0.07292  -0.0536  1.0000  0.0672  -1.7380   0.0000   0.0000   0.0000   0.1193
  -9.100  -0.4480   0.07614   0.07202  -0.0529  1.0000  0.0670  -1.7668   0.0000   0.0000   0.0000   0.1239
  -9.000  -0.4597   0.07536   0.07127  -0.0520  1.0000  0.0668  -1.7945   0.0000   0.0000   0.0000   0.1291
  -8.900  -0.4719   0.07469   0.07063  -0.0510  1.0000  0.0665  -1.8214   0.0000   0.0000   0.0000   0.1345
  -8.800  -0.4843   0.07407   0.07003  -0.0499  1.0000  0.0663  -1.8479   0.0000   0.0000   0.0000   0.1398
  -8.700  -0.4969   0.07350   0.06948  -0.0487  1.0000  0.0660  -1.8740   0.0000   0.0000   0.0000   0.1450
  -8.600  -0.5097   0.07296   0.06896  -0.0475  1.0000  0.0657  -1.8997   0.0000   0.0000   0.0000   0.1501
  -8.500  -0.5226   0.07247   0.06848  -0.0461  1.0000  0.0654  -1.9248   0.0000   0.0000   0.0000   0.1552
  -8.400  -0.5357   0.07202   0.06805  -0.0446  1.0000  0.0651  -1.9494   0.0000   0.0000   0.0000   0.1603
  -8.300  -0.5413   0.07046   0.06644  -0.0456  0.9979  0.0654  -1.9725   0.0000   0.0000   0.0000   0.1595
  -8.200  -0.5470   0.06903   0.06496  -0.0463  0.9951  0.0657  -1.9931   0.0000   0.0000   0.0000   0.1593
  -8.100  -0.5525   0.06773   0.06362  -0.0465  0.9917  0.0660  -2.0109   0.0000   0.0000   0.0000   0.1599
  -8.000  -0.5568   0.06637   0.06221  -0.0467  0.9879  0.0665  -2.0260   0.0000   0.0000   0.0000   0.1602
  -7.900  -0.5593   0.06484   0.06061  -0.0472  0.9841  0.0671  -2.0387   0.0000   0.0000   0.0000   0.1599
  -7.800  -0.5609   0.06328   0.05897  -0.0476  0.9802  0.0677  -2.0498   0.0000   0.0000   0.0000   0.1594
  -7.700  -0.5616   0.06170   0.05731  -0.0481  0.9765  0.0684  -2.0596   0.0000   0.0000   0.0000   0.1588
  -7.600  -0.5614   0.06011   0.05562  -0.0485  0.9730  0.0689  -2.0685   0.0000   0.0000   0.0000   0.1581
  -7.500  -0.5580   0.06272   0.05788  -0.0481  0.9682  0.0758  -2.0566   0.0000   0.0000   0.0000   0.1583
  -7.400  -0.5652   0.05325   0.04816  -0.0482  0.9662  0.0468  -2.3574   0.0000   0.0000   0.0000   0.1590
  -7.300  -0.5642   0.05078   0.04557  -0.0485  0.9636  0.0446  -2.3846   0.0000   0.0000   0.0000   0.1584
  -7.200  -0.5614   0.04851   0.04314  -0.0486  0.9612  0.0427  -2.4126   0.0000   0.0000   0.0000   0.1577
  -7.100  -0.5574   0.04634   0.04079  -0.0488  0.9590  0.0412  -2.4403   0.0000   0.0000   0.0000   0.1569
  -7.000  -0.5521   0.04432   0.03857  -0.0489  0.9569  0.0402  -2.4617   0.0000   0.0000   0.0000   0.1558
  -6.900  -0.5452   0.04254   0.03659  -0.0491  0.9549  0.0399  -2.4699   0.0000   0.0000   0.0000   0.1543
  -6.800  -0.5368   0.04107   0.03493  -0.0494  0.9529  0.0403  -2.4634   0.0000   0.0000   0.0000   0.1522
  -6.700  -0.5275   0.03992   0.03362  -0.0498  0.9508  0.0409  -2.4468   0.0000   0.0000   0.0000   0.1499
  -6.600  -0.5247   0.03906   0.03264  -0.0487  0.9483  0.0415  -2.4351   0.0000   0.0000   0.0000   0.1516
  -6.500  -0.5233   0.03825   0.03174  -0.0472  0.9453  0.0420  -2.4242   0.0000   0.0000   0.0000   0.1542
  -6.400  -0.5204   0.03746   0.03084  -0.0460  0.9421  0.0425  -2.4110   0.0000   0.0000   0.0000   0.1561
  -6.300  -0.5160   0.03667   0.02995  -0.0450  0.9389  0.0431  -2.3956   0.0000   0.0000   0.0000   0.1572
  -6.200  -0.5102   0.03590   0.02906  -0.0443  0.9358  0.0436  -2.3781   0.0000   0.0000   0.0000   0.1577
  -6.100  -0.5035   0.03514   0.02819  -0.0438  0.9329  0.0442  -2.3593   0.0000   0.0000   0.0000   0.1576
  -6.000  -0.4959   0.03439   0.02733  -0.0434  0.9302  0.0446  -2.3396   0.0000   0.0000   0.0000   0.1572
  -5.900  -0.4878   0.03366   0.02649  -0.0430  0.9278  0.0451  -2.3193   0.0000   0.0000   0.0000   0.1564
  -5.800  -0.4790   0.03295   0.02566  -0.0428  0.9256  0.0454  -2.2981   0.0000   0.0000   0.0000   0.1552
  -5.700  -0.4691   0.03250   0.02511  -0.0428  0.9235  0.0466  -2.2623   0.0000   0.0000   0.0000   0.1534
  -5.600  -0.4580   0.03244   0.02498  -0.0429  0.9214  0.0486  -2.2093   0.0000   0.0000   0.0000   0.1509
  -5.500  -0.4457   0.03282   0.02529  -0.0432  0.9195  0.0504  -2.1426   0.0000   0.0000   0.0000   0.1478
  -5.400  -0.4354   0.03186   0.02420  -0.0433  0.9177  0.0501  -2.1300   0.0000   0.0000   0.0000   0.1451
  -5.300  -0.4249   0.03169   0.02391  -0.0435  0.9159  0.0527  -2.0815   0.0000   0.0000   0.0000   0.1423
  -5.200  -0.4160   0.02965   0.02172  -0.0436  0.9145  0.0547  -2.0872   0.0000   0.0000   0.0000   0.1397
  -5.100  -0.4047   0.02857   0.02064  -0.0441  0.9131  0.0569  -2.0501   0.0000   0.0000   0.0000   0.1355
  -5.000  -0.3917   0.02790   0.01990  -0.0447  0.9118  0.0576  -2.0178   0.0000   0.0000   0.0000   0.1305
  -4.900  -0.3773   0.02725   0.01913  -0.0451  0.9106  0.0569  -2.0016   0.0000   0.0000   0.0000   0.1249
  -4.800  -0.3626   0.02662   0.01840  -0.0457  0.9094  0.0565  -1.9815   0.0000   0.0000   0.0000   0.1185
  -4.700  -0.3477   0.02597   0.01766  -0.0463  0.9083  0.0562  -1.9609   0.0000   0.0000   0.0000   0.1112
  -4.600  -0.3327   0.02472   0.01612  -0.0466  0.9074  0.0580  -1.9581   0.0000   0.0000   0.0000   0.1042
  -4.500  -0.3178   0.02420   0.01556  -0.0473  0.9063  0.0584  -1.9343   0.0000   0.0000   0.0000   0.0952
  -4.400  -0.3031   0.02373   0.01507  -0.0480  0.9052  0.0590  -1.9099   0.0000   0.0000   0.0000   0.0857
  -4.300  -0.2892   0.02332   0.01464  -0.0485  0.9040  0.0598  -1.8853   0.0000   0.0000   0.0000   0.0759
  -4.200  -0.2760   0.02299   0.01430  -0.0490  0.9027  0.0608  -1.8608   0.0000   0.0000   0.0000   0.0662
  -4.100  -0.2641   0.02278   0.01408  -0.0493  0.9011  0.0621  -1.8372   0.0000   0.0000   0.0000   0.0570
  -4.000  -0.2599   0.02262   0.01391  -0.0481  0.8990  0.0631  -1.8226   0.0000   0.0000   0.0000   0.0585
  -3.900  -0.2605   0.02245   0.01373  -0.0461  0.8965  0.0638  -1.8136   0.0000   0.0000   0.0000   0.0669
  -3.800  -0.2627   0.02233   0.01361  -0.0437  0.8934  0.0645  -1.8064   0.0000   0.0000   0.0000   0.0776
  -3.700  -0.2642   0.02224   0.01350  -0.0415  0.8901  0.0656  -1.7971   0.0000   0.0000   0.0000   0.0870
  -3.600  -0.2630   0.02212   0.01338  -0.0398  0.8870  0.0672  -1.7828   0.0000   0.0000   0.0000   0.0929
  -3.500  -0.2597   0.02200   0.01324  -0.0385  0.8842  0.0695  -1.7647   0.0000   0.0000   0.0000   0.0960
  -3.400  -0.2549   0.02187   0.01310  -0.0375  0.8817  0.0722  -1.7447   0.0000   0.0000   0.0000   0.0973
  -3.300  -0.2487   0.02175   0.01296  -0.0367  0.8793  0.0749  -1.7235   0.0000   0.0000   0.0000   0.0968
  -3.200  -0.2417   0.02162   0.01280  -0.0360  0.8771  0.0771  -1.7038   0.0000   0.0000   0.0000   0.0954
  -3.100  -0.2368   0.02119   0.01233  -0.0350  0.8749  0.0824  -1.7036   0.0000   0.0000   0.0000   0.0968
  -3.000  -0.2291   0.02087   0.01205  -0.0345  0.8728  0.0888  -1.6871   0.0000   0.0000   0.0000   0.0939
  -2.900  -0.2192   0.02061   0.01175  -0.0343  0.8708  0.0978  -1.6670   0.0000   0.0000   0.0000   0.0878
  -2.800  -0.2132   0.01979   0.01134  -0.0335  0.8688  0.1752  -1.6837   0.0000   0.0000   0.0000   0.0873
  -2.700  -0.2222   0.01800   0.01132  -0.0304  0.8663  0.5285  -1.6944   0.0000   0.0000   0.0000   0.1080
  -2.600  -0.2184   0.01795   0.01184  -0.0276  0.8643  0.6689  -1.6798   0.0000   0.0000   0.0000   0.1184
  -2.500  -0.2079   0.01813   0.01209  -0.0266  0.8626  0.7082  -1.6343   0.0000   0.0000   0.0000   0.1167
  -2.400  -0.1964   0.01839   0.01243  -0.0257  0.8611  0.7342  -1.5793   0.0000   0.0000   0.0000   0.1138
  -2.300  -0.1847   0.01861   0.01263  -0.0251  0.8598  0.7537  -1.5224   0.0000   0.0000   0.0000   0.1089
  -2.200  -0.1713   0.01908   0.01318  -0.0240  0.8586  0.7731  -1.4567   0.0000   0.0000   0.0000   0.1044
  -2.100  -0.1593   0.01961   0.01371  -0.0230  0.8575  0.7906  -1.3952   0.0000   0.0000   0.0000   0.1005
  -2.000  -0.1490   0.01998   0.01405  -0.0221  0.8562  0.8011  -1.3394   0.0000   0.0000   0.0000   0.0961
  -1.900  -0.1266   0.02032   0.01438  -0.0234  0.8557  0.8199  -1.2532   0.0000   0.0000   0.0000   0.0594
  -1.800  -0.0767   0.02194   0.01598  -0.0274  0.8567  0.8397  -1.0892   0.0000   0.0000   0.0000  -0.1166
  -1.700  -0.0473   0.02238   0.01636  -0.0301  0.8564  0.8459  -0.9884   0.0000   0.0000   0.0000  -0.4010
  -1.600  -0.0296   0.02245   0.01637  -0.0315  0.8556  0.8489  -0.9202   0.0000   0.0000   0.0000  -0.8359
  -1.500  -0.0130   0.02252   0.01640  -0.0326  0.8546  0.8521  -0.8557   0.0000   0.0000   0.0000  -2.2999
  -1.400   0.0015   0.02259   0.01643  -0.0334  0.8535  0.8554  -0.7972   0.0000   0.0000   0.0000  23.2685
  -1.300   0.0136   0.02272   0.01653  -0.0338  0.8522  0.8588  -0.7451   0.0000   0.0000   0.0000   2.7752
  -1.200   0.0171   0.02296   0.01674  -0.0327  0.8501  0.8630  -0.7139   0.0000   0.0000   0.0000   2.1936
  -1.100  -0.0671   0.02309   0.01702  -0.0164  0.8401  0.8761  -0.8917   0.0000   0.0000   0.0000  -0.0023
  -1.000  -0.0809   0.02316   0.01709  -0.0124  0.8359  0.8808  -0.9015   0.0000   0.0000   0.0000   0.0907
  -0.900  -0.0747   0.02331   0.01722  -0.0118  0.8335  0.8840  -0.8627   0.0000   0.0000   0.0000   0.0857
  -0.800  -0.0724   0.02343   0.01733  -0.0106  0.8308  0.8888  -0.8333   0.0000   0.0000   0.0000   0.0978
  -0.700  -0.0822   0.02351   0.01740  -0.0071  0.8275  0.8970  -0.8333   0.0000   0.0000   0.0000   0.1586
  -0.600  -0.0780   0.02352   0.01738  -0.0062  0.8253  0.9018  -0.7997   0.0000   0.0000   0.0000   0.1656
  -0.500  -0.0619   0.02354   0.01737  -0.0075  0.8238  0.9041  -0.7384   0.0000   0.0000   0.0000   0.1242
  -0.400  -0.0434   0.02359   0.01740  -0.0091  0.8223  0.9060  -0.6723   0.0000   0.0000   0.0000   0.0344
  -0.300  -0.0231   0.02366   0.01743  -0.0110  0.8209  0.9078  -0.6032   0.0000   0.0000   0.0000  -0.2344
  -0.200  -0.0018   0.02371   0.01746  -0.0131  0.8196  0.9094  -0.5329   0.0000   0.0000   0.0000  -7.2542
  -0.100   0.0203   0.02376   0.01748  -0.0153  0.8184  0.9109  -0.4624   0.0000   0.0000   0.0000   1.0090
   0.000   0.0430   0.02379   0.01749  -0.0176  0.8173  0.9123  -0.3923   0.0000   0.0000   0.0000   0.6616
   0.100   0.0655   0.02381   0.01749  -0.0199  0.8163  0.9136  -0.3804   0.0000   0.0000   0.0000   0.5545
   0.200   0.0875   0.02382   0.01748  -0.0221  0.8153  0.9150  -0.3906   0.0000   0.0000   0.0000   0.5028
   0.300   0.1081   0.02384   0.01748  -0.0241  0.8143  0.9165  -0.4001   0.0000   0.0000   0.0000   0.4727
   0.400   0.1277   0.02387   0.01751  -0.0259  0.8133  0.9182  -0.4089   0.0000   0.0000   0.0000   0.4525
   0.500   0.1468   0.02391   0.01754  -0.0277  0.8124  0.9200  -0.4176   0.0000   0.0000   0.0000   0.4378
   0.600   0.1658   0.02394   0.01757  -0.0294  0.8115  0.9220  -0.4269   0.0000   0.0000   0.0000   0.4264
   0.700   0.1847   0.02397   0.01760  -0.0311  0.8106  0.9240  -0.4363   0.0000   0.0000   0.0000   0.4173
   0.800   0.2032   0.02400   0.01763  -0.0327  0.8098  0.9261  -0.4456   0.0000   0.0000   0.0000   0.4098
   0.900   0.2211   0.02402   0.01768  -0.0342  0.8089  0.9285  -0.4548   0.0000   0.0000   0.0000   0.4034
   1.000   0.2381   0.02405   0.01770  -0.0355  0.8080  0.9310  -0.4644   0.0000   0.0000   0.0000   0.3977
   1.100   0.2540   0.02409   0.01773  -0.0366  0.8071  0.9338  -0.4734   0.0000   0.0000   0.0000   0.3926
   1.200   0.2692   0.02415   0.01779  -0.0375  0.8061  0.9367  -0.4821   0.0000   0.0000   0.0000   0.3879
   1.300   0.2832   0.02424   0.01788  -0.0383  0.8050  0.9398  -0.4903   0.0000   0.0000   0.0000   0.3834
   1.400   0.2954   0.02440   0.01804  -0.0387  0.8038  0.9431  -0.4975   0.0000   0.0000   0.0000   0.3791
   1.500   0.3043   0.02470   0.01834  -0.0384  0.8023  0.9467  -0.5029   0.0000   0.0000   0.0000   0.3744
   1.600   0.3075   0.02518   0.01883  -0.0375  0.8001  0.9508  -0.5046   0.0000   0.0000   0.0000   0.3700
   1.700   0.3201   0.02526   0.01894  -0.0388  0.7980  0.9539  -0.5104   0.0000   0.0000   0.0000   0.3692
   1.800   0.3257   0.02553   0.01923  -0.0392  0.7939  0.9581  -0.5269   0.0000   0.0000   0.0000   0.3680
   1.900   0.3311   0.02576   0.01948  -0.0392  0.7892  0.9629  -0.5619   0.0000   0.0000   0.0000   0.3661
   2.000   0.3440   0.02586   0.01961  -0.0403  0.7858  0.9668  -0.6164   0.0000   0.0000   0.0000   0.3646
   2.100   0.3589   0.02594   0.01971  -0.0415  0.7830  0.9704  -0.6771   0.0000   0.0000   0.0000   0.3632
   2.200   0.3741   0.02603   0.01982  -0.0429  0.7807  0.9740  -0.7398   0.0000   0.0000   0.0000   0.3620
   2.300   0.3903   0.02607   0.01988  -0.0443  0.7785  0.9774  -0.8062   0.0000   0.0000   0.0000   0.3608
   2.400   0.4077   0.02605   0.01989  -0.0458  0.7763  0.9804  -0.8775   0.0000   0.0000   0.0000   0.3596
   2.500   0.4268   0.02598   0.01985  -0.0475  0.7743  0.9830  -0.9547   0.0000   0.0000   0.0000   0.3585
   2.600   0.4471   0.02587   0.01977  -0.0493  0.7725  0.9852  -1.0372   0.0000   0.0000   0.0000   0.3575
   2.700   0.4683   0.02574   0.01968  -0.0513  0.7710  0.9872  -1.1235   0.0000   0.0000   0.0000   0.3566
   2.800   0.4893   0.02563   0.01961  -0.0532  0.7696  0.9892  -1.2110   0.0000   0.0000   0.0000   0.3558
   2.900   0.5093   0.02555   0.01958  -0.0550  0.7683  0.9912  -1.2965   0.0000   0.0000   0.0000   0.3550
   3.000   0.5296   0.02543   0.01950  -0.0568  0.7671  0.9931  -1.3847   0.0000   0.0000   0.0000   0.3542
   3.100   0.5498   0.02525   0.01937  -0.0585  0.7656  0.9948  -1.4744   0.0000   0.0000   0.0000   0.3532
   3.200   0.5710   0.02500   0.01918  -0.0602  0.7640  0.9963  -1.5684   0.0000   0.0000   0.0000   0.3522
   3.300   0.6042   0.02378   0.01802  -0.0625  0.7612  0.9960  -1.7064   0.0000   0.0000   0.0000   0.3503
   3.400   0.6522   0.02064   0.01484  -0.0640  0.7504  0.9930  -1.9067   0.0000   0.0000   0.0000   0.3449
   3.500   0.6648   0.01977   0.01402  -0.0637  0.7391  0.9962  -1.9817   0.0000   0.0000   0.0000   0.3425
   3.600   0.6821   0.01865   0.01293  -0.0635  0.7270  0.9981  -2.0742   0.0000   0.0000   0.0000   0.3397
   3.700   0.7053   0.01675   0.01096  -0.0630  0.7126  0.9991  -2.1907   0.0000   0.0000   0.0000   0.3359
   3.800   0.7208   0.01576   0.00988  -0.0622  0.6998  1.0000  -2.2774   0.0000   0.0000   0.0000   0.3328
   3.900   0.7217   0.01561   0.00980  -0.0605  0.6920  1.0000  -2.3117   0.0000   0.0000   0.0000   0.3302
   4.000   0.7241   0.01535   0.00957  -0.0588  0.6817  1.0000  -2.3508   0.0000   0.0000   0.0000   0.3275
   4.100   0.7286   0.01485   0.00906  -0.0571  0.6684  1.0000  -2.3966   0.0000   0.0000   0.0000   0.3244
   4.200   0.7355   0.01414   0.00820  -0.0551  0.6477  1.0000  -2.4481   0.0000   0.0000   0.0000   0.3210
   4.300   0.7351   0.01393   0.00802  -0.0529  0.6217  1.0000  -2.4728   0.0000   0.0000   0.0000   0.3179
   4.400   0.7350   0.01356   0.00739  -0.0500  0.5634  1.0000  -2.4931   0.0000   0.0000   0.0000   0.3138
   4.500   0.7274   0.01378   0.00691  -0.0461  0.4475  1.0000  -2.4918   0.0000   0.0000   0.0000   0.3091
   4.600   0.7164   0.01452   0.00703  -0.0425  0.3520  1.0000  -2.4857   0.0000   0.0000   0.0000   0.3049
   4.700   0.7056   0.01541   0.00740  -0.0392  0.2637  1.0000  -2.4780   0.0000   0.0000   0.0000   0.3009
   4.800   0.6950   0.01636   0.00783  -0.0359  0.1789  1.0000  -2.4690   0.0000   0.0000   0.0000   0.2970
   4.900   0.6861   0.01726   0.00828  -0.0329  0.1164  1.0000  -2.4528   0.0000   0.0000   0.0000   0.2931
   5.000   0.6826   0.01788   0.00875  -0.0304  0.0879  1.0000  -2.4334   0.0000   0.0000   0.0000   0.2896
   5.100   0.6803   0.01840   0.00914  -0.0282  0.0785  1.0000  -2.4344   0.0000   0.0000   0.0000   0.2865
   5.200   0.6794   0.01884   0.00956  -0.0262  0.0717  1.0000  -2.4322   0.0000   0.0000   0.0000   0.2834
   5.300   0.6814   0.01911   0.00986  -0.0246  0.0675  1.0000  -2.4476   0.0000   0.0000   0.0000   0.2810
   5.400   0.6825   0.01943   0.01019  -0.0230  0.0638  1.0000  -2.4610   0.0000   0.0000   0.0000   0.2784
   5.500   0.6832   0.01975   0.01053  -0.0212  0.0610  1.0000  -2.4726   0.0000   0.0000   0.0000   0.2757
   5.600   0.6834   0.02009   0.01088  -0.0194  0.0589  1.0000  -2.4829   0.0000   0.0000   0.0000   0.2729
   5.700   0.6830   0.02044   0.01124  -0.0175  0.0570  1.0000  -2.4919   0.0000   0.0000   0.0000   0.2700
   5.800   0.6818   0.02080   0.01161  -0.0154  0.0555  1.0000  -2.4988   0.0000   0.0000   0.0000   0.2669
   5.900   0.6796   0.02115   0.01196  -0.0132  0.0542  1.0000  -2.5033   0.0000   0.0000   0.0000   0.2636
   6.000   0.6774   0.02152   0.01235  -0.0109  0.0531  1.0000  -2.5065   0.0000   0.0000   0.0000   0.2602
   6.100   0.6764   0.02195   0.01279  -0.0089  0.0520  1.0000  -2.5089   0.0000   0.0000   0.0000   0.2572
   6.200   0.6774   0.02248   0.01334  -0.0072  0.0508  1.0000  -2.5108   0.0000   0.0000   0.0000   0.2546
   6.300   0.6835   0.02324   0.01413  -0.0064  0.0496  1.0000  -2.5128   0.0000   0.0000   0.0000   0.2531
   6.400   0.7046   0.02453   0.01541  -0.0080  0.0483  1.0000  -2.5270   0.0000   0.0000   0.0000   0.2551
   6.500   0.7286   0.02592   0.01731  -0.0095  0.0471  1.0000  -2.5337   0.0000   0.0000   0.0000   0.2567
   6.600   0.7435   0.02683   0.01830  -0.0099  0.0469  1.0000  -2.5590   0.0000   0.0000   0.0000   0.2570
   6.700   0.7565   0.02769   0.01922  -0.0101  0.0469  1.0000  -2.5852   0.0000   0.0000   0.0000   0.2569
   6.800   0.7686   0.02856   0.02016  -0.0101  0.0469  1.0000  -2.6105   0.0000   0.0000   0.0000   0.2567
   6.900   0.7797   0.02945   0.02113  -0.0101  0.0469  1.0000  -2.6341   0.0000   0.0000   0.0000   0.2564
   7.000   0.7900   0.03039   0.02214  -0.0099  0.0470  1.0000  -2.6558   0.0000   0.0000   0.0000   0.2559
   7.100   0.7999   0.03143   0.02329  -0.0096  0.0472  1.0000  -2.6740   0.0000   0.0000   0.0000   0.2554
   7.200   0.8089   0.03251   0.02446  -0.0093  0.0474  1.0000  -2.6900   0.0000   0.0000   0.0000   0.2547
   7.300   0.8173   0.03373   0.02578  -0.0089  0.0476  1.0000  -2.7015   0.0000   0.0000   0.0000   0.2540
   7.400   0.8257   0.03545   0.02761  -0.0086  0.0480  1.0000  -2.6996   0.0000   0.0000   0.0000   0.2535
   7.800   0.8459   0.03841   0.03089  -0.0050  0.0477  1.0000  -2.7864   0.0000   0.0000   0.0000   0.2486
   7.900   0.8498   0.03821   0.03074  -0.0038  0.0470  1.0000  -2.8331   0.0000   0.0000   0.0000   0.2471
   8.000   0.8538   0.03828   0.03086  -0.0027  0.0462  1.0000  -2.8740   0.0000   0.0000   0.0000   0.2456
   8.100   0.8577   0.03845   0.03110  -0.0016  0.0454  1.0000  -2.9125   0.0000   0.0000   0.0000   0.2442
   8.200   0.8615   0.03871   0.03143  -0.0005  0.0445  1.0000  -2.9492   0.0000   0.0000   0.0000   0.2429
   8.300   0.8650   0.03905   0.03182   0.0006  0.0435  1.0000  -2.9842   0.0000   0.0000   0.0000   0.2415
   8.400   0.8682   0.03944   0.03228   0.0018  0.0424  1.0000  -3.0179   0.0000   0.0000   0.0000   0.2401
   8.500   0.8711   0.03989   0.03280   0.0029  0.0414  1.0000  -3.0501   0.0000   0.0000   0.0000   0.2387
   8.600   0.8737   0.04038   0.03335   0.0040  0.0404  1.0000  -3.0809   0.0000   0.0000   0.0000   0.2373
   8.700   0.8760   0.04092   0.03396   0.0052  0.0395  1.0000  -3.1097   0.0000   0.0000   0.0000   0.2359
   8.800   0.8778   0.04152   0.03463   0.0064  0.0387  1.0000  -3.1354   0.0000   0.0000   0.0000   0.2345
   8.900   0.8792   0.04219   0.03538   0.0076  0.0382  1.0000  -3.1561   0.0000   0.0000   0.0000   0.2330
   9.000   0.8800   0.04297   0.03624   0.0089  0.0379  1.0000  -3.1692   0.0000   0.0000   0.0000   0.2314
   9.100   0.8801   0.04383   0.03719   0.0103  0.0379  1.0000  -3.1756   0.0000   0.0000   0.0000   0.2298
   9.200   0.8795   0.04469   0.03814   0.0117  0.0379  1.0000  -3.1805   0.0000   0.0000   0.0000   0.2280
   9.300   0.8784   0.04555   0.03909   0.0132  0.0379  1.0000  -3.1840   0.0000   0.0000   0.0000   0.2262
   9.400   0.8763   0.04638   0.04000   0.0148  0.0379  1.0000  -3.1859   0.0000   0.0000   0.0000   0.2242
   9.500   0.8730   0.04715   0.04085   0.0166  0.0378  1.0000  -3.1857   0.0000   0.0000   0.0000   0.2220
   9.600   0.8690   0.04790   0.04167   0.0185  0.0378  1.0000  -3.1841   0.0000   0.0000   0.0000   0.2197
   9.700   0.8647   0.04867   0.04252   0.0204  0.0378  1.0000  -3.1816   0.0000   0.0000   0.0000   0.2173
   9.800   0.8601   0.04946   0.04338   0.0222  0.0378  1.0000  -3.1780   0.0000   0.0000   0.0000   0.2150
   9.900   0.8553   0.05027   0.04425   0.0239  0.0378  1.0000  -3.1734   0.0000   0.0000   0.0000   0.2127
  10.000   0.8502   0.05111   0.04516   0.0256  0.0379  1.0000  -3.1680   0.0000   0.0000   0.0000   0.2105
  10.100   0.8450   0.05197   0.04610   0.0272  0.0379  1.0000  -3.1616   0.0000   0.0000   0.0000   0.2083
  10.200   0.8394   0.05286   0.04706   0.0287  0.0379  1.0000  -3.1539   0.0000   0.0000   0.0000   0.2061
  10.300   0.8335   0.05378   0.04804   0.0302  0.0379  1.0000  -3.1453   0.0000   0.0000   0.0000   0.2040
  10.400   0.8276   0.05472   0.04906   0.0316  0.0379  1.0000  -3.1358   0.0000   0.0000   0.0000   0.2020
  10.500   0.8213   0.05569   0.05009   0.0329  0.0380  1.0000  -3.1250   0.0000   0.0000   0.0000   0.1999
  10.600   0.8146   0.05669   0.05116   0.0341  0.0380  1.0000  -3.1129   0.0000   0.0000   0.0000   0.1980
  10.700   0.8078   0.05774   0.05227   0.0353  0.0381  1.0000  -3.0996   0.0000   0.0000   0.0000   0.1961
  10.800   0.8007   0.05883   0.05343   0.0363  0.0381  1.0000  -3.0850   0.0000   0.0000   0.0000   0.1942
  10.900   0.7932   0.05997   0.05463   0.0373  0.0382  1.0000  -3.0687   0.0000   0.0000   0.0000   0.1924
  11.000   0.7856   0.06116   0.05587   0.0381  0.0383  1.0000  -3.0512   0.0000   0.0000   0.0000   0.1907
  11.100   0.7778   0.06239   0.05717   0.0389  0.0384  1.0000  -3.0322   0.0000   0.0000   0.0000   0.1891
  11.200   0.7695   0.06368   0.05851   0.0396  0.0385  1.0000  -3.0112   0.0000   0.0000   0.0000   0.1876
  11.300   0.7612   0.06504   0.05993   0.0401  0.0386  1.0000  -2.9888   0.0000   0.0000   0.0000   0.1862
  11.400   0.7527   0.06647   0.06142   0.0405  0.0388  1.0000  -2.9647   0.0000   0.0000   0.0000   0.1849
  11.500   0.7437   0.06798   0.06298   0.0408  0.0389  1.0000  -2.9382   0.0000   0.0000   0.0000   0.1837
  11.600   0.7347   0.06958   0.06463   0.0409  0.0391  1.0000  -2.9100   0.0000   0.0000   0.0000   0.1827
  11.700   0.7256   0.07127   0.06637   0.0409  0.0393  1.0000  -2.8796   0.0000   0.0000   0.0000   0.1818
  11.800   0.7159   0.07307   0.06821   0.0408  0.0396  1.0000  -2.8462   0.0000   0.0000   0.0000   0.1811
  11.900   0.7064   0.07496   0.07015   0.0405  0.0398  1.0000  -2.8108   0.0000   0.0000   0.0000   0.1806
  12.000   0.6965   0.07698   0.07221   0.0400  0.0401  1.0000  -2.7720   0.0000   0.0000   0.0000   0.1804
  12.100   0.6865   0.07914   0.07441   0.0393  0.0404  1.0000  -2.7302   0.0000   0.0000   0.0000   0.1804
  12.200   0.6766   0.08145   0.07676   0.0384  0.0407  1.0000  -2.6853   0.0000   0.0000   0.0000   0.1806
  12.300   0.6666   0.08394   0.07928   0.0374  0.0410  1.0000  -2.6363   0.0000   0.0000   0.0000   0.1812
  12.400   0.6571   0.08659   0.08195   0.0361  0.0414  1.0000  -2.5846   0.0000   0.0000   0.0000   0.1821
  12.500   0.6478   0.08942   0.08480   0.0347  0.0419  1.0000  -2.5288   0.0000   0.0000   0.0000   0.1834
  12.600   0.6390   0.09240   0.08780   0.0332  0.0423  1.0000  -2.4702   0.0000   0.0000   0.0000   0.1850
  12.700   0.6309   0.09549   0.09091   0.0316  0.0428  1.0000  -2.4097   0.0000   0.0000   0.0000   0.1868
  12.800   0.6236   0.09868   0.09410   0.0299  0.0433  1.0000  -2.3481   0.0000   0.0000   0.0000   0.1888
  12.900   0.6173   0.10192   0.09734   0.0282  0.0439  1.0000  -2.2869   0.0000   0.0000   0.0000   0.1910
  13.000   0.6121   0.10505   0.10045   0.0267  0.0445  1.0000  -2.2305   0.0000   0.0000   0.0000   0.1930
  13.100   0.6078   0.10792   0.10331   0.0254  0.0452  1.0000  -2.1821   0.0000   0.0000   0.0000   0.1947
  13.200   0.6041   0.11065   0.10604   0.0244  0.0459  1.0000  -2.1394   0.0000   0.0000   0.0000   0.1961
  13.700   0.5837   0.12850   0.12387   0.0159  0.0683  1.0000  -1.6618   0.0000   0.0000   0.0000   0.2092
  13.800   0.5823   0.13041   0.12577   0.0150  0.0679  1.0000  -1.6388   0.0000   0.0000   0.0000   0.2107
  13.900   0.5810   0.13228   0.12762   0.0141  0.0673  1.0000  -1.6164   0.0000   0.0000   0.0000   0.2122
  14.000   0.5799   0.13410   0.12944   0.0132  0.0665  1.0000  -1.5956   0.0000   0.0000   0.0000   0.2136
  14.100   0.5791   0.13588   0.13120   0.0123  0.0657  1.0000  -1.5773   0.0000   0.0000   0.0000   0.2150
  14.200   0.5786   0.13760   0.13292   0.0115  0.0648  1.0000  -1.5617   0.0000   0.0000   0.0000   0.2163
  14.300   0.5784   0.13928   0.13458   0.0107  0.0638  1.0000  -1.5489   0.0000   0.0000   0.0000   0.2175
  14.400   0.5785   0.14090   0.13620   0.0100  0.0627  1.0000  -1.5391   0.0000   0.0000   0.0000   0.2186
  14.500   0.5789   0.14247   0.13776   0.0093  0.0616  1.0000  -1.5323   0.0000   0.0000   0.0000   0.2197
  14.600   0.5796   0.14399   0.13927   0.0087  0.0605  1.0000  -1.5287   0.0000   0.0000   0.0000   0.2207
  14.700   0.5807   0.14545   0.14073   0.0081  0.0594  1.0000  -1.5285   0.0000   0.0000   0.0000   0.2216
  14.800   0.5821   0.14686   0.14213   0.0076  0.0582  1.0000  -1.5327   0.0000   0.0000   0.0000   0.2223
  14.900   0.5841   0.14821   0.14348   0.0072  0.0571  1.0000  -1.5416   0.0000   0.0000   0.0000   0.2230
  15.000   0.5865   0.14950   0.14476   0.0069  0.0559  1.0000  -1.5559   0.0000   0.0000   0.0000   0.2235
  15.100   0.5896   0.15072   0.14599   0.0066  0.0549  1.0000  -1.5772   0.0000   0.0000   0.0000   0.2238
  15.200   0.5936   0.15189   0.14715   0.0066  0.0538  1.0000  -1.6079   0.0000   0.0000   0.0000   0.2239
  15.300   0.5991   0.15299   0.14826   0.0067  0.0527  1.0000  -1.6525   0.0000   0.0000   0.0000   0.2236
  15.400   0.6049   0.15419   0.14946   0.0070  0.0517  1.0000  -1.7025   0.0000   0.0000   0.0000   0.2232
  15.500   0.6117   0.15577   0.15106   0.0074  0.0506  1.0000  -1.7597   0.0000   0.0000   0.0000   0.2225
  15.600   0.6117   0.15896   0.15424   0.0068  0.0495  1.0000  -1.7518   0.0000   0.0000   0.0000   0.2234
  16.100   0.6087   0.17236   0.16754   0.0020  0.0483  1.0000  -1.6019   0.0000   0.0000   0.0000   0.2308
  16.200   0.6099   0.17408   0.16926   0.0013  0.0482  1.0000  -1.5919   0.0000   0.0000   0.0000   0.2319
  16.300   0.6112   0.17579   0.17095   0.0006  0.0482  1.0000  -1.5822   0.0000   0.0000   0.0000   0.2329
  16.400   0.6124   0.17747   0.17263  -0.0001  0.0482  1.0000  -1.5729   0.0000   0.0000   0.0000   0.2340
  16.500   0.6137   0.17912   0.17428  -0.0008  0.0481  1.0000  -1.5638   0.0000   0.0000   0.0000   0.2350
  16.600   0.6151   0.18075   0.17590  -0.0015  0.0481  1.0000  -1.5551   0.0000   0.0000   0.0000   0.2361
  16.700   0.6164   0.18235   0.17750  -0.0022  0.0481  1.0000  -1.5466   0.0000   0.0000   0.0000   0.2371
  16.800   0.6178   0.18392   0.17906  -0.0029  0.0480  1.0000  -1.5383   0.0000   0.0000   0.0000   0.2381
  16.900   0.6192   0.18545   0.18059  -0.0036  0.0479  1.0000  -1.5303   0.0000   0.0000   0.0000   0.2391
  17.000   0.6206   0.18694   0.18208  -0.0043  0.0479  1.0000  -1.5224   0.0000   0.0000   0.0000   0.2401
  17.100   0.6220   0.18839   0.18352  -0.0050  0.0478  1.0000  -1.5146   0.0000   0.0000   0.0000   0.2410
  17.200   0.6234   0.18979   0.18491  -0.0056  0.0477  1.0000  -1.5070   0.0000   0.0000   0.0000   0.2420
  17.300   0.6247   0.19112   0.18624  -0.0063  0.0476  1.0000  -1.4994   0.0000   0.0000   0.0000   0.2430
  17.400   0.6261   0.19236   0.18748  -0.0070  0.0474  1.0000  -1.4917   0.0000   0.0000   0.0000   0.2439
  17.500   0.6274   0.19351   0.18862  -0.0077  0.0472  1.0000  -1.4837   0.0000   0.0000   0.0000   0.2449
  17.600   0.6279   0.19450   0.18960  -0.0085  0.0470  1.0000  -1.4709   0.0000   0.0000   0.0000   0.2460
  17.700   0.6280   0.19533   0.19043  -0.0093  0.0466  1.0000  -1.4545   0.0000   0.0000   0.0000   0.2472
  17.800   0.6275   0.19602   0.19110  -0.0102  0.0462  1.0000  -1.4343   0.0000   0.0000   0.0000   0.2485
  17.900   0.6265   0.19662   0.19169  -0.0111  0.0456  1.0000  -1.4118   0.0000   0.0000   0.0000   0.2498
  18.000   0.6261   0.19738   0.19244  -0.0120  0.0449  1.0000  -1.3913   0.0000   0.0000   0.0000   0.2511
  18.100   0.6265   0.19835   0.19341  -0.0128  0.0442  1.0000  -1.3750   0.0000   0.0000   0.0000   0.2522
  18.200   0.6274   0.19948   0.19453  -0.0136  0.0434  1.0000  -1.3627   0.0000   0.0000   0.0000   0.2533
  18.300   0.6283   0.20074   0.19583  -0.0143  0.0423  1.0000  -1.3522   0.0000   0.0000   0.0000   0.2543
  18.400   0.6298   0.20206   0.19715  -0.0150  0.0415  1.0000  -1.3459   0.0000   0.0000   0.0000   0.2552
  18.500   0.6315   0.20339   0.19847  -0.0156  0.0408  1.0000  -1.3413   0.0000   0.0000   0.0000   0.2560
  18.600   0.6333   0.20473   0.19980  -0.0162  0.0402  1.0000  -1.3377   0.0000   0.0000   0.0000   0.2568
  18.700   0.6351   0.20606   0.20114  -0.0169  0.0396  1.0000  -1.3349   0.0000   0.0000   0.0000   0.2575
  18.800   0.6371   0.20740   0.20247  -0.0175  0.0390  1.0000  -1.3327   0.0000   0.0000   0.0000   0.2583
  18.900   0.6391   0.20873   0.20379  -0.0180  0.0385  1.0000  -1.3310   0.0000   0.0000   0.0000   0.2590
  19.000   0.6411   0.21005   0.20511  -0.0186  0.0380  1.0000  -1.3297   0.0000   0.0000   0.0000   0.2597
  19.100   0.6432   0.21137   0.20643  -0.0192  0.0375  1.0000  -1.3288   0.0000   0.0000   0.0000   0.2603
  19.200   0.6452   0.21269   0.20774  -0.0198  0.0370  1.0000  -1.3282   0.0000   0.0000   0.0000   0.2610
  19.300   0.6474   0.21400   0.20905  -0.0204  0.0366  1.0000  -1.3280   0.0000   0.0000   0.0000   0.2616
  19.400   0.6495   0.21530   0.21035  -0.0209  0.0361  1.0000  -1.3280   0.0000   0.0000   0.0000   0.2623
  19.500   0.6517   0.21660   0.21165  -0.0215  0.0357  1.0000  -1.3284   0.0000   0.0000   0.0000   0.2629
  19.600   0.6538   0.21789   0.21294  -0.0221  0.0353  1.0000  -1.3291   0.0000   0.0000   0.0000   0.2635
  19.700   0.6560   0.21918   0.21422  -0.0226  0.0349  1.0000  -1.3300   0.0000   0.0000   0.0000   0.2641
  19.800   0.6582   0.22046   0.21550  -0.0232  0.0345  1.0000  -1.3313   0.0000   0.0000   0.0000   0.2647
  19.900   0.6605   0.22173   0.21677  -0.0237  0.0341  1.0000  -1.3329   0.0000   0.0000   0.0000   0.2653
  20.000   0.6627   0.22300   0.21804  -0.0243  0.0337  1.0000  -1.3348   0.0000   0.0000   0.0000   0.2659
  20.100   0.6650   0.22426   0.21929  -0.0248  0.0334  1.0000  -1.3370   0.0000   0.0000   0.0000   0.2664
  20.200   0.6673   0.22548   0.22051  -0.0254  0.0330  1.0000  -1.3397   0.0000   0.0000   0.0000   0.2669
  20.300   0.6696   0.22669   0.22172  -0.0259  0.0326  1.0000  -1.3427   0.0000   0.0000   0.0000   0.2675
  20.400   0.6719   0.22787   0.22290  -0.0264  0.0323  1.0000  -1.3462   0.0000   0.0000   0.0000   0.2680
  20.500   0.6743   0.22905   0.22407  -0.0270  0.0319  1.0000  -1.3502   0.0000   0.0000   0.0000   0.2684
  20.600   0.6766   0.23021   0.22523  -0.0275  0.0315  1.0000  -1.3545   0.0000   0.0000   0.0000   0.2689
  20.700   0.6790   0.23136   0.22638  -0.0280  0.0312  1.0000  -1.3594   0.0000   0.0000   0.0000   0.2694
  20.800   0.6814   0.23251   0.22753  -0.0285  0.0309  1.0000  -1.3648   0.0000   0.0000   0.0000   0.2698
  20.900   0.6839   0.23366   0.22868  -0.0290  0.0305  1.0000  -1.3706   0.0000   0.0000   0.0000   0.2703
  21.000   0.6863   0.23480   0.22982  -0.0295  0.0302  1.0000  -1.3771   0.0000   0.0000   0.0000   0.2707
  21.100   0.6888   0.23596   0.23097  -0.0300  0.0298  1.0000  -1.3841   0.0000   0.0000   0.0000   0.2711
  21.200   0.6914   0.23711   0.23213  -0.0305  0.0295  1.0000  -1.3918   0.0000   0.0000   0.0000   0.2715
  21.300   0.6939   0.23828   0.23329  -0.0310  0.0292  1.0000  -1.4001   0.0000   0.0000   0.0000   0.2719
  21.400   0.6965   0.23945   0.23446  -0.0315  0.0289  1.0000  -1.4091   0.0000   0.0000   0.0000   0.2722
  21.500   0.6992   0.24064   0.23565  -0.0319  0.0286  1.0000  -1.4190   0.0000   0.0000   0.0000   0.2726
  21.600   0.7019   0.24185   0.23686  -0.0324  0.0283  1.0000  -1.4296   0.0000   0.0000   0.0000   0.2729
  21.700   0.7047   0.24308   0.23809  -0.0329  0.0280  1.0000  -1.4413   0.0000   0.0000   0.0000   0.2732
  21.800   0.7075   0.24435   0.23936  -0.0333  0.0277  1.0000  -1.4539   0.0000   0.0000   0.0000   0.2735
  21.900   0.7105   0.24566   0.24067  -0.0338  0.0274  1.0000  -1.4678   0.0000   0.0000   0.0000   0.2738
  22.000   0.7135   0.24703   0.24205  -0.0342  0.0271  1.0000  -1.4829   0.0000   0.0000   0.0000   0.2741
  22.100   0.7167   0.24848   0.24349  -0.0347  0.0268  1.0000  -1.4995   0.0000   0.0000   0.0000   0.2743
  22.200   0.7201   0.25003   0.24505  -0.0351  0.0265  1.0000  -1.5177   0.0000   0.0000   0.0000   0.2745
  22.300   0.7237   0.25172   0.24675  -0.0355  0.0263  1.0000  -1.5377   0.0000   0.0000   0.0000   0.2747
  22.400   0.7275   0.25363   0.24866  -0.0359  0.0260  1.0000  -1.5596   0.0000   0.0000   0.0000   0.2748
  22.500   0.7318   0.25585   0.25089  -0.0363  0.0257  1.0000  -1.5837   0.0000   0.0000   0.0000   0.2749
  22.600   0.7366   0.25860   0.25364  -0.0367  0.0253  1.0000  -1.6102   0.0000   0.0000   0.0000   0.2750
  22.700   0.7424   0.26235   0.25741  -0.0370  0.0250  1.0000  -1.6380   0.0000   0.0000   0.0000   0.2750
  22.800   0.7457   0.26605   0.26111  -0.0377  0.0246  1.0000  -1.6365   0.0000   0.0000   0.0000   0.2756
  22.900   0.7473   0.27278   0.26784  -0.0388  0.0240  1.0000  -1.5805   0.0000   0.0000   0.0000   0.2769
  23.300   0.7529   0.30073   0.29710  -0.1033  0.0234  1.0000  -1.0037   0.0000   0.0000   0.0000   0.3683
  23.400   0.7549   0.30286   0.29924  -0.1038  0.0234  1.0000  -1.0039   0.0000   0.0000   0.0000   0.3685
  23.500   0.7569   0.30498   0.30136  -0.1044  0.0233  1.0000  -1.0042   0.0000   0.0000   0.0000   0.3686
  23.600   0.7589   0.30707   0.30345  -0.1049  0.0233  1.0000  -1.0043   0.0000   0.0000   0.0000   0.3688
  23.700   0.7608   0.30913   0.30552  -0.1055  0.0233  1.0000  -1.0044   0.0000   0.0000   0.0000   0.3689
  23.800   0.7628   0.31118   0.30757  -0.1060  0.0233  1.0000  -1.0045   0.0000   0.0000   0.0000   0.3691
  23.900   0.7647   0.31321   0.30959  -0.1066  0.0232  1.0000  -1.0045   0.0000   0.0000   0.0000   0.3693
  24.000   0.7666   0.31521   0.31160  -0.1072  0.0232  1.0000  -1.0046   0.0000   0.0000   0.0000   0.3695
  24.100   0.7684   0.31718   0.31357  -0.1077  0.0232  1.0000  -1.0043   0.0000   0.0000   0.0000   0.3696
  24.200   0.7702   0.31912   0.31551  -0.1083  0.0231  1.0000  -1.0040   0.0000   0.0000   0.0000   0.3699
  24.300   0.7720   0.32103   0.31742  -0.1089  0.0231  1.0000  -1.0036   0.0000   0.0000   0.0000   0.3701
  24.400   0.7737   0.32291   0.31930  -0.1095  0.0230  1.0000  -1.0030   0.0000   0.0000   0.0000   0.3703
  24.500   0.7753   0.32470   0.32109  -0.1101  0.0230  1.0000  -1.0008   0.0000   0.0000   0.0000   0.3706
  24.600   0.7768   0.32646   0.32286  -0.1107  0.0229  1.0000  -0.9984   0.0000   0.0000   0.0000   0.3709
  24.700   0.7783   0.32819   0.32459  -0.1114  0.0228  1.0000  -0.9960   0.0000   0.0000   0.0000   0.3712
  24.800   0.7798   0.32988   0.32628  -0.1120  0.0228  1.0000  -0.9934   0.0000   0.0000   0.0000   0.3715
  24.900   0.7813   0.33154   0.32794  -0.1127  0.0227  1.0000  -0.9907   0.0000   0.0000   0.0000   0.3719
  25.000   0.7827   0.33305   0.32945  -0.1134  0.0226  1.0000  -0.9870   0.0000   0.0000   0.0000   0.3723
  25.100   0.7838   0.33421   0.33061  -0.1141  0.0224  1.0000  -0.9809   0.0000   0.0000   0.0000   0.3728
  25.200   0.7849   0.33533   0.33173  -0.1150  0.0222  1.0000  -0.9742   0.0000   0.0000   0.0000   0.3734
  25.300   0.7862   0.33646   0.33287  -0.1158  0.0219  1.0000  -0.9670   0.0000   0.0000   0.0000   0.3741
  25.400   0.7876   0.33768   0.33410  -0.1166  0.0216  1.0000  -0.9598   0.0000   0.0000   0.0000   0.3746
  25.500   0.7891   0.33906   0.33548  -0.1174  0.0213  1.0000  -0.9530   0.0000   0.0000   0.0000   0.3752
  25.600   0.7908   0.34060   0.33703  -0.1182  0.0210  1.0000  -0.9473   0.0000   0.0000   0.0000   0.3756
  25.700   0.7927   0.34231   0.33875  -0.1189  0.0206  1.0000  -0.9428   0.0000   0.0000   0.0000   0.3759
  25.800   0.7946   0.34415   0.34059  -0.1196  0.0203  1.0000  -0.9396   0.0000   0.0000   0.0000   0.3762
  25.900   0.7965   0.34609   0.34253  -0.1202  0.0200  1.0000  -0.9376   0.0000   0.0000   0.0000   0.3764
  26.000   0.7985   0.34808   0.34453  -0.1208  0.0197  1.0000  -0.9364   0.0000   0.0000   0.0000   0.3766
  26.100   0.8005   0.35013   0.34658  -0.1214  0.0194  1.0000  -0.9360   0.0000   0.0000   0.0000   0.3768
  26.200   0.8024   0.35221   0.34866  -0.1220  0.0191  1.0000  -0.9362   0.0000   0.0000   0.0000   0.3769
  26.300   0.8044   0.35431   0.35076  -0.1226  0.0188  1.0000  -0.9369   0.0000   0.0000   0.0000   0.3770
  26.400   0.8064   0.35642   0.35288  -0.1231  0.0185  1.0000  -0.9380   0.0000   0.0000   0.0000   0.3771
  26.500   0.8083   0.35854   0.35500  -0.1237  0.0182  1.0000  -0.9395   0.0000   0.0000   0.0000   0.3772
  26.600   0.8103   0.36067   0.35714  -0.1243  0.0179  1.0000  -0.9413   0.0000   0.0000   0.0000   0.3772
  26.700   0.8122   0.36281   0.35927  -0.1248  0.0177  1.0000  -0.9433   0.0000   0.0000   0.0000   0.3773
  26.800   0.8142   0.36494   0.36141  -0.1253  0.0174  1.0000  -0.9456   0.0000   0.0000   0.0000   0.3774
  26.900   0.8161   0.36708   0.36355  -0.1259  0.0172  1.0000  -0.9482   0.0000   0.0000   0.0000   0.3774
  27.000   0.8180   0.36921   0.36569  -0.1264  0.0170  1.0000  -0.9509   0.0000   0.0000   0.0000   0.3775
  27.100   0.8199   0.37135   0.36783  -0.1270  0.0167  1.0000  -0.9539   0.0000   0.0000   0.0000   0.3776
  27.200   0.8218   0.37348   0.36997  -0.1275  0.0165  1.0000  -0.9571   0.0000   0.0000   0.0000   0.3776
  27.300   0.8236   0.37561   0.37210  -0.1280  0.0163  1.0000  -0.9604   0.0000   0.0000   0.0000   0.3777
  27.400   0.8255   0.37773   0.37423  -0.1286  0.0161  1.0000  -0.9639   0.0000   0.0000   0.0000   0.3777
  27.500   0.8274   0.37986   0.37635  -0.1291  0.0159  1.0000  -0.9677   0.0000   0.0000   0.0000   0.3778
  27.600   0.8292   0.38198   0.37848  -0.1296  0.0157  1.0000  -0.9716   0.0000   0.0000   0.0000   0.3778
  27.700   0.8310   0.38409   0.38059  -0.1302  0.0155  1.0000  -0.9757   0.0000   0.0000   0.0000   0.3778
  27.800   0.8328   0.38620   0.38271  -0.1307  0.0153  1.0000  -0.9800   0.0000   0.0000   0.0000   0.3779
  27.900   0.8347   0.38831   0.38482  -0.1312  0.0151  1.0000  -0.9845   0.0000   0.0000   0.0000   0.3779
  28.000   0.8364   0.39041   0.38692  -0.1318  0.0150  1.0000  -0.9892   0.0000   0.0000   0.0000   0.3780
  28.100   0.8382   0.39251   0.38903  -0.1323  0.0148  1.0000  -0.9941   0.0000   0.0000   0.0000   0.3780
  28.200   0.8400   0.39460   0.39112  -0.1328  0.0146  1.0000  -0.9992   0.0000   0.0000   0.0000   0.3780
  28.300   0.8418   0.39669   0.39322  -0.1333  0.0145  1.0000  -1.0046   0.0000   0.0000   0.0000   0.3780
  28.400   0.8435   0.39878   0.39531  -0.1339  0.0143  1.0000  -1.0102   0.0000   0.0000   0.0000   0.3781
  28.500   0.8453   0.40086   0.39739  -0.1344  0.0141  1.0000  -1.0161   0.0000   0.0000   0.0000   0.3781
  28.600   0.8470   0.40294   0.39947  -0.1349  0.0140  1.0000  -1.0222   0.0000   0.0000   0.0000   0.3781
  28.700   0.8487   0.40501   0.40155  -0.1354  0.0139  1.0000  -1.0286   0.0000   0.0000   0.0000   0.3781
  28.800   0.8504   0.40709   0.40363  -0.1359  0.0137  1.0000  -1.0353   0.0000   0.0000   0.0000   0.3781
  28.900   0.8522   0.40916   0.40571  -0.1364  0.0136  1.0000  -1.0424   0.0000   0.0000   0.0000   0.3781
  29.000   0.8539   0.41123   0.40778  -0.1369  0.0134  1.0000  -1.0497   0.0000   0.0000   0.0000   0.3781
  29.100   0.8556   0.41330   0.40986  -0.1374  0.0133  1.0000  -1.0575   0.0000   0.0000   0.0000   0.3781
  29.200   0.8573   0.41537   0.41193  -0.1379  0.0132  1.0000  -1.0656   0.0000   0.0000   0.0000   0.3781
  29.300   0.8590   0.41745   0.41401  -0.1384  0.0131  1.0000  -1.0742   0.0000   0.0000   0.0000   0.3780
  29.400   0.8607   0.41953   0.41609  -0.1389  0.0130  1.0000  -1.0832   0.0000   0.0000   0.0000   0.3780
  29.500   0.8624   0.42161   0.41818  -0.1394  0.0128  1.0000  -1.0927   0.0000   0.0000   0.0000   0.3779
  29.600   0.8641   0.42371   0.42029  -0.1398  0.0127  1.0000  -1.1027   0.0000   0.0000   0.0000   0.3779
  29.700   0.8658   0.42583   0.42240  -0.1403  0.0126  1.0000  -1.1133   0.0000   0.0000   0.0000   0.3778
  29.800   0.8675   0.42796   0.42454  -0.1407  0.0125  1.0000  -1.1246   0.0000   0.0000   0.0000   0.3777
  29.900   0.8693   0.43013   0.42671  -0.1412  0.0124  1.0000  -1.1366   0.0000   0.0000   0.0000   0.3775
  30.000   0.8711   0.43233   0.42892  -0.1416  0.0123  1.0000  -1.1493   0.0000   0.0000   0.0000   0.3774


