xflr5 v6.61

 Calculated polar for: NACA 2415

 1 1 Reynolds number fixed          Mach number fixed         

 xtrf =   1.000 (top)        1.000 (bottom)
 Mach =   0.000     Re =     0.500 e 6     Ncrit =   9.000

  alpha     CL        CD       CDp       Cm    Top Xtr Bot Xtr   Cpmin    Chinge    XCp    
 ------- -------- --------- --------- -------- ------- ------- -------- --------- ---------
 -10.000  -0.8885   0.02169   0.01596  -0.0395  0.9903  0.0285  -4.4694   0.0000   0.0000   0.0000   0.1927
  -9.900  -0.8783   0.02124   0.01546  -0.0396  0.9889  0.0286  -4.4241   0.0000   0.0000   0.0000   0.1921
  -9.800  -0.8678   0.02080   0.01497  -0.0399  0.9875  0.0288  -4.3775   0.0000   0.0000   0.0000   0.1914
  -9.700  -0.8568   0.02038   0.01451  -0.0402  0.9859  0.0291  -4.3298   0.0000   0.0000   0.0000   0.1905
  -9.600  -0.8455   0.01998   0.01406  -0.0405  0.9843  0.0293  -4.2811   0.0000   0.0000   0.0000   0.1896
  -9.500  -0.8339   0.01959   0.01363  -0.0409  0.9826  0.0295  -4.2316   0.0000   0.0000   0.0000   0.1885
  -9.400  -0.8222   0.01922   0.01322  -0.0413  0.9809  0.0297  -4.1815   0.0000   0.0000   0.0000   0.1874
  -9.300  -0.8104   0.01886   0.01282  -0.0417  0.9792  0.0300  -4.1312   0.0000   0.0000   0.0000   0.1863
  -9.200  -0.7988   0.01853   0.01245  -0.0421  0.9777  0.0303  -4.0809   0.0000   0.0000   0.0000   0.1851
  -9.100  -0.7873   0.01821   0.01210  -0.0424  0.9762  0.0305  -4.0310   0.0000   0.0000   0.0000   0.1840
  -9.000  -0.7758   0.01790   0.01176  -0.0427  0.9747  0.0308  -3.9810   0.0000   0.0000   0.0000   0.1829
  -8.900  -0.7641   0.01761   0.01144  -0.0431  0.9733  0.0312  -3.9304   0.0000   0.0000   0.0000   0.1816
  -8.800  -0.7521   0.01733   0.01112  -0.0435  0.9720  0.0315  -3.8790   0.0000   0.0000   0.0000   0.1803
  -8.700  -0.7396   0.01705   0.01081  -0.0440  0.9705  0.0319  -3.8263   0.0000   0.0000   0.0000   0.1787
  -8.600  -0.7267   0.01677   0.01051  -0.0445  0.9691  0.0324  -3.7721   0.0000   0.0000   0.0000   0.1769
  -8.500  -0.7134   0.01651   0.01021  -0.0452  0.9677  0.0329  -3.7164   0.0000   0.0000   0.0000   0.1749
  -8.400  -0.6996   0.01625   0.00993  -0.0459  0.9663  0.0336  -3.6583   0.0000   0.0000   0.0000   0.1727
  -8.300  -0.6854   0.01601   0.00967  -0.0467  0.9649  0.0345  -3.5962   0.0000   0.0000   0.0000   0.1702
  -8.200  -0.6685   0.01624   0.00981  -0.0481  0.9639  0.0389  -3.4484   0.0000   0.0000   0.0000   0.1665
  -8.100  -0.6545   0.01592   0.00945  -0.0488  0.9626  0.0389  -3.4011   0.0000   0.0000   0.0000   0.1638
  -8.000  -0.6405   0.01563   0.00912  -0.0496  0.9613  0.0389  -3.3532   0.0000   0.0000   0.0000   0.1610
  -7.900  -0.6265   0.01535   0.00880  -0.0503  0.9601  0.0390  -3.3052   0.0000   0.0000   0.0000   0.1582
  -7.800  -0.6127   0.01510   0.00851  -0.0510  0.9589  0.0391  -3.2575   0.0000   0.0000   0.0000   0.1553
  -7.700  -0.5992   0.01486   0.00823  -0.0516  0.9578  0.0392  -3.2100   0.0000   0.0000   0.0000   0.1523
  -7.600  -0.5855   0.01463   0.00797  -0.0523  0.9566  0.0394  -3.1622   0.0000   0.0000   0.0000   0.1492
  -7.500  -0.5717   0.01443   0.00773  -0.0530  0.9553  0.0396  -3.1143   0.0000   0.0000   0.0000   0.1459
  -7.400  -0.5581   0.01423   0.00751  -0.0536  0.9537  0.0398  -3.0667   0.0000   0.0000   0.0000   0.1424
  -7.300  -0.5446   0.01407   0.00731  -0.0542  0.9518  0.0402  -3.0197   0.0000   0.0000   0.0000   0.1389
  -7.200  -0.5327   0.01393   0.00714  -0.0545  0.9497  0.0405  -2.9759   0.0000   0.0000   0.0000   0.1362
  -7.100  -0.5229   0.01373   0.00693  -0.0542  0.9486  0.0410  -2.9367   0.0000   0.0000   0.0000   0.1349
  -7.000  -0.5132   0.01354   0.00671  -0.0540  0.9473  0.0416  -2.8979   0.0000   0.0000   0.0000   0.1334
  -6.900  -0.5033   0.01335   0.00651  -0.0537  0.9458  0.0425  -2.8599   0.0000   0.0000   0.0000   0.1319
  -6.800  -0.4933   0.01315   0.00630  -0.0535  0.9440  0.0437  -2.8228   0.0000   0.0000   0.0000   0.1302
  -6.700  -0.4832   0.01294   0.00608  -0.0533  0.9420  0.0458  -2.7871   0.0000   0.0000   0.0000   0.1283
  -6.600  -0.4728   0.01274   0.00588  -0.0532  0.9398  0.0490  -2.7510   0.0000   0.0000   0.0000   0.1261
  -6.500  -0.4636   0.01234   0.00562  -0.0530  0.9373  0.0669  -2.7236   0.0000   0.0000   0.0000   0.1245
  -6.400  -0.4528   0.01213   0.00548  -0.0530  0.9350  0.0751  -2.6786   0.0000   0.0000   0.0000   0.1216
  -6.300  -0.4424   0.01184   0.00533  -0.0531  0.9325  0.0861  -2.6336   0.0000   0.0000   0.0000   0.1188
  -6.200  -0.4312   0.01164   0.00521  -0.0532  0.9302  0.0934  -2.5853   0.0000   0.0000   0.0000   0.1153
  -6.100  -0.4193   0.01151   0.00510  -0.0534  0.9279  0.0976  -2.5354   0.0000   0.0000   0.0000   0.1113
  -6.000  -0.4072   0.01140   0.00500  -0.0537  0.9257  0.0997  -2.4847   0.0000   0.0000   0.0000   0.1069
  -5.900  -0.3950   0.01129   0.00488  -0.0539  0.9234  0.1034  -2.4349   0.0000   0.0000   0.0000   0.1023
  -5.800  -0.3827   0.01117   0.00476  -0.0542  0.9211  0.1101  -2.3852   0.0000   0.0000   0.0000   0.0971
  -5.700  -0.3702   0.01104   0.00465  -0.0545  0.9188  0.1171  -2.3350   0.0000   0.0000   0.0000   0.0914
  -5.600  -0.3578   0.01090   0.00455  -0.0548  0.9164  0.1232  -2.2849   0.0000   0.0000   0.0000   0.0853
  -5.500  -0.3453   0.01076   0.00445  -0.0551  0.9139  0.1287  -2.2349   0.0000   0.0000   0.0000   0.0787
  -5.400  -0.3327   0.01063   0.00435  -0.0555  0.9112  0.1336  -2.1850   0.0000   0.0000   0.0000   0.0715
  -5.300  -0.3200   0.01052   0.00426  -0.0559  0.9078  0.1380  -2.1349   0.0000   0.0000   0.0000   0.0636
  -5.100  -0.2953   0.01038   0.00412  -0.0565  0.8996  0.1445  -2.0373   0.0000   0.0000   0.0000   0.0467
  -5.000  -0.2855   0.01031   0.00405  -0.0562  0.8984  0.1468  -1.9941   0.0000   0.0000   0.0000   0.0410
  -4.900  -0.2757   0.01024   0.00398  -0.0559  0.8968  0.1486  -1.9511   0.0000   0.0000   0.0000   0.0350
  -4.800  -0.2659   0.01018   0.00391  -0.0556  0.8947  0.1498  -1.9083   0.0000   0.0000   0.0000   0.0285
  -4.700  -0.2560   0.01011   0.00384  -0.0553  0.8923  0.1530  -1.8661   0.0000   0.0000   0.0000   0.0214
  -4.600  -0.2462   0.01004   0.00377  -0.0550  0.8895  0.1597  -1.8242   0.0000   0.0000   0.0000   0.0137
  -4.500  -0.2362   0.00995   0.00372  -0.0548  0.8866  0.1671  -1.7823   0.0000   0.0000   0.0000   0.0050
  -4.400  -0.2262   0.00986   0.00366  -0.0546  0.8835  0.1738  -1.7406   0.0000   0.0000   0.0000  -0.0045
  -4.300  -0.2161   0.00976   0.00361  -0.0544  0.8801  0.1800  -1.6989   0.0000   0.0000   0.0000  -0.0151
  -4.200  -0.2058   0.00967   0.00355  -0.0543  0.8763  0.1858  -1.6568   0.0000   0.0000   0.0000  -0.0275
  -4.100  -0.1951   0.00960   0.00349  -0.0542  0.8723  0.1911  -1.6146   0.0000   0.0000   0.0000  -0.0418
  -4.000  -0.1843   0.00953   0.00343  -0.0542  0.8681  0.1956  -1.5722   0.0000   0.0000   0.0000  -0.0582
  -3.900  -0.1732   0.00947   0.00337  -0.0541  0.8637  0.1991  -1.5297   0.0000   0.0000   0.0000  -0.0773
  -3.800  -0.1621   0.00939   0.00330  -0.0541  0.8590  0.2062  -1.4877   0.0000   0.0000   0.0000  -0.0990
  -3.700  -0.1513   0.00929   0.00324  -0.0541  0.8540  0.2166  -1.4464   0.0000   0.0000   0.0000  -0.1233
  -3.600  -0.1406   0.00917   0.00317  -0.0540  0.8487  0.2257  -1.4055   0.0000   0.0000   0.0000  -0.1509
  -3.500  -0.1297   0.00907   0.00311  -0.0540  0.8429  0.2337  -1.3648   0.0000   0.0000   0.0000  -0.1836
  -3.400  -0.1187   0.00900   0.00305  -0.0540  0.8365  0.2402  -1.3240   0.0000   0.0000   0.0000  -0.2230
  -3.300  -0.1075   0.00895   0.00299  -0.0540  0.8291  0.2451  -1.2833   0.0000   0.0000   0.0000  -0.2716
  -3.200  -0.0960   0.00893   0.00295  -0.0541  0.8210  0.2486  -1.2423   0.0000   0.0000   0.0000  -0.3344
  -3.100  -0.0842   0.00890   0.00291  -0.0543  0.8125  0.2532  -1.2014   0.0000   0.0000   0.0000  -0.4175
  -3.000  -0.0727   0.00884   0.00289  -0.0545  0.8037  0.2626  -1.1614   0.0000   0.0000   0.0000  -0.5246
  -2.900  -0.0622   0.00875   0.00287  -0.0544  0.7994  0.2711  -1.1233   0.0000   0.0000   0.0000  -0.6531
  -2.800  -0.0522   0.00865   0.00284  -0.0542  0.7984  0.2784  -1.0863   0.0000   0.0000   0.0000  -0.8202
  -2.700  -0.0421   0.00858   0.00281  -0.0540  0.7970  0.2850  -1.0493   0.0000   0.0000   0.0000  -1.0708
  -2.600  -0.0319   0.00851   0.00278  -0.0538  0.7951  0.2906  -1.0124   0.0000   0.0000   0.0000  -1.4882
  -2.500  -0.0215   0.00847   0.00275  -0.0537  0.7928  0.2950  -0.9756   0.0000   0.0000   0.0000  -2.3197
  -2.400  -0.0109   0.00843   0.00271  -0.0535  0.7899  0.2983  -0.9388   0.0000   0.0000   0.0000  -4.7846
  -2.300  -0.0002   0.00840   0.00268  -0.0534  0.7864  0.3017  -0.9022   0.0000   0.0000   0.0000  -257.7799
  -2.200   0.0105   0.00835   0.00264  -0.0533  0.7824  0.3115  -0.8660   0.0000   0.0000   0.0000   5.4606
  -2.100   0.0212   0.00831   0.00261  -0.0532  0.7779  0.3236  -0.8302   0.0000   0.0000   0.0000   2.8223
  -2.000   0.0318   0.00825   0.00257  -0.0531  0.7731  0.3358  -0.7948   0.0000   0.0000   0.0000   1.9559
  -1.900   0.0423   0.00818   0.00253  -0.0530  0.7677  0.3476  -0.7598   0.0000   0.0000   0.0000   1.5267
  -1.800   0.0529   0.00811   0.00249  -0.0529  0.7620  0.3590  -0.7359   0.0000   0.0000   0.0000   1.2690
  -1.700   0.0635   0.00805   0.00246  -0.0528  0.7557  0.3700  -0.7158   0.0000   0.0000   0.0000   1.0953
  -1.600   0.0743   0.00800   0.00243  -0.0527  0.7490  0.3801  -0.6958   0.0000   0.0000   0.0000   0.9708
  -1.500   0.0851   0.00797   0.00239  -0.0526  0.7414  0.3890  -0.6759   0.0000   0.0000   0.0000   0.8778
  -1.400   0.0959   0.00796   0.00236  -0.0525  0.7325  0.3965  -0.6561   0.0000   0.0000   0.0000   0.8055
  -1.300   0.1068   0.00795   0.00234  -0.0525  0.7226  0.4086  -0.6387   0.0000   0.0000   0.0000   0.7476
  -1.200   0.1174   0.00789   0.00233  -0.0525  0.7126  0.4361  -0.6229   0.0000   0.0000   0.0000   0.7019
  -1.100   0.1277   0.00780   0.00234  -0.0524  0.7032  0.4605  -0.6073   0.0000   0.0000   0.0000   0.6641
  -1.000   0.1379   0.00771   0.00236  -0.0523  0.6994  0.4829  -0.5937   0.0000   0.0000   0.0000   0.6319
  -0.900   0.1483   0.00764   0.00236  -0.0521  0.6983  0.4987  -0.6018   0.0000   0.0000   0.0000   0.6038
  -0.800   0.1575   0.00752   0.00238  -0.0517  0.6969  0.5351  -0.6093   0.0000   0.0000   0.0000   0.5803
  -0.700   0.1666   0.00738   0.00239  -0.0513  0.6950  0.5663  -0.6168   0.0000   0.0000   0.0000   0.5594
  -0.600   0.1767   0.00732   0.00240  -0.0511  0.6923  0.5855  -0.6248   0.0000   0.0000   0.0000   0.5399
  -0.500   0.1872   0.00730   0.00240  -0.0509  0.6881  0.5953  -0.6331   0.0000   0.0000   0.0000   0.5224
  -0.400   0.1979   0.00729   0.00238  -0.0508  0.6822  0.6025  -0.6414   0.0000   0.0000   0.0000   0.5066
  -0.300   0.2077   0.00724   0.00237  -0.0505  0.6743  0.6266  -0.6494   0.0000   0.0000   0.0000   0.4926
  -0.200   0.2169   0.00719   0.00237  -0.0500  0.6646  0.6485  -0.6571   0.0000   0.0000   0.0000   0.4798
  -0.100   0.2262   0.00717   0.00236  -0.0495  0.6530  0.6664  -0.6648   0.0000   0.0000   0.0000   0.4680
   0.000   0.2353   0.00720   0.00235  -0.0490  0.6392  0.6808  -0.6744   0.0000   0.0000   0.0000   0.4571
   0.100   0.2446   0.00726   0.00235  -0.0486  0.6225  0.6914  -0.6852   0.0000   0.0000   0.0000   0.4472
   0.200   0.2550   0.00731   0.00236  -0.0484  0.6061  0.6985  -0.6966   0.0000   0.0000   0.0000   0.4382
   0.300   0.2657   0.00730   0.00238  -0.0483  0.5990  0.7174  -0.7083   0.0000   0.0000   0.0000   0.4299
   0.400   0.2754   0.00723   0.00243  -0.0479  0.5968  0.7434  -0.7195   0.0000   0.0000   0.0000   0.4219
   0.500   0.2856   0.00719   0.00249  -0.0476  0.5957  0.7641  -0.7310   0.0000   0.0000   0.0000   0.4144
   0.600   0.2961   0.00718   0.00252  -0.0474  0.5931  0.7783  -0.7427   0.0000   0.0000   0.0000   0.4077
   0.700   0.3066   0.00718   0.00253  -0.0473  0.5893  0.7893  -0.7545   0.0000   0.0000   0.0000   0.4014
   0.800   0.3172   0.00720   0.00254  -0.0471  0.5844  0.7969  -0.7663   0.0000   0.0000   0.0000   0.3956
   0.900   0.3278   0.00722   0.00255  -0.0470  0.5782  0.8073  -0.7782   0.0000   0.0000   0.0000   0.3902
   1.000   0.3380   0.00724   0.00257  -0.0467  0.5711  0.8267  -0.7898   0.0000   0.0000   0.0000   0.3850
   1.100   0.3480   0.00728   0.00261  -0.0463  0.5632  0.8441  -0.8014   0.0000   0.0000   0.0000   0.3798
   1.200   0.3579   0.00734   0.00265  -0.0460  0.5547  0.8595  -0.8129   0.0000   0.0000   0.0000   0.3750
   1.300   0.3675   0.00742   0.00268  -0.0456  0.5458  0.8727  -0.8243   0.0000   0.0000   0.0000   0.3704
   1.400   0.3767   0.00750   0.00270  -0.0451  0.5359  0.8831  -0.8353   0.0000   0.0000   0.0000   0.3660
   1.500   0.3859   0.00757   0.00273  -0.0447  0.5250  0.8907  -0.8464   0.0000   0.0000   0.0000   0.3619
   1.600   0.3954   0.00764   0.00275  -0.0443  0.5143  0.8960  -0.8575   0.0000   0.0000   0.0000   0.3581
   1.700   0.4053   0.00769   0.00277  -0.0440  0.5053  0.8996  -0.8690   0.0000   0.0000   0.0000   0.3546
   1.800   0.4177   0.00774   0.00282  -0.0443  0.4997  0.9065  -0.8821   0.0000   0.0000   0.0000   0.3518
   1.900   0.4311   0.00777   0.00286  -0.0447  0.4989  0.9133  -0.8961   0.0000   0.0000   0.0000   0.3494
   2.000   0.4446   0.00780   0.00291  -0.0452  0.4981  0.9193  -0.9101   0.0000   0.0000   0.0000   0.3472
   2.100   0.4580   0.00784   0.00295  -0.0456  0.4970  0.9249  -0.9241   0.0000   0.0000   0.0000   0.3450
   2.200   0.4710   0.00788   0.00300  -0.0459  0.4957  0.9302  -0.9379   0.0000   0.0000   0.0000   0.3430
   2.300   0.4835   0.00792   0.00304  -0.0462  0.4941  0.9354  -0.9561   0.0000   0.0000   0.0000   0.3409
   2.400   0.4951   0.00796   0.00308  -0.0463  0.4922  0.9404  -0.9748   0.0000   0.0000   0.0000   0.3386
   2.500   0.5057   0.00800   0.00312  -0.0461  0.4899  0.9450  -0.9926   0.0000   0.0000   0.0000   0.3363
   2.600   0.5155   0.00805   0.00315  -0.0458  0.4872  0.9489  -1.0099   0.0000   0.0000   0.0000   0.3338
   2.700   0.5292   0.00809   0.00318  -0.0464  0.4837  0.9522  -1.0306   0.0000   0.0000   0.0000   0.3325
   2.800   0.5450   0.00814   0.00321  -0.0474  0.4791  0.9553  -1.0533   0.0000   0.0000   0.0000   0.3318
   2.900   0.5607   0.00820   0.00323  -0.0484  0.4733  0.9581  -1.0759   0.0000   0.0000   0.0000   0.3311
   3.000   0.5758   0.00828   0.00326  -0.0493  0.4649  0.9609  -1.1026   0.0000   0.0000   0.0000   0.3303
   3.100   0.5907   0.00840   0.00329  -0.0502  0.4539  0.9639  -1.1461   0.0000   0.0000   0.0000   0.3295
   3.200   0.6055   0.00854   0.00334  -0.0511  0.4409  0.9670  -1.1898   0.0000   0.0000   0.0000   0.3288
   3.300   0.6203   0.00868   0.00338  -0.0520  0.4258  0.9702  -1.2339   0.0000   0.0000   0.0000   0.3281
   3.400   0.6354   0.00879   0.00344  -0.0529  0.4112  0.9735  -1.2788   0.0000   0.0000   0.0000   0.3275
   3.500   0.6506   0.00887   0.00349  -0.0538  0.4006  0.9765  -1.3244   0.0000   0.0000   0.0000   0.3269
   3.600   0.6664   0.00892   0.00353  -0.0549  0.3988  0.9795  -1.3715   0.0000   0.0000   0.0000   0.3264
   3.700   0.6824   0.00896   0.00358  -0.0559  0.3975  0.9826  -1.4195   0.0000   0.0000   0.0000   0.3259
   3.800   0.6987   0.00901   0.00362  -0.0571  0.3957  0.9858  -1.4686   0.0000   0.0000   0.0000   0.3256
   3.900   0.7153   0.00907   0.00367  -0.0583  0.3933  0.9888  -1.5184   0.0000   0.0000   0.0000   0.3252
   4.000   0.7315   0.00913   0.00371  -0.0594  0.3900  0.9915  -1.5683   0.0000   0.0000   0.0000   0.3249
   4.100   0.7470   0.00919   0.00376  -0.0604  0.3855  0.9937  -1.6172   0.0000   0.0000   0.0000   0.3244
   4.200   0.7615   0.00927   0.00380  -0.0612  0.3795  0.9955  -1.6647   0.0000   0.0000   0.0000   0.3238
   4.300   0.7752   0.00936   0.00384  -0.0618  0.3716  0.9968  -1.7112   0.0000   0.0000   0.0000   0.3231
   4.400   0.7881   0.00948   0.00390  -0.0623  0.3621  0.9980  -1.7565   0.0000   0.0000   0.0000   0.3223
   4.500   0.8005   0.00962   0.00396  -0.0627  0.3519  0.9990  -1.8013   0.0000   0.0000   0.0000   0.3215
   4.600   0.8130   0.00976   0.00403  -0.0631  0.3414  0.9999  -1.8465   0.0000   0.0000   0.0000   0.3207
   4.700   0.8208   0.00987   0.00408  -0.0626  0.3317  1.0000  -1.8828   0.0000   0.0000   0.0000   0.3192
   4.800   0.8275   0.00996   0.00412  -0.0619  0.3215  1.0000  -1.9173   0.0000   0.0000   0.0000   0.3176
   4.900   0.8346   0.01004   0.00417  -0.0612  0.3112  1.0000  -1.9526   0.0000   0.0000   0.0000   0.3160
   5.000   0.8419   0.01010   0.00422  -0.0605  0.3023  1.0000  -1.9887   0.0000   0.0000   0.0000   0.3145
   5.100   0.8498   0.01015   0.00426  -0.0599  0.2985  1.0000  -2.0261   0.0000   0.0000   0.0000   0.3130
   5.200   0.8578   0.01021   0.00431  -0.0594  0.2958  1.0000  -2.0640   0.0000   0.0000   0.0000   0.3116
   5.300   0.8656   0.01028   0.00436  -0.0588  0.2919  1.0000  -2.1016   0.0000   0.0000   0.0000   0.3102
   5.400   0.8730   0.01037   0.00441  -0.0581  0.2863  1.0000  -2.1388   0.0000   0.0000   0.0000   0.3087
   5.500   0.8797   0.01049   0.00447  -0.0574  0.2783  1.0000  -2.1748   0.0000   0.0000   0.0000   0.3072
   5.600   0.8852   0.01068   0.00455  -0.0564  0.2684  1.0000  -2.2085   0.0000   0.0000   0.0000   0.3056
   5.700   0.8896   0.01091   0.00467  -0.0552  0.2572  1.0000  -2.2400   0.0000   0.0000   0.0000   0.3038
   5.800   0.8955   0.01107   0.00478  -0.0543  0.2481  1.0000  -2.2748   0.0000   0.0000   0.0000   0.3023
   5.900   0.9026   0.01119   0.00486  -0.0536  0.2426  1.0000  -2.3121   0.0000   0.0000   0.0000   0.3009
   6.000   0.9094   0.01133   0.00495  -0.0528  0.2366  1.0000  -2.3490   0.0000   0.0000   0.0000   0.2995
   6.100   0.9159   0.01148   0.00504  -0.0520  0.2301  1.0000  -2.3854   0.0000   0.0000   0.0000   0.2981
   6.200   0.9221   0.01165   0.00514  -0.0511  0.2232  1.0000  -2.4213   0.0000   0.0000   0.0000   0.2966
   6.300   0.9285   0.01182   0.00524  -0.0503  0.2155  1.0000  -2.4575   0.0000   0.0000   0.0000   0.2952
   6.400   0.9353   0.01197   0.00535  -0.0495  0.2068  1.0000  -2.4950   0.0000   0.0000   0.0000   0.2939
   6.500   0.9429   0.01209   0.00545  -0.0489  0.1996  1.0000  -2.5342   0.0000   0.0000   0.0000   0.2927
   6.600   0.9511   0.01218   0.00554  -0.0484  0.1968  1.0000  -2.5748   0.0000   0.0000   0.0000   0.2916
   6.700   0.9590   0.01228   0.00563  -0.0478  0.1922  1.0000  -2.6149   0.0000   0.0000   0.0000   0.2904
   6.800   0.9664   0.01242   0.00574  -0.0472  0.1860  1.0000  -2.6543   0.0000   0.0000   0.0000   0.2893
   6.900   0.9730   0.01261   0.00587  -0.0464  0.1762  1.0000  -2.6918   0.0000   0.0000   0.0000   0.2880
   7.000   0.9786   0.01288   0.00603  -0.0455  0.1632  1.0000  -2.7272   0.0000   0.0000   0.0000   0.2867
   7.100   0.9853   0.01310   0.00618  -0.0448  0.1492  1.0000  -2.7649   0.0000   0.0000   0.0000   0.2856
   7.200   0.9928   0.01327   0.00631  -0.0442  0.1426  1.0000  -2.8042   0.0000   0.0000   0.0000   0.2845
   7.300   0.9994   0.01349   0.00648  -0.0435  0.1338  1.0000  -2.8416   0.0000   0.0000   0.0000   0.2834
   7.400   1.0049   0.01380   0.00667  -0.0426  0.1225  1.0000  -2.8761   0.0000   0.0000   0.0000   0.2821
   7.500   1.0105   0.01410   0.00686  -0.0418  0.1065  1.0000  -2.9103   0.0000   0.0000   0.0000   0.2809
   7.600   1.0168   0.01437   0.00707  -0.0410  0.0927  1.0000  -2.9447   0.0000   0.0000   0.0000   0.2798
   7.700   1.0170   0.01504   0.00749  -0.0394  0.0721  1.0000  -2.9645   0.0000   0.0000   0.0000   0.2780
   7.800   1.0182   0.01565   0.00790  -0.0378  0.0497  1.0000  -2.9785   0.0000   0.0000   0.0000   0.2763
   7.900   1.0245   0.01593   0.00816  -0.0370  0.0459  1.0000  -3.0041   0.0000   0.0000   0.0000   0.2752
   8.000   1.0313   0.01616   0.00839  -0.0363  0.0440  1.0000  -3.0343   0.0000   0.0000   0.0000   0.2742
   8.100   1.0384   0.01639   0.00862  -0.0357  0.0428  1.0000  -3.0667   0.0000   0.0000   0.0000   0.2732
   8.200   1.0455   0.01660   0.00884  -0.0351  0.0420  1.0000  -3.1003   0.0000   0.0000   0.0000   0.2722
   8.300   1.0524   0.01679   0.00905  -0.0344  0.0413  1.0000  -3.1340   0.0000   0.0000   0.0000   0.2712
   8.400   1.0591   0.01699   0.00926  -0.0336  0.0408  1.0000  -3.1678   0.0000   0.0000   0.0000   0.2701
   8.500   1.0642   0.01727   0.00973  -0.0327  0.0369  1.0000  -3.2430   0.0000   0.0000   0.0000   0.2690
   8.600   1.0704   0.01748   0.00996  -0.0320  0.0355  1.0000  -3.2809   0.0000   0.0000   0.0000   0.2680
   8.700   1.0767   0.01771   0.01020  -0.0312  0.0345  1.0000  -3.3172   0.0000   0.0000   0.0000   0.2669
   8.800   1.0830   0.01793   0.01046  -0.0305  0.0336  1.0000  -3.3530   0.0000   0.0000   0.0000   0.2659
   8.900   1.0894   0.01816   0.01071  -0.0297  0.0329  1.0000  -3.3886   0.0000   0.0000   0.0000   0.2650
   9.000   1.0956   0.01841   0.01098  -0.0290  0.0322  1.0000  -3.4240   0.0000   0.0000   0.0000   0.2640
   9.100   1.1018   0.01865   0.01126  -0.0283  0.0317  1.0000  -3.4592   0.0000   0.0000   0.0000   0.2630
   9.200   1.1078   0.01891   0.01154  -0.0276  0.0312  1.0000  -3.4943   0.0000   0.0000   0.0000   0.2621
   9.300   1.1137   0.01918   0.01184  -0.0268  0.0308  1.0000  -3.5291   0.0000   0.0000   0.0000   0.2612
   9.400   1.1195   0.01945   0.01214  -0.0261  0.0304  1.0000  -3.5636   0.0000   0.0000   0.0000   0.2602
   9.500   1.1248   0.01974   0.01246  -0.0253  0.0301  1.0000  -3.5972   0.0000   0.0000   0.0000   0.2593
   9.600   1.1294   0.02005   0.01280  -0.0244  0.0298  1.0000  -3.6292   0.0000   0.0000   0.0000   0.2582
   9.700   1.1336   0.02036   0.01314  -0.0235  0.0296  1.0000  -3.6602   0.0000   0.0000   0.0000   0.2572
   9.800   1.1377   0.02068   0.01349  -0.0226  0.0293  1.0000  -3.6912   0.0000   0.0000   0.0000   0.2561
   9.900   1.1420   0.02102   0.01386  -0.0217  0.0291  1.0000  -3.7223   0.0000   0.0000   0.0000   0.2551
  10.000   1.1463   0.02137   0.01424  -0.0208  0.0288  1.0000  -3.7536   0.0000   0.0000   0.0000   0.2541
  10.100   1.1506   0.02173   0.01463  -0.0200  0.0286  1.0000  -3.7849   0.0000   0.0000   0.0000   0.2532
  10.200   1.1548   0.02211   0.01505  -0.0192  0.0284  1.0000  -3.8160   0.0000   0.0000   0.0000   0.2523
  10.300   1.1588   0.02251   0.01548  -0.0184  0.0282  1.0000  -3.8463   0.0000   0.0000   0.0000   0.2513
  10.400   1.1616   0.02296   0.01597  -0.0175  0.0281  1.0000  -3.8739   0.0000   0.0000   0.0000   0.2503
  10.500   1.1643   0.02344   0.01649  -0.0166  0.0279  1.0000  -3.9010   0.0000   0.0000   0.0000   0.2494
  10.600   1.1675   0.02391   0.01699  -0.0158  0.0277  1.0000  -3.9295   0.0000   0.0000   0.0000   0.2485
  10.700   1.1711   0.02439   0.01750  -0.0150  0.0276  1.0000  -3.9586   0.0000   0.0000   0.0000   0.2476
  10.800   1.1748   0.02486   0.01801  -0.0143  0.0274  1.0000  -3.9879   0.0000   0.0000   0.0000   0.2468
  10.900   1.1785   0.02535   0.01854  -0.0136  0.0273  1.0000  -4.0171   0.0000   0.0000   0.0000   0.2460
  11.000   1.1822   0.02585   0.01907  -0.0129  0.0271  1.0000  -4.0461   0.0000   0.0000   0.0000   0.2452
  11.100   1.1857   0.02637   0.01962  -0.0123  0.0270  1.0000  -4.0747   0.0000   0.0000   0.0000   0.2444
  11.200   1.1891   0.02690   0.02019  -0.0116  0.0268  1.0000  -4.1028   0.0000   0.0000   0.0000   0.2436
  11.300   1.1923   0.02745   0.02078  -0.0109  0.0267  1.0000  -4.1302   0.0000   0.0000   0.0000   0.2429
  11.400   1.1953   0.02802   0.02139  -0.0102  0.0266  1.0000  -4.1569   0.0000   0.0000   0.0000   0.2421
  11.500   1.1979   0.02862   0.02203  -0.0096  0.0264  1.0000  -4.1827   0.0000   0.0000   0.0000   0.2413
  11.600   1.2003   0.02924   0.02269  -0.0089  0.0263  1.0000  -4.2075   0.0000   0.0000   0.0000   0.2406
  11.700   1.2019   0.02993   0.02342  -0.0082  0.0262  1.0000  -4.2302   0.0000   0.0000   0.0000   0.2398
  11.800   1.2012   0.03075   0.02429  -0.0075  0.0261  1.0000  -4.2466   0.0000   0.0000   0.0000   0.2390
  11.900   1.2013   0.03153   0.02512  -0.0067  0.0260  1.0000  -4.2648   0.0000   0.0000   0.0000   0.2382
  12.000   1.2023   0.03227   0.02590  -0.0061  0.0259  1.0000  -4.2850   0.0000   0.0000   0.0000   0.2374
  12.100   1.2037   0.03301   0.02668  -0.0055  0.0258  1.0000  -4.3061   0.0000   0.0000   0.0000   0.2367
  12.200   1.2052   0.03375   0.02747  -0.0049  0.0257  1.0000  -4.3272   0.0000   0.0000   0.0000   0.2360
  12.300   1.2068   0.03452   0.02827  -0.0043  0.0256  1.0000  -4.3481   0.0000   0.0000   0.0000   0.2353
  12.400   1.2083   0.03530   0.02910  -0.0037  0.0255  1.0000  -4.3684   0.0000   0.0000   0.0000   0.2347
  12.500   1.2324   0.03406   0.02778  -0.0049  0.0281  1.0000  -4.4757   0.0000   0.0000   0.0000   0.2354
  12.600   1.2354   0.03470   0.02846  -0.0045  0.0281  1.0000  -4.5032   0.0000   0.0000   0.0000   0.2349
  12.700   1.2381   0.03537   0.02917  -0.0040  0.0281  1.0000  -4.5298   0.0000   0.0000   0.0000   0.2343
  12.800   1.2405   0.03608   0.02991  -0.0036  0.0280  1.0000  -4.5555   0.0000   0.0000   0.0000   0.2338
  12.900   1.2427   0.03682   0.03069  -0.0032  0.0279  1.0000  -4.5803   0.0000   0.0000   0.0000   0.2332
  13.000   1.2446   0.03760   0.03151  -0.0027  0.0279  1.0000  -4.6041   0.0000   0.0000   0.0000   0.2327
  13.100   1.2462   0.03842   0.03237  -0.0023  0.0278  1.0000  -4.6268   0.0000   0.0000   0.0000   0.2321
  13.200   1.2462   0.03942   0.03342  -0.0020  0.0277  1.0000  -4.6444   0.0000   0.0000   0.0000   0.2317
  13.300   1.2446   0.04062   0.03466  -0.0018  0.0276  1.0000  -4.6569   0.0000   0.0000   0.0000   0.2313
  13.400   1.2447   0.04164   0.03573  -0.0015  0.0275  1.0000  -4.6743   0.0000   0.0000   0.0000   0.2308
  13.500   1.2454   0.04259   0.03672  -0.0012  0.0274  1.0000  -4.6935   0.0000   0.0000   0.0000   0.2303
  13.600   1.2464   0.04352   0.03770  -0.0008  0.0273  1.0000  -4.7131   0.0000   0.0000   0.0000   0.2299
  13.700   1.2474   0.04445   0.03867  -0.0005  0.0272  1.0000  -4.7326   0.0000   0.0000   0.0000   0.2294
  13.800   1.2483   0.04539   0.03965  -0.0002  0.0271  1.0000  -4.7515   0.0000   0.0000   0.0000   0.2289
  13.900   1.2491   0.04635   0.04066   0.0001  0.0270  1.0000  -4.7697   0.0000   0.0000   0.0000   0.2285
  14.000   1.2496   0.04734   0.04169   0.0004  0.0268  1.0000  -4.7869   0.0000   0.0000   0.0000   0.2280
  14.100   1.2499   0.04836   0.04276   0.0007  0.0267  1.0000  -4.8029   0.0000   0.0000   0.0000   0.2276
  14.200   1.2499   0.04942   0.04387   0.0010  0.0266  1.0000  -4.8176   0.0000   0.0000   0.0000   0.2272
  14.300   1.2495   0.05053   0.04503   0.0012  0.0265  1.0000  -4.8307   0.0000   0.0000   0.0000   0.2268
  14.400   1.2486   0.05170   0.04625   0.0014  0.0264  1.0000  -4.8420   0.0000   0.0000   0.0000   0.2264
  14.500   1.2472   0.05293   0.04754   0.0016  0.0263  1.0000  -4.8511   0.0000   0.0000   0.0000   0.2260
  14.600   1.2429   0.05457   0.04925   0.0015  0.0262  1.0000  -4.8507   0.0000   0.0000   0.0000   0.2259
  14.700   1.2381   0.05635   0.05108   0.0012  0.0262  1.0000  -4.8479   0.0000   0.0000   0.0000   0.2258
  14.800   1.2354   0.05781   0.05260   0.0012  0.0261  1.0000  -4.8512   0.0000   0.0000   0.0000   0.2256
  14.900   1.2328   0.05918   0.05403   0.0013  0.0260  1.0000  -4.8549   0.0000   0.0000   0.0000   0.2253
  15.000   1.2302   0.06054   0.05545   0.0014  0.0259  1.0000  -4.8578   0.0000   0.0000   0.0000   0.2250
  15.100   1.2274   0.06193   0.05691   0.0014  0.0258  1.0000  -4.8597   0.0000   0.0000   0.0000   0.2247
  15.200   1.2244   0.06340   0.05843   0.0014  0.0257  1.0000  -4.8601   0.0000   0.0000   0.0000   0.2245
  15.300   1.2211   0.06495   0.06004   0.0014  0.0256  1.0000  -4.8587   0.0000   0.0000   0.0000   0.2243
  15.400   1.2173   0.06659   0.06175   0.0013  0.0255  1.0000  -4.8550   0.0000   0.0000   0.0000   0.2242
  15.500   1.2129   0.06835   0.06358   0.0011  0.0255  1.0000  -4.8488   0.0000   0.0000   0.0000   0.2241
  15.600   1.2079   0.07027   0.06558   0.0007  0.0254  1.0000  -4.8400   0.0000   0.0000   0.0000   0.2241
  15.700   1.2017   0.07245   0.06782   0.0001  0.0253  1.0000  -4.8264   0.0000   0.0000   0.0000   0.2244
  15.800   1.1910   0.07553   0.07097  -0.0013  0.0254  1.0000  -4.7978   0.0000   0.0000   0.0000   0.2253
  15.900   1.1848   0.07775   0.07326  -0.0020  0.0253  1.0000  -4.7830   0.0000   0.0000   0.0000   0.2256
  16.000   1.1794   0.07985   0.07543  -0.0025  0.0253  1.0000  -4.7696   0.0000   0.0000   0.0000   0.2258
  16.100   1.1740   0.08194   0.07759  -0.0030  0.0252  1.0000  -4.7555   0.0000   0.0000   0.0000   0.2260
  16.200   1.1684   0.08409   0.07980  -0.0036  0.0251  1.0000  -4.7397   0.0000   0.0000   0.0000   0.2263
  16.300   1.1626   0.08634   0.08213  -0.0043  0.0251  1.0000  -4.7221   0.0000   0.0000   0.0000   0.2267
  16.400   1.1563   0.08870   0.08456  -0.0051  0.0250  1.0000  -4.7019   0.0000   0.0000   0.0000   0.2271
  16.500   1.1664   0.08861   0.08441  -0.0053  0.0250  1.0000  -4.7845   0.0000   0.0000   0.0000   0.2270
  16.600   1.1788   0.08819   0.08393  -0.0054  0.0249  1.0000  -4.8818   0.0000   0.0000   0.0000   0.2269
  16.700   1.1879   0.08826   0.08397  -0.0056  0.0248  1.0000  -4.9591   0.0000   0.0000   0.0000   0.2268
  16.800   1.1954   0.08856   0.08425  -0.0059  0.0248  1.0000  -5.0274   0.0000   0.0000   0.0000   0.2268
  16.900   1.2018   0.08904   0.08471  -0.0063  0.0247  1.0000  -5.0892   0.0000   0.0000   0.0000   0.2268
  17.000   1.2071   0.08968   0.08535  -0.0067  0.0247  1.0000  -5.1446   0.0000   0.0000   0.0000   0.2269
  17.100   1.2109   0.09055   0.08621  -0.0072  0.0246  1.0000  -5.1918   0.0000   0.0000   0.0000   0.2270
  17.200   1.2123   0.09179   0.08747  -0.0079  0.0246  1.0000  -5.2249   0.0000   0.0000   0.0000   0.2273
  17.600   1.1874   0.10208   0.09796  -0.0130  0.0245  1.0000  -5.1674   0.0000   0.0000   0.0000   0.2307
  17.700   1.1939   0.10252   0.09839  -0.0133  0.0244  1.0000  -5.2308   0.0000   0.0000   0.0000   0.2307
  17.800   1.2002   0.10299   0.09884  -0.0136  0.0243  1.0000  -5.2934   0.0000   0.0000   0.0000   0.2306
  17.900   1.2064   0.10347   0.09930  -0.0139  0.0242  1.0000  -5.3554   0.0000   0.0000   0.0000   0.2306
  18.000   1.2123   0.10398   0.09979  -0.0143  0.0242  1.0000  -5.4164   0.0000   0.0000   0.0000   0.2306
  18.100   1.2181   0.10451   0.10030  -0.0146  0.0241  1.0000  -5.4764   0.0000   0.0000   0.0000   0.2305
  18.200   1.2237   0.10506   0.10084  -0.0149  0.0240  1.0000  -5.5355   0.0000   0.0000   0.0000   0.2305
  18.300   1.2291   0.10563   0.10140  -0.0152  0.0239  1.0000  -5.5935   0.0000   0.0000   0.0000   0.2304
  18.400   1.2343   0.10624   0.10199  -0.0156  0.0237  1.0000  -5.6503   0.0000   0.0000   0.0000   0.2304
  18.500   1.2393   0.10686   0.10261  -0.0159  0.0236  1.0000  -5.7058   0.0000   0.0000   0.0000   0.2304
  18.600   1.2440   0.10753   0.10327  -0.0163  0.0235  1.0000  -5.7593   0.0000   0.0000   0.0000   0.2304
  18.700   1.2483   0.10825   0.10398  -0.0166  0.0234  1.0000  -5.8109   0.0000   0.0000   0.0000   0.2304
  18.800   1.2530   0.10896   0.10468  -0.0170  0.0232  1.0000  -5.8639   0.0000   0.0000   0.0000   0.2303
  18.900   1.2574   0.10970   0.10542  -0.0174  0.0231  1.0000  -5.9154   0.0000   0.0000   0.0000   0.2303
  19.000   1.2615   0.11047   0.10619  -0.0178  0.0229  1.0000  -5.9651   0.0000   0.0000   0.0000   0.2304
  19.100   1.2654   0.11128   0.10700  -0.0182  0.0227  1.0000  -6.0130   0.0000   0.0000   0.0000   0.2304
  19.200   1.2689   0.11214   0.10786  -0.0186  0.0226  1.0000  -6.0588   0.0000   0.0000   0.0000   0.2304
  19.300   1.2722   0.11305   0.10877  -0.0190  0.0224  1.0000  -6.1025   0.0000   0.0000   0.0000   0.2305
  19.400   1.2750   0.11401   0.10973  -0.0195  0.0222  1.0000  -6.1437   0.0000   0.0000   0.0000   0.2305
  19.500   1.2774   0.11504   0.11077  -0.0200  0.0220  1.0000  -6.1820   0.0000   0.0000   0.0000   0.2307
  19.600   1.2792   0.11615   0.11190  -0.0206  0.0218  1.0000  -6.2166   0.0000   0.0000   0.0000   0.2308
  19.700   1.2804   0.11739   0.11315  -0.0212  0.0217  1.0000  -6.2465   0.0000   0.0000   0.0000   0.2310
  19.800   1.2805   0.11879   0.11457  -0.0219  0.0215  1.0000  -6.2697   0.0000   0.0000   0.0000   0.2313
  19.900   1.2689   0.12235   0.11820  -0.0239  0.0215  1.0000  -6.2120   0.0000   0.0000   0.0000   0.2328
  20.000   1.2660   0.12430   0.12019  -0.0249  0.0213  1.0000  -6.2133   0.0000   0.0000   0.0000   0.2334
  20.100   1.2655   0.12581   0.12172  -0.0257  0.0212  1.0000  -6.2307   0.0000   0.0000   0.0000   0.2338
  20.200   1.2655   0.12721   0.12313  -0.0265  0.0210  1.0000  -6.2522   0.0000   0.0000   0.0000   0.2341
  20.300   1.2658   0.12856   0.12449  -0.0272  0.0208  1.0000  -6.2748   0.0000   0.0000   0.0000   0.2345
  20.400   1.2660   0.12991   0.12586  -0.0280  0.0206  1.0000  -6.2973   0.0000   0.0000   0.0000   0.2348
  20.500   1.2669   0.13121   0.12716  -0.0287  0.0204  1.0000  -6.3236   0.0000   0.0000   0.0000   0.2351
  20.600   1.2672   0.13259   0.12855  -0.0295  0.0202  1.0000  -6.3465   0.0000   0.0000   0.0000   0.2354
  20.700   1.2669   0.13406   0.13004  -0.0303  0.0199  1.0000  -6.3638   0.0000   0.0000   0.0000   0.2358
  20.800   1.2651   0.13573   0.13173  -0.0313  0.0198  1.0000  -6.3709   0.0000   0.0000   0.0000   0.2364
  20.900   1.2484   0.14000   0.13610  -0.0340  0.0198  1.0000  -6.2643   0.0000   0.0000   0.0000   0.2387
  21.000   1.2470   0.14157   0.13770  -0.0350  0.0196  1.0000  -6.2727   0.0000   0.0000   0.0000   0.2392
  21.100   1.2468   0.14294   0.13908  -0.0358  0.0194  1.0000  -6.2901   0.0000   0.0000   0.0000   0.2397
  21.200   1.2664   0.14164   0.13738  -0.0357  0.0160  1.0000  -6.6044   0.0000   0.0000   0.0000   0.2387
  21.300   1.2632   0.14345   0.13918  -0.0368  0.0157  1.0000  -6.6040   0.0000   0.0000   0.0000   0.2394
  21.400   1.2594   0.14538   0.14112  -0.0380  0.0154  1.0000  -6.5970   0.0000   0.0000   0.0000   0.2402
  21.500   1.2544   0.14755   0.14331  -0.0394  0.0152  1.0000  -6.5787   0.0000   0.0000   0.0000   0.2411
  21.600   1.2469   0.15024   0.14605  -0.0410  0.0151  1.0000  -6.5368   0.0000   0.0000   0.0000   0.2424
  21.700   1.2272   0.15552   0.15151  -0.0442  0.0157  1.0000  -6.3777   0.0000   0.0000   0.0000   0.2454
  21.800   1.2225   0.15788   0.15388  -0.0456  0.0155  1.0000  -6.3578   0.0000   0.0000   0.0000   0.2465
  21.900   1.2192   0.15996   0.15596  -0.0469  0.0151  1.0000  -6.3505   0.0000   0.0000   0.0000   0.2474
  22.000   1.2163   0.16196   0.15796  -0.0481  0.0147  1.0000  -6.3458   0.0000   0.0000   0.0000   0.2482
  22.100   1.2135   0.16396   0.15996  -0.0493  0.0143  1.0000  -6.3401   0.0000   0.0000   0.0000   0.2490
  22.200   1.2105   0.16601   0.16202  -0.0505  0.0138  1.0000  -6.3309   0.0000   0.0000   0.0000   0.2498
  22.300   1.2069   0.16820   0.16424  -0.0518  0.0134  1.0000  -6.3147   0.0000   0.0000   0.0000   0.2508
  22.400   1.2022   0.17063   0.16671  -0.0532  0.0131  1.0000  -6.2878   0.0000   0.0000   0.0000   0.2518
  22.500   1.1958   0.17354   0.16967  -0.0548  0.0128  1.0000  -6.2421   0.0000   0.0000   0.0000   0.2532
  22.600   1.1517   0.18558   0.18226  -0.0610  0.0172  1.0000  -5.6966   0.0000   0.0000   0.0000   0.2607
  22.700   1.1545   0.18658   0.18323  -0.0617  0.0169  1.0000  -5.7454   0.0000   0.0000   0.0000   0.2608
  22.800   1.1579   0.18756   0.18394  -0.0626  0.0137  1.0000  -5.8962   0.0000   0.0000   0.0000   0.2611
  22.900   1.1534   0.19029   0.18670  -0.0641  0.0132  1.0000  -5.8632   0.0000   0.0000   0.0000   0.2623
  23.000   1.1482   0.19322   0.18966  -0.0656  0.0128  1.0000  -5.8206   0.0000   0.0000   0.0000   0.2637
  23.100   1.1431   0.19616   0.19262  -0.0671  0.0125  1.0000  -5.7748   0.0000   0.0000   0.0000   0.2651
  23.200   1.1401   0.19862   0.19512  -0.0684  0.0125  1.0000  -5.7470   0.0000   0.0000   0.0000   0.2662
  23.300   1.1367   0.20124   0.19778  -0.0698  0.0125  1.0000  -5.7132   0.0000   0.0000   0.0000   0.2673
  23.400   1.1326   0.20411   0.20068  -0.0712  0.0124  1.0000  -5.6696   0.0000   0.0000   0.0000   0.2686
  23.500   1.1270   0.20741   0.20403  -0.0728  0.0124  1.0000  -5.6092   0.0000   0.0000   0.0000   0.2702
  23.600   1.1185   0.21161   0.20829  -0.0748  0.0124  1.0000  -5.5127   0.0000   0.0000   0.0000   0.2724
  24.000   1.0929   0.22685   0.22362  -0.0817  0.0124  1.0000  -5.2578   0.0000   0.0000   0.0000   0.2799


