xflr5 v6.61

 Calculated polar for: NACA 65-210

 1 1 Reynolds number fixed          Mach number fixed         

 xtrf =   1.000 (top)        1.000 (bottom)
 Mach =   0.000     Re =     0.625 e 6     Ncrit =   9.000

  alpha     CL        CD       CDp       Cm    Top Xtr Bot Xtr   Cpmin    Chinge    XCp    
 ------- -------- --------- --------- -------- ------- ------- -------- --------- ---------
 -10.000  -0.4534   0.08317   0.08097  -0.0434  1.0000  0.0141  -2.5300   0.0000   0.0000   0.0000   0.1468
  -9.900  -0.4559   0.08099   0.07879  -0.0446  1.0000  0.0142  -2.5776   0.0000   0.0000   0.0000   0.1449
  -9.800  -0.4586   0.07868   0.07649  -0.0460  1.0000  0.0142  -2.6293   0.0000   0.0000   0.0000   0.1425
  -9.700  -0.4614   0.07603   0.07385  -0.0480  1.0000  0.0142  -2.6935   0.0000   0.0000   0.0000   0.1388
  -9.600  -0.4648   0.07326   0.07106  -0.0503  1.0000  0.0142  -2.7656   0.0000   0.0000   0.0000   0.1347
  -9.500  -0.4694   0.07096   0.06875  -0.0520  1.0000  0.0142  -2.8242   0.0000   0.0000   0.0000   0.1323
  -9.400  -0.4747   0.06891   0.06668  -0.0534  1.0000  0.0142  -2.8761   0.0000   0.0000   0.0000   0.1308
  -9.300  -0.4807   0.06711   0.06486  -0.0544  1.0000  0.0142  -2.9221   0.0000   0.0000   0.0000   0.1302
  -9.200  -0.4871   0.06549   0.06322  -0.0551  1.0000  0.0142  -2.9635   0.0000   0.0000   0.0000   0.1304
  -9.100  -0.4940   0.06405   0.06176  -0.0555  1.0000  0.0142  -3.0012   0.0000   0.0000   0.0000   0.1314
  -9.000  -0.5012   0.06277   0.06046  -0.0556  1.0000  0.0142  -3.0352   0.0000   0.0000   0.0000   0.1330
  -8.900  -0.5089   0.06164   0.05931  -0.0553  1.0000  0.0142  -3.0659   0.0000   0.0000   0.0000   0.1355
  -8.800  -0.5173   0.06069   0.05834  -0.0545  1.0000  0.0142  -3.0932   0.0000   0.0000   0.0000   0.1388
  -8.700  -0.5264   0.05997   0.05760  -0.0533  1.0000  0.0142  -3.1171   0.0000   0.0000   0.0000   0.1432
  -8.600  -0.5365   0.05949   0.05710  -0.0515  1.0000  0.0142  -3.1377   0.0000   0.0000   0.0000   0.1486
  -8.500  -0.5474   0.05927   0.05688  -0.0490  1.0000  0.0142  -3.1546   0.0000   0.0000   0.0000   0.1551
  -8.400  -0.5566   0.05867   0.05626  -0.0472  0.9996  0.0142  -3.1752   0.0000   0.0000   0.0000   0.1599
  -8.300  -0.5593   0.05667   0.05420  -0.0478  0.9986  0.0142  -3.2073   0.0000   0.0000   0.0000   0.1595
  -8.200  -0.5608   0.05474   0.05221  -0.0483  0.9974  0.0143  -3.2318   0.0000   0.0000   0.0000   0.1588
  -8.100  -0.5614   0.05289   0.05029  -0.0487  0.9959  0.0144  -3.2484   0.0000   0.0000   0.0000   0.1582
  -8.000  -0.5609   0.05110   0.04843  -0.0491  0.9941  0.0145  -3.2570   0.0000   0.0000   0.0000   0.1575
  -7.900  -0.5594   0.04936   0.04662  -0.0495  0.9921  0.0146  -3.2585   0.0000   0.0000   0.0000   0.1567
  -7.800  -0.5571   0.04768   0.04487  -0.0498  0.9897  0.0147  -3.2534   0.0000   0.0000   0.0000   0.1558
  -7.700  -0.5540   0.04605   0.04317  -0.0501  0.9872  0.0149  -3.2429   0.0000   0.0000   0.0000   0.1548
  -7.600  -0.5500   0.04446   0.04150  -0.0504  0.9846  0.0150  -3.2275   0.0000   0.0000   0.0000   0.1536
  -7.500  -0.5453   0.04290   0.03987  -0.0507  0.9819  0.0151  -3.2084   0.0000   0.0000   0.0000   0.1523
  -7.400  -0.5399   0.04138   0.03826  -0.0511  0.9793  0.0152  -3.1860   0.0000   0.0000   0.0000   0.1508
  -7.300  -0.5338   0.03987   0.03667  -0.0514  0.9768  0.0154  -3.1611   0.0000   0.0000   0.0000   0.1491
  -7.200  -0.5269   0.03841   0.03512  -0.0517  0.9744  0.0155  -3.1317   0.0000   0.0000   0.0000   0.1473
  -7.100  -0.5194   0.03699   0.03362  -0.0521  0.9722  0.0156  -3.0978   0.0000   0.0000   0.0000   0.1452
  -7.000  -0.5115   0.03559   0.03213  -0.0525  0.9698  0.0158  -3.0639   0.0000   0.0000   0.0000   0.1429
  -6.800  -0.5123   0.02238   0.01760  -0.0487  0.9601  0.0085  -4.2917   0.0000   0.0000   0.0000   0.1499
  -6.600  -0.4930   0.01943   0.01434  -0.0488  0.9514  0.0079  -4.3001   0.0000   0.0000   0.0000   0.1460
  -6.500  -0.4863   0.01795   0.01269  -0.0480  0.9490  0.0078  -4.3308   0.0000   0.0000   0.0000   0.1462
  -6.400  -0.4786   0.01705   0.01168  -0.0474  0.9472  0.0078  -4.2987   0.0000   0.0000   0.0000   0.1460
  -6.300  -0.4702   0.01640   0.01094  -0.0469  0.9451  0.0079  -4.2385   0.0000   0.0000   0.0000   0.1453
  -6.200  -0.4614   0.01590   0.01038  -0.0465  0.9426  0.0079  -4.1600   0.0000   0.0000   0.0000   0.1444
  -6.100  -0.4523   0.01552   0.00996  -0.0461  0.9399  0.0080  -4.0677   0.0000   0.0000   0.0000   0.1432
  -6.000  -0.4429   0.01525   0.00965  -0.0458  0.9370  0.0081  -3.9633   0.0000   0.0000   0.0000   0.1417
  -5.900  -0.4332   0.01510   0.00947  -0.0456  0.9341  0.0082  -3.8458   0.0000   0.0000   0.0000   0.1400
  -5.800  -0.4241   0.01471   0.00904  -0.0452  0.9310  0.0083  -3.7563   0.0000   0.0000   0.0000   0.1386
  -5.700  -0.4174   0.01358   0.00780  -0.0445  0.9275  0.0086  -3.7557   0.0000   0.0000   0.0000   0.1388
  -5.600  -0.4095   0.01295   0.00710  -0.0439  0.9240  0.0091  -3.6741   0.0000   0.0000   0.0000   0.1381
  -5.500  -0.3996   0.01284   0.00700  -0.0438  0.9208  0.0095  -3.5329   0.0000   0.0000   0.0000   0.1358
  -5.400  -0.3890   0.01292   0.00711  -0.0438  0.9176  0.0099  -3.3588   0.0000   0.0000   0.0000   0.1329
  -5.300  -0.3781   0.01308   0.00732  -0.0439  0.9141  0.0106  -3.1653   0.0000   0.0000   0.0000   0.1295
  -5.200  -0.3664   0.01349   0.00778  -0.0441  0.9103  0.0120  -2.9187   0.0000   0.0000   0.0000   0.1253
  -5.100  -0.3553   0.01445   0.00881  -0.0448  0.9056  0.0194  -2.4008   0.0000   0.0000   0.0000   0.1199
  -5.000  -0.3449   0.01418   0.00850  -0.0447  0.9006  0.0196  -2.3498   0.0000   0.0000   0.0000   0.1162
  -4.900  -0.3350   0.01387   0.00817  -0.0445  0.8992  0.0198  -2.3026   0.0000   0.0000   0.0000   0.1129
  -4.800  -0.3252   0.01356   0.00784  -0.0443  0.8977  0.0200  -2.2575   0.0000   0.0000   0.0000   0.1095
  -4.700  -0.3153   0.01330   0.00756  -0.0442  0.8960  0.0203  -2.2071   0.0000   0.0000   0.0000   0.1058
  -4.600  -0.3052   0.01317   0.00742  -0.0441  0.8940  0.0209  -2.1405   0.0000   0.0000   0.0000   0.1015
  -4.500  -0.2949   0.01307   0.00733  -0.0440  0.8918  0.0217  -2.0707   0.0000   0.0000   0.0000   0.0967
  -4.400  -0.2847   0.01297   0.00723  -0.0439  0.8894  0.0223  -2.0048   0.0000   0.0000   0.0000   0.0917
  -4.300  -0.2746   0.01281   0.00705  -0.0438  0.8869  0.0228  -1.9480   0.0000   0.0000   0.0000   0.0865
  -4.200  -0.2647   0.01253   0.00675  -0.0436  0.8841  0.0230  -1.9069   0.0000   0.0000   0.0000   0.0813
  -4.100  -0.2551   0.01214   0.00632  -0.0433  0.8812  0.0229  -1.8823   0.0000   0.0000   0.0000   0.0764
  -4.000  -0.2457   0.01176   0.00591  -0.0429  0.8781  0.0228  -1.8578   0.0000   0.0000   0.0000   0.0711
  -3.900  -0.2362   0.01142   0.00553  -0.0426  0.8750  0.0228  -1.8322   0.0000   0.0000   0.0000   0.0655
  -3.800  -0.2268   0.01110   0.00517  -0.0423  0.8718  0.0227  -1.8057   0.0000   0.0000   0.0000   0.0595
  -3.700  -0.2174   0.01081   0.00483  -0.0420  0.8684  0.0227  -1.7781   0.0000   0.0000   0.0000   0.0528
  -3.600  -0.2078   0.01055   0.00452  -0.0417  0.8648  0.0227  -1.7495   0.0000   0.0000   0.0000   0.0452
  -3.500  -0.1980   0.01031   0.00423  -0.0415  0.8606  0.0228  -1.7197   0.0000   0.0000   0.0000   0.0365
  -3.400  -0.1880   0.01010   0.00397  -0.0413  0.8560  0.0229  -1.6887   0.0000   0.0000   0.0000   0.0260
  -3.300  -0.1776   0.00992   0.00374  -0.0413  0.8511  0.0231  -1.6563   0.0000   0.0000   0.0000   0.0134
  -3.200  -0.1671   0.00972   0.00352  -0.0412  0.8495  0.0233  -1.6228   0.0000   0.0000   0.0000  -0.0008
  -3.100  -0.1566   0.00954   0.00331  -0.0411  0.8482  0.0237  -1.5881   0.0000   0.0000   0.0000  -0.0171
  -3.000  -0.1460   0.00939   0.00313  -0.0411  0.8468  0.0241  -1.5516   0.0000   0.0000   0.0000  -0.0360
  -2.900  -0.1353   0.00925   0.00297  -0.0411  0.8451  0.0246  -1.5125   0.0000   0.0000   0.0000  -0.0583
  -2.800  -0.1245   0.00915   0.00285  -0.0411  0.8432  0.0251  -1.4697   0.0000   0.0000   0.0000  -0.0847
  -2.700  -0.1137   0.00906   0.00276  -0.0411  0.8411  0.0256  -1.4226   0.0000   0.0000   0.0000  -0.1165
  -2.600  -0.1032   0.00874   0.00230  -0.0409  0.8388  0.0329  -1.4534   0.0000   0.0000   0.0000  -0.1517
  -2.500  -0.0924   0.00859   0.00215  -0.0409  0.8364  0.0422  -1.4263   0.0000   0.0000   0.0000  -0.1979
  -2.400  -0.0816   0.00848   0.00207  -0.0409  0.8339  0.0496  -1.3780   0.0000   0.0000   0.0000  -0.2568
  -2.300  -0.0716   0.00817   0.00196  -0.0409  0.8312  0.0951  -1.3289   0.0000   0.0000   0.0000  -0.3278
  -2.200  -0.0622   0.00768   0.00181  -0.0410  0.8283  0.1974  -1.2795   0.0000   0.0000   0.0000  -0.4159
  -2.100  -0.0533   0.00705   0.00165  -0.0411  0.8254  0.3279  -1.2301   0.0000   0.0000   0.0000  -0.5297
  -2.000  -0.0447   0.00638   0.00151  -0.0412  0.8225  0.4787  -1.1806   0.0000   0.0000   0.0000  -0.6812
  -1.900  -0.0348   0.00613   0.00149  -0.0412  0.8193  0.5513  -1.1265   0.0000   0.0000   0.0000  -0.9422
  -1.800  -0.0246   0.00600   0.00149  -0.0411  0.8159  0.5909  -1.0715   0.0000   0.0000   0.0000  -1.4313
  -1.700  -0.0140   0.00595   0.00149  -0.0410  0.8119  0.6113  -1.0158   0.0000   0.0000   0.0000  -2.7092
  -1.600  -0.0035   0.00591   0.00151  -0.0409  0.8073  0.6354  -0.9609   0.0000   0.0000   0.0000  -11.6362
  -1.500   0.0076   0.00593   0.00153  -0.0410  0.8022  0.6493  -0.9051   0.0000   0.0000   0.0000   5.6548
  -1.400   0.0182   0.00587   0.00157  -0.0409  0.7998  0.6709  -0.8513   0.0000   0.0000   0.0000   2.5174
  -1.300   0.0289   0.00583   0.00159  -0.0408  0.7987  0.6866  -0.7975   0.0000   0.0000   0.0000   1.6721
  -1.200   0.0400   0.00584   0.00160  -0.0408  0.7973  0.6958  -0.7436   0.0000   0.0000   0.0000   1.2770
  -1.100   0.0512   0.00584   0.00161  -0.0409  0.7959  0.7021  -0.6902   0.0000   0.0000   0.0000   1.0528
  -1.000   0.0619   0.00580   0.00162  -0.0408  0.7942  0.7139  -0.6388   0.0000   0.0000   0.0000   0.9126
  -0.900   0.0726   0.00578   0.00165  -0.0408  0.7924  0.7226  -0.5879   0.0000   0.0000   0.0000   0.8133
  -0.800   0.0835   0.00577   0.00166  -0.0407  0.7904  0.7294  -0.5375   0.0000   0.0000   0.0000   0.7392
  -0.700   0.0945   0.00577   0.00168  -0.0407  0.7884  0.7348  -0.4876   0.0000   0.0000   0.0000   0.6820
  -0.600   0.1057   0.00578   0.00169  -0.0408  0.7862  0.7393  -0.4382   0.0000   0.0000   0.0000   0.6366
  -0.500   0.1168   0.00580   0.00170  -0.0408  0.7839  0.7438  -0.3897   0.0000   0.0000   0.0000   0.5998
  -0.400   0.1278   0.00583   0.00172  -0.0408  0.7815  0.7474  -0.3725   0.0000   0.0000   0.0000   0.5694
  -0.300   0.1389   0.00585   0.00174  -0.0408  0.7791  0.7507  -0.3772   0.0000   0.0000   0.0000   0.5438
  -0.200   0.1496   0.00581   0.00173  -0.0407  0.7766  0.7602  -0.3818   0.0000   0.0000   0.0000   0.5223
  -0.100   0.1601   0.00580   0.00175  -0.0406  0.7740  0.7675  -0.3864   0.0000   0.0000   0.0000   0.5035
   0.000   0.1707   0.00581   0.00177  -0.0405  0.7712  0.7730  -0.3909   0.0000   0.0000   0.0000   0.4869
   0.100   0.1814   0.00582   0.00179  -0.0404  0.7682  0.7772  -0.3955   0.0000   0.0000   0.0000   0.4724
   0.200   0.1923   0.00584   0.00180  -0.0404  0.7648  0.7803  -0.4001   0.0000   0.0000   0.0000   0.4596
   0.300   0.2033   0.00587   0.00181  -0.0405  0.7607  0.7827  -0.4053   0.0000   0.0000   0.0000   0.4483
   0.400   0.2144   0.00591   0.00183  -0.0405  0.7548  0.7851  -0.4105   0.0000   0.0000   0.0000   0.4382
   0.500   0.2255   0.00594   0.00184  -0.0406  0.7498  0.7874  -0.4159   0.0000   0.0000   0.0000   0.4290
   0.600   0.2365   0.00591   0.00181  -0.0405  0.7473  0.7895  -0.4215   0.0000   0.0000   0.0000   0.4205
   0.700   0.2475   0.00588   0.00178  -0.0405  0.7433  0.7916  -0.4368   0.0000   0.0000   0.0000   0.4127
   0.800   0.2584   0.00586   0.00176  -0.0405  0.7376  0.7935  -0.4890   0.0000   0.0000   0.0000   0.4056
   0.900   0.2692   0.00586   0.00172  -0.0404  0.7300  0.7953  -0.5418   0.0000   0.0000   0.0000   0.3990
   1.000   0.2798   0.00588   0.00169  -0.0403  0.7210  0.7968  -0.5951   0.0000   0.0000   0.0000   0.3928
   1.100   0.2902   0.00593   0.00166  -0.0402  0.7100  0.7981  -0.6487   0.0000   0.0000   0.0000   0.3871
   1.200   0.3010   0.00598   0.00166  -0.0401  0.6997  0.7992  -0.7040   0.0000   0.0000   0.0000   0.3820
   1.300   0.3122   0.00594   0.00165  -0.0402  0.6958  0.8027  -0.7609   0.0000   0.0000   0.0000   0.3774
   1.400   0.3231   0.00591   0.00163  -0.0402  0.6904  0.8076  -0.8181   0.0000   0.0000   0.0000   0.3730
   1.500   0.3338   0.00591   0.00163  -0.0401  0.6839  0.8122  -0.8756   0.0000   0.0000   0.0000   0.3687
   1.600   0.3443   0.00591   0.00164  -0.0400  0.6773  0.8163  -0.9335   0.0000   0.0000   0.0000   0.3647
   1.700   0.3547   0.00594   0.00165  -0.0399  0.6700  0.8199  -0.9919   0.0000   0.0000   0.0000   0.3609
   1.800   0.3649   0.00598   0.00166  -0.0397  0.6609  0.8233  -1.0505   0.0000   0.0000   0.0000   0.3572
   1.900   0.3752   0.00603   0.00168  -0.0396  0.6502  0.8265  -1.1099   0.0000   0.0000   0.0000   0.3538
   2.000   0.3860   0.00603   0.00170  -0.0396  0.6447  0.8296  -1.1717   0.0000   0.0000   0.0000   0.3507
   2.100   0.3966   0.00606   0.00171  -0.0395  0.6326  0.8325  -1.2335   0.0000   0.0000   0.0000   0.3477
   2.200   0.4063   0.00616   0.00171  -0.0392  0.6120  0.8352  -1.2938   0.0000   0.0000   0.0000   0.3446
   2.300   0.4164   0.00624   0.00173  -0.0391  0.5939  0.8378  -1.3555   0.0000   0.0000   0.0000   0.3419
   2.400   0.4265   0.00634   0.00175  -0.0389  0.5706  0.8402  -1.4177   0.0000   0.0000   0.0000   0.3392
   2.500   0.4361   0.00648   0.00179  -0.0387  0.5462  0.8425  -1.4789   0.0000   0.0000   0.0000   0.3367
   2.600   0.4459   0.00662   0.00183  -0.0386  0.5166  0.8446  -1.5411   0.0000   0.0000   0.0000   0.3343
   2.700   0.4531   0.00703   0.00193  -0.0380  0.4461  0.8465  -1.5952   0.0000   0.0000   0.0000   0.3317
   2.800   0.4585   0.00770   0.00214  -0.0373  0.3404  0.8483  -1.6432   0.0000   0.0000   0.0000   0.3291
   2.900   0.4643   0.00833   0.00237  -0.0367  0.2452  0.8496  -1.6921   0.0000   0.0000   0.0000   0.3267
   3.000   0.4715   0.00875   0.00253  -0.0363  0.1788  0.8553  -1.7450   0.0000   0.0000   0.0000   0.3246
   3.100   0.4781   0.00920   0.00272  -0.0358  0.1151  0.8607  -1.7949   0.0000   0.0000   0.0000   0.3223
   3.200   0.4846   0.00961   0.00290  -0.0351  0.0632  0.8655  -1.8438   0.0000   0.0000   0.0000   0.3199
   3.300   0.4929   0.00982   0.00302  -0.0346  0.0418  0.8696  -1.8944   0.0000   0.0000   0.0000   0.3177
   3.400   0.5008   0.01012   0.00334  -0.0339  0.0234  0.8734  -1.8693   0.0000   0.0000   0.0000   0.3150
   3.500   0.5103   0.01021   0.00345  -0.0336  0.0225  0.8770  -1.9186   0.0000   0.0000   0.0000   0.3130
   3.600   0.5196   0.01032   0.00360  -0.0332  0.0215  0.8805  -1.9617   0.0000   0.0000   0.0000   0.3111
   3.700   0.5288   0.01045   0.00376  -0.0329  0.0208  0.8839  -2.0026   0.0000   0.0000   0.0000   0.3093
   3.800   0.5380   0.01060   0.00395  -0.0325  0.0202  0.8871  -2.0428   0.0000   0.0000   0.0000   0.3074
   3.900   0.5471   0.01076   0.00414  -0.0321  0.0198  0.8902  -2.0828   0.0000   0.0000   0.0000   0.3057
   4.000   0.5561   0.01093   0.00435  -0.0317  0.0195  0.8929  -2.1224   0.0000   0.0000   0.0000   0.3039
   4.100   0.5650   0.01112   0.00457  -0.0313  0.0193  0.8955  -2.1616   0.0000   0.0000   0.0000   0.3022
   4.200   0.5738   0.01132   0.00481  -0.0309  0.0191  0.8976  -2.2002   0.0000   0.0000   0.0000   0.3006
   4.300   0.5823   0.01154   0.00507  -0.0304  0.0190  0.8994  -2.2379   0.0000   0.0000   0.0000   0.2989
   4.400   0.5904   0.01175   0.00533  -0.0298  0.0190  0.9049  -2.2741   0.0000   0.0000   0.0000   0.2972
   4.500   0.5975   0.01195   0.00558  -0.0290  0.0189  0.9111  -2.3077   0.0000   0.0000   0.0000   0.2952
   4.600   0.6037   0.01217   0.00585  -0.0280  0.0189  0.9167  -2.3391   0.0000   0.0000   0.0000   0.2929
   4.700   0.6097   0.01241   0.00614  -0.0270  0.0189  0.9220  -2.3693   0.0000   0.0000   0.0000   0.2907
   4.800   0.6157   0.01267   0.00644  -0.0259  0.0190  0.9272  -2.3988   0.0000   0.0000   0.0000   0.2885
   4.900   0.6217   0.01295   0.00676  -0.0249  0.0190  0.9323  -2.4276   0.0000   0.0000   0.0000   0.2863
   5.000   0.6277   0.01325   0.00711  -0.0239  0.0191  0.9371  -2.4553   0.0000   0.0000   0.0000   0.2842
   5.100   0.6338   0.01358   0.00747  -0.0229  0.0191  0.9414  -2.4823   0.0000   0.0000   0.0000   0.2822
   5.200   0.6401   0.01393   0.00786  -0.0219  0.0192  0.9451  -2.5087   0.0000   0.0000   0.0000   0.2803
   5.300   0.6467   0.01431   0.00827  -0.0210  0.0193  0.9481  -2.5344   0.0000   0.0000   0.0000   0.2785
   5.400   0.6542   0.01474   0.00874  -0.0203  0.0195  0.9511  -2.5606   0.0000   0.0000   0.0000   0.2770
   5.500   0.6651   0.01527   0.00931  -0.0204  0.0196  0.9573  -2.5904   0.0000   0.0000   0.0000   0.2765
   5.600   0.6765   0.01585   0.00993  -0.0205  0.0198  0.9633  -2.6206   0.0000   0.0000   0.0000   0.2761
   5.700   0.6883   0.01628   0.01039  -0.0208  0.0196  0.9694  -2.6710   0.0000   0.0000   0.0000   0.2759
   5.800   0.7004   0.01656   0.01069  -0.0212  0.0192  0.9756  -2.7411   0.0000   0.0000   0.0000   0.2759
   5.900   0.7127   0.01675   0.01089  -0.0217  0.0186  0.9814  -2.8241   0.0000   0.0000   0.0000   0.2759
   6.100   0.7358   0.01565   0.00979  -0.0231  0.0097  0.9977  -3.5946   0.0000   0.0000   0.0000   0.2767
   6.200   0.7469   0.01551   0.00962  -0.0234  0.0090  1.0000  -3.7816   0.0000   0.0000   0.0000   0.2765
   6.300   0.7568   0.01559   0.00967  -0.0234  0.0084  1.0000  -3.9900   0.0000   0.0000   0.0000   0.2760
   6.400   0.7677   0.01542   0.00944  -0.0237  0.0079  1.0000  -4.1881   0.0000   0.0000   0.0000   0.2758
   6.500   0.7774   0.01551   0.00950  -0.0237  0.0076  1.0000  -4.3201   0.0000   0.0000   0.0000   0.2753
   6.600   0.7859   0.01581   0.00980  -0.0235  0.0074  1.0000  -4.4164   0.0000   0.0000   0.0000   0.2746
   6.700   0.7934   0.01632   0.01034  -0.0230  0.0071  1.0000  -4.4827   0.0000   0.0000   0.0000   0.2737
   6.800   0.8002   0.01714   0.01122  -0.0224  0.0069  1.0000  -4.5134   0.0000   0.0000   0.0000   0.2726
   6.900   0.8081   0.01786   0.01200  -0.0220  0.0068  1.0000  -4.5649   0.0000   0.0000   0.0000   0.2717
   7.000   0.8181   0.01783   0.01197  -0.0220  0.0067  1.0000  -4.7061   0.0000   0.0000   0.0000   0.2712
   7.100   0.8277   0.01789   0.01203  -0.0219  0.0066  1.0000  -4.8400   0.0000   0.0000   0.0000   0.2707
   7.200   0.8372   0.01801   0.01216  -0.0218  0.0065  1.0000  -4.9685   0.0000   0.0000   0.0000   0.2702
   7.300   0.8464   0.01818   0.01234  -0.0217  0.0064  1.0000  -5.0928   0.0000   0.0000   0.0000   0.2696
   7.400   0.8555   0.01840   0.01257  -0.0215  0.0063  1.0000  -5.2137   0.0000   0.0000   0.0000   0.2690
   7.500   0.8643   0.01865   0.01285  -0.0212  0.0063  1.0000  -5.3317   0.0000   0.0000   0.0000   0.2684
   7.600   0.8731   0.01894   0.01317  -0.0210  0.0062  1.0000  -5.4475   0.0000   0.0000   0.0000   0.2677
   7.700   0.8816   0.01927   0.01352  -0.0207  0.0061  1.0000  -5.5611   0.0000   0.0000   0.0000   0.2671
   7.800   0.8901   0.01963   0.01392  -0.0204  0.0060  1.0000  -5.6727   0.0000   0.0000   0.0000   0.2664
   7.900   0.8984   0.02003   0.01435  -0.0201  0.0059  1.0000  -5.7820   0.0000   0.0000   0.0000   0.2657
   8.000   0.9066   0.02046   0.01483  -0.0197  0.0058  1.0000  -5.8883   0.0000   0.0000   0.0000   0.2650
   8.100   0.9141   0.02137   0.01588  -0.0192  0.0057  1.0000  -6.0088   0.0000   0.0000   0.0000   0.2642
   8.200   0.9209   0.02275   0.01741  -0.0185  0.0057  1.0000  -6.0488   0.0000   0.0000   0.0000   0.2632
   8.300   0.9268   0.02430   0.01913  -0.0177  0.0057  1.0000  -6.0366   0.0000   0.0000   0.0000   0.2621
   8.400   0.9304   0.02634   0.02140  -0.0165  0.0058  1.0000  -5.9513   0.0000   0.0000   0.0000   0.2607
   8.500   0.9303   0.02887   0.02419  -0.0149  0.0061  1.0000  -5.7985   0.0000   0.0000   0.0000   0.2589
   8.600   0.9256   0.03172   0.02732  -0.0126  0.0063  1.0000  -5.5991   0.0000   0.0000   0.0000   0.2565
  16.400   0.6693   0.18540   0.18307  -0.0337  0.0087  1.0000  -1.7781   0.0000   0.0000   0.0000   0.2868
  16.500   0.6717   0.18684   0.18450  -0.0344  0.0084  1.0000  -1.7887   0.0000   0.0000   0.0000   0.2875
  16.600   0.6742   0.18824   0.18590  -0.0351  0.0082  1.0000  -1.8043   0.0000   0.0000   0.0000   0.2882
  16.700   0.6767   0.18960   0.18726  -0.0358  0.0080  1.0000  -1.8249   0.0000   0.0000   0.0000   0.2889
  16.800   0.6794   0.19092   0.18858  -0.0364  0.0079  1.0000  -1.8507   0.0000   0.0000   0.0000   0.2895
  16.900   0.6822   0.19220   0.18985  -0.0370  0.0077  1.0000  -1.8825   0.0000   0.0000   0.0000   0.2901
  17.000   0.6851   0.19343   0.19109  -0.0377  0.0076  1.0000  -1.9205   0.0000   0.0000   0.0000   0.2906
  17.100   0.6882   0.19463   0.19229  -0.0382  0.0075  1.0000  -1.9659   0.0000   0.0000   0.0000   0.2910


