xflr5 v6.61

 Calculated polar for: NACA65413a=0.8

 1 1 Reynolds number fixed          Mach number fixed         

 xtrf =   1.000 (top)        1.000 (bottom)
 Mach =   0.000     Re =     0.625 e 6     Ncrit =   9.000

  alpha     CL        CD       CDp       Cm    Top Xtr Bot Xtr   Cpmin    Chinge    XCp    
 ------- -------- --------- --------- -------- ------- ------- -------- --------- ---------
 -10.000  -0.3570   0.06899   0.06673  -0.0873  0.9417  0.0286  -2.5994   0.0000   0.0000   0.0000  -0.0097
  -9.900  -0.3641   0.06676   0.06445  -0.0888  0.9381  0.0286  -2.6546   0.0000   0.0000   0.0000  -0.0086
  -9.800  -0.3711   0.06474   0.06239  -0.0901  0.9344  0.0286  -2.7026   0.0000   0.0000   0.0000  -0.0071
  -9.700  -0.3784   0.06293   0.06054  -0.0912  0.9304  0.0286  -2.7442   0.0000   0.0000   0.0000  -0.0046
  -9.600  -0.3858   0.06134   0.05891  -0.0918  0.9266  0.0286  -2.7801   0.0000   0.0000   0.0000  -0.0011
  -9.500  -0.3934   0.05994   0.05745  -0.0920  0.9230  0.0286  -2.8113   0.0000   0.0000   0.0000   0.0032
  -9.400  -0.4004   0.05860   0.05607  -0.0923  0.9194  0.0286  -2.8382   0.0000   0.0000   0.0000   0.0071
  -9.300  -0.4075   0.05741   0.05484  -0.0921  0.9154  0.0286  -2.8610   0.0000   0.0000   0.0000   0.0119
  -9.200  -0.4144   0.05641   0.05378  -0.0915  0.9118  0.0286  -2.8791   0.0000   0.0000   0.0000   0.0176
  -9.100  -0.4188   0.05526   0.05257  -0.0911  0.9090  0.0286  -2.8901   0.0000   0.0000   0.0000   0.0210
  -9.000  -0.4219   0.05409   0.05133  -0.0908  0.9063  0.0287  -2.8964   0.0000   0.0000   0.0000   0.0236
  -8.900  -0.4237   0.05287   0.05005  -0.0907  0.9039  0.0287  -2.8983   0.0000   0.0000   0.0000   0.0251
  -8.800  -0.4247   0.05165   0.04876  -0.0905  0.9012  0.0287  -2.8963   0.0000   0.0000   0.0000   0.0261
  -8.700  -0.4251   0.05044   0.04749  -0.0903  0.8985  0.0287  -2.8911   0.0000   0.0000   0.0000   0.0269
  -8.600  -0.4250   0.04925   0.04623  -0.0900  0.8959  0.0287  -2.8828   0.0000   0.0000   0.0000   0.0276
  -8.500  -0.4243   0.04808   0.04498  -0.0897  0.8935  0.0287  -2.8715   0.0000   0.0000   0.0000   0.0281
  -8.400  -0.4232   0.04693   0.04374  -0.0894  0.8912  0.0287  -2.8576   0.0000   0.0000   0.0000   0.0285
  -8.300  -0.4216   0.04581   0.04253  -0.0890  0.8890  0.0287  -2.8411   0.0000   0.0000   0.0000   0.0286
  -8.200  -0.4192   0.04469   0.04132  -0.0887  0.8868  0.0287  -2.8216   0.0000   0.0000   0.0000   0.0282
  -8.100  -0.4160   0.04353   0.04008  -0.0886  0.8846  0.0288  -2.7990   0.0000   0.0000   0.0000   0.0271
  -8.000  -0.4124   0.04239   0.03887  -0.0884  0.8823  0.0288  -2.7742   0.0000   0.0000   0.0000   0.0258
  -7.900  -0.4085   0.04127   0.03767  -0.0881  0.8800  0.0288  -2.7474   0.0000   0.0000   0.0000   0.0244
  -7.800  -0.4042   0.04018   0.03648  -0.0879  0.8777  0.0288  -2.7186   0.0000   0.0000   0.0000   0.0228
  -7.700  -0.3996   0.03910   0.03531  -0.0876  0.8756  0.0288  -2.6879   0.0000   0.0000   0.0000   0.0210
  -7.600  -0.3947   0.03804   0.03416  -0.0873  0.8737  0.0288  -2.6553   0.0000   0.0000   0.0000   0.0190
  -7.500  -0.3895   0.03701   0.03303  -0.0870  0.8719  0.0288  -2.6212   0.0000   0.0000   0.0000   0.0168
  -6.900  -0.3742   0.01941   0.01393  -0.0834  0.8595  0.0203  -3.2927   0.0000   0.0000   0.0000   0.0170
  -6.800  -0.3643   0.01887   0.01330  -0.0832  0.8577  0.0199  -3.2668   0.0000   0.0000   0.0000   0.0115
  -6.700  -0.3544   0.01843   0.01280  -0.0831  0.8559  0.0197  -3.2249   0.0000   0.0000   0.0000   0.0054
  -6.600  -0.3444   0.01803   0.01233  -0.0829  0.8542  0.0196  -3.1794   0.0000   0.0000   0.0000  -0.0010
  -6.500  -0.3345   0.01761   0.01186  -0.0828  0.8526  0.0195  -3.1341   0.0000   0.0000   0.0000  -0.0078
  -6.400  -0.3246   0.01716   0.01131  -0.0826  0.8509  0.0194  -3.0939   0.0000   0.0000   0.0000  -0.0148
  -6.300  -0.3148   0.01672   0.01082  -0.0825  0.8492  0.0194  -3.0512   0.0000   0.0000   0.0000  -0.0224
  -6.200  -0.3050   0.01626   0.01030  -0.0823  0.8473  0.0194  -3.0118   0.0000   0.0000   0.0000  -0.0304
  -6.100  -0.2950   0.01572   0.00972  -0.0822  0.8458  0.0194  -2.9767   0.0000   0.0000   0.0000  -0.0393
  -6.000  -0.2852   0.01513   0.00908  -0.0821  0.8440  0.0195  -2.9478   0.0000   0.0000   0.0000  -0.0484
  -5.900  -0.2758   0.01449   0.00841  -0.0819  0.8421  0.0197  -2.9251   0.0000   0.0000   0.0000  -0.0576
  -5.800  -0.2667   0.01388   0.00775  -0.0816  0.8400  0.0201  -2.9036   0.0000   0.0000   0.0000  -0.0670
  -5.700  -0.2574   0.01339   0.00723  -0.0814  0.8380  0.0207  -2.8713   0.0000   0.0000   0.0000  -0.0774
  -5.600  -0.2476   0.01307   0.00690  -0.0813  0.8359  0.0213  -2.8220   0.0000   0.0000   0.0000  -0.0895
  -5.500  -0.2373   0.01286   0.00668  -0.0812  0.8340  0.0220  -2.7615   0.0000   0.0000   0.0000  -0.1036
  -5.400  -0.2269   0.01271   0.00651  -0.0812  0.8320  0.0227  -2.6967   0.0000   0.0000   0.0000  -0.1194
  -5.300  -0.2163   0.01259   0.00638  -0.0811  0.8301  0.0236  -2.6308   0.0000   0.0000   0.0000  -0.1369
  -5.200  -0.2057   0.01248   0.00625  -0.0811  0.8281  0.0245  -2.5652   0.0000   0.0000   0.0000  -0.1563
  -5.100  -0.1951   0.01238   0.00613  -0.0810  0.8260  0.0255  -2.4996   0.0000   0.0000   0.0000  -0.1779
  -5.000  -0.1843   0.01226   0.00601  -0.0811  0.8242  0.0262  -2.4327   0.0000   0.0000   0.0000  -0.2028
  -4.900  -0.1734   0.01214   0.00588  -0.0811  0.8222  0.0268  -2.3655   0.0000   0.0000   0.0000  -0.2310
  -4.800  -0.1626   0.01201   0.00575  -0.0811  0.8201  0.0273  -2.2981   0.0000   0.0000   0.0000  -0.2628
  -4.700  -0.1518   0.01189   0.00562  -0.0812  0.8180  0.0277  -2.2305   0.0000   0.0000   0.0000  -0.2991
  -4.600  -0.1410   0.01178   0.00549  -0.0812  0.8159  0.0280  -2.1629   0.0000   0.0000   0.0000  -0.3409
  -4.500  -0.1301   0.01166   0.00536  -0.0812  0.8138  0.0283  -2.0957   0.0000   0.0000   0.0000  -0.3897
  -4.400  -0.1193   0.01155   0.00523  -0.0812  0.8118  0.0285  -2.0287   0.0000   0.0000   0.0000  -0.4471
  -4.300  -0.1086   0.01144   0.00510  -0.0812  0.8098  0.0286  -1.9623   0.0000   0.0000   0.0000  -0.5158
  -4.200  -0.0978   0.01133   0.00497  -0.0812  0.8078  0.0288  -1.8963   0.0000   0.0000   0.0000  -0.5994
  -4.100  -0.0871   0.01121   0.00482  -0.0812  0.8058  0.0289  -1.8307   0.0000   0.0000   0.0000  -0.7028
  -4.000  -0.0767   0.01102   0.00456  -0.0811  0.8037  0.0290  -1.7698   0.0000   0.0000   0.0000  -0.8298
  -3.900  -0.0667   0.01074   0.00424  -0.0810  0.8017  0.0293  -1.7190   0.0000   0.0000   0.0000  -0.9901
  -3.800  -0.0563   0.01049   0.00397  -0.0810  0.7999  0.0297  -1.6656   0.0000   0.0000   0.0000  -1.2172
  -3.700  -0.0458   0.01028   0.00374  -0.0810  0.7979  0.0302  -1.6107   0.0000   0.0000   0.0000  -1.5543
  -3.600  -0.0351   0.01010   0.00353  -0.0810  0.7959  0.0307  -1.5549   0.0000   0.0000   0.0000  -2.1030
  -3.500  -0.0243   0.00994   0.00335  -0.0810  0.7938  0.0313  -1.4985   0.0000   0.0000   0.0000  -3.1485
  -3.400  -0.0134   0.00980   0.00319  -0.0810  0.7917  0.0320  -1.4418   0.0000   0.0000   0.0000  -5.9063
  -3.300  -0.0025   0.00967   0.00304  -0.0811  0.7896  0.0330  -1.3847   0.0000   0.0000   0.0000  -33.1420
  -3.200   0.0085   0.00956   0.00291  -0.0811  0.7876  0.0341  -1.3271   0.0000   0.0000   0.0000   9.9363
  -3.100   0.0195   0.00946   0.00280  -0.0811  0.7855  0.0357  -1.2858   0.0000   0.0000   0.0000   4.4743
  -3.000   0.0305   0.00938   0.00270  -0.0812  0.7835  0.0377  -1.2489   0.0000   0.0000   0.0000   2.9479
  -2.900   0.0416   0.00931   0.00261  -0.0812  0.7814  0.0401  -1.2141   0.0000   0.0000   0.0000   2.2293
  -2.700   0.0617   0.00859   0.00227  -0.0813  0.7771  0.1411  -1.1782   0.0000   0.0000   0.0000   1.5859
  -2.600   0.0701   0.00787   0.00208  -0.0814  0.7753  0.2847  -1.1452   0.0000   0.0000   0.0000   1.4266
  -2.500   0.0783   0.00715   0.00192  -0.0815  0.7733  0.4381  -1.1096   0.0000   0.0000   0.0000   1.3033
  -2.400   0.0881   0.00685   0.00191  -0.0814  0.7712  0.5245  -1.0685   0.0000   0.0000   0.0000   1.1856
  -2.300   0.0990   0.00678   0.00192  -0.0814  0.7690  0.5565  -1.0244   0.0000   0.0000   0.0000   1.0821
  -2.200   0.1100   0.00673   0.00193  -0.0815  0.7669  0.5771  -0.9799   0.0000   0.0000   0.0000   0.9985
  -2.100   0.1213   0.00671   0.00192  -0.0815  0.7648  0.5897  -0.9349   0.0000   0.0000   0.0000   0.9288
  -2.000   0.1324   0.00669   0.00192  -0.0815  0.7627  0.6012  -0.8902   0.0000   0.0000   0.0000   0.8714
  -1.900   0.1438   0.00670   0.00191  -0.0816  0.7607  0.6100  -0.8447   0.0000   0.0000   0.0000   0.8223
  -1.800   0.1553   0.00672   0.00188  -0.0817  0.7587  0.6150  -0.7957   0.0000   0.0000   0.0000   0.7802
  -1.700   0.1664   0.00671   0.00188  -0.0817  0.7566  0.6224  -0.7525   0.0000   0.0000   0.0000   0.7445
  -1.600   0.1777   0.00673   0.00190  -0.0817  0.7543  0.6309  -0.7094   0.0000   0.0000   0.0000   0.7131
  -1.500   0.1891   0.00677   0.00193  -0.0818  0.7524  0.6410  -0.6663   0.0000   0.0000   0.0000   0.6852
  -1.400   0.2001   0.00676   0.00199  -0.0817  0.7511  0.6539  -0.6245   0.0000   0.0000   0.0000   0.6609
  -1.300   0.2112   0.00681   0.00206  -0.0817  0.7495  0.6663  -0.5826   0.0000   0.0000   0.0000   0.6388
  -1.200   0.2224   0.00684   0.00211  -0.0817  0.7478  0.6760  -0.5728   0.0000   0.0000   0.0000   0.6190
  -1.100   0.2333   0.00686   0.00217  -0.0816  0.7461  0.6839  -0.5781   0.0000   0.0000   0.0000   0.6011
  -1.000   0.2446   0.00690   0.00221  -0.0816  0.7443  0.6899  -0.5836   0.0000   0.0000   0.0000   0.5847
  -0.900   0.2559   0.00694   0.00224  -0.0816  0.7425  0.6943  -0.5892   0.0000   0.0000   0.0000   0.5698
  -0.800   0.2675   0.00696   0.00225  -0.0817  0.7408  0.6968  -0.5948   0.0000   0.0000   0.0000   0.5563
  -0.700   0.2790   0.00698   0.00224  -0.0819  0.7390  0.6982  -0.6004   0.0000   0.0000   0.0000   0.5438
  -0.600   0.2905   0.00697   0.00222  -0.0820  0.7371  0.7001  -0.6060   0.0000   0.0000   0.0000   0.5324
  -0.500   0.3019   0.00696   0.00220  -0.0821  0.7352  0.7021  -0.6116   0.0000   0.0000   0.0000   0.5219
  -0.400   0.3133   0.00695   0.00218  -0.0822  0.7333  0.7040  -0.6172   0.0000   0.0000   0.0000   0.5122
  -0.300   0.3246   0.00696   0.00218  -0.0822  0.7311  0.7057  -0.6227   0.0000   0.0000   0.0000   0.5031
  -0.200   0.3361   0.00699   0.00219  -0.0823  0.7287  0.7074  -0.6283   0.0000   0.0000   0.0000   0.4946
  -0.100   0.3475   0.00702   0.00221  -0.0825  0.7266  0.7091  -0.6338   0.0000   0.0000   0.0000   0.4867
   0.000   0.3590   0.00702   0.00222  -0.0826  0.7253  0.7110  -0.6393   0.0000   0.0000   0.0000   0.4793
   0.100   0.3704   0.00702   0.00222  -0.0827  0.7240  0.7128  -0.6449   0.0000   0.0000   0.0000   0.4724
   0.200   0.3819   0.00702   0.00223  -0.0828  0.7225  0.7147  -0.6504   0.0000   0.0000   0.0000   0.4659
   0.300   0.3934   0.00703   0.00224  -0.0829  0.7210  0.7165  -0.6560   0.0000   0.0000   0.0000   0.4597
   0.400   0.4049   0.00704   0.00225  -0.0830  0.7194  0.7182  -0.6615   0.0000   0.0000   0.0000   0.4539
   0.500   0.4164   0.00705   0.00226  -0.0832  0.7178  0.7199  -0.6671   0.0000   0.0000   0.0000   0.4484
   0.600   0.4280   0.00706   0.00227  -0.0833  0.7162  0.7215  -0.6727   0.0000   0.0000   0.0000   0.4433
   0.700   0.4395   0.00708   0.00228  -0.0834  0.7146  0.7229  -0.6783   0.0000   0.0000   0.0000   0.4384
   0.800   0.4510   0.00709   0.00228  -0.0836  0.7130  0.7243  -0.6843   0.0000   0.0000   0.0000   0.4337
   0.900   0.4626   0.00711   0.00229  -0.0837  0.7114  0.7255  -0.6903   0.0000   0.0000   0.0000   0.4293
   1.000   0.4739   0.00711   0.00229  -0.0838  0.7098  0.7276  -0.6963   0.0000   0.0000   0.0000   0.4250
   1.100   0.4853   0.00711   0.00229  -0.0839  0.7080  0.7297  -0.7023   0.0000   0.0000   0.0000   0.4210
   1.200   0.4966   0.00712   0.00231  -0.0840  0.7062  0.7316  -0.7082   0.0000   0.0000   0.0000   0.4171
   1.300   0.5079   0.00715   0.00233  -0.0841  0.7041  0.7335  -0.7141   0.0000   0.0000   0.0000   0.4134
   1.400   0.5193   0.00719   0.00236  -0.0842  0.7018  0.7355  -0.7201   0.0000   0.0000   0.0000   0.4099
   1.500   0.5307   0.00723   0.00241  -0.0843  0.6997  0.7375  -0.7260   0.0000   0.0000   0.0000   0.4065
   1.600   0.5421   0.00724   0.00243  -0.0844  0.6986  0.7395  -0.7319   0.0000   0.0000   0.0000   0.4033
   1.700   0.5535   0.00725   0.00246  -0.0845  0.6974  0.7415  -0.7378   0.0000   0.0000   0.0000   0.4002
   1.800   0.5649   0.00726   0.00251  -0.0846  0.6962  0.7435  -0.7437   0.0000   0.0000   0.0000   0.3972
   1.900   0.5763   0.00727   0.00254  -0.0847  0.6949  0.7455  -0.7497   0.0000   0.0000   0.0000   0.3944
   2.000   0.5878   0.00729   0.00257  -0.0848  0.6935  0.7473  -0.7556   0.0000   0.0000   0.0000   0.3916
   2.100   0.5992   0.00731   0.00260  -0.0850  0.6920  0.7490  -0.7616   0.0000   0.0000   0.0000   0.3890
   2.200   0.6107   0.00733   0.00262  -0.0851  0.6904  0.7506  -0.7675   0.0000   0.0000   0.0000   0.3864
   2.400   0.6333   0.00733   0.00265  -0.0853  0.6866  0.7545  -0.7882   0.0000   0.0000   0.0000   0.3815
   2.500   0.6444   0.00733   0.00266  -0.0853  0.6843  0.7567  -0.8303   0.0000   0.0000   0.0000   0.3792
   2.600   0.6556   0.00733   0.00267  -0.0853  0.6819  0.7588  -0.8728   0.0000   0.0000   0.0000   0.3769
   2.700   0.6667   0.00735   0.00269  -0.0854  0.6792  0.7608  -0.9157   0.0000   0.0000   0.0000   0.3747
   2.800   0.6778   0.00739   0.00272  -0.0854  0.6761  0.7629  -0.9590   0.0000   0.0000   0.0000   0.3725
   2.900   0.6891   0.00746   0.00277  -0.0855  0.6724  0.7649  -1.0031   0.0000   0.0000   0.0000   0.3705
   3.000   0.7002   0.00746   0.00279  -0.0855  0.6706  0.7671  -1.0473   0.0000   0.0000   0.0000   0.3685
   3.100   0.7113   0.00745   0.00281  -0.0855  0.6682  0.7692  -1.0920   0.0000   0.0000   0.0000   0.3665
   3.200   0.7223   0.00743   0.00281  -0.0855  0.6645  0.7714  -1.1369   0.0000   0.0000   0.0000   0.3646
   3.300   0.7331   0.00741   0.00279  -0.0854  0.6587  0.7735  -1.1820   0.0000   0.0000   0.0000   0.3626
   3.400   0.7434   0.00742   0.00276  -0.0853  0.6507  0.7756  -1.2270   0.0000   0.0000   0.0000   0.3607
   3.500   0.7537   0.00747   0.00276  -0.0851  0.6419  0.7777  -1.2720   0.0000   0.0000   0.0000   0.3588
   3.600   0.7642   0.00742   0.00275  -0.0850  0.6347  0.7805  -1.3177   0.0000   0.0000   0.0000   0.3570
   3.700   0.7745   0.00742   0.00275  -0.0848  0.6264  0.7831  -1.3635   0.0000   0.0000   0.0000   0.3552
   3.800   0.7844   0.00747   0.00276  -0.0846  0.6180  0.7856  -1.4111   0.0000   0.0000   0.0000   0.3534
   3.900   0.7949   0.00750   0.00279  -0.0845  0.6116  0.7881  -1.4708   0.0000   0.0000   0.0000   0.3518
   4.000   0.8058   0.00751   0.00288  -0.0845  0.6066  0.7907  -1.5369   0.0000   0.0000   0.0000   0.3503
   4.100   0.8163   0.00754   0.00291  -0.0844  0.5992  0.7931  -1.5988   0.0000   0.0000   0.0000   0.3487
   4.200   0.8263   0.00761   0.00294  -0.0842  0.5903  0.7956  -1.6593   0.0000   0.0000   0.0000   0.3471
   4.300   0.8365   0.00767   0.00298  -0.0841  0.5815  0.7981  -1.7207   0.0000   0.0000   0.0000   0.3456
   4.400   0.8468   0.00773   0.00302  -0.0840  0.5701  0.8003  -1.7833   0.0000   0.0000   0.0000   0.3442
   4.500   0.8556   0.00784   0.00307  -0.0836  0.5560  0.8029  -1.8419   0.0000   0.0000   0.0000   0.3426
   4.600   0.8654   0.00789   0.00312  -0.0834  0.5417  0.8059  -1.9038   0.0000   0.0000   0.0000   0.3412
   4.700   0.8735   0.00804   0.00319  -0.0829  0.5226  0.8088  -1.9612   0.0000   0.0000   0.0000   0.3396
   4.800   0.8807   0.00824   0.00329  -0.0823  0.4951  0.8119  -2.0164   0.0000   0.0000   0.0000   0.3380
   4.900   0.8863   0.00856   0.00344  -0.0814  0.4556  0.8151  -2.0668   0.0000   0.0000   0.0000   0.3363
   5.000   0.8889   0.00909   0.00370  -0.0800  0.4024  0.8186  -2.1084   0.0000   0.0000   0.0000   0.3344
   5.100   0.8912   0.00967   0.00400  -0.0787  0.3486  0.8221  -2.1485   0.0000   0.0000   0.0000   0.3326
   5.300   0.8960   0.01074   0.00462  -0.0761  0.2517  0.8298  -2.2293   0.0000   0.0000   0.0000   0.3290
   5.400   0.8982   0.01127   0.00493  -0.0747  0.2074  0.8342  -2.2688   0.0000   0.0000   0.0000   0.3272
   5.500   0.9006   0.01177   0.00523  -0.0735  0.1658  0.8390  -2.3093   0.0000   0.0000   0.0000   0.3254
   5.600   0.9032   0.01226   0.00552  -0.0722  0.1278  0.8441  -2.3496   0.0000   0.0000   0.0000   0.3237
   5.700   0.9054   0.01273   0.00583  -0.0708  0.0934  0.8496  -2.3883   0.0000   0.0000   0.0000   0.3219
   5.800   0.9075   0.01317   0.00613  -0.0694  0.0656  0.8564  -2.4264   0.0000   0.0000   0.0000   0.3200
   5.900   0.9116   0.01349   0.00638  -0.0683  0.0487  0.8640  -2.4692   0.0000   0.0000   0.0000   0.3183
   6.000   0.9161   0.01373   0.00660  -0.0672  0.0409  0.8731  -2.5123   0.0000   0.0000   0.0000   0.3166
   6.100   0.9208   0.01390   0.00680  -0.0660  0.0367  0.8856  -2.5537   0.0000   0.0000   0.0000   0.3149
   6.200   0.9254   0.01397   0.00695  -0.0647  0.0353  0.9049  -2.6005   0.0000   0.0000   0.0000   0.3130
   6.300   0.9318   0.01404   0.00712  -0.0638  0.0339  0.9478  -2.6531   0.0000   0.0000   0.0000   0.3115
   6.400   0.9435   0.01424   0.00732  -0.0643  0.0323  1.0000  -2.7215   0.0000   0.0000   0.0000   0.3110
   6.500   0.9504   0.01446   0.00753  -0.0637  0.0311  1.0000  -2.7752   0.0000   0.0000   0.0000   0.3098
   6.600   0.9570   0.01468   0.00775  -0.0631  0.0299  1.0000  -2.8269   0.0000   0.0000   0.0000   0.3085
   6.700   0.9632   0.01493   0.00801  -0.0624  0.0288  1.0000  -2.8753   0.0000   0.0000   0.0000   0.3073
   6.800   0.9688   0.01522   0.00832  -0.0616  0.0277  1.0000  -2.9189   0.0000   0.0000   0.0000   0.3060
   6.900   0.9732   0.01558   0.00872  -0.0606  0.0266  1.0000  -2.9544   0.0000   0.0000   0.0000   0.3045
   7.000   0.9786   0.01589   0.00905  -0.0598  0.0260  1.0000  -3.0011   0.0000   0.0000   0.0000   0.3033
   7.100   0.9861   0.01607   0.00929  -0.0593  0.0258  1.0000  -3.0897   0.0000   0.0000   0.0000   0.3022
   7.200   0.9937   0.01625   0.00948  -0.0589  0.0254  1.0000  -3.1728   0.0000   0.0000   0.0000   0.3012
   7.300   1.0010   0.01645   0.00969  -0.0584  0.0250  1.0000  -3.2535   0.0000   0.0000   0.0000   0.3002
   7.400   1.0079   0.01667   0.00992  -0.0579  0.0244  1.0000  -3.3318   0.0000   0.0000   0.0000   0.2991
   7.500   1.0146   0.01691   0.01018  -0.0573  0.0237  1.0000  -3.4077   0.0000   0.0000   0.0000   0.2981
   7.600   1.0208   0.01718   0.01046  -0.0567  0.0230  1.0000  -3.4813   0.0000   0.0000   0.0000   0.2970
   7.700   1.0267   0.01746   0.01076  -0.0560  0.0224  1.0000  -3.5531   0.0000   0.0000   0.0000   0.2959
   7.800   1.0324   0.01777   0.01108  -0.0554  0.0219  1.0000  -3.6240   0.0000   0.0000   0.0000   0.2948
   7.900   1.0379   0.01809   0.01142  -0.0547  0.0214  1.0000  -3.6944   0.0000   0.0000   0.0000   0.2937
   8.000   1.0433   0.01842   0.01177  -0.0539  0.0210  1.0000  -3.7642   0.0000   0.0000   0.0000   0.2926
   8.100   1.0484   0.01877   0.01215  -0.0532  0.0207  1.0000  -3.8330   0.0000   0.0000   0.0000   0.2916
   8.200   1.0533   0.01914   0.01254  -0.0524  0.0205  1.0000  -3.9011   0.0000   0.0000   0.0000   0.2905
   8.300   1.0582   0.01952   0.01294  -0.0517  0.0203  1.0000  -3.9688   0.0000   0.0000   0.0000   0.2894
   8.400   1.0630   0.01991   0.01336  -0.0509  0.0201  1.0000  -4.0360   0.0000   0.0000   0.0000   0.2883
   8.500   1.0675   0.02032   0.01379  -0.0502  0.0199  1.0000  -4.1023   0.0000   0.0000   0.0000   0.2873
   8.600   1.0720   0.02074   0.01424  -0.0494  0.0198  1.0000  -4.1682   0.0000   0.0000   0.0000   0.2862
   8.700   1.0765   0.02118   0.01470  -0.0486  0.0197  1.0000  -4.2339   0.0000   0.0000   0.0000   0.2852
   8.800   1.0811   0.02162   0.01517  -0.0479  0.0196  1.0000  -4.2999   0.0000   0.0000   0.0000   0.2842
   8.900   1.0857   0.02207   0.01565  -0.0471  0.0195  1.0000  -4.3661   0.0000   0.0000   0.0000   0.2832
   9.000   1.0903   0.02253   0.01614  -0.0464  0.0194  1.0000  -4.4320   0.0000   0.0000   0.0000   0.2822
   9.100   1.0950   0.02300   0.01664  -0.0457  0.0194  1.0000  -4.4982   0.0000   0.0000   0.0000   0.2812
   9.200   1.0998   0.02346   0.01713  -0.0450  0.0193  1.0000  -4.5668   0.0000   0.0000   0.0000   0.2802
   9.300   1.1050   0.02392   0.01761  -0.0443  0.0192  1.0000  -4.6380   0.0000   0.0000   0.0000   0.2793
   9.400   1.1103   0.02437   0.01808  -0.0437  0.0191  1.0000  -4.7121   0.0000   0.0000   0.0000   0.2785
   9.500   1.1158   0.02481   0.01853  -0.0432  0.0188  1.0000  -4.7900   0.0000   0.0000   0.0000   0.2776
   9.600   1.1211   0.02528   0.01902  -0.0426  0.0185  1.0000  -4.8676   0.0000   0.0000   0.0000   0.2768
   9.700   1.1262   0.02584   0.01960  -0.0420  0.0181  1.0000  -4.9402   0.0000   0.0000   0.0000   0.2760
   9.800   1.1315   0.02650   0.02030  -0.0414  0.0177  1.0000  -5.0067   0.0000   0.0000   0.0000   0.2751
   9.900   1.1378   0.02724   0.02107  -0.0409  0.0174  1.0000  -5.0726   0.0000   0.0000   0.0000   0.2743
  10.000   1.1452   0.02782   0.02173  -0.0405  0.0173  1.0000  -5.1446   0.0000   0.0000   0.0000   0.2736
  10.100   1.1552   0.02874   0.02271  -0.0403  0.0170  1.0000  -5.2146   0.0000   0.0000   0.0000   0.2731
  10.200   1.1719   0.03033   0.02440  -0.0409  0.0165  1.0000  -5.2880   0.0000   0.0000   0.0000   0.2730
  10.300   1.1743   0.03034   0.02443  -0.0401  0.0164  1.0000  -5.3768   0.0000   0.0000   0.0000   0.2721
  10.400   1.1779   0.03043   0.02453  -0.0394  0.0163  1.0000  -5.4691   0.0000   0.0000   0.0000   0.2712
  10.500   1.1819   0.03057   0.02470  -0.0388  0.0162  1.0000  -5.5619   0.0000   0.0000   0.0000   0.2704
  10.600   1.1864   0.03075   0.02490  -0.0383  0.0161  1.0000  -5.6570   0.0000   0.0000   0.0000   0.2697
  10.700   1.1914   0.03096   0.02512  -0.0378  0.0159  1.0000  -5.7537   0.0000   0.0000   0.0000   0.2690
  10.800   1.1964   0.03121   0.02539  -0.0373  0.0157  1.0000  -5.8493   0.0000   0.0000   0.0000   0.2683
  10.900   1.2015   0.03149   0.02570  -0.0369  0.0155  1.0000  -5.9446   0.0000   0.0000   0.0000   0.2677
  11.000   1.2068   0.03180   0.02604  -0.0365  0.0153  1.0000  -6.0399   0.0000   0.0000   0.0000   0.2670
  11.100   1.2122   0.03213   0.02639  -0.0361  0.0151  1.0000  -6.1349   0.0000   0.0000   0.0000   0.2664
  11.200   1.2176   0.03249   0.02678  -0.0357  0.0148  1.0000  -6.2292   0.0000   0.0000   0.0000   0.2658
  11.300   1.2230   0.03287   0.02719  -0.0353  0.0146  1.0000  -6.3222   0.0000   0.0000   0.0000   0.2652
  11.400   1.2282   0.03329   0.02764  -0.0349  0.0144  1.0000  -6.4126   0.0000   0.0000   0.0000   0.2646
  11.500   1.2333   0.03373   0.02811  -0.0344  0.0141  1.0000  -6.5008   0.0000   0.0000   0.0000   0.2640
  11.600   1.2383   0.03418   0.02860  -0.0340  0.0139  1.0000  -6.5881   0.0000   0.0000   0.0000   0.2634
  11.700   1.2432   0.03463   0.02908  -0.0336  0.0136  1.0000  -6.6759   0.0000   0.0000   0.0000   0.2628
  11.800   1.2479   0.03508   0.02956  -0.0332  0.0134  1.0000  -6.7636   0.0000   0.0000   0.0000   0.2622
  11.900   1.2525   0.03553   0.03003  -0.0328  0.0131  1.0000  -6.8515   0.0000   0.0000   0.0000   0.2616
  12.000   1.2568   0.03597   0.03051  -0.0324  0.0128  1.0000  -6.9393   0.0000   0.0000   0.0000   0.2610
  12.100   1.2607   0.03643   0.03100  -0.0320  0.0125  1.0000  -7.0378   0.0000   0.0000   0.0000   0.2604
  12.200   1.2646   0.03690   0.03148  -0.0316  0.0123  1.0000  -7.1449   0.0000   0.0000   0.0000   0.2599
  12.300   1.2686   0.03735   0.03196  -0.0313  0.0120  1.0000  -7.2542   0.0000   0.0000   0.0000   0.2593
  12.400   1.2725   0.03781   0.03243  -0.0309  0.0117  1.0000  -7.3656   0.0000   0.0000   0.0000   0.2588
  12.500   1.2764   0.03828   0.03292  -0.0306  0.0115  1.0000  -7.4773   0.0000   0.0000   0.0000   0.2583
  12.600   1.2799   0.03877   0.03345  -0.0303  0.0112  1.0000  -7.5856   0.0000   0.0000   0.0000   0.2578
  12.700   1.2833   0.03929   0.03398  -0.0300  0.0110  1.0000  -7.6935   0.0000   0.0000   0.0000   0.2573
  12.800   1.2867   0.03985   0.03456  -0.0296  0.0107  1.0000  -7.8005   0.0000   0.0000   0.0000   0.2568
  12.900   1.2895   0.04051   0.03523  -0.0293  0.0105  1.0000  -7.8996   0.0000   0.0000   0.0000   0.2563
  13.000   1.2904   0.04151   0.03628  -0.0288  0.0100  1.0000  -7.9651   0.0000   0.0000   0.0000   0.2557
  13.100   1.2710   0.04656   0.04177  -0.0264  0.0089  1.0000  -7.6598   0.0000   0.0000   0.0000   0.2542
  13.200   1.2735   0.04721   0.04245  -0.0261  0.0089  1.0000  -7.7542   0.0000   0.0000   0.0000   0.2537
  13.300   1.2754   0.04792   0.04320  -0.0258  0.0088  1.0000  -7.8434   0.0000   0.0000   0.0000   0.2532
  13.400   1.2772   0.04866   0.04398  -0.0255  0.0088  1.0000  -7.9312   0.0000   0.0000   0.0000   0.2528
  13.500   1.2791   0.04942   0.04479  -0.0252  0.0087  1.0000  -8.0187   0.0000   0.0000   0.0000   0.2523
  13.600   1.2809   0.05022   0.04563  -0.0249  0.0087  1.0000  -8.1051   0.0000   0.0000   0.0000   0.2519
  13.700   1.2823   0.05107   0.04653  -0.0246  0.0087  1.0000  -8.1871   0.0000   0.0000   0.0000   0.2515
  13.800   1.2831   0.05200   0.04751  -0.0244  0.0086  1.0000  -8.2637   0.0000   0.0000   0.0000   0.2511
  13.900   1.2839   0.05296   0.04852  -0.0241  0.0086  1.0000  -8.3385   0.0000   0.0000   0.0000   0.2507
  14.000   1.2846   0.05395   0.04956  -0.0239  0.0085  1.0000  -8.4121   0.0000   0.0000   0.0000   0.2503
  14.100   1.2851   0.05498   0.05065  -0.0237  0.0085  1.0000  -8.4832   0.0000   0.0000   0.0000   0.2499
  14.200   1.2849   0.05611   0.05184  -0.0235  0.0084  1.0000  -8.5467   0.0000   0.0000   0.0000   0.2496
  14.300   1.2843   0.05730   0.05309  -0.0234  0.0084  1.0000  -8.6053   0.0000   0.0000   0.0000   0.2493
  14.400   1.2836   0.05853   0.05438  -0.0232  0.0083  1.0000  -8.6624   0.0000   0.0000   0.0000   0.2490
  14.500   1.2828   0.05980   0.05571  -0.0231  0.0082  1.0000  -8.7172   0.0000   0.0000   0.0000   0.2487
  14.600   1.2813   0.06116   0.05713  -0.0231  0.0082  1.0000  -8.7653   0.0000   0.0000   0.0000   0.2485
  14.700   1.2791   0.06262   0.05865  -0.0230  0.0081  1.0000  -8.8056   0.0000   0.0000   0.0000   0.2483
  14.800   1.2770   0.06411   0.06021  -0.0231  0.0081  1.0000  -8.8446   0.0000   0.0000   0.0000   0.2482
  14.900   1.2746   0.06564   0.06181  -0.0231  0.0080  1.0000  -8.8810   0.0000   0.0000   0.0000   0.2480
  15.000   1.2714   0.06728   0.06353  -0.0232  0.0080  1.0000  -8.9082   0.0000   0.0000   0.0000   0.2480
  15.100   1.2676   0.06903   0.06534  -0.0234  0.0080  1.0000  -8.9286   0.0000   0.0000   0.0000   0.2479
  15.200   1.2639   0.07081   0.06719  -0.0236  0.0079  1.0000  -8.9490   0.0000   0.0000   0.0000   0.2480
  15.300   1.2600   0.07266   0.06911  -0.0239  0.0079  1.0000  -8.9651   0.0000   0.0000   0.0000   0.2480
  15.400   1.2550   0.07470   0.07123  -0.0243  0.0078  1.0000  -8.9697   0.0000   0.0000   0.0000   0.2482
  15.500   1.2502   0.07677   0.07337  -0.0247  0.0078  1.0000  -8.9738   0.0000   0.0000   0.0000   0.2484
  15.600   1.2452   0.07891   0.07558  -0.0253  0.0078  1.0000  -8.9750   0.0000   0.0000   0.0000   0.2487
  15.700   1.2391   0.08126   0.07801  -0.0259  0.0078  1.0000  -8.9624   0.0000   0.0000   0.0000   0.2492
  15.800   1.2331   0.08365   0.08047  -0.0267  0.0077  1.0000  -8.9492   0.0000   0.0000   0.0000   0.2496
  15.900   1.2268   0.08614   0.08304  -0.0275  0.0077  1.0000  -8.9305   0.0000   0.0000   0.0000   0.2502
  16.000   1.2194   0.08886   0.08584  -0.0285  0.0077  1.0000  -8.8983   0.0000   0.0000   0.0000   0.2510
  16.100   1.2124   0.09159   0.08865  -0.0296  0.0077  1.0000  -8.8668   0.0000   0.0000   0.0000   0.2518
  16.200   1.2042   0.09461   0.09175  -0.0309  0.0077  1.0000  -8.8187   0.0000   0.0000   0.0000   0.2528
  16.300   1.1960   0.09770   0.09491  -0.0323  0.0076  1.0000  -8.7676   0.0000   0.0000   0.0000   0.2540
  16.400   1.1868   0.10107   0.09836  -0.0340  0.0076  1.0000  -8.7007   0.0000   0.0000   0.0000   0.2553
  16.500   1.1775   0.10456   0.10193  -0.0357  0.0076  1.0000  -8.6275   0.0000   0.0000   0.0000   0.2569
  16.600   1.1669   0.10845   0.10590  -0.0378  0.0077  1.0000  -8.5321   0.0000   0.0000   0.0000   0.2587
  16.700   1.1556   0.11253   0.11007  -0.0401  0.0077  1.0000  -8.4232   0.0000   0.0000   0.0000   0.2609
  16.800   1.1432   0.11702   0.11465  -0.0427  0.0077  1.0000  -8.2909   0.0000   0.0000   0.0000   0.2633
  16.900   1.1291   0.12215   0.11987  -0.0458  0.0078  1.0000  -8.1229   0.0000   0.0000   0.0000   0.2664
  17.000   1.1121   0.12827   0.12608  -0.0496  0.0078  1.0000  -7.8974   0.0000   0.0000   0.0000   0.2703
  17.100   1.0885   0.13659   0.13453  -0.0549  0.0080  1.0000  -7.5389   0.0000   0.0000   0.0000   0.2761
  18.100   0.9383   0.21591   0.21400  -0.0948  0.0083  1.0000  -3.4053   0.0000   0.0000   0.0000   0.3283
  18.200   0.9405   0.21788   0.21597  -0.0958  0.0081  1.0000  -3.3780   0.0000   0.0000   0.0000   0.3290
  18.300   0.9424   0.22005   0.21813  -0.0970  0.0079  1.0000  -3.3299   0.0000   0.0000   0.0000   0.3299
  18.400   0.9439   0.22248   0.22056  -0.0982  0.0076  1.0000  -3.2533   0.0000   0.0000   0.0000   0.3310
  18.500   0.9450   0.22509   0.22316  -0.0995  0.0072  1.0000  -3.1551   0.0000   0.0000   0.0000   0.3321
  18.600   0.9458   0.22779   0.22586  -0.1009  0.0069  1.0000  -3.0463   0.0000   0.0000   0.0000   0.3334
  18.700   0.9468   0.23034   0.22840  -0.1022  0.0067  1.0000  -2.9505   0.0000   0.0000   0.0000   0.3345
  18.800   0.9481   0.23278   0.23084  -0.1034  0.0066  1.0000  -2.8642   0.0000   0.0000   0.0000   0.3356
  18.900   0.9494   0.23516   0.23322  -0.1046  0.0065  1.0000  -2.7838   0.0000   0.0000   0.0000   0.3366
  19.000   0.9509   0.23749   0.23555  -0.1058  0.0066  1.0000  -2.7091   0.0000   0.0000   0.0000   0.3375
  19.100   0.9524   0.23977   0.23782  -0.1069  0.0067  1.0000  -2.6402   0.0000   0.0000   0.0000   0.3384
  19.200   0.9541   0.24197   0.24002  -0.1080  0.0069  1.0000  -2.5791   0.0000   0.0000   0.0000   0.3392
  19.300   0.9559   0.24409   0.24214  -0.1091  0.0071  1.0000  -2.5269   0.0000   0.0000   0.0000   0.3399
  19.400   0.9578   0.24611   0.24416  -0.1101  0.0073  1.0000  -2.4851   0.0000   0.0000   0.0000   0.3406
  19.500   0.9598   0.24802   0.24607  -0.1111  0.0076  1.0000  -2.4550   0.0000   0.0000   0.0000   0.3412
  19.600   0.9617   0.24978   0.24783  -0.1119  0.0080  1.0000  -2.4399   0.0000   0.0000   0.0000   0.3416
  20.600   0.9827   0.26990   0.26794  -0.1211  0.0088  1.0000  -2.1976   0.0000   0.0000   0.0000   0.3467
  20.700   0.9853   0.27175   0.26979  -0.1220  0.0088  1.0000  -2.1855   0.0000   0.0000   0.0000   0.3472
  20.800   0.9879   0.27359   0.27163  -0.1230  0.0088  1.0000  -2.1739   0.0000   0.0000   0.0000   0.3476
  20.900   0.9905   0.27543   0.27347  -0.1239  0.0088  1.0000  -2.1628   0.0000   0.0000   0.0000   0.3480
  21.000   0.9931   0.27727   0.27531  -0.1248  0.0088  1.0000  -2.1522   0.0000   0.0000   0.0000   0.3485
  21.100   0.9957   0.27910   0.27714  -0.1257  0.0088  1.0000  -2.1420   0.0000   0.0000   0.0000   0.3489
  21.200   0.9983   0.28093   0.27897  -0.1267  0.0088  1.0000  -2.1321   0.0000   0.0000   0.0000   0.3493
  21.300   1.0009   0.28275   0.28079  -0.1276  0.0088  1.0000  -2.1226   0.0000   0.0000   0.0000   0.3497
  21.400   1.0035   0.28458   0.28262  -0.1285  0.0088  1.0000  -2.1134   0.0000   0.0000   0.0000   0.3501
  21.500   1.0061   0.28640   0.28444  -0.1295  0.0088  1.0000  -2.1046   0.0000   0.0000   0.0000   0.3505
  21.600   1.0087   0.28822   0.28626  -0.1304  0.0088  1.0000  -2.0962   0.0000   0.0000   0.0000   0.3509
  21.700   1.0113   0.29003   0.28807  -0.1313  0.0088  1.0000  -2.0880   0.0000   0.0000   0.0000   0.3513
  21.800   1.0139   0.29185   0.28989  -0.1323  0.0088  1.0000  -2.0800   0.0000   0.0000   0.0000   0.3517
  21.900   1.0165   0.29366   0.29170  -0.1332  0.0088  1.0000  -2.0722   0.0000   0.0000   0.0000   0.3521
  22.000   1.0192   0.29547   0.29351  -0.1341  0.0087  1.0000  -2.0647   0.0000   0.0000   0.0000   0.3524
  22.100   1.0218   0.29727   0.29532  -0.1351  0.0087  1.0000  -2.0575   0.0000   0.0000   0.0000   0.3528
  22.200   1.0244   0.29908   0.29712  -0.1360  0.0087  1.0000  -2.0505   0.0000   0.0000   0.0000   0.3532
  22.300   1.0270   0.30088   0.29893  -0.1369  0.0087  1.0000  -2.0438   0.0000   0.0000   0.0000   0.3536
  22.400   1.0296   0.30268   0.30073  -0.1379  0.0087  1.0000  -2.0371   0.0000   0.0000   0.0000   0.3539
  22.500   1.0322   0.30448   0.30253  -0.1388  0.0087  1.0000  -2.0305   0.0000   0.0000   0.0000   0.3543
  22.600   1.0348   0.30628   0.30433  -0.1397  0.0087  1.0000  -2.0242   0.0000   0.0000   0.0000   0.3546
  22.700   1.0374   0.30807   0.30612  -0.1407  0.0087  1.0000  -2.0180   0.0000   0.0000   0.0000   0.3550
  22.800   1.0400   0.30985   0.30792  -0.1416  0.0087  1.0000  -2.0110   0.0000   0.0000   0.0000   0.3553
  22.900   1.0426   0.31164   0.30972  -0.1425  0.0087  1.0000  -2.0049   0.0000   0.0000   0.0000   0.3557
  23.000   1.0452   0.31343   0.31150  -0.1435  0.0087  1.0000  -1.9991   0.0000   0.0000   0.0000   0.3561
  23.100   1.0478   0.31522   0.31329  -0.1444  0.0086  1.0000  -1.9939   0.0000   0.0000   0.0000   0.3564
  23.200   1.0504   0.31700   0.31507  -0.1454  0.0086  1.0000  -1.9880   0.0000   0.0000   0.0000   0.3568
  23.300   1.0529   0.31880   0.31688  -0.1464  0.0086  1.0000  -1.9807   0.0000   0.0000   0.0000   0.3571
  23.400   1.0554   0.32058   0.31866  -0.1473  0.0086  1.0000  -1.9734   0.0000   0.0000   0.0000   0.3575
  23.500   1.0580   0.32237   0.32045  -0.1483  0.0086  1.0000  -1.9663   0.0000   0.0000   0.0000   0.3579
  23.600   1.0605   0.32415   0.32223  -0.1493  0.0085  1.0000  -1.9591   0.0000   0.0000   0.0000   0.3583
  23.700   1.0631   0.32593   0.32401  -0.1503  0.0085  1.0000  -1.9521   0.0000   0.0000   0.0000   0.3586
  23.800   1.0657   0.32771   0.32579  -0.1513  0.0085  1.0000  -1.9454   0.0000   0.0000   0.0000   0.3590
  23.900   1.0683   0.32948   0.32756  -0.1523  0.0084  1.0000  -1.9385   0.0000   0.0000   0.0000   0.3594
  24.000   1.0709   0.33124   0.32933  -0.1533  0.0084  1.0000  -1.9314   0.0000   0.0000   0.0000   0.3597
  24.100   1.0736   0.33301   0.33109  -0.1543  0.0083  1.0000  -1.9238   0.0000   0.0000   0.0000   0.3601
  24.200   1.0763   0.33477   0.33286  -0.1553  0.0083  1.0000  -1.9155   0.0000   0.0000   0.0000   0.3604
  24.300   1.0790   0.33654   0.33463  -0.1563  0.0082  1.0000  -1.9062   0.0000   0.0000   0.0000   0.3608
  24.400   1.0819   0.33834   0.33643  -0.1573  0.0080  1.0000  -1.8961   0.0000   0.0000   0.0000   0.3611
  24.500   1.0847   0.34013   0.33822  -0.1582  0.0079  1.0000  -1.8862   0.0000   0.0000   0.0000   0.3614
  24.600   1.0875   0.34195   0.34004  -0.1592  0.0077  1.0000  -1.8781   0.0000   0.0000   0.0000   0.3617
  24.700   1.0902   0.34378   0.34188  -0.1601  0.0075  1.0000  -1.8724   0.0000   0.0000   0.0000   0.3619
  24.800   1.0928   0.34561   0.34371  -0.1610  0.0073  1.0000  -1.8686   0.0000   0.0000   0.0000   0.3622
  24.900   1.0953   0.34744   0.34554  -0.1620  0.0071  1.0000  -1.8662   0.0000   0.0000   0.0000   0.3625
  25.000   1.0979   0.34926   0.34736  -0.1629  0.0070  1.0000  -1.8649   0.0000   0.0000   0.0000   0.3627
  25.100   1.1003   0.35107   0.34918  -0.1638  0.0068  1.0000  -1.8644   0.0000   0.0000   0.0000   0.3630
  25.200   1.1028   0.35288   0.35099  -0.1647  0.0067  1.0000  -1.8646   0.0000   0.0000   0.0000   0.3632
  25.300   1.1053   0.35469   0.35280  -0.1656  0.0066  1.0000  -1.8652   0.0000   0.0000   0.0000   0.3635
  25.400   1.1077   0.35650   0.35461  -0.1665  0.0065  1.0000  -1.8663   0.0000   0.0000   0.0000   0.3637
  25.500   1.1101   0.35831   0.35642  -0.1674  0.0064  1.0000  -1.8677   0.0000   0.0000   0.0000   0.3640
  25.600   1.1125   0.36011   0.35823  -0.1683  0.0062  1.0000  -1.8695   0.0000   0.0000   0.0000   0.3642
  25.700   1.1149   0.36191   0.36003  -0.1693  0.0061  1.0000  -1.8717   0.0000   0.0000   0.0000   0.3645
  25.800   1.1172   0.36371   0.36184  -0.1702  0.0060  1.0000  -1.8741   0.0000   0.0000   0.0000   0.3647
  25.900   1.1196   0.36552   0.36364  -0.1711  0.0060  1.0000  -1.8768   0.0000   0.0000   0.0000   0.3649
  26.000   1.1219   0.36732   0.36544  -0.1720  0.0059  1.0000  -1.8797   0.0000   0.0000   0.0000   0.3652
  26.100   1.1243   0.36912   0.36725  -0.1729  0.0058  1.0000  -1.8829   0.0000   0.0000   0.0000   0.3654
  26.200   1.1266   0.37092   0.36905  -0.1738  0.0057  1.0000  -1.8864   0.0000   0.0000   0.0000   0.3656
  26.300   1.1289   0.37272   0.37085  -0.1747  0.0056  1.0000  -1.8901   0.0000   0.0000   0.0000   0.3659
  26.400   1.1312   0.37451   0.37265  -0.1756  0.0055  1.0000  -1.8941   0.0000   0.0000   0.0000   0.3661
  26.500   1.1334   0.37631   0.37445  -0.1765  0.0055  1.0000  -1.8983   0.0000   0.0000   0.0000   0.3663
  26.600   1.1357   0.37811   0.37626  -0.1774  0.0054  1.0000  -1.9027   0.0000   0.0000   0.0000   0.3665
  26.700   1.1379   0.37991   0.37806  -0.1783  0.0053  1.0000  -1.9073   0.0000   0.0000   0.0000   0.3668
  26.800   1.1402   0.38171   0.37988  -0.1792  0.0053  1.0000  -1.9122   0.0000   0.0000   0.0000   0.3670
  26.900   1.1424   0.38351   0.38168  -0.1801  0.0052  1.0000  -1.9174   0.0000   0.0000   0.0000   0.3672
  27.000   1.1446   0.38531   0.38348  -0.1811  0.0051  1.0000  -1.9228   0.0000   0.0000   0.0000   0.3674
  27.100   1.1467   0.38710   0.38528  -0.1820  0.0051  1.0000  -1.9284   0.0000   0.0000   0.0000   0.3676
  27.200   1.1489   0.38890   0.38707  -0.1829  0.0050  1.0000  -1.9343   0.0000   0.0000   0.0000   0.3678
  27.300   1.1511   0.39069   0.38887  -0.1838  0.0050  1.0000  -1.9405   0.0000   0.0000   0.0000   0.3680
  27.400   1.1532   0.39249   0.39067  -0.1847  0.0049  1.0000  -1.9469   0.0000   0.0000   0.0000   0.3683
  27.500   1.1553   0.39428   0.39247  -0.1856  0.0049  1.0000  -1.9535   0.0000   0.0000   0.0000   0.3685
  27.600   1.1574   0.39607   0.39426  -0.1865  0.0048  1.0000  -1.9604   0.0000   0.0000   0.0000   0.3687
  27.700   1.1595   0.39787   0.39606  -0.1874  0.0048  1.0000  -1.9675   0.0000   0.0000   0.0000   0.3689
  27.800   1.1616   0.39966   0.39785  -0.1883  0.0047  1.0000  -1.9749   0.0000   0.0000   0.0000   0.3691
  27.900   1.1637   0.40145   0.39965  -0.1892  0.0047  1.0000  -1.9826   0.0000   0.0000   0.0000   0.3693
  28.000   1.1657   0.40324   0.40144  -0.1901  0.0046  1.0000  -1.9905   0.0000   0.0000   0.0000   0.3695
  28.100   1.1678   0.40503   0.40324  -0.1910  0.0046  1.0000  -1.9986   0.0000   0.0000   0.0000   0.3696
  28.200   1.1698   0.40682   0.40503  -0.1919  0.0046  1.0000  -2.0071   0.0000   0.0000   0.0000   0.3698
  28.300   1.1718   0.40861   0.40682  -0.1928  0.0045  1.0000  -2.0158   0.0000   0.0000   0.0000   0.3700
  28.400   1.1737   0.41040   0.40862  -0.1937  0.0045  1.0000  -2.0248   0.0000   0.0000   0.0000   0.3702
  28.500   1.1757   0.41219   0.41041  -0.1946  0.0044  1.0000  -2.0340   0.0000   0.0000   0.0000   0.3704
  28.600   1.1776   0.41398   0.41220  -0.1954  0.0044  1.0000  -2.0436   0.0000   0.0000   0.0000   0.3706
  28.700   1.1796   0.41576   0.41399  -0.1963  0.0044  1.0000  -2.0534   0.0000   0.0000   0.0000   0.3708
  28.800   1.1815   0.41755   0.41579  -0.1972  0.0043  1.0000  -2.0635   0.0000   0.0000   0.0000   0.3709
  28.900   1.1834   0.41934   0.41758  -0.1981  0.0043  1.0000  -2.0740   0.0000   0.0000   0.0000   0.3711
  29.000   1.1852   0.42113   0.41937  -0.1990  0.0043  1.0000  -2.0847   0.0000   0.0000   0.0000   0.3713
  29.100   1.1871   0.42292   0.42116  -0.1999  0.0042  1.0000  -2.0957   0.0000   0.0000   0.0000   0.3715
  29.200   1.1889   0.42471   0.42295  -0.2008  0.0042  1.0000  -2.1070   0.0000   0.0000   0.0000   0.3716
  29.300   1.1907   0.42650   0.42475  -0.2017  0.0042  1.0000  -2.1187   0.0000   0.0000   0.0000   0.3718
  29.400   1.1925   0.42829   0.42655  -0.2025  0.0042  1.0000  -2.1306   0.0000   0.0000   0.0000   0.3720
  29.500   1.1943   0.43008   0.42834  -0.2034  0.0041  1.0000  -2.1428   0.0000   0.0000   0.0000   0.3721
  29.600   1.1961   0.43188   0.43015  -0.2043  0.0041  1.0000  -2.1554   0.0000   0.0000   0.0000   0.3723
  29.700   1.1978   0.43368   0.43195  -0.2051  0.0041  1.0000  -2.1682   0.0000   0.0000   0.0000   0.3724
  29.800   1.1995   0.43549   0.43376  -0.2060  0.0041  1.0000  -2.1813   0.0000   0.0000   0.0000   0.3726
  29.900   1.2012   0.43730   0.43558  -0.2069  0.0040  1.0000  -2.1947   0.0000   0.0000   0.0000   0.3727
  30.000   1.2029   0.43911   0.43740  -0.2077  0.0040  1.0000  -2.2083   0.0000   0.0000   0.0000   0.3729


