xflr5 v6.61

 Calculated polar for: NACA65-015

 1 1 Reynolds number fixed          Mach number fixed         

 xtrf =   1.000 (top)        1.000 (bottom)
 Mach =   0.000     Re =     0.688 e 6     Ncrit =   9.000

  alpha     CL        CD       CDp       Cm    Top Xtr Bot Xtr   Cpmin    Chinge    XCp    
 ------- -------- --------- --------- -------- ------- ------- -------- --------- ---------
 -10.000  -0.9301   0.02266   0.01671  -0.0182  0.9320  0.0199  -5.0804   0.0000   0.0000   0.0000   0.2185
  -9.900  -0.9243   0.02242   0.01643  -0.0175  0.9254  0.0200  -5.0079   0.0000   0.0000   0.0000   0.2193
  -9.800  -0.9182   0.02220   0.01616  -0.0168  0.9194  0.0201  -4.9342   0.0000   0.0000   0.0000   0.2200
  -9.700  -0.9119   0.02175   0.01566  -0.0162  0.9146  0.0202  -4.8692   0.0000   0.0000   0.0000   0.2207
  -9.600  -0.9066   0.02096   0.01483  -0.0155  0.9100  0.0205  -4.8340   0.0000   0.0000   0.0000   0.2214
  -9.500  -0.9019   0.02046   0.01430  -0.0147  0.9052  0.0208  -4.7851   0.0000   0.0000   0.0000   0.2223
  -9.400  -0.8966   0.02007   0.01389  -0.0141  0.9002  0.0210  -4.7282   0.0000   0.0000   0.0000   0.2231
  -9.300  -0.8910   0.01974   0.01353  -0.0134  0.8958  0.0212  -4.6672   0.0000   0.0000   0.0000   0.2239
  -9.200  -0.8851   0.01945   0.01321  -0.0128  0.8912  0.0214  -4.6034   0.0000   0.0000   0.0000   0.2246
  -9.100  -0.8789   0.01918   0.01292  -0.0122  0.8872  0.0217  -4.5386   0.0000   0.0000   0.0000   0.2253
  -9.000  -0.8724   0.01891   0.01263  -0.0117  0.8829  0.0219  -4.4724   0.0000   0.0000   0.0000   0.2259
  -8.900  -0.8661   0.01867   0.01236  -0.0111  0.8794  0.0221  -4.4073   0.0000   0.0000   0.0000   0.2266
  -8.800  -0.8593   0.01842   0.01209  -0.0106  0.8753  0.0224  -4.3410   0.0000   0.0000   0.0000   0.2272
  -8.700  -0.8527   0.01819   0.01183  -0.0101  0.8716  0.0226  -4.2761   0.0000   0.0000   0.0000   0.2278
  -8.600  -0.8461   0.01797   0.01158  -0.0095  0.8684  0.0229  -4.2109   0.0000   0.0000   0.0000   0.2285
  -8.500  -0.8392   0.01776   0.01135  -0.0090  0.8645  0.0232  -4.1446   0.0000   0.0000   0.0000   0.2292
  -8.400  -0.8325   0.01758   0.01113  -0.0084  0.8611  0.0235  -4.0793   0.0000   0.0000   0.0000   0.2299
  -8.300  -0.8255   0.01740   0.01091  -0.0078  0.8580  0.0238  -4.0129   0.0000   0.0000   0.0000   0.2306
  -8.200  -0.8178   0.01721   0.01070  -0.0074  0.8544  0.0241  -3.9445   0.0000   0.0000   0.0000   0.2311
  -8.100  -0.8099   0.01702   0.01049  -0.0070  0.8513  0.0244  -3.8758   0.0000   0.0000   0.0000   0.2316
  -8.000  -0.8019   0.01685   0.01028  -0.0067  0.8486  0.0246  -3.8074   0.0000   0.0000   0.0000   0.2322
  -7.900  -0.7935   0.01667   0.01007  -0.0064  0.8451  0.0248  -3.7380   0.0000   0.0000   0.0000   0.2325
  -7.800  -0.7852   0.01649   0.00986  -0.0060  0.8420  0.0250  -3.6697   0.0000   0.0000   0.0000   0.2330
  -7.700  -0.7768   0.01632   0.00967  -0.0057  0.8392  0.0251  -3.6011   0.0000   0.0000   0.0000   0.2334
  -7.600  -0.7715   0.01590   0.00921  -0.0050  0.8362  0.0254  -3.5529   0.0000   0.0000   0.0000   0.2344
  -7.500  -0.7655   0.01551   0.00880  -0.0043  0.8329  0.0258  -3.5004   0.0000   0.0000   0.0000   0.2353
  -7.400  -0.7585   0.01522   0.00848  -0.0038  0.8301  0.0262  -3.4408   0.0000   0.0000   0.0000   0.2361
  -7.300  -0.7508   0.01498   0.00822  -0.0034  0.8276  0.0266  -3.3767   0.0000   0.0000   0.0000   0.2367
  -7.200  -0.7424   0.01478   0.00800  -0.0031  0.8249  0.0269  -3.3093   0.0000   0.0000   0.0000   0.2371
  -7.100  -0.7337   0.01458   0.00780  -0.0029  0.8220  0.0273  -3.2411   0.0000   0.0000   0.0000   0.2375
  -7.000  -0.7249   0.01441   0.00760  -0.0026  0.8194  0.0277  -3.1731   0.0000   0.0000   0.0000   0.2379
  -6.900  -0.7161   0.01424   0.00741  -0.0023  0.8170  0.0282  -3.1056   0.0000   0.0000   0.0000   0.2383
  -6.800  -0.7070   0.01408   0.00722  -0.0021  0.8147  0.0286  -3.0381   0.0000   0.0000   0.0000   0.2387
  -6.700  -0.6977   0.01391   0.00704  -0.0019  0.8119  0.0291  -2.9704   0.0000   0.0000   0.0000   0.2390
  -6.600  -0.6884   0.01376   0.00687  -0.0017  0.8092  0.0296  -2.9042   0.0000   0.0000   0.0000   0.2393
  -6.500  -0.6789   0.01362   0.00670  -0.0015  0.8068  0.0301  -2.8465   0.0000   0.0000   0.0000   0.2397
  -6.400  -0.6693   0.01351   0.00655  -0.0014  0.8047  0.0305  -2.7882   0.0000   0.0000   0.0000   0.2400
  -6.300  -0.6609   0.01325   0.00628  -0.0011  0.8021  0.0313  -2.7387   0.0000   0.0000   0.0000   0.2405
  -6.200  -0.6522   0.01302   0.00606  -0.0008  0.7994  0.0322  -2.6851   0.0000   0.0000   0.0000   0.2410
  -6.100  -0.6427   0.01287   0.00589  -0.0006  0.7969  0.0332  -2.6267   0.0000   0.0000   0.0000   0.2413
  -6.000  -0.6330   0.01274   0.00575  -0.0005  0.7947  0.0342  -2.5677   0.0000   0.0000   0.0000   0.2416
  -5.900  -0.6232   0.01262   0.00561  -0.0004  0.7927  0.0353  -2.5094   0.0000   0.0000   0.0000   0.2419
  -5.800  -0.6130   0.01251   0.00547  -0.0003  0.7903  0.0362  -2.4507   0.0000   0.0000   0.0000   0.2421
  -5.700  -0.6037   0.01231   0.00527  -0.0001  0.7878  0.0378  -2.3979   0.0000   0.0000   0.0000   0.2424
  -5.600  -0.5941   0.01214   0.00511   0.0000  0.7855  0.0396  -2.3421   0.0000   0.0000   0.0000   0.2428
  -5.500  -0.5843   0.01201   0.00497   0.0002  0.7834  0.0416  -2.2858   0.0000   0.0000   0.0000   0.2430
  -5.400  -0.5746   0.01186   0.00481   0.0003  0.7815  0.0444  -2.2317   0.0000   0.0000   0.0000   0.2434
  -5.300  -0.5650   0.01170   0.00466   0.0005  0.7795  0.0487  -2.1773   0.0000   0.0000   0.0000   0.2438
  -5.200  -0.5556   0.01149   0.00450   0.0006  0.7772  0.0566  -2.1242   0.0000   0.0000   0.0000   0.2441
  -5.100  -0.5471   0.01120   0.00431   0.0009  0.7748  0.0739  -2.0733   0.0000   0.0000   0.0000   0.2447
  -5.000  -0.5394   0.01083   0.00410   0.0012  0.7726  0.1039  -2.0246   0.0000   0.0000   0.0000   0.2454
  -4.900  -0.5322   0.01043   0.00387   0.0016  0.7705  0.1427  -1.9766   0.0000   0.0000   0.0000   0.2463
  -4.800  -0.5250   0.01002   0.00365   0.0020  0.7687  0.1862  -1.9289   0.0000   0.0000   0.0000   0.2472
  -4.700  -0.5180   0.00957   0.00342   0.0024  0.7665  0.2352  -1.8814   0.0000   0.0000   0.0000   0.2480
  -4.600  -0.5111   0.00908   0.00319   0.0028  0.7642  0.2897  -1.8343   0.0000   0.0000   0.0000   0.2489
  -4.500  -0.5044   0.00857   0.00293   0.0032  0.7619  0.3488  -1.7880   0.0000   0.0000   0.0000   0.2499
  -4.400  -0.4980   0.00804   0.00268   0.0037  0.7598  0.4141  -1.7425   0.0000   0.0000   0.0000   0.2511
  -4.300  -0.4905   0.00765   0.00253   0.0041  0.7579  0.4708  -1.6992   0.0000   0.0000   0.0000   0.2521
  -4.200  -0.4813   0.00746   0.00246   0.0043  0.7562  0.5055  -1.6522   0.0000   0.0000   0.0000   0.2528
  -4.100  -0.4710   0.00736   0.00242   0.0044  0.7544  0.5282  -1.6029   0.0000   0.0000   0.0000   0.2532
  -4.000  -0.4601   0.00729   0.00239   0.0044  0.7524  0.5441  -1.5527   0.0000   0.0000   0.0000   0.2535
  -3.900  -0.4492   0.00724   0.00237   0.0044  0.7504  0.5561  -1.5026   0.0000   0.0000   0.0000   0.2537
  -3.800  -0.4381   0.00720   0.00235   0.0043  0.7485  0.5655  -1.4524   0.0000   0.0000   0.0000   0.2539
  -3.700  -0.4268   0.00718   0.00232   0.0043  0.7467  0.5737  -1.4024   0.0000   0.0000   0.0000   0.2541
  -3.600  -0.4156   0.00716   0.00229   0.0042  0.7451  0.5799  -1.3529   0.0000   0.0000   0.0000   0.2543
  -3.500  -0.4044   0.00716   0.00227   0.0041  0.7435  0.5857  -1.3037   0.0000   0.0000   0.0000   0.2545
  -3.300  -0.3815   0.00713   0.00222   0.0039  0.7398  0.5953  -1.2060   0.0000   0.0000   0.0000   0.2547
  -3.200  -0.3701   0.00711   0.00221   0.0039  0.7379  0.6007  -1.1578   0.0000   0.0000   0.0000   0.2548
  -3.100  -0.3586   0.00711   0.00219   0.0038  0.7360  0.6065  -1.1100   0.0000   0.0000   0.0000   0.2549
  -3.000  -0.3475   0.00710   0.00220   0.0037  0.7342  0.6131  -1.0632   0.0000   0.0000   0.0000   0.2552
  -2.900  -0.3361   0.00712   0.00220   0.0037  0.7326  0.6207  -1.0166   0.0000   0.0000   0.0000   0.2555
  -2.800  -0.3251   0.00713   0.00222   0.0037  0.7310  0.6282  -0.9708   0.0000   0.0000   0.0000   0.2560
  -2.700  -0.3139   0.00717   0.00224   0.0037  0.7295  0.6353  -0.9252   0.0000   0.0000   0.0000   0.2563
  -2.600  -0.3026   0.00717   0.00228   0.0037  0.7278  0.6412  -0.8800   0.0000   0.0000   0.0000   0.2567
  -2.500  -0.2911   0.00720   0.00229   0.0036  0.7261  0.6463  -0.8350   0.0000   0.0000   0.0000   0.2570
  -2.400  -0.2796   0.00720   0.00228   0.0035  0.7243  0.6499  -0.7907   0.0000   0.0000   0.0000   0.2572
  -2.300  -0.2682   0.00719   0.00228   0.0034  0.7226  0.6527  -0.7468   0.0000   0.0000   0.0000   0.2575
  -2.200  -0.2566   0.00720   0.00228   0.0033  0.7210  0.6554  -0.7033   0.0000   0.0000   0.0000   0.2577
  -2.100  -0.2451   0.00721   0.00227   0.0032  0.7195  0.6580  -0.6641   0.0000   0.0000   0.0000   0.2579
  -2.000  -0.2335   0.00723   0.00226   0.0031  0.7180  0.6604  -0.6266   0.0000   0.0000   0.0000   0.2580
  -1.900  -0.2220   0.00725   0.00224   0.0029  0.7165  0.6624  -0.5895   0.0000   0.0000   0.0000   0.2582
  -1.800  -0.2103   0.00722   0.00223   0.0028  0.7149  0.6641  -0.5527   0.0000   0.0000   0.0000   0.2583
  -1.700  -0.1987   0.00720   0.00222   0.0027  0.7132  0.6656  -0.5407   0.0000   0.0000   0.0000   0.2583
  -1.600  -0.1870   0.00719   0.00221   0.0025  0.7116  0.6670  -0.5351   0.0000   0.0000   0.0000   0.2584
  -1.500  -0.1753   0.00718   0.00220   0.0023  0.7100  0.6684  -0.5294   0.0000   0.0000   0.0000   0.2584
  -1.400  -0.1636   0.00718   0.00218   0.0022  0.7086  0.6697  -0.5238   0.0000   0.0000   0.0000   0.2585
  -1.300  -0.1519   0.00718   0.00216   0.0020  0.7071  0.6711  -0.5182   0.0000   0.0000   0.0000   0.2585
  -1.200  -0.1402   0.00718   0.00215   0.0019  0.7058  0.6725  -0.5126   0.0000   0.0000   0.0000   0.2585
  -1.100  -0.1286   0.00719   0.00213   0.0017  0.7044  0.6740  -0.5071   0.0000   0.0000   0.0000   0.2586
  -1.000  -0.1169   0.00721   0.00212   0.0016  0.7031  0.6753  -0.5017   0.0000   0.0000   0.0000   0.2586
  -0.900  -0.1052   0.00719   0.00211   0.0014  0.7016  0.6766  -0.4963   0.0000   0.0000   0.0000   0.2585
  -0.800  -0.0935   0.00716   0.00210   0.0012  0.7000  0.6779  -0.4909   0.0000   0.0000   0.0000   0.2585
  -0.700  -0.0818   0.00715   0.00210   0.0011  0.6984  0.6791  -0.4854   0.0000   0.0000   0.0000   0.2585
  -0.600  -0.0701   0.00714   0.00209   0.0009  0.6969  0.6804  -0.4800   0.0000   0.0000   0.0000   0.2586
  -0.500  -0.0584   0.00714   0.00208   0.0008  0.6954  0.6816  -0.4746   0.0000   0.0000   0.0000   0.2586
  -0.400  -0.0468   0.00714   0.00208   0.0006  0.6940  0.6830  -0.4692   0.0000   0.0000   0.0000   0.2587
  -0.300  -0.0351   0.00714   0.00207   0.0005  0.6927  0.6844  -0.4637   0.0000   0.0000   0.0000   0.2589
  -0.200  -0.0234   0.00715   0.00207   0.0003  0.6915  0.6859  -0.4583   0.0000   0.0000   0.0000   0.2593
  -0.100  -0.0117   0.00717   0.00206   0.0002  0.6902  0.6874  -0.4530   0.0000   0.0000   0.0000   0.2604
   0.000   0.0000   0.00718   0.00207  -0.0000  0.6888  0.6888  -0.4476   0.0000   0.0000   0.0000   0.4779
   0.100   0.0117   0.00717   0.00206  -0.0002  0.6874  0.6902  -0.4530   0.0000   0.0000   0.0000   0.2604
   0.200   0.0234   0.00715   0.00207  -0.0003  0.6859  0.6915  -0.4583   0.0000   0.0000   0.0000   0.2593
   0.300   0.0351   0.00714   0.00207  -0.0005  0.6844  0.6927  -0.4637   0.0000   0.0000   0.0000   0.2589
   0.400   0.0468   0.00714   0.00208  -0.0006  0.6830  0.6940  -0.4692   0.0000   0.0000   0.0000   0.2587
   0.500   0.0584   0.00714   0.00208  -0.0008  0.6816  0.6954  -0.4746   0.0000   0.0000   0.0000   0.2586
   0.600   0.0701   0.00714   0.00209  -0.0009  0.6804  0.6969  -0.4800   0.0000   0.0000   0.0000   0.2586
   0.700   0.0818   0.00715   0.00210  -0.0011  0.6791  0.6984  -0.4854   0.0000   0.0000   0.0000   0.2585
   0.800   0.0935   0.00716   0.00210  -0.0012  0.6779  0.7000  -0.4909   0.0000   0.0000   0.0000   0.2585
   0.900   0.1052   0.00719   0.00211  -0.0014  0.6766  0.7016  -0.4963   0.0000   0.0000   0.0000   0.2585
   1.000   0.1169   0.00721   0.00212  -0.0016  0.6753  0.7031  -0.5017   0.0000   0.0000   0.0000   0.2586
   1.100   0.1286   0.00719   0.00213  -0.0017  0.6740  0.7044  -0.5071   0.0000   0.0000   0.0000   0.2586
   1.200   0.1402   0.00718   0.00215  -0.0019  0.6725  0.7058  -0.5126   0.0000   0.0000   0.0000   0.2585
   1.300   0.1519   0.00718   0.00216  -0.0020  0.6711  0.7071  -0.5182   0.0000   0.0000   0.0000   0.2585
   1.400   0.1636   0.00718   0.00218  -0.0022  0.6697  0.7086  -0.5238   0.0000   0.0000   0.0000   0.2585
   1.500   0.1753   0.00718   0.00220  -0.0023  0.6684  0.7100  -0.5294   0.0000   0.0000   0.0000   0.2584
   1.600   0.1870   0.00719   0.00221  -0.0025  0.6670  0.7116  -0.5351   0.0000   0.0000   0.0000   0.2584
   1.700   0.1987   0.00720   0.00222  -0.0027  0.6656  0.7132  -0.5407   0.0000   0.0000   0.0000   0.2583
   1.800   0.2103   0.00722   0.00223  -0.0028  0.6641  0.7149  -0.5527   0.0000   0.0000   0.0000   0.2583
   1.900   0.2220   0.00725   0.00224  -0.0029  0.6624  0.7165  -0.5895   0.0000   0.0000   0.0000   0.2582
   2.000   0.2335   0.00723   0.00226  -0.0031  0.6604  0.7180  -0.6266   0.0000   0.0000   0.0000   0.2580
   2.100   0.2451   0.00721   0.00227  -0.0032  0.6580  0.7195  -0.6641   0.0000   0.0000   0.0000   0.2579
   2.200   0.2566   0.00720   0.00228  -0.0033  0.6554  0.7210  -0.7033   0.0000   0.0000   0.0000   0.2577
   2.300   0.2682   0.00719   0.00228  -0.0034  0.6527  0.7226  -0.7468   0.0000   0.0000   0.0000   0.2575
   2.400   0.2796   0.00720   0.00228  -0.0035  0.6499  0.7243  -0.7907   0.0000   0.0000   0.0000   0.2572
   2.500   0.2911   0.00720   0.00229  -0.0036  0.6463  0.7261  -0.8350   0.0000   0.0000   0.0000   0.2570
   2.600   0.3026   0.00717   0.00228  -0.0037  0.6412  0.7278  -0.8800   0.0000   0.0000   0.0000   0.2567
   2.700   0.3139   0.00717   0.00224  -0.0037  0.6353  0.7295  -0.9252   0.0000   0.0000   0.0000   0.2563
   2.800   0.3251   0.00713   0.00222  -0.0037  0.6282  0.7310  -0.9708   0.0000   0.0000   0.0000   0.2560
   2.900   0.3361   0.00712   0.00220  -0.0037  0.6207  0.7326  -1.0166   0.0000   0.0000   0.0000   0.2555
   3.000   0.3475   0.00710   0.00220  -0.0037  0.6131  0.7342  -1.0632   0.0000   0.0000   0.0000   0.2552
   3.100   0.3586   0.00711   0.00219  -0.0038  0.6065  0.7360  -1.1100   0.0000   0.0000   0.0000   0.2549
   3.200   0.3701   0.00711   0.00221  -0.0039  0.6007  0.7379  -1.1578   0.0000   0.0000   0.0000   0.2548
   3.300   0.3815   0.00713   0.00222  -0.0039  0.5953  0.7398  -1.2060   0.0000   0.0000   0.0000   0.2547
   3.500   0.4044   0.00716   0.00227  -0.0042  0.5857  0.7435  -1.3037   0.0000   0.0000   0.0000   0.2545
   3.600   0.4156   0.00716   0.00229  -0.0042  0.5799  0.7451  -1.3529   0.0000   0.0000   0.0000   0.2543
   3.700   0.4268   0.00718   0.00232  -0.0043  0.5737  0.7467  -1.4024   0.0000   0.0000   0.0000   0.2541
   3.800   0.4381   0.00720   0.00235  -0.0043  0.5655  0.7485  -1.4524   0.0000   0.0000   0.0000   0.2539
   3.900   0.4492   0.00724   0.00237  -0.0044  0.5561  0.7504  -1.5026   0.0000   0.0000   0.0000   0.2537
   4.000   0.4602   0.00729   0.00239  -0.0044  0.5441  0.7524  -1.5527   0.0000   0.0000   0.0000   0.2535
   4.100   0.4710   0.00736   0.00242  -0.0044  0.5282  0.7544  -1.6029   0.0000   0.0000   0.0000   0.2532
   4.200   0.4813   0.00746   0.00246  -0.0043  0.5055  0.7562  -1.6522   0.0000   0.0000   0.0000   0.2528
   4.300   0.4905   0.00765   0.00253  -0.0041  0.4708  0.7579  -1.6992   0.0000   0.0000   0.0000   0.2521
   4.400   0.4980   0.00804   0.00268  -0.0037  0.4141  0.7598  -1.7425   0.0000   0.0000   0.0000   0.2511
   4.500   0.5044   0.00857   0.00293  -0.0032  0.3488  0.7619  -1.7880   0.0000   0.0000   0.0000   0.2499
   4.700   0.5180   0.00957   0.00342  -0.0024  0.2352  0.7665  -1.8814   0.0000   0.0000   0.0000   0.2480
   4.800   0.5250   0.01002   0.00365  -0.0020  0.1862  0.7687  -1.9289   0.0000   0.0000   0.0000   0.2472
   4.900   0.5322   0.01043   0.00387  -0.0016  0.1426  0.7705  -1.9767   0.0000   0.0000   0.0000   0.2463
   5.000   0.5394   0.01084   0.00410  -0.0012  0.1039  0.7726  -2.0246   0.0000   0.0000   0.0000   0.2454
   5.100   0.5471   0.01120   0.00431  -0.0009  0.0738  0.7748  -2.0734   0.0000   0.0000   0.0000   0.2447
   5.200   0.5556   0.01149   0.00450  -0.0006  0.0566  0.7772  -2.1242   0.0000   0.0000   0.0000   0.2441
   5.300   0.5651   0.01170   0.00466  -0.0005  0.0486  0.7795  -2.1774   0.0000   0.0000   0.0000   0.2438
   5.400   0.5746   0.01186   0.00481  -0.0003  0.0444  0.7815  -2.2318   0.0000   0.0000   0.0000   0.2434
   5.500   0.5843   0.01201   0.00497  -0.0002  0.0416  0.7834  -2.2859   0.0000   0.0000   0.0000   0.2431
   5.600   0.5942   0.01214   0.00511  -0.0001  0.0396  0.7855  -2.3422   0.0000   0.0000   0.0000   0.2428
   5.700   0.6038   0.01231   0.00527   0.0001  0.0378  0.7878  -2.3980   0.0000   0.0000   0.0000   0.2424
   5.800   0.6131   0.01251   0.00547   0.0003  0.0362  0.7903  -2.4507   0.0000   0.0000   0.0000   0.2421
   5.900   0.6233   0.01262   0.00561   0.0003  0.0353  0.7927  -2.5094   0.0000   0.0000   0.0000   0.2419
   6.000   0.6330   0.01274   0.00575   0.0005  0.0342  0.7946  -2.5677   0.0000   0.0000   0.0000   0.2416
   6.100   0.6427   0.01287   0.00589   0.0006  0.0332  0.7969  -2.6268   0.0000   0.0000   0.0000   0.2413
   6.200   0.6522   0.01302   0.00606   0.0008  0.0322  0.7994  -2.6852   0.0000   0.0000   0.0000   0.2410
   6.300   0.6610   0.01325   0.00628   0.0010  0.0313  0.8021  -2.7388   0.0000   0.0000   0.0000   0.2405
   6.400   0.6694   0.01351   0.00655   0.0014  0.0305  0.8047  -2.7882   0.0000   0.0000   0.0000   0.2400
   6.500   0.6790   0.01362   0.00670   0.0015  0.0301  0.8068  -2.8466   0.0000   0.0000   0.0000   0.2397
   6.600   0.6884   0.01376   0.00687   0.0017  0.0296  0.8092  -2.9043   0.0000   0.0000   0.0000   0.2394
   6.700   0.6978   0.01391   0.00704   0.0019  0.0291  0.8119  -2.9706   0.0000   0.0000   0.0000   0.2390
   6.800   0.7071   0.01408   0.00722   0.0021  0.0286  0.8147  -3.0383   0.0000   0.0000   0.0000   0.2387
   6.900   0.7161   0.01424   0.00741   0.0023  0.0282  0.8170  -3.1057   0.0000   0.0000   0.0000   0.2383
   7.000   0.7250   0.01441   0.00760   0.0026  0.0277  0.8194  -3.1733   0.0000   0.0000   0.0000   0.2379
   7.100   0.7338   0.01458   0.00780   0.0029  0.0273  0.8220  -3.2413   0.0000   0.0000   0.0000   0.2375
   7.200   0.7425   0.01478   0.00800   0.0031  0.0269  0.8249  -3.3095   0.0000   0.0000   0.0000   0.2371
   7.300   0.7509   0.01498   0.00822   0.0034  0.0266  0.8276  -3.3769   0.0000   0.0000   0.0000   0.2367
   7.400   0.7586   0.01522   0.00848   0.0038  0.0262  0.8301  -3.4410   0.0000   0.0000   0.0000   0.2361
   7.500   0.7656   0.01551   0.00880   0.0043  0.0258  0.8329  -3.5006   0.0000   0.0000   0.0000   0.2353
   7.600   0.7715   0.01590   0.00921   0.0050  0.0254  0.8362  -3.5531   0.0000   0.0000   0.0000   0.2345
   7.700   0.7769   0.01632   0.00966   0.0057  0.0251  0.8392  -3.6014   0.0000   0.0000   0.0000   0.2335
   7.800   0.7852   0.01649   0.00986   0.0060  0.0250  0.8420  -3.6700   0.0000   0.0000   0.0000   0.2330
   7.900   0.7936   0.01667   0.01007   0.0063  0.0248  0.8451  -3.7383   0.0000   0.0000   0.0000   0.2326
   8.000   0.8020   0.01685   0.01028   0.0066  0.0246  0.8485  -3.8077   0.0000   0.0000   0.0000   0.2322
   8.100   0.8100   0.01702   0.01049   0.0070  0.0244  0.8513  -3.8761   0.0000   0.0000   0.0000   0.2317
   8.200   0.8179   0.01721   0.01070   0.0074  0.0241  0.8544  -3.9449   0.0000   0.0000   0.0000   0.2312
   8.300   0.8256   0.01740   0.01091   0.0078  0.0238  0.8580  -4.0134   0.0000   0.0000   0.0000   0.2307
   8.400   0.8327   0.01758   0.01113   0.0084  0.0235  0.8611  -4.0798   0.0000   0.0000   0.0000   0.2300
   8.500   0.8394   0.01776   0.01135   0.0090  0.0232  0.8645  -4.1452   0.0000   0.0000   0.0000   0.2292
   8.600   0.8463   0.01797   0.01158   0.0095  0.0229  0.8684  -4.2116   0.0000   0.0000   0.0000   0.2286
   8.700   0.8529   0.01818   0.01183   0.0101  0.0226  0.8716  -4.2768   0.0000   0.0000   0.0000   0.2279
   8.800   0.8595   0.01842   0.01209   0.0106  0.0224  0.8753  -4.3417   0.0000   0.0000   0.0000   0.2272
   8.900   0.8663   0.01867   0.01236   0.0111  0.0221  0.8793  -4.4080   0.0000   0.0000   0.0000   0.2266
   9.000   0.8726   0.01891   0.01263   0.0117  0.0219  0.8829  -4.4731   0.0000   0.0000   0.0000   0.2259
   9.100   0.8791   0.01918   0.01292   0.0122  0.0217  0.8872  -4.5393   0.0000   0.0000   0.0000   0.2253
   9.200   0.8853   0.01945   0.01321   0.0128  0.0214  0.8912  -4.6042   0.0000   0.0000   0.0000   0.2246
   9.300   0.8913   0.01974   0.01353   0.0134  0.0212  0.8958  -4.6681   0.0000   0.0000   0.0000   0.2239
   9.400   0.8969   0.02007   0.01389   0.0140  0.0210  0.9002  -4.7291   0.0000   0.0000   0.0000   0.2232
   9.500   0.9021   0.02047   0.01430   0.0147  0.0208  0.9052  -4.7859   0.0000   0.0000   0.0000   0.2224
   9.600   0.9069   0.02096   0.01483   0.0155  0.0205  0.9099  -4.8347   0.0000   0.0000   0.0000   0.2215
   9.700   0.9122   0.02176   0.01567   0.0162  0.0202  0.9146  -4.8698   0.0000   0.0000   0.0000   0.2207
   9.800   0.9185   0.02220   0.01616   0.0168  0.0201  0.9194  -4.9354   0.0000   0.0000   0.0000   0.2200
   9.900   0.9246   0.02242   0.01642   0.0174  0.0200  0.9254  -5.0092   0.0000   0.0000   0.0000   0.2193
  10.000   0.9304   0.02265   0.01671   0.0181  0.0199  0.9320  -5.0818   0.0000   0.0000   0.0000   0.2186
  10.100   0.9360   0.02289   0.01700   0.0189  0.0198  0.9395  -5.1528   0.0000   0.0000   0.0000   0.2178
  10.200   0.9414   0.02314   0.01730   0.0196  0.0197  0.9484  -5.2233   0.0000   0.0000   0.0000   0.2169
  10.300   0.9478   0.02342   0.01762   0.0202  0.0196  0.9591  -5.2977   0.0000   0.0000   0.0000   0.2164
  10.400   0.9571   0.02375   0.01800   0.0201  0.0194  0.9710  -5.3842   0.0000   0.0000   0.0000   0.2165
  10.500   0.9688   0.02414   0.01844   0.0195  0.0193  0.9871  -5.4807   0.0000   0.0000   0.0000   0.2173
  10.600   0.9770   0.02451   0.01884   0.0195  0.0191  1.0000  -5.5621   0.0000   0.0000   0.0000   0.2173
  10.700   0.9849   0.02491   0.01927   0.0197  0.0190  1.0000  -5.6417   0.0000   0.0000   0.0000   0.2172
  10.800   0.9926   0.02531   0.01970   0.0198  0.0188  1.0000  -5.7206   0.0000   0.0000   0.0000   0.2171
  10.900   1.0001   0.02573   0.02016   0.0200  0.0187  1.0000  -5.7990   0.0000   0.0000   0.0000   0.2170
  11.000   1.0074   0.02615   0.02061   0.0202  0.0185  1.0000  -5.8767   0.0000   0.0000   0.0000   0.2168
  11.100   1.0145   0.02658   0.02108   0.0204  0.0184  1.0000  -5.9539   0.0000   0.0000   0.0000   0.2166
  11.200   1.0214   0.02701   0.02153   0.0206  0.0182  1.0000  -6.0318   0.0000   0.0000   0.0000   0.2164
  11.300   1.0280   0.02741   0.02197   0.0209  0.0180  1.0000  -6.1105   0.0000   0.0000   0.0000   0.2161
  11.400   1.0343   0.02781   0.02239   0.0211  0.0178  1.0000  -6.1900   0.0000   0.0000   0.0000   0.2159
  11.500   1.0404   0.02820   0.02281   0.0214  0.0177  1.0000  -6.2704   0.0000   0.0000   0.0000   0.2156
  11.600   1.0461   0.02860   0.02324   0.0217  0.0175  1.0000  -6.3495   0.0000   0.0000   0.0000   0.2153
  11.700   1.0516   0.02900   0.02366   0.0219  0.0173  1.0000  -6.4287   0.0000   0.0000   0.0000   0.2150
  11.800   1.0570   0.02940   0.02409   0.0222  0.0171  1.0000  -6.5083   0.0000   0.0000   0.0000   0.2147
  11.900   1.0622   0.02981   0.02453   0.0225  0.0170  1.0000  -6.5884   0.0000   0.0000   0.0000   0.2143
  12.000   1.0674   0.03024   0.02497   0.0228  0.0168  1.0000  -6.6689   0.0000   0.0000   0.0000   0.2140
  12.100   1.0725   0.03068   0.02543   0.0230  0.0167  1.0000  -6.7489   0.0000   0.0000   0.0000   0.2137
  12.200   1.0775   0.03115   0.02592   0.0233  0.0166  1.0000  -6.8276   0.0000   0.0000   0.0000   0.2134
  12.300   1.0824   0.03166   0.02646   0.0236  0.0164  1.0000  -6.9040   0.0000   0.0000   0.0000   0.2131
  12.400   1.0872   0.03224   0.02706   0.0239  0.0163  1.0000  -6.9768   0.0000   0.0000   0.0000   0.2128
  12.500   1.0917   0.03291   0.02776   0.0242  0.0162  1.0000  -7.0444   0.0000   0.0000   0.0000   0.2124
  12.600   1.0957   0.03376   0.02865   0.0246  0.0160  1.0000  -7.1006   0.0000   0.0000   0.0000   0.2120
  12.700   1.0981   0.03512   0.03010   0.0251  0.0158  1.0000  -7.1233   0.0000   0.0000   0.0000   0.2115
  12.800   1.0947   0.03756   0.03275   0.0259  0.0156  1.0000  -7.0641   0.0000   0.0000   0.0000   0.2105
  12.900   1.0965   0.03814   0.03338   0.0263  0.0155  1.0000  -7.1196   0.0000   0.0000   0.0000   0.2100
  13.000   1.0982   0.03878   0.03407   0.0267  0.0155  1.0000  -7.1725   0.0000   0.0000   0.0000   0.2096
  13.100   1.0997   0.03947   0.03482   0.0270  0.0154  1.0000  -7.2225   0.0000   0.0000   0.0000   0.2091
  13.200   1.1008   0.04021   0.03563   0.0274  0.0154  1.0000  -7.2691   0.0000   0.0000   0.0000   0.2086
  13.300   1.1017   0.04101   0.03649   0.0277  0.0153  1.0000  -7.3123   0.0000   0.0000   0.0000   0.2082
  13.400   1.1023   0.04187   0.03741   0.0280  0.0153  1.0000  -7.3521   0.0000   0.0000   0.0000   0.2077
  13.500   1.1024   0.04279   0.03840   0.0283  0.0152  1.0000  -7.3878   0.0000   0.0000   0.0000   0.2073
  13.600   1.1021   0.04376   0.03944   0.0286  0.0152  1.0000  -7.4194   0.0000   0.0000   0.0000   0.2068
  13.700   1.1013   0.04480   0.04055   0.0288  0.0151  1.0000  -7.4470   0.0000   0.0000   0.0000   0.2064
  13.800   1.1001   0.04591   0.04173   0.0291  0.0151  1.0000  -7.4703   0.0000   0.0000   0.0000   0.2059
  13.900   1.0984   0.04708   0.04298   0.0293  0.0150  1.0000  -7.4892   0.0000   0.0000   0.0000   0.2055
  14.000   1.0961   0.04832   0.04430   0.0294  0.0150  1.0000  -7.5037   0.0000   0.0000   0.0000   0.2051
  14.100   1.0933   0.04964   0.04569   0.0295  0.0149  1.0000  -7.5136   0.0000   0.0000   0.0000   0.2048
  14.200   1.0899   0.05103   0.04716   0.0296  0.0149  1.0000  -7.5188   0.0000   0.0000   0.0000   0.2044
  14.300   1.0861   0.05251   0.04872   0.0296  0.0148  1.0000  -7.5193   0.0000   0.0000   0.0000   0.2041
  14.400   1.0817   0.05407   0.05036   0.0295  0.0148  1.0000  -7.5153   0.0000   0.0000   0.0000   0.2038
  14.500   1.0768   0.05571   0.05208   0.0294  0.0148  1.0000  -7.5066   0.0000   0.0000   0.0000   0.2036
  14.600   1.0713   0.05744   0.05390   0.0292  0.0147  1.0000  -7.4930   0.0000   0.0000   0.0000   0.2034
  14.700   1.0653   0.05928   0.05582   0.0289  0.0147  1.0000  -7.4745   0.0000   0.0000   0.0000   0.2033
  14.800   1.0587   0.06122   0.05784   0.0285  0.0147  1.0000  -7.4508   0.0000   0.0000   0.0000   0.2033
  14.900   1.0516   0.06328   0.05998   0.0280  0.0147  1.0000  -7.4216   0.0000   0.0000   0.0000   0.2033
  15.000   1.0439   0.06546   0.06224   0.0274  0.0147  1.0000  -7.3869   0.0000   0.0000   0.0000   0.2035
  15.100   1.0356   0.06778   0.06465   0.0267  0.0147  1.0000  -7.3489   0.0000   0.0000   0.0000   0.2038
  15.200   1.0269   0.07027   0.06722   0.0257  0.0146  1.0000  -7.3063   0.0000   0.0000   0.0000   0.2042
  15.300   1.0175   0.07294   0.06997   0.0247  0.0146  1.0000  -7.2568   0.0000   0.0000   0.0000   0.2047
  15.400   1.0076   0.07580   0.07292   0.0234  0.0147  1.0000  -7.1998   0.0000   0.0000   0.0000   0.2055
  15.500   0.9970   0.07885   0.07605   0.0219  0.0147  1.0000  -7.1347   0.0000   0.0000   0.0000   0.2065
  15.600   0.9858   0.08214   0.07942   0.0202  0.0147  1.0000  -7.0606   0.0000   0.0000   0.0000   0.2077
  15.700   0.9739   0.08571   0.08307   0.0183  0.0147  1.0000  -6.9760   0.0000   0.0000   0.0000   0.2092
  15.800   0.9612   0.08961   0.08706   0.0160  0.0147  1.0000  -6.8786   0.0000   0.0000   0.0000   0.2110
  15.900   0.9474   0.09392   0.09145   0.0134  0.0148  1.0000  -6.7648   0.0000   0.0000   0.0000   0.2133
  16.000   0.9321   0.09878   0.09639   0.0104  0.0148  1.0000  -6.6281   0.0000   0.0000   0.0000   0.2160
  16.100   0.9146   0.10441   0.10211   0.0068  0.0149  1.0000  -6.4565   0.0000   0.0000   0.0000   0.2196
  16.200   0.8924   0.11154   0.10934   0.0022  0.0150  1.0000  -6.2138   0.0000   0.0000   0.0000   0.2244
  27.300   1.0202   0.33789   0.33597  -0.1380  0.0066  1.0000  -2.0865   0.0000   0.0000   0.0000   0.3439
  27.400   1.0233   0.33904   0.33712  -0.1390  0.0065  1.0000  -2.0902   0.0000   0.0000   0.0000   0.3443
  27.500   1.0263   0.34018   0.33827  -0.1401  0.0064  1.0000  -2.0950   0.0000   0.0000   0.0000   0.3446
  27.600   1.0293   0.34131   0.33940  -0.1411  0.0063  1.0000  -2.1007   0.0000   0.0000   0.0000   0.3449
  27.700   1.0323   0.34243   0.34052  -0.1421  0.0062  1.0000  -2.1074   0.0000   0.0000   0.0000   0.3453
  27.800   1.0352   0.34353   0.34162  -0.1432  0.0061  1.0000  -2.1151   0.0000   0.0000   0.0000   0.3456
  27.900   1.0382   0.34461   0.34270  -0.1442  0.0060  1.0000  -2.1237   0.0000   0.0000   0.0000   0.3459
  28.000   1.0411   0.34568   0.34377  -0.1452  0.0059  1.0000  -2.1334   0.0000   0.0000   0.0000   0.3462
  28.100   1.0440   0.34672   0.34482  -0.1462  0.0058  1.0000  -2.1441   0.0000   0.0000   0.0000   0.3465
  28.200   1.0469   0.34776   0.34586  -0.1473  0.0058  1.0000  -2.1559   0.0000   0.0000   0.0000   0.3468
  28.300   1.0498   0.34877   0.34688  -0.1483  0.0057  1.0000  -2.1689   0.0000   0.0000   0.0000   0.3471
  28.400   1.0527   0.34978   0.34788  -0.1493  0.0056  1.0000  -2.1832   0.0000   0.0000   0.0000   0.3474
  28.500   1.0555   0.35076   0.34887  -0.1503  0.0056  1.0000  -2.1986   0.0000   0.0000   0.0000   0.3477
  28.600   1.0583   0.35173   0.34984  -0.1513  0.0055  1.0000  -2.2154   0.0000   0.0000   0.0000   0.3480
  28.700   1.0611   0.35268   0.35079  -0.1524  0.0055  1.0000  -2.2338   0.0000   0.0000   0.0000   0.3482
  28.800   1.0639   0.35362   0.35173  -0.1534  0.0055  1.0000  -2.2581   0.0000   0.0000   0.0000   0.3485
  28.900   1.0666   0.35464   0.35276  -0.1543  0.0054  1.0000  -2.2836   0.0000   0.0000   0.0000   0.3487
  29.000   1.0693   0.35557   0.35369  -0.1553  0.0054  1.0000  -2.3105   0.0000   0.0000   0.0000   0.3490
  29.100   1.0720   0.35649   0.35462  -0.1563  0.0053  1.0000  -2.3389   0.0000   0.0000   0.0000   0.3492
  29.200   1.0747   0.35742   0.35555  -0.1572  0.0053  1.0000  -2.3688   0.0000   0.0000   0.0000   0.3494
  29.300   1.0773   0.35837   0.35650  -0.1581  0.0053  1.0000  -2.4008   0.0000   0.0000   0.0000   0.3495
  29.400   1.0800   0.35939   0.35752  -0.1590  0.0052  1.0000  -2.4355   0.0000   0.0000   0.0000   0.3496
  29.500   1.0826   0.36072   0.35886  -0.1595  0.0052  1.0000  -2.4776   0.0000   0.0000   0.0000   0.3495
  29.600   1.0852   0.36250   0.36063  -0.1604  0.0052  1.0000  -2.4709   0.0000   0.0000   0.0000   0.3496
  29.700   1.0879   0.36366   0.36179  -0.1615  0.0052  1.0000  -2.4641   0.0000   0.0000   0.0000   0.3500
  29.800   1.0906   0.36485   0.36299  -0.1627  0.0052  1.0000  -2.4536   0.0000   0.0000   0.0000   0.3504
  29.900   1.0933   0.36604   0.36418  -0.1639  0.0051  1.0000  -2.4403   0.0000   0.0000   0.0000   0.3509
  30.000   1.0960   0.36730   0.36544  -0.1650  0.0051  1.0000  -2.4268   0.0000   0.0000   0.0000   0.3513


