xflr5 v6.61

 Calculated polar for: NACA65-015

 1 1 Reynolds number fixed          Mach number fixed         

 xtrf =   1.000 (top)        1.000 (bottom)
 Mach =   0.000     Re =     0.719 e 6     Ncrit =   9.000

  alpha     CL        CD       CDp       Cm    Top Xtr Bot Xtr   Cpmin    Chinge    XCp    
 ------- -------- --------- --------- -------- ------- ------- -------- --------- ---------
 -10.000  -0.9338   0.02216   0.01626  -0.0175  0.9269  0.0196  -5.1167   0.0000   0.0000   0.0000   0.2194
  -9.900  -0.9279   0.02190   0.01596  -0.0168  0.9209  0.0197  -5.0442   0.0000   0.0000   0.0000   0.2201
  -9.800  -0.9219   0.02166   0.01567  -0.0161  0.9152  0.0198  -4.9710   0.0000   0.0000   0.0000   0.2208
  -9.700  -0.9154   0.02142   0.01539  -0.0156  0.9098  0.0199  -4.8954   0.0000   0.0000   0.0000   0.2214
  -9.600  -0.9089   0.02121   0.01512  -0.0150  0.9049  0.0200  -4.8293   0.0000   0.0000   0.0000   0.2220
  -9.500  -0.9021   0.02100   0.01488  -0.0145  0.9000  0.0201  -4.7615   0.0000   0.0000   0.0000   0.2226
  -9.400  -0.8982   0.02013   0.01397  -0.0137  0.8960  0.0205  -4.7365   0.0000   0.0000   0.0000   0.2236
  -9.300  -0.8939   0.01960   0.01341  -0.0129  0.8913  0.0207  -4.6911   0.0000   0.0000   0.0000   0.2246
  -9.200  -0.8890   0.01920   0.01298  -0.0121  0.8872  0.0210  -4.6363   0.0000   0.0000   0.0000   0.2254
  -9.100  -0.8833   0.01886   0.01262  -0.0115  0.8828  0.0212  -4.5751   0.0000   0.0000   0.0000   0.2262
  -9.000  -0.8775   0.01858   0.01232  -0.0109  0.8792  0.0214  -4.5118   0.0000   0.0000   0.0000   0.2269
  -8.900  -0.8710   0.01832   0.01203  -0.0104  0.8751  0.0217  -4.4454   0.0000   0.0000   0.0000   0.2276
  -8.800  -0.8645   0.01807   0.01177  -0.0098  0.8713  0.0219  -4.3793   0.0000   0.0000   0.0000   0.2282
  -8.700  -0.8580   0.01785   0.01151  -0.0092  0.8680  0.0221  -4.3133   0.0000   0.0000   0.0000   0.2289
  -8.600  -0.8514   0.01763   0.01127  -0.0087  0.8641  0.0224  -4.2469   0.0000   0.0000   0.0000   0.2296
  -8.500  -0.8449   0.01744   0.01105  -0.0081  0.8608  0.0226  -4.1809   0.0000   0.0000   0.0000   0.2304
  -8.400  -0.8379   0.01725   0.01084  -0.0075  0.8575  0.0229  -4.1133   0.0000   0.0000   0.0000   0.2311
  -8.300  -0.8304   0.01707   0.01064  -0.0071  0.8540  0.0233  -4.0440   0.0000   0.0000   0.0000   0.2316
  -8.200  -0.8226   0.01688   0.01041  -0.0067  0.8508  0.0236  -3.9743   0.0000   0.0000   0.0000   0.2322
  -8.100  -0.8146   0.01670   0.01020  -0.0063  0.8480  0.0239  -3.9048   0.0000   0.0000   0.0000   0.2327
  -8.000  -0.8064   0.01651   0.00999  -0.0060  0.8446  0.0242  -3.8349   0.0000   0.0000   0.0000   0.2331
  -7.900  -0.7982   0.01633   0.00978  -0.0056  0.8415  0.0244  -3.7659   0.0000   0.0000   0.0000   0.2335
  -7.800  -0.7901   0.01615   0.00956  -0.0053  0.8388  0.0247  -3.6980   0.0000   0.0000   0.0000   0.2340
  -7.700  -0.7816   0.01596   0.00935  -0.0050  0.8358  0.0248  -3.6293   0.0000   0.0000   0.0000   0.2345
  -7.600  -0.7729   0.01579   0.00916  -0.0047  0.8327  0.0250  -3.5599   0.0000   0.0000   0.0000   0.2348
  -7.500  -0.7642   0.01563   0.00897  -0.0044  0.8299  0.0251  -3.4901   0.0000   0.0000   0.0000   0.2352
  -7.400  -0.7590   0.01521   0.00850  -0.0036  0.8274  0.0255  -3.4431   0.0000   0.0000   0.0000   0.2363
  -7.300  -0.7523   0.01486   0.00814  -0.0031  0.8244  0.0259  -3.3868   0.0000   0.0000   0.0000   0.2371
  -7.200  -0.7445   0.01460   0.00786  -0.0027  0.8215  0.0263  -3.3239   0.0000   0.0000   0.0000   0.2377
  -7.100  -0.7362   0.01439   0.00763  -0.0024  0.8188  0.0268  -3.2576   0.0000   0.0000   0.0000   0.2382
  -7.000  -0.7276   0.01421   0.00742  -0.0021  0.8165  0.0272  -3.1897   0.0000   0.0000   0.0000   0.2386
  -6.900  -0.7185   0.01404   0.00724  -0.0019  0.8140  0.0276  -3.1208   0.0000   0.0000   0.0000   0.2390
  -6.800  -0.7093   0.01387   0.00706  -0.0017  0.8112  0.0281  -3.0520   0.0000   0.0000   0.0000   0.2393
  -6.700  -0.7001   0.01371   0.00689  -0.0015  0.8086  0.0286  -2.9838   0.0000   0.0000   0.0000   0.2396
  -6.600  -0.6908   0.01356   0.00671  -0.0013  0.8063  0.0291  -2.9170   0.0000   0.0000   0.0000   0.2400
  -6.400  -0.6716   0.01329   0.00639  -0.0010  0.8015  0.0301  -2.8004   0.0000   0.0000   0.0000   0.2406
  -6.300  -0.6617   0.01317   0.00625  -0.0009  0.7988  0.0305  -2.7409   0.0000   0.0000   0.0000   0.2408
  -6.200  -0.6532   0.01293   0.00599  -0.0006  0.7963  0.0314  -2.6908   0.0000   0.0000   0.0000   0.2413
  -6.100  -0.6443   0.01273   0.00578  -0.0003  0.7941  0.0324  -2.6359   0.0000   0.0000   0.0000   0.2418
  -6.000  -0.6347   0.01259   0.00563  -0.0002  0.7920  0.0334  -2.5771   0.0000   0.0000   0.0000   0.2421
  -5.900  -0.6247   0.01246   0.00550  -0.0001  0.7895  0.0345  -2.5174   0.0000   0.0000   0.0000   0.2423
  -5.800  -0.6146   0.01234   0.00536  -0.0000  0.7871  0.0356  -2.4585   0.0000   0.0000   0.0000   0.2425
  -5.700  -0.6045   0.01223   0.00523   0.0001  0.7848  0.0366  -2.4005   0.0000   0.0000   0.0000   0.2427
  -5.600  -0.5953   0.01202   0.00503   0.0003  0.7827  0.0386  -2.3480   0.0000   0.0000   0.0000   0.2432
  -5.500  -0.5856   0.01189   0.00488   0.0004  0.7809  0.0406  -2.2917   0.0000   0.0000   0.0000   0.2435
  -5.400  -0.5754   0.01177   0.00475   0.0005  0.7787  0.0428  -2.2349   0.0000   0.0000   0.0000   0.2437
  -5.300  -0.5659   0.01157   0.00459   0.0007  0.7764  0.0471  -2.1812   0.0000   0.0000   0.0000   0.2441
  -5.200  -0.5564   0.01138   0.00444   0.0008  0.7741  0.0539  -2.1274   0.0000   0.0000   0.0000   0.2445
  -5.100  -0.5476   0.01113   0.00426   0.0011  0.7720  0.0684  -2.0755   0.0000   0.0000   0.0000   0.2450
  -5.000  -0.5396   0.01080   0.00406   0.0014  0.7700  0.0946  -2.0258   0.0000   0.0000   0.0000   0.2457
  -4.800  -0.5246   0.01002   0.00363   0.0021  0.7658  0.1716  -1.9284   0.0000   0.0000   0.0000   0.2473
  -4.700  -0.5173   0.00959   0.00341   0.0024  0.7635  0.2180  -1.8801   0.0000   0.0000   0.0000   0.2481
  -4.600  -0.5102   0.00913   0.00317   0.0028  0.7612  0.2694  -1.8326   0.0000   0.0000   0.0000   0.2489
  -4.500  -0.5033   0.00865   0.00294   0.0032  0.7592  0.3258  -1.7857   0.0000   0.0000   0.0000   0.2499
  -4.400  -0.4968   0.00813   0.00269   0.0037  0.7573  0.3866  -1.7398   0.0000   0.0000   0.0000   0.2510
  -4.200  -0.4811   0.00741   0.00240   0.0044  0.7535  0.4922  -1.6524   0.0000   0.0000   0.0000   0.2529
  -4.100  -0.4709   0.00727   0.00236   0.0044  0.7514  0.5186  -1.6035   0.0000   0.0000   0.0000   0.2533
  -4.000  -0.4603   0.00719   0.00232   0.0045  0.7495  0.5365  -1.5538   0.0000   0.0000   0.0000   0.2536
  -3.900  -0.4494   0.00713   0.00229   0.0044  0.7476  0.5499  -1.5037   0.0000   0.0000   0.0000   0.2539
  -3.800  -0.4383   0.00711   0.00226   0.0044  0.7459  0.5607  -1.4535   0.0000   0.0000   0.0000   0.2541
  -3.700  -0.4273   0.00707   0.00224   0.0044  0.7443  0.5691  -1.4041   0.0000   0.0000   0.0000   0.2544
  -3.600  -0.4159   0.00708   0.00221   0.0043  0.7427  0.5763  -1.3542   0.0000   0.0000   0.0000   0.2545
  -3.500  -0.4047   0.00704   0.00220   0.0042  0.7408  0.5820  -1.3050   0.0000   0.0000   0.0000   0.2547
  -3.400  -0.3932   0.00702   0.00217   0.0041  0.7389  0.5874  -1.2557   0.0000   0.0000   0.0000   0.2547
  -3.300  -0.3816   0.00701   0.00214   0.0040  0.7369  0.5919  -1.2069   0.0000   0.0000   0.0000   0.2548
  -3.200  -0.3704   0.00699   0.00213   0.0039  0.7351  0.5969  -1.1590   0.0000   0.0000   0.0000   0.2550
  -3.100  -0.3589   0.00699   0.00211   0.0038  0.7334  0.6029  -1.1112   0.0000   0.0000   0.0000   0.2551
  -3.000  -0.3477   0.00698   0.00210   0.0038  0.7317  0.6089  -1.0643   0.0000   0.0000   0.0000   0.2554
  -2.900  -0.3365   0.00700   0.00211   0.0038  0.7302  0.6164  -1.0178   0.0000   0.0000   0.0000   0.2557
  -2.800  -0.3252   0.00700   0.00213   0.0037  0.7285  0.6237  -0.9717   0.0000   0.0000   0.0000   0.2560
  -2.700  -0.3139   0.00702   0.00215   0.0037  0.7268  0.6313  -0.9258   0.0000   0.0000   0.0000   0.2563
  -2.600  -0.3026   0.00702   0.00217   0.0036  0.7250  0.6374  -0.8807   0.0000   0.0000   0.0000   0.2567
  -2.500  -0.2912   0.00704   0.00219   0.0036  0.7233  0.6426  -0.8358   0.0000   0.0000   0.0000   0.2570
  -2.400  -0.2797   0.00707   0.00219   0.0035  0.7216  0.6469  -0.7913   0.0000   0.0000   0.0000   0.2572
  -2.300  -0.2682   0.00706   0.00217   0.0034  0.7201  0.6500  -0.7475   0.0000   0.0000   0.0000   0.2575
  -2.200  -0.2568   0.00706   0.00217   0.0033  0.7185  0.6525  -0.7042   0.0000   0.0000   0.0000   0.2578
  -2.100  -0.2453   0.00708   0.00217   0.0032  0.7171  0.6551  -0.6647   0.0000   0.0000   0.0000   0.2581
  -2.000  -0.2337   0.00708   0.00217   0.0031  0.7155  0.6575  -0.6270   0.0000   0.0000   0.0000   0.2582
  -1.900  -0.2220   0.00708   0.00216   0.0029  0.7138  0.6597  -0.5897   0.0000   0.0000   0.0000   0.2582
  -1.800  -0.2103   0.00709   0.00214   0.0028  0.7121  0.6616  -0.5528   0.0000   0.0000   0.0000   0.2582
  -1.700  -0.1986   0.00707   0.00212   0.0026  0.7105  0.6633  -0.5412   0.0000   0.0000   0.0000   0.2582
  -1.600  -0.1870   0.00705   0.00211   0.0025  0.7089  0.6647  -0.5355   0.0000   0.0000   0.0000   0.2584
  -1.500  -0.1754   0.00704   0.00210   0.0024  0.7075  0.6660  -0.5299   0.0000   0.0000   0.0000   0.2585
  -1.400  -0.1637   0.00704   0.00208   0.0022  0.7061  0.6673  -0.5242   0.0000   0.0000   0.0000   0.2586
  -1.300  -0.1521   0.00704   0.00207   0.0021  0.7048  0.6686  -0.5186   0.0000   0.0000   0.0000   0.2587
  -1.200  -0.1405   0.00705   0.00206   0.0019  0.7034  0.6699  -0.5130   0.0000   0.0000   0.0000   0.2589
  -1.100  -0.1287   0.00705   0.00205   0.0018  0.7020  0.6713  -0.5074   0.0000   0.0000   0.0000   0.2588
  -1.000  -0.1169   0.00704   0.00204   0.0016  0.7004  0.6728  -0.5020   0.0000   0.0000   0.0000   0.2586
  -0.900  -0.1052   0.00704   0.00203   0.0014  0.6988  0.6742  -0.4966   0.0000   0.0000   0.0000   0.2585
  -0.800  -0.0934   0.00704   0.00202   0.0012  0.6973  0.6756  -0.4912   0.0000   0.0000   0.0000   0.2583
  -0.700  -0.0818   0.00702   0.00200   0.0011  0.6957  0.6768  -0.4858   0.0000   0.0000   0.0000   0.2583
  -0.600  -0.0701   0.00701   0.00199   0.0009  0.6943  0.6781  -0.4804   0.0000   0.0000   0.0000   0.2585
  -0.500  -0.0585   0.00700   0.00198   0.0008  0.6930  0.6793  -0.4750   0.0000   0.0000   0.0000   0.2587
  -0.400  -0.0468   0.00700   0.00198   0.0007  0.6917  0.6805  -0.4695   0.0000   0.0000   0.0000   0.2591
  -0.300  -0.0352   0.00702   0.00198   0.0005  0.6904  0.6818  -0.4641   0.0000   0.0000   0.0000   0.2597
  -0.200  -0.0235   0.00702   0.00198   0.0004  0.6891  0.6832  -0.4587   0.0000   0.0000   0.0000   0.2602
  -0.100  -0.0118   0.00702   0.00199   0.0002  0.6877  0.6847  -0.4533   0.0000   0.0000   0.0000   0.2601
   0.000  -0.0000   0.00702   0.00199   0.0000  0.6862  0.6862  -0.4478   0.0000   0.0000   0.0000   0.4533
   0.100   0.0118   0.00702   0.00199  -0.0002  0.6847  0.6877  -0.4533   0.0000   0.0000   0.0000   0.2601
   0.200   0.0235   0.00702   0.00198  -0.0004  0.6832  0.6891  -0.4587   0.0000   0.0000   0.0000   0.2602
   0.300   0.0352   0.00702   0.00198  -0.0005  0.6818  0.6904  -0.4641   0.0000   0.0000   0.0000   0.2597
   0.400   0.0468   0.00700   0.00198  -0.0007  0.6805  0.6917  -0.4695   0.0000   0.0000   0.0000   0.2591
   0.500   0.0585   0.00700   0.00198  -0.0008  0.6793  0.6930  -0.4750   0.0000   0.0000   0.0000   0.2587
   0.600   0.0701   0.00701   0.00199  -0.0009  0.6781  0.6943  -0.4804   0.0000   0.0000   0.0000   0.2585
   0.700   0.0818   0.00702   0.00200  -0.0011  0.6768  0.6957  -0.4858   0.0000   0.0000   0.0000   0.2583
   0.800   0.0934   0.00704   0.00202  -0.0012  0.6756  0.6973  -0.4912   0.0000   0.0000   0.0000   0.2583
   0.900   0.1052   0.00704   0.00203  -0.0014  0.6742  0.6988  -0.4966   0.0000   0.0000   0.0000   0.2585
   1.000   0.1169   0.00704   0.00204  -0.0016  0.6728  0.7004  -0.5020   0.0000   0.0000   0.0000   0.2586
   1.100   0.1287   0.00705   0.00205  -0.0018  0.6713  0.7020  -0.5074   0.0000   0.0000   0.0000   0.2588
   1.200   0.1405   0.00705   0.00206  -0.0019  0.6699  0.7034  -0.5130   0.0000   0.0000   0.0000   0.2589
   1.300   0.1521   0.00704   0.00207  -0.0021  0.6686  0.7048  -0.5186   0.0000   0.0000   0.0000   0.2587
   1.400   0.1637   0.00704   0.00208  -0.0022  0.6673  0.7061  -0.5242   0.0000   0.0000   0.0000   0.2586
   1.500   0.1754   0.00704   0.00210  -0.0024  0.6660  0.7075  -0.5299   0.0000   0.0000   0.0000   0.2585
   1.600   0.1870   0.00705   0.00211  -0.0025  0.6647  0.7089  -0.5355   0.0000   0.0000   0.0000   0.2584
   1.700   0.1986   0.00707   0.00212  -0.0026  0.6633  0.7105  -0.5412   0.0000   0.0000   0.0000   0.2582
   1.800   0.2103   0.00709   0.00214  -0.0028  0.6616  0.7121  -0.5528   0.0000   0.0000   0.0000   0.2582
   1.900   0.2220   0.00708   0.00216  -0.0029  0.6597  0.7138  -0.5897   0.0000   0.0000   0.0000   0.2582
   2.000   0.2337   0.00708   0.00217  -0.0031  0.6575  0.7155  -0.6270   0.0000   0.0000   0.0000   0.2582
   2.100   0.2453   0.00708   0.00217  -0.0032  0.6551  0.7171  -0.6647   0.0000   0.0000   0.0000   0.2581
   2.200   0.2568   0.00706   0.00217  -0.0033  0.6525  0.7185  -0.7042   0.0000   0.0000   0.0000   0.2578
   2.300   0.2683   0.00706   0.00217  -0.0034  0.6500  0.7201  -0.7475   0.0000   0.0000   0.0000   0.2575
   2.400   0.2797   0.00707   0.00219  -0.0035  0.6469  0.7216  -0.7913   0.0000   0.0000   0.0000   0.2572
   2.500   0.2912   0.00704   0.00219  -0.0036  0.6426  0.7233  -0.8358   0.0000   0.0000   0.0000   0.2570
   2.600   0.3026   0.00702   0.00217  -0.0036  0.6374  0.7250  -0.8807   0.0000   0.0000   0.0000   0.2567
   2.700   0.3139   0.00702   0.00215  -0.0037  0.6313  0.7268  -0.9258   0.0000   0.0000   0.0000   0.2563
   2.800   0.3252   0.00700   0.00213  -0.0037  0.6237  0.7285  -0.9717   0.0000   0.0000   0.0000   0.2560
   2.900   0.3365   0.00700   0.00211  -0.0038  0.6164  0.7302  -1.0178   0.0000   0.0000   0.0000   0.2557
   3.000   0.3477   0.00698   0.00210  -0.0038  0.6089  0.7317  -1.0643   0.0000   0.0000   0.0000   0.2554
   3.100   0.3589   0.00699   0.00211  -0.0038  0.6029  0.7334  -1.1112   0.0000   0.0000   0.0000   0.2551
   3.200   0.3704   0.00699   0.00213  -0.0039  0.5969  0.7351  -1.1590   0.0000   0.0000   0.0000   0.2550
   3.300   0.3816   0.00701   0.00214  -0.0040  0.5919  0.7369  -1.2069   0.0000   0.0000   0.0000   0.2548
   3.400   0.3932   0.00702   0.00217  -0.0041  0.5874  0.7389  -1.2557   0.0000   0.0000   0.0000   0.2547
   3.500   0.4047   0.00704   0.00220  -0.0042  0.5820  0.7408  -1.3050   0.0000   0.0000   0.0000   0.2547
   3.600   0.4159   0.00708   0.00221  -0.0043  0.5763  0.7427  -1.3542   0.0000   0.0000   0.0000   0.2545
   3.700   0.4273   0.00707   0.00224  -0.0044  0.5691  0.7443  -1.4041   0.0000   0.0000   0.0000   0.2544
   3.800   0.4383   0.00711   0.00226  -0.0044  0.5607  0.7459  -1.4536   0.0000   0.0000   0.0000   0.2541
   3.900   0.4494   0.00713   0.00229  -0.0044  0.5499  0.7476  -1.5037   0.0000   0.0000   0.0000   0.2539
   4.000   0.4603   0.00719   0.00232  -0.0045  0.5365  0.7495  -1.5538   0.0000   0.0000   0.0000   0.2536
   4.100   0.4709   0.00727   0.00236  -0.0044  0.5186  0.7514  -1.6035   0.0000   0.0000   0.0000   0.2533
   4.200   0.4811   0.00741   0.00240  -0.0044  0.4922  0.7535  -1.6524   0.0000   0.0000   0.0000   0.2529
   4.400   0.4968   0.00813   0.00269  -0.0037  0.3866  0.7573  -1.7398   0.0000   0.0000   0.0000   0.2510
   4.500   0.5033   0.00865   0.00294  -0.0032  0.3258  0.7592  -1.7857   0.0000   0.0000   0.0000   0.2499
   4.600   0.5102   0.00913   0.00317  -0.0028  0.2694  0.7612  -1.8326   0.0000   0.0000   0.0000   0.2489
   4.700   0.5173   0.00959   0.00341  -0.0024  0.2180  0.7635  -1.8801   0.0000   0.0000   0.0000   0.2481
   4.800   0.5247   0.01002   0.00363  -0.0021  0.1716  0.7658  -1.9284   0.0000   0.0000   0.0000   0.2473
   5.000   0.5397   0.01080   0.00406  -0.0014  0.0946  0.7700  -2.0259   0.0000   0.0000   0.0000   0.2457
   5.100   0.5476   0.01113   0.00426  -0.0011  0.0684  0.7720  -2.0756   0.0000   0.0000   0.0000   0.2450
   5.200   0.5564   0.01138   0.00444  -0.0008  0.0539  0.7741  -2.1274   0.0000   0.0000   0.0000   0.2445
   5.300   0.5660   0.01157   0.00459  -0.0007  0.0471  0.7764  -2.1813   0.0000   0.0000   0.0000   0.2441
   5.400   0.5754   0.01177   0.00475  -0.0005  0.0428  0.7787  -2.2349   0.0000   0.0000   0.0000   0.2437
   5.500   0.5856   0.01189   0.00488  -0.0005  0.0406  0.7809  -2.2918   0.0000   0.0000   0.0000   0.2435
   5.600   0.5954   0.01202   0.00502  -0.0003  0.0386  0.7827  -2.3481   0.0000   0.0000   0.0000   0.2432
   5.700   0.6045   0.01223   0.00523  -0.0001  0.0366  0.7848  -2.4006   0.0000   0.0000   0.0000   0.2427
   5.800   0.6146   0.01234   0.00536   0.0000  0.0356  0.7871  -2.4586   0.0000   0.0000   0.0000   0.2425
   5.900   0.6247   0.01246   0.00550   0.0001  0.0345  0.7895  -2.5175   0.0000   0.0000   0.0000   0.2423
   6.000   0.6347   0.01259   0.00563   0.0002  0.0334  0.7920  -2.5772   0.0000   0.0000   0.0000   0.2422
   6.100   0.6443   0.01273   0.00578   0.0003  0.0324  0.7941  -2.6360   0.0000   0.0000   0.0000   0.2418
   6.200   0.6532   0.01293   0.00599   0.0006  0.0314  0.7963  -2.6909   0.0000   0.0000   0.0000   0.2414
   6.300   0.6617   0.01317   0.00625   0.0009  0.0305  0.7988  -2.7410   0.0000   0.0000   0.0000   0.2408
   6.400   0.6717   0.01329   0.00639   0.0010  0.0301  0.8014  -2.8005   0.0000   0.0000   0.0000   0.2406
   6.500   0.6815   0.01343   0.00654   0.0011  0.0296  0.8042  -2.8594   0.0000   0.0000   0.0000   0.2404
   6.600   0.6908   0.01356   0.00671   0.0013  0.0291  0.8063  -2.9171   0.0000   0.0000   0.0000   0.2400
   6.700   0.7001   0.01371   0.00689   0.0015  0.0286  0.8086  -2.9839   0.0000   0.0000   0.0000   0.2396
   6.800   0.7093   0.01387   0.00706   0.0017  0.0281  0.8112  -3.0521   0.0000   0.0000   0.0000   0.2393
   6.900   0.7186   0.01404   0.00724   0.0019  0.0276  0.8140  -3.1209   0.0000   0.0000   0.0000   0.2390
   7.000   0.7276   0.01421   0.00742   0.0021  0.0272  0.8165  -3.1898   0.0000   0.0000   0.0000   0.2386
   7.100   0.7363   0.01439   0.00763   0.0024  0.0268  0.8188  -3.2578   0.0000   0.0000   0.0000   0.2382
   7.200   0.7446   0.01460   0.00786   0.0027  0.0263  0.8215  -3.3241   0.0000   0.0000   0.0000   0.2377
   7.300   0.7523   0.01486   0.00814   0.0031  0.0259  0.8244  -3.3870   0.0000   0.0000   0.0000   0.2371
   7.400   0.7591   0.01521   0.00850   0.0036  0.0255  0.8274  -3.4432   0.0000   0.0000   0.0000   0.2363
   7.500   0.7643   0.01563   0.00897   0.0044  0.0251  0.8299  -3.4903   0.0000   0.0000   0.0000   0.2352
   7.600   0.7730   0.01579   0.00916   0.0047  0.0250  0.8327  -3.5601   0.0000   0.0000   0.0000   0.2349
   7.700   0.7817   0.01596   0.00935   0.0049  0.0248  0.8358  -3.6296   0.0000   0.0000   0.0000   0.2345
   7.800   0.7901   0.01615   0.00956   0.0052  0.0247  0.8388  -3.6983   0.0000   0.0000   0.0000   0.2341
   7.900   0.7983   0.01633   0.00978   0.0056  0.0244  0.8414  -3.7662   0.0000   0.0000   0.0000   0.2336
   8.000   0.8065   0.01651   0.00999   0.0060  0.0242  0.8446  -3.8352   0.0000   0.0000   0.0000   0.2331
   8.100   0.8147   0.01670   0.01020   0.0063  0.0239  0.8480  -3.9052   0.0000   0.0000   0.0000   0.2327
   8.200   0.8227   0.01688   0.01041   0.0067  0.0236  0.8508  -3.9747   0.0000   0.0000   0.0000   0.2322
   8.300   0.8305   0.01707   0.01063   0.0071  0.0233  0.8540  -4.0444   0.0000   0.0000   0.0000   0.2317
   8.400   0.8381   0.01725   0.01084   0.0075  0.0229  0.8575  -4.1138   0.0000   0.0000   0.0000   0.2311
   8.500   0.8450   0.01744   0.01105   0.0080  0.0226  0.8608  -4.1815   0.0000   0.0000   0.0000   0.2304
   8.600   0.8515   0.01763   0.01127   0.0086  0.0224  0.8641  -4.2475   0.0000   0.0000   0.0000   0.2297
   8.700   0.8582   0.01785   0.01151   0.0092  0.0221  0.8680  -4.3139   0.0000   0.0000   0.0000   0.2290
   8.800   0.8647   0.01807   0.01176   0.0098  0.0219  0.8713  -4.3800   0.0000   0.0000   0.0000   0.2283
   8.900   0.8711   0.01832   0.01203   0.0103  0.0217  0.8750  -4.4460   0.0000   0.0000   0.0000   0.2276
   9.000   0.8777   0.01858   0.01231   0.0108  0.0214  0.8792  -4.5125   0.0000   0.0000   0.0000   0.2270
   9.100   0.8835   0.01886   0.01262   0.0115  0.0212  0.8828  -4.5758   0.0000   0.0000   0.0000   0.2262
   9.200   0.8892   0.01920   0.01298   0.0121  0.0210  0.8872  -4.6370   0.0000   0.0000   0.0000   0.2255
   9.300   0.8941   0.01960   0.01341   0.0128  0.0207  0.8913  -4.6918   0.0000   0.0000   0.0000   0.2246
   9.400   0.8984   0.02013   0.01397   0.0136  0.0205  0.8960  -4.7371   0.0000   0.0000   0.0000   0.2237
   9.500   0.9023   0.02100   0.01488   0.0145  0.0201  0.9000  -4.7625   0.0000   0.0000   0.0000   0.2226
   9.600   0.9091   0.02120   0.01512   0.0150  0.0200  0.9049  -4.8303   0.0000   0.0000   0.0000   0.2221
   9.700   0.9156   0.02142   0.01539   0.0156  0.0199  0.9097  -4.8966   0.0000   0.0000   0.0000   0.2215
   9.800   0.9222   0.02166   0.01567   0.0161  0.0198  0.9152  -4.9722   0.0000   0.0000   0.0000   0.2209
   9.900   0.9282   0.02190   0.01596   0.0167  0.0197  0.9208  -5.0455   0.0000   0.0000   0.0000   0.2202
  10.000   0.9341   0.02216   0.01626   0.0174  0.0196  0.9269  -5.1181   0.0000   0.0000   0.0000   0.2194
  10.100   0.9398   0.02242   0.01657   0.0181  0.0195  0.9338  -5.1895   0.0000   0.0000   0.0000   0.2187
  10.200   0.9453   0.02269   0.01689   0.0189  0.0194  0.9417  -5.2598   0.0000   0.0000   0.0000   0.2178
  10.300   0.9508   0.02297   0.01722   0.0196  0.0193  0.9513  -5.3306   0.0000   0.0000   0.0000   0.2171
  10.400   0.9578   0.02327   0.01757   0.0200  0.0191  0.9628  -5.4076   0.0000   0.0000   0.0000   0.2167
  10.500   0.9680   0.02364   0.01799   0.0197  0.0190  0.9755  -5.4984   0.0000   0.0000   0.0000   0.2171
  10.600   0.9785   0.02403   0.01841   0.0193  0.0188  1.0000  -5.5905   0.0000   0.0000   0.0000   0.2176
  10.700   0.9862   0.02442   0.01882   0.0194  0.0186  1.0000  -5.6710   0.0000   0.0000   0.0000   0.2175
  10.800   0.9938   0.02481   0.01924   0.0196  0.0185  1.0000  -5.7511   0.0000   0.0000   0.0000   0.2174
  10.900   1.0012   0.02521   0.01968   0.0197  0.0183  1.0000  -5.8308   0.0000   0.0000   0.0000   0.2172
  11.000   1.0084   0.02561   0.02011   0.0199  0.0182  1.0000  -5.9103   0.0000   0.0000   0.0000   0.2170
  11.100   1.0155   0.02602   0.02054   0.0201  0.0180  1.0000  -5.9897   0.0000   0.0000   0.0000   0.2168
  11.200   1.0223   0.02642   0.02097   0.0204  0.0179  1.0000  -6.0701   0.0000   0.0000   0.0000   0.2166
  11.300   1.0289   0.02680   0.02138   0.0206  0.0177  1.0000  -6.1508   0.0000   0.0000   0.0000   0.2164
  11.400   1.0351   0.02719   0.02179   0.0208  0.0175  1.0000  -6.2315   0.0000   0.0000   0.0000   0.2161
  11.500   1.0411   0.02757   0.02220   0.0211  0.0173  1.0000  -6.3129   0.0000   0.0000   0.0000   0.2158
  11.600   1.0470   0.02795   0.02259   0.0214  0.0172  1.0000  -6.3952   0.0000   0.0000   0.0000   0.2156
  11.700   1.0527   0.02833   0.02299   0.0216  0.0170  1.0000  -6.4781   0.0000   0.0000   0.0000   0.2153
  11.800   1.0584   0.02871   0.02340   0.0219  0.0169  1.0000  -6.5613   0.0000   0.0000   0.0000   0.2150
  11.900   1.0639   0.02912   0.02382   0.0221  0.0167  1.0000  -6.6445   0.0000   0.0000   0.0000   0.2147
  12.000   1.0693   0.02955   0.02426   0.0224  0.0166  1.0000  -6.7269   0.0000   0.0000   0.0000   0.2144
  12.100   1.0746   0.03001   0.02474   0.0226  0.0164  1.0000  -6.8076   0.0000   0.0000   0.0000   0.2141
  12.200   1.0798   0.03055   0.02530   0.0229  0.0163  1.0000  -6.8843   0.0000   0.0000   0.0000   0.2138
  12.300   1.0847   0.03122   0.02600   0.0232  0.0161  1.0000  -6.9532   0.0000   0.0000   0.0000   0.2135
  12.400   1.0891   0.03218   0.02702   0.0237  0.0159  1.0000  -7.0036   0.0000   0.0000   0.0000   0.2130
  12.600   1.0929   0.03500   0.03007   0.0248  0.0155  1.0000  -7.0304   0.0000   0.0000   0.0000   0.2118
  12.700   1.0958   0.03553   0.03065   0.0252  0.0155  1.0000  -7.0929   0.0000   0.0000   0.0000   0.2114
  12.800   1.0986   0.03610   0.03127   0.0255  0.0154  1.0000  -7.1531   0.0000   0.0000   0.0000   0.2109
  12.900   1.1013   0.03672   0.03194   0.0259  0.0153  1.0000  -7.2109   0.0000   0.0000   0.0000   0.2105
  13.000   1.1037   0.03738   0.03266   0.0262  0.0153  1.0000  -7.2660   0.0000   0.0000   0.0000   0.2101
  13.100   1.1058   0.03808   0.03342   0.0265  0.0152  1.0000  -7.3178   0.0000   0.0000   0.0000   0.2096
  13.200   1.1076   0.03884   0.03424   0.0269  0.0152  1.0000  -7.3665   0.0000   0.0000   0.0000   0.2092
  13.300   1.1090   0.03964   0.03510   0.0272  0.0151  1.0000  -7.4117   0.0000   0.0000   0.0000   0.2088
  13.400   1.1101   0.04050   0.03602   0.0275  0.0150  1.0000  -7.4536   0.0000   0.0000   0.0000   0.2083
  13.500   1.1107   0.04141   0.03700   0.0278  0.0150  1.0000  -7.4917   0.0000   0.0000   0.0000   0.2079
  13.600   1.1108   0.04237   0.03803   0.0281  0.0149  1.0000  -7.5256   0.0000   0.0000   0.0000   0.2074
  13.700   1.1105   0.04339   0.03912   0.0284  0.0148  1.0000  -7.5558   0.0000   0.0000   0.0000   0.2070
  13.800   1.1098   0.04447   0.04027   0.0286  0.0148  1.0000  -7.5820   0.0000   0.0000   0.0000   0.2066
  13.900   1.1085   0.04561   0.04149   0.0288  0.0147  1.0000  -7.6042   0.0000   0.0000   0.0000   0.2061
  14.000   1.1068   0.04682   0.04277   0.0290  0.0146  1.0000  -7.6223   0.0000   0.0000   0.0000   0.2057
  14.100   1.1045   0.04809   0.04412   0.0292  0.0146  1.0000  -7.6358   0.0000   0.0000   0.0000   0.2053
  14.200   1.1017   0.04942   0.04553   0.0293  0.0145  1.0000  -7.6452   0.0000   0.0000   0.0000   0.2050
  14.300   1.0984   0.05084   0.04702   0.0293  0.0145  1.0000  -7.6503   0.0000   0.0000   0.0000   0.2046
  14.400   1.0945   0.05233   0.04860   0.0293  0.0144  1.0000  -7.6508   0.0000   0.0000   0.0000   0.2043
  14.500   1.0901   0.05391   0.05025   0.0293  0.0144  1.0000  -7.6467   0.0000   0.0000   0.0000   0.2041
  14.600   1.0852   0.05556   0.05198   0.0291  0.0144  1.0000  -7.6381   0.0000   0.0000   0.0000   0.2039
  14.700   1.0798   0.05730   0.05381   0.0289  0.0143  1.0000  -7.6246   0.0000   0.0000   0.0000   0.2037
  14.800   1.0739   0.05915   0.05574   0.0286  0.0143  1.0000  -7.6060   0.0000   0.0000   0.0000   0.2036
  14.900   1.0673   0.06111   0.05778   0.0282  0.0143  1.0000  -7.5818   0.0000   0.0000   0.0000   0.2036
  15.000   1.0601   0.06319   0.05994   0.0277  0.0143  1.0000  -7.5518   0.0000   0.0000   0.0000   0.2036
  15.100   1.0523   0.06541   0.06224   0.0271  0.0142  1.0000  -7.5192   0.0000   0.0000   0.0000   0.2038
  15.200   1.0439   0.06778   0.06469   0.0263  0.0142  1.0000  -7.4811   0.0000   0.0000   0.0000   0.2041
  15.300   1.0349   0.07032   0.06733   0.0254  0.0142  1.0000  -7.4356   0.0000   0.0000   0.0000   0.2045
  15.400   1.0252   0.07307   0.07015   0.0243  0.0142  1.0000  -7.3821   0.0000   0.0000   0.0000   0.2051
  15.500   1.0149   0.07602   0.07320   0.0229  0.0142  1.0000  -7.3197   0.0000   0.0000   0.0000   0.2059
  15.600   1.0037   0.07920   0.07646   0.0214  0.0142  1.0000  -7.2475   0.0000   0.0000   0.0000   0.2069
  15.700   0.9917   0.08266   0.08001   0.0196  0.0143  1.0000  -7.1639   0.0000   0.0000   0.0000   0.2082
  15.800   0.9788   0.08647   0.08390   0.0175  0.0143  1.0000  -7.0665   0.0000   0.0000   0.0000   0.2098
  15.900   0.9647   0.09069   0.08821   0.0151  0.0143  1.0000  -6.9528   0.0000   0.0000   0.0000   0.2119
  16.000   0.9492   0.09543   0.09305   0.0122  0.0144  1.0000  -6.8170   0.0000   0.0000   0.0000   0.2144
  16.100   0.9315   0.10094   0.09864   0.0087  0.0145  1.0000  -6.6486   0.0000   0.0000   0.0000   0.2177
  16.200   0.9100   0.10769   0.10550   0.0043  0.0146  1.0000  -6.4223   0.0000   0.0000   0.0000   0.2220
  27.400   1.0234   0.33890   0.33703  -0.1391  0.0061  1.0000  -2.1218   0.0000   0.0000   0.0000   0.3442
  27.500   1.0264   0.33993   0.33805  -0.1401  0.0060  1.0000  -2.1309   0.0000   0.0000   0.0000   0.3446
  27.600   1.0294   0.34101   0.33914  -0.1411  0.0059  1.0000  -2.1411   0.0000   0.0000   0.0000   0.3449
  27.700   1.0323   0.34208   0.34021  -0.1421  0.0059  1.0000  -2.1522   0.0000   0.0000   0.0000   0.3452
  27.800   1.0353   0.34313   0.34127  -0.1432  0.0058  1.0000  -2.1645   0.0000   0.0000   0.0000   0.3455
  27.900   1.0382   0.34417   0.34230  -0.1442  0.0057  1.0000  -2.1778   0.0000   0.0000   0.0000   0.3458
  28.000   1.0411   0.34519   0.34333  -0.1452  0.0057  1.0000  -2.1924   0.0000   0.0000   0.0000   0.3461
  28.100   1.0440   0.34619   0.34433  -0.1462  0.0056  1.0000  -2.2081   0.0000   0.0000   0.0000   0.3464
  28.200   1.0469   0.34718   0.34532  -0.1472  0.0056  1.0000  -2.2251   0.0000   0.0000   0.0000   0.3467
  28.300   1.0497   0.34815   0.34630  -0.1482  0.0055  1.0000  -2.2433   0.0000   0.0000   0.0000   0.3470
  28.400   1.0525   0.34911   0.34726  -0.1492  0.0055  1.0000  -2.2628   0.0000   0.0000   0.0000   0.3473
  28.500   1.0554   0.35005   0.34820  -0.1502  0.0054  1.0000  -2.2837   0.0000   0.0000   0.0000   0.3475
  28.600   1.0581   0.35107   0.34923  -0.1512  0.0054  1.0000  -2.3059   0.0000   0.0000   0.0000   0.3478
  28.700   1.0609   0.35201   0.35016  -0.1522  0.0054  1.0000  -2.3297   0.0000   0.0000   0.0000   0.3480
  28.800   1.0636   0.35294   0.35110  -0.1531  0.0053  1.0000  -2.3551   0.0000   0.0000   0.0000   0.3482
  28.900   1.0663   0.35388   0.35204  -0.1540  0.0053  1.0000  -2.3823   0.0000   0.0000   0.0000   0.3484
  29.000   1.0690   0.35485   0.35301  -0.1549  0.0053  1.0000  -2.4118   0.0000   0.0000   0.0000   0.3485
  29.100   1.0716   0.35591   0.35408  -0.1557  0.0052  1.0000  -2.4449   0.0000   0.0000   0.0000   0.3485


