xflr5 v6.61

 Calculated polar for: NACA65-012

 1 1 Reynolds number fixed          Mach number fixed         

 xtrf =   1.000 (top)        1.000 (bottom)
 Mach =   0.000     Re =     0.160 e 6     Ncrit =   9.000

  alpha     CL        CD       CDp       Cm    Top Xtr Bot Xtr   Cpmin    Chinge    XCp    
 ------- -------- --------- --------- -------- ------- ------- -------- --------- ---------
  -8.800  -0.8044   0.05835   0.05378  -0.0236  1.0000  0.0942  -2.9336   0.0000   0.0000   0.0000   0.2134
  -8.700  -0.7976   0.05713   0.05259  -0.0235  1.0000  0.0956  -2.8837   0.0000   0.0000   0.0000   0.2133
  -8.100  -0.8018   0.04077   0.03390  -0.0154  1.0000  0.0523  -3.5878   0.0000   0.0000   0.0000   0.2236
  -8.000  -0.7911   0.03880   0.03206  -0.0158  1.0000  0.0514  -3.5255   0.0000   0.0000   0.0000   0.2229
  -7.900  -0.7840   0.03730   0.03050  -0.0155  1.0000  0.0504  -3.4973   0.0000   0.0000   0.0000   0.2232
  -7.800  -0.7780   0.03605   0.02911  -0.0149  1.0000  0.0501  -3.4786   0.0000   0.0000   0.0000   0.2240
  -7.700  -0.7721   0.03499   0.02789  -0.0142  1.0000  0.0502  -3.4551   0.0000   0.0000   0.0000   0.2248
  -7.600  -0.7662   0.03398   0.02674  -0.0134  1.0000  0.0503  -3.4293   0.0000   0.0000   0.0000   0.2256
  -7.500  -0.7602   0.03299   0.02561  -0.0127  1.0000  0.0503  -3.4027   0.0000   0.0000   0.0000   0.2266
  -7.400  -0.7544   0.03199   0.02449  -0.0118  1.0000  0.0500  -3.3766   0.0000   0.0000   0.0000   0.2276
  -7.300  -0.7486   0.03098   0.02335  -0.0109  1.0000  0.0495  -3.3529   0.0000   0.0000   0.0000   0.2288
  -7.200  -0.7429   0.02998   0.02223  -0.0099  1.0000  0.0488  -3.3330   0.0000   0.0000   0.0000   0.2301
  -7.100  -0.7375   0.02907   0.02118  -0.0088  1.0000  0.0483  -3.3210   0.0000   0.0000   0.0000   0.2315
  -7.000  -0.7323   0.02826   0.02025  -0.0078  1.0000  0.0480  -3.3127   0.0000   0.0000   0.0000   0.2330
  -6.900  -0.7269   0.02755   0.01942  -0.0067  1.0000  0.0478  -3.2968   0.0000   0.0000   0.0000   0.2344
  -6.800  -0.7215   0.02690   0.01869  -0.0057  1.0000  0.0478  -3.2744   0.0000   0.0000   0.0000   0.2358
  -6.700  -0.7160   0.02631   0.01803  -0.0048  1.0000  0.0480  -3.2470   0.0000   0.0000   0.0000   0.2371
  -6.600  -0.7104   0.02576   0.01741  -0.0038  1.0000  0.0481  -3.2160   0.0000   0.0000   0.0000   0.2385
  -6.500  -0.7047   0.02524   0.01682  -0.0029  1.0000  0.0484  -3.1824   0.0000   0.0000   0.0000   0.2398
  -6.400  -0.6989   0.02474   0.01628  -0.0021  1.0000  0.0487  -3.1469   0.0000   0.0000   0.0000   0.2410
  -6.300  -0.6930   0.02428   0.01576  -0.0012  1.0000  0.0491  -3.1099   0.0000   0.0000   0.0000   0.2423
  -6.200  -0.6871   0.02383   0.01528  -0.0004  1.0000  0.0495  -3.0718   0.0000   0.0000   0.0000   0.2436
  -6.100  -0.6811   0.02342   0.01482   0.0004  1.0000  0.0500  -3.0323   0.0000   0.0000   0.0000   0.2449
  -6.000  -0.6756   0.02310   0.01444   0.0013  1.0000  0.0509  -2.9906   0.0000   0.0000   0.0000   0.2462
  -5.900  -0.6648   0.02282   0.01403   0.0013  0.9990  0.0522  -2.9355   0.0000   0.0000   0.0000   0.2462
  -5.800  -0.6502   0.02204   0.01331   0.0004  0.9975  0.0537  -2.8618   0.0000   0.0000   0.0000   0.2449
  -5.700  -0.6351   0.02149   0.01280  -0.0006  0.9959  0.0551  -2.7817   0.0000   0.0000   0.0000   0.2434
  -5.600  -0.6199   0.02097   0.01229  -0.0016  0.9942  0.0562  -2.7091   0.0000   0.0000   0.0000   0.2420
  -5.500  -0.6049   0.02048   0.01179  -0.0024  0.9923  0.0573  -2.6387   0.0000   0.0000   0.0000   0.2405
  -5.400  -0.5895   0.02002   0.01131  -0.0034  0.9906  0.0587  -2.5680   0.0000   0.0000   0.0000   0.2388
  -5.300  -0.5747   0.01958   0.01083  -0.0042  0.9884  0.0600  -2.4989   0.0000   0.0000   0.0000   0.2373
  -5.200  -0.5612   0.01897   0.01030  -0.0051  0.9863  0.0617  -2.4254   0.0000   0.0000   0.0000   0.2356
  -5.100  -0.5468   0.01853   0.00990  -0.0061  0.9842  0.0638  -2.3495   0.0000   0.0000   0.0000   0.2336
  -5.000  -0.5323   0.01818   0.00952  -0.0070  0.9818  0.0666  -2.2883   0.0000   0.0000   0.0000   0.2317
  -4.900  -0.5185   0.01769   0.00910  -0.0080  0.9797  0.0701  -2.2275   0.0000   0.0000   0.0000   0.2294
  -4.800  -0.5046   0.01736   0.00876  -0.0088  0.9771  0.0746  -2.1697   0.0000   0.0000   0.0000   0.2274
  -4.700  -0.4906   0.01689   0.00834  -0.0098  0.9751  0.0795  -2.1122   0.0000   0.0000   0.0000   0.2249
  -4.600  -0.4776   0.01648   0.00795  -0.0105  0.9723  0.0858  -2.0616   0.0000   0.0000   0.0000   0.2229
  -4.500  -0.4636   0.01597   0.00752  -0.0115  0.9702  0.0977  -2.0104   0.0000   0.0000   0.0000   0.2202
  -4.400  -0.4546   0.01504   0.00698  -0.0118  0.9669  0.1480  -1.9806   0.0000   0.0000   0.0000   0.2191
  -4.300  -0.4585   0.01286   0.00635  -0.0108  0.9622  0.4263  -1.9772   0.0000   0.0000   0.0000   0.2217
  -4.200  -0.4525   0.01246   0.00671  -0.0095  0.9590  0.5951  -1.9347   0.0000   0.0000   0.0000   0.2243
  -4.100  -0.4415   0.01258   0.00689  -0.0092  0.9558  0.6354  -1.8722   0.0000   0.0000   0.0000   0.2246
  -4.000  -0.4283   0.01273   0.00704  -0.0092  0.9535  0.6585  -1.8007   0.0000   0.0000   0.0000   0.2238
  -3.900  -0.4151   0.01287   0.00715  -0.0094  0.9511  0.6753  -1.7288   0.0000   0.0000   0.0000   0.2228
  -3.800  -0.4035   0.01303   0.00730  -0.0092  0.9481  0.6883  -1.6612   0.0000   0.0000   0.0000   0.2226
  -3.700  -0.3898   0.01320   0.00747  -0.0094  0.9462  0.6998  -1.5889   0.0000   0.0000   0.0000   0.2214
  -3.600  -0.3783   0.01336   0.00762  -0.0092  0.9433  0.7093  -1.5319   0.0000   0.0000   0.0000   0.2213
  -3.500  -0.3665   0.01355   0.00780  -0.0089  0.9407  0.7201  -1.4738   0.0000   0.0000   0.0000   0.2212
  -3.400  -0.3540   0.01392   0.00819  -0.0084  0.9389  0.7340  -1.4123   0.0000   0.0000   0.0000   0.2218
  -3.300  -0.3450   0.01437   0.00870  -0.0070  0.9356  0.7476  -1.3593   0.0000   0.0000   0.0000   0.2253
  -3.200  -0.3344   0.01492   0.00929  -0.0057  0.9333  0.7610  -1.3018   0.0000   0.0000   0.0000   0.2287
  -3.100  -0.3226   0.01540   0.00979  -0.0046  0.9316  0.7721  -1.2425   0.0000   0.0000   0.0000   0.2314
  -3.000  -0.3138   0.01563   0.00999  -0.0037  0.9282  0.7800  -1.1933   0.0000   0.0000   0.0000   0.2338
  -2.900  -0.3017   0.01578   0.01010  -0.0035  0.9259  0.7835  -1.1372   0.0000   0.0000   0.0000   0.2342
  -2.800  -0.2885   0.01587   0.01016  -0.0036  0.9240  0.7863  -1.0797   0.0000   0.0000   0.0000   0.2333
  -2.700  -0.2789   0.01588   0.01014  -0.0033  0.9208  0.7899  -1.0319   0.0000   0.0000   0.0000   0.2339
  -2.600  -0.2688   0.01583   0.01004  -0.0033  0.9178  0.7937  -0.9842   0.0000   0.0000   0.0000   0.2337
  -2.500  -0.2560   0.01589   0.01007  -0.0033  0.9160  0.7956  -0.9293   0.0000   0.0000   0.0000   0.2328
  -2.400  -0.2456   0.01594   0.01010  -0.0031  0.9130  0.7979  -0.8809   0.0000   0.0000   0.0000   0.2334
  -2.300  -0.2353   0.01594   0.01007  -0.0029  0.9101  0.8008  -0.8337   0.0000   0.0000   0.0000   0.2336
  -2.200  -0.2252   0.01583   0.00992  -0.0030  0.9077  0.8050  -0.7889   0.0000   0.0000   0.0000   0.2328
  -2.100  -0.2146   0.01588   0.00995  -0.0027  0.9048  0.8065  -0.7475   0.0000   0.0000   0.0000   0.2333
  -2.000  -0.2040   0.01590   0.00995  -0.0025  0.9019  0.8084  -0.7070   0.0000   0.0000   0.0000   0.2336
  -1.900  -0.1927   0.01590   0.00992  -0.0025  0.8998  0.8104  -0.6656   0.0000   0.0000   0.0000   0.2331
  -1.800  -0.1818   0.01586   0.00983  -0.0025  0.8978  0.8131  -0.6256   0.0000   0.0000   0.0000   0.2323
  -1.700  -0.1741   0.01579   0.00973  -0.0022  0.8940  0.8166  -0.5928   0.0000   0.0000   0.0000   0.2333
  -1.600  -0.1630   0.01580   0.00973  -0.0021  0.8917  0.8181  -0.5528   0.0000   0.0000   0.0000   0.2330
  -1.500  -0.1515   0.01579   0.00971  -0.0021  0.8898  0.8197  -0.5127   0.0000   0.0000   0.0000   0.2325
  -1.400  -0.1415   0.01580   0.00970  -0.0019  0.8871  0.8217  -0.4759   0.0000   0.0000   0.0000   0.2328
  -1.300  -0.1320   0.01578   0.00966  -0.0017  0.8840  0.8244  -0.4409   0.0000   0.0000   0.0000   0.2332
  -1.200  -0.1226   0.01569   0.00953  -0.0016  0.8815  0.8277  -0.4065   0.0000   0.0000   0.0000   0.2329
  -1.100  -0.1112   0.01569   0.00952  -0.0015  0.8799  0.8291  -0.3776   0.0000   0.0000   0.0000   0.2324
  -1.000  -0.1013   0.01572   0.00955  -0.0013  0.8768  0.8308  -0.3720   0.0000   0.0000   0.0000   0.2329
  -0.900  -0.0911   0.01572   0.00955  -0.0012  0.8742  0.8328  -0.3669   0.0000   0.0000   0.0000   0.2330
  -0.800  -0.0809   0.01569   0.00950  -0.0011  0.8720  0.8353  -0.3623   0.0000   0.0000   0.0000   0.2327
  -0.700  -0.0711   0.01561   0.00938  -0.0010  0.8702  0.8387  -0.3585   0.0000   0.0000   0.0000   0.2321
  -0.600  -0.0611   0.01565   0.00943  -0.0008  0.8673  0.8401  -0.3537   0.0000   0.0000   0.0000   0.2328
  -0.500  -0.0508   0.01567   0.00945  -0.0007  0.8646  0.8419  -0.3490   0.0000   0.0000   0.0000   0.2332
  -0.400  -0.0403   0.01566   0.00944  -0.0005  0.8624  0.8439  -0.3442   0.0000   0.0000   0.0000   0.2332
  -0.300  -0.0299   0.01563   0.00939  -0.0004  0.8607  0.8465  -0.3397   0.0000   0.0000   0.0000   0.2329
  -0.200  -0.0207   0.01560   0.00935  -0.0003  0.8582  0.8496  -0.3362   0.0000   0.0000   0.0000   0.2325
  -0.100  -0.0105   0.01564   0.00941  -0.0001  0.8554  0.8512  -0.3317   0.0000   0.0000   0.0000   0.2328
   0.000  -0.0000   0.01566   0.00942   0.0000  0.8531  0.8531  -0.3270   0.0000   0.0000   0.0000   0.4372
   0.100   0.0105   0.01564   0.00941   0.0001  0.8512  0.8554  -0.3317   0.0000   0.0000   0.0000   0.2328
   0.200   0.0207   0.01560   0.00935   0.0003  0.8496  0.8582  -0.3362   0.0000   0.0000   0.0000   0.2325
   0.300   0.0299   0.01563   0.00939   0.0004  0.8465  0.8607  -0.3397   0.0000   0.0000   0.0000   0.2329
   0.400   0.0403   0.01566   0.00944   0.0005  0.8439  0.8624  -0.3442   0.0000   0.0000   0.0000   0.2332
   0.500   0.0508   0.01567   0.00945   0.0007  0.8419  0.8645  -0.3490   0.0000   0.0000   0.0000   0.2332
   0.600   0.0611   0.01565   0.00943   0.0008  0.8401  0.8673  -0.3537   0.0000   0.0000   0.0000   0.2328
   0.700   0.0711   0.01561   0.00938   0.0010  0.8387  0.8702  -0.3585   0.0000   0.0000   0.0000   0.2321
   0.800   0.0809   0.01569   0.00950   0.0011  0.8353  0.8720  -0.3623   0.0000   0.0000   0.0000   0.2327
   0.900   0.0911   0.01572   0.00955   0.0012  0.8328  0.8742  -0.3669   0.0000   0.0000   0.0000   0.2330
   1.000   0.1013   0.01572   0.00955   0.0013  0.8308  0.8768  -0.3720   0.0000   0.0000   0.0000   0.2329
   1.100   0.1112   0.01569   0.00952   0.0015  0.8291  0.8799  -0.3776   0.0000   0.0000   0.0000   0.2324
   1.200   0.1226   0.01569   0.00953   0.0016  0.8277  0.8815  -0.4065   0.0000   0.0000   0.0000   0.2329
   1.300   0.1320   0.01578   0.00966   0.0017  0.8244  0.8840  -0.4409   0.0000   0.0000   0.0000   0.2332
   1.400   0.1415   0.01580   0.00970   0.0019  0.8217  0.8871  -0.4759   0.0000   0.0000   0.0000   0.2328
   1.500   0.1515   0.01579   0.00971   0.0021  0.8197  0.8898  -0.5127   0.0000   0.0000   0.0000   0.2325
   1.600   0.1630   0.01580   0.00973   0.0021  0.8181  0.8917  -0.5528   0.0000   0.0000   0.0000   0.2330
   1.700   0.1741   0.01579   0.00973   0.0022  0.8166  0.8940  -0.5928   0.0000   0.0000   0.0000   0.2333
   1.800   0.1818   0.01586   0.00983   0.0025  0.8131  0.8978  -0.6256   0.0000   0.0000   0.0000   0.2323
   1.900   0.1927   0.01590   0.00992   0.0025  0.8104  0.8998  -0.6656   0.0000   0.0000   0.0000   0.2331
   2.000   0.2040   0.01590   0.00995   0.0025  0.8084  0.9019  -0.7070   0.0000   0.0000   0.0000   0.2336
   2.100   0.2146   0.01588   0.00994   0.0027  0.8065  0.9048  -0.7475   0.0000   0.0000   0.0000   0.2333
   2.200   0.2252   0.01583   0.00992   0.0030  0.8050  0.9077  -0.7889   0.0000   0.0000   0.0000   0.2328
   2.300   0.2353   0.01594   0.01007   0.0029  0.8008  0.9101  -0.8337   0.0000   0.0000   0.0000   0.2336
   2.400   0.2456   0.01594   0.01010   0.0031  0.7979  0.9130  -0.8809   0.0000   0.0000   0.0000   0.2334
   2.500   0.2560   0.01589   0.01007   0.0033  0.7956  0.9160  -0.9293   0.0000   0.0000   0.0000   0.2328
   2.600   0.2688   0.01583   0.01004   0.0033  0.7937  0.9178  -0.9842   0.0000   0.0000   0.0000   0.2337
   2.700   0.2789   0.01588   0.01014   0.0033  0.7899  0.9208  -1.0319   0.0000   0.0000   0.0000   0.2339
   2.800   0.2885   0.01587   0.01016   0.0036  0.7863  0.9240  -1.0797   0.0000   0.0000   0.0000   0.2333
   2.900   0.3017   0.01578   0.01010   0.0035  0.7835  0.9259  -1.1372   0.0000   0.0000   0.0000   0.2342
   3.000   0.3138   0.01563   0.00999   0.0037  0.7800  0.9282  -1.1933   0.0000   0.0000   0.0000   0.2338
   3.100   0.3226   0.01540   0.00979   0.0046  0.7721  0.9316  -1.2425   0.0000   0.0000   0.0000   0.2314
   3.200   0.3344   0.01492   0.00929   0.0057  0.7610  0.9334  -1.3018   0.0000   0.0000   0.0000   0.2287
   3.300   0.3450   0.01437   0.00869   0.0070  0.7476  0.9356  -1.3593   0.0000   0.0000   0.0000   0.2253
   3.400   0.3540   0.01392   0.00819   0.0084  0.7340  0.9389  -1.4123   0.0000   0.0000   0.0000   0.2218
   3.500   0.3665   0.01355   0.00780   0.0089  0.7201  0.9407  -1.4738   0.0000   0.0000   0.0000   0.2212
   3.600   0.3783   0.01336   0.00762   0.0092  0.7092  0.9433  -1.5318   0.0000   0.0000   0.0000   0.2213
   3.700   0.3898   0.01320   0.00747   0.0094  0.6998  0.9462  -1.5889   0.0000   0.0000   0.0000   0.2214
   3.800   0.4035   0.01303   0.00730   0.0092  0.6883  0.9481  -1.6612   0.0000   0.0000   0.0000   0.2226
   3.900   0.4151   0.01287   0.00715   0.0094  0.6754  0.9512  -1.7288   0.0000   0.0000   0.0000   0.2228
   4.000   0.4283   0.01273   0.00704   0.0092  0.6585  0.9535  -1.8007   0.0000   0.0000   0.0000   0.2238
   4.100   0.4415   0.01258   0.00688   0.0092  0.6354  0.9559  -1.8721   0.0000   0.0000   0.0000   0.2245
   4.200   0.4525   0.01246   0.00671   0.0095  0.5951  0.9591  -1.9347   0.0000   0.0000   0.0000   0.2243
   4.300   0.4585   0.01286   0.00635   0.0108  0.4265  0.9622  -1.9772   0.0000   0.0000   0.0000   0.2217
   4.400   0.4546   0.01504   0.00698   0.0118  0.1480  0.9669  -1.9806   0.0000   0.0000   0.0000   0.2191
   4.500   0.4636   0.01597   0.00752   0.0115  0.0977  0.9702  -2.0105   0.0000   0.0000   0.0000   0.2202
   4.600   0.4776   0.01647   0.00795   0.0105  0.0858  0.9723  -2.0617   0.0000   0.0000   0.0000   0.2229
   4.700   0.4906   0.01689   0.00834   0.0098  0.0795  0.9751  -2.1123   0.0000   0.0000   0.0000   0.2249
   4.800   0.5046   0.01736   0.00876   0.0088  0.0746  0.9772  -2.1697   0.0000   0.0000   0.0000   0.2274
   4.900   0.5185   0.01769   0.00910   0.0080  0.0701  0.9797  -2.2276   0.0000   0.0000   0.0000   0.2295
   5.000   0.5324   0.01818   0.00952   0.0070  0.0666  0.9818  -2.2884   0.0000   0.0000   0.0000   0.2317
   5.100   0.5468   0.01853   0.00990   0.0061  0.0638  0.9842  -2.3496   0.0000   0.0000   0.0000   0.2337
   5.200   0.5612   0.01897   0.01030   0.0051  0.0617  0.9863  -2.4255   0.0000   0.0000   0.0000   0.2356
   5.300   0.5748   0.01958   0.01083   0.0042  0.0600  0.9884  -2.4990   0.0000   0.0000   0.0000   0.2373
   5.400   0.5895   0.02002   0.01130   0.0034  0.0587  0.9906  -2.5681   0.0000   0.0000   0.0000   0.2388
   5.500   0.6049   0.02047   0.01179   0.0024  0.0573  0.9923  -2.6388   0.0000   0.0000   0.0000   0.2405
   5.600   0.6200   0.02097   0.01229   0.0015  0.0562  0.9942  -2.7093   0.0000   0.0000   0.0000   0.2420
   5.700   0.6352   0.02149   0.01280   0.0006  0.0551  0.9959  -2.7818   0.0000   0.0000   0.0000   0.2435
   5.800   0.6502   0.02204   0.01331  -0.0004  0.0536  0.9976  -2.8619   0.0000   0.0000   0.0000   0.2450
   5.900   0.6649   0.02281   0.01403  -0.0013  0.0522  0.9990  -2.9356   0.0000   0.0000   0.0000   0.2463
   6.000   0.6755   0.02310   0.01444  -0.0013  0.0509  1.0000  -2.9904   0.0000   0.0000   0.0000   0.2462
   6.100   0.6810   0.02342   0.01482  -0.0004  0.0500  1.0000  -3.0321   0.0000   0.0000   0.0000   0.2449
   6.200   0.6870   0.02383   0.01527   0.0004  0.0495  1.0000  -3.0716   0.0000   0.0000   0.0000   0.2436
   6.300   0.6929   0.02427   0.01576   0.0012  0.0491  1.0000  -3.1097   0.0000   0.0000   0.0000   0.2423
   6.400   0.6988   0.02474   0.01627   0.0021  0.0487  1.0000  -3.1467   0.0000   0.0000   0.0000   0.2410
   6.500   0.7046   0.02523   0.01681   0.0029  0.0484  1.0000  -3.1822   0.0000   0.0000   0.0000   0.2397
   6.600   0.7104   0.02575   0.01741   0.0038  0.0481  1.0000  -3.2158   0.0000   0.0000   0.0000   0.2384
   6.700   0.7159   0.02631   0.01802   0.0048  0.0480  1.0000  -3.2469   0.0000   0.0000   0.0000   0.2371
   6.800   0.7215   0.02690   0.01869   0.0057  0.0478  1.0000  -3.2743   0.0000   0.0000   0.0000   0.2358
   6.900   0.7269   0.02755   0.01942   0.0067  0.0478  1.0000  -3.2967   0.0000   0.0000   0.0000   0.2344
   7.000   0.7322   0.02826   0.02024   0.0078  0.0480  1.0000  -3.3126   0.0000   0.0000   0.0000   0.2329
   7.100   0.7375   0.02907   0.02118   0.0089  0.0483  1.0000  -3.3210   0.0000   0.0000   0.0000   0.2315
   7.200   0.7429   0.02997   0.02222   0.0099  0.0488  1.0000  -3.3329   0.0000   0.0000   0.0000   0.2301
   7.300   0.7485   0.03098   0.02335   0.0109  0.0495  1.0000  -3.3529   0.0000   0.0000   0.0000   0.2288
   7.400   0.7544   0.03199   0.02449   0.0118  0.0500  1.0000  -3.3766   0.0000   0.0000   0.0000   0.2276
   7.500   0.7602   0.03299   0.02561   0.0127  0.0503  1.0000  -3.4027   0.0000   0.0000   0.0000   0.2266
   7.600   0.7662   0.03398   0.02674   0.0134  0.0503  1.0000  -3.4293   0.0000   0.0000   0.0000   0.2256
   7.700   0.7721   0.03499   0.02789   0.0142  0.0502  1.0000  -3.4551   0.0000   0.0000   0.0000   0.2248
   7.800   0.7780   0.03605   0.02911   0.0148  0.0501  1.0000  -3.4786   0.0000   0.0000   0.0000   0.2240
   7.900   0.7840   0.03730   0.03050   0.0155  0.0504  1.0000  -3.4973   0.0000   0.0000   0.0000   0.2232
   8.000   0.7911   0.03880   0.03206   0.0158  0.0514  1.0000  -3.5256   0.0000   0.0000   0.0000   0.2229
   8.100   0.8019   0.04078   0.03390   0.0154  0.0523  1.0000  -3.5879   0.0000   0.0000   0.0000   0.2236
  18.500   0.7843   0.23181   0.22772  -0.0626  0.0328  1.0000  -1.8766   0.0000   0.0000   0.0000   0.3113
  18.600   0.7862   0.23315   0.22907  -0.0642  0.0324  1.0000  -1.8357   0.0000   0.0000   0.0000   0.3131
  18.700   0.7891   0.23460   0.23051  -0.0655  0.0318  1.0000  -1.8199   0.0000   0.0000   0.0000   0.3142
  18.800   0.7922   0.23601   0.23192  -0.0665  0.0311  1.0000  -1.8170   0.0000   0.0000   0.0000   0.3150
  18.900   0.7954   0.23740   0.23331  -0.0674  0.0306  1.0000  -1.8208   0.0000   0.0000   0.0000   0.3157
  19.000   0.7988   0.23875   0.23466  -0.0683  0.0300  1.0000  -1.8294   0.0000   0.0000   0.0000   0.3163
  19.100   0.8022   0.24007   0.23598  -0.0691  0.0295  1.0000  -1.8427   0.0000   0.0000   0.0000   0.3167
  19.200   0.8057   0.24137   0.23729  -0.0698  0.0291  1.0000  -1.8605   0.0000   0.0000   0.0000   0.3171
  19.300   0.8093   0.24267   0.23859  -0.0705  0.0288  1.0000  -1.8831   0.0000   0.0000   0.0000   0.3174
  19.400   0.8130   0.24401   0.23995  -0.0710  0.0285  1.0000  -1.9106   0.0000   0.0000   0.0000   0.3175
  19.500   0.8170   0.24546   0.24140  -0.0714  0.0282  1.0000  -1.9460   0.0000   0.0000   0.0000   0.3175
  19.600   0.8217   0.24717   0.24312  -0.0715  0.0280  1.0000  -1.9982   0.0000   0.0000   0.0000   0.3169
  19.700   0.8292   0.25013   0.24610  -0.0706  0.0278  1.0000  -2.0972   0.0000   0.0000   0.0000   0.3149
  19.800   0.8333   0.25228   0.24824  -0.0711  0.0277  1.0000  -2.1103   0.0000   0.0000   0.0000   0.3150
  19.900   0.8339   0.25296   0.24891  -0.0730  0.0277  1.0000  -2.0590   0.0000   0.0000   0.0000   0.3170
  20.000   0.8350   0.25373   0.24967  -0.0748  0.0276  1.0000  -2.0079   0.0000   0.0000   0.0000   0.3189
  20.100   0.8366   0.25465   0.25059  -0.0766  0.0275  1.0000  -1.9583   0.0000   0.0000   0.0000   0.3207
  20.200   0.8388   0.25579   0.25172  -0.0783  0.0273  1.0000  -1.9136   0.0000   0.0000   0.0000   0.3223
  20.300   0.8416   0.25704   0.25297  -0.0797  0.0270  1.0000  -1.8804   0.0000   0.0000   0.0000   0.3235
  20.400   0.8447   0.25842   0.25434  -0.0810  0.0267  1.0000  -1.8613   0.0000   0.0000   0.0000   0.3245
  20.500   0.8480   0.25978   0.25570  -0.0820  0.0263  1.0000  -1.8516   0.0000   0.0000   0.0000   0.3252
  20.600   0.8513   0.26117   0.25710  -0.0830  0.0260  1.0000  -1.8470   0.0000   0.0000   0.0000   0.3258
  20.700   0.8547   0.26255   0.25848  -0.0840  0.0256  1.0000  -1.8453   0.0000   0.0000   0.0000   0.3264
  20.800   0.8580   0.26391   0.25984  -0.0850  0.0253  1.0000  -1.8456   0.0000   0.0000   0.0000   0.3270
  20.900   0.8614   0.26525   0.26118  -0.0859  0.0250  1.0000  -1.8475   0.0000   0.0000   0.0000   0.3275
  21.000   0.8648   0.26658   0.26252  -0.0868  0.0247  1.0000  -1.8508   0.0000   0.0000   0.0000   0.3280
  21.100   0.8682   0.26790   0.26384  -0.0877  0.0245  1.0000  -1.8556   0.0000   0.0000   0.0000   0.3285
  21.200   0.8716   0.26921   0.26515  -0.0886  0.0242  1.0000  -1.8620   0.0000   0.0000   0.0000   0.3289
  21.300   0.8750   0.27051   0.26645  -0.0895  0.0240  1.0000  -1.8701   0.0000   0.0000   0.0000   0.3294
  21.400   0.8785   0.27179   0.26774  -0.0903  0.0237  1.0000  -1.8804   0.0000   0.0000   0.0000   0.3298
  21.500   0.8819   0.27308   0.26903  -0.0912  0.0235  1.0000  -1.8932   0.0000   0.0000   0.0000   0.3301
  21.600   0.8854   0.27440   0.27036  -0.0919  0.0233  1.0000  -1.9093   0.0000   0.0000   0.0000   0.3304
  21.700   0.8889   0.27574   0.27170  -0.0926  0.0231  1.0000  -1.9298   0.0000   0.0000   0.0000   0.3306
  21.800   0.8925   0.27716   0.27313  -0.0932  0.0230  1.0000  -1.9564   0.0000   0.0000   0.0000   0.3306
  21.900   0.8964   0.27880   0.27477  -0.0936  0.0228  1.0000  -1.9926   0.0000   0.0000   0.0000   0.3304
  22.000   0.9010   0.28099   0.27698  -0.0936  0.0227  1.0000  -2.0461   0.0000   0.0000   0.0000   0.3298
  25.900   1.0265   0.33009   0.32615  -0.1351  0.0170  1.0000  -1.9340   0.0000   0.0000   0.0000   0.3496
  26.000   1.0297   0.33128   0.32734  -0.1362  0.0168  1.0000  -1.9278   0.0000   0.0000   0.0000   0.3500
  26.100   1.0330   0.33252   0.32859  -0.1372  0.0166  1.0000  -1.9235   0.0000   0.0000   0.0000   0.3504
  26.200   1.0362   0.33375   0.32983  -0.1383  0.0165  1.0000  -1.9205   0.0000   0.0000   0.0000   0.3507
  26.300   1.0393   0.33498   0.33105  -0.1393  0.0163  1.0000  -1.9184   0.0000   0.0000   0.0000   0.3511
  26.400   1.0425   0.33619   0.33227  -0.1404  0.0161  1.0000  -1.9170   0.0000   0.0000   0.0000   0.3515
  26.500   1.0457   0.33739   0.33347  -0.1414  0.0159  1.0000  -1.9162   0.0000   0.0000   0.0000   0.3518
  26.600   1.0488   0.33858   0.33467  -0.1425  0.0158  1.0000  -1.9159   0.0000   0.0000   0.0000   0.3522
  26.700   1.0519   0.33976   0.33586  -0.1435  0.0156  1.0000  -1.9161   0.0000   0.0000   0.0000   0.3525
  26.800   1.0550   0.34094   0.33704  -0.1445  0.0154  1.0000  -1.9168   0.0000   0.0000   0.0000   0.3529
  26.900   1.0581   0.34211   0.33821  -0.1455  0.0153  1.0000  -1.9179   0.0000   0.0000   0.0000   0.3532
  27.000   1.0611   0.34326   0.33936  -0.1466  0.0151  1.0000  -1.9199   0.0000   0.0000   0.0000   0.3535
  27.100   1.0642   0.34440   0.34051  -0.1476  0.0150  1.0000  -1.9228   0.0000   0.0000   0.0000   0.3538
  27.200   1.0672   0.34552   0.34164  -0.1486  0.0148  1.0000  -1.9269   0.0000   0.0000   0.0000   0.3541
  27.300   1.0702   0.34664   0.34276  -0.1496  0.0146  1.0000  -1.9325   0.0000   0.0000   0.0000   0.3544
  27.400   1.0732   0.34773   0.34386  -0.1506  0.0145  1.0000  -1.9398   0.0000   0.0000   0.0000   0.3547
  27.500   1.0761   0.34891   0.34504  -0.1516  0.0143  1.0000  -1.9493   0.0000   0.0000   0.0000   0.3550
  27.600   1.0790   0.35002   0.34616  -0.1526  0.0142  1.0000  -1.9613   0.0000   0.0000   0.0000   0.3553
  27.700   1.0818   0.35115   0.34729  -0.1535  0.0141  1.0000  -1.9765   0.0000   0.0000   0.0000   0.3555
  27.800   1.0847   0.35232   0.34848  -0.1544  0.0139  1.0000  -1.9956   0.0000   0.0000   0.0000   0.3556
  27.900   1.0874   0.35361   0.34977  -0.1552  0.0138  1.0000  -2.0197   0.0000   0.0000   0.0000   0.3557
  28.000   1.0902   0.35516   0.35133  -0.1558  0.0137  1.0000  -2.0506   0.0000   0.0000   0.0000   0.3557
  28.100   1.0932   0.35722   0.35340  -0.1563  0.0136  1.0000  -2.0923   0.0000   0.0000   0.0000   0.3555
  28.200   1.0966   0.36050   0.35669  -0.1563  0.0136  1.0000  -2.1501   0.0000   0.0000   0.0000   0.3549
  29.000   1.1192   0.36665   0.36284  -0.1670  0.0134  1.0000  -2.0481   0.0000   0.0000   0.0000   0.3594
  29.100   1.1222   0.36766   0.36385  -0.1682  0.0133  1.0000  -2.0377   0.0000   0.0000   0.0000   0.3598
  29.200   1.1252   0.36868   0.36488  -0.1694  0.0133  1.0000  -2.0286   0.0000   0.0000   0.0000   0.3603
  29.300   1.1282   0.36977   0.36597  -0.1706  0.0132  1.0000  -2.0212   0.0000   0.0000   0.0000   0.3607
  29.400   1.1312   0.37081   0.36702  -0.1718  0.0131  1.0000  -2.0155   0.0000   0.0000   0.0000   0.3610
  29.500   1.1342   0.37187   0.36808  -0.1729  0.0130  1.0000  -2.0115   0.0000   0.0000   0.0000   0.3614
  29.600   1.1372   0.37294   0.36916  -0.1740  0.0129  1.0000  -2.0091   0.0000   0.0000   0.0000   0.3617
  29.700   1.1401   0.37403   0.37026  -0.1751  0.0128  1.0000  -2.0082   0.0000   0.0000   0.0000   0.3620
  29.800   1.1430   0.37512   0.37135  -0.1762  0.0127  1.0000  -2.0083   0.0000   0.0000   0.0000   0.3623
  29.900   1.1458   0.37620   0.37243  -0.1773  0.0126  1.0000  -2.0094   0.0000   0.0000   0.0000   0.3626
  30.000   1.1486   0.37727   0.37351  -0.1784  0.0124  1.0000  -2.0112   0.0000   0.0000   0.0000   0.3629


