xflr5 v6.61

 Calculated polar for: NACA 65(1)-212 a=0.6

 1 1 Reynolds number fixed          Mach number fixed         

 xtrf =   1.000 (top)        1.000 (bottom)
 Mach =   0.000     Re =     1.000 e 6     Ncrit =   9.000

  alpha     CL        CD       CDp       Cm    Top Xtr Bot Xtr   Cpmin    Chinge    XCp    
 ------- -------- --------- --------- -------- ------- ------- -------- --------- ---------
 -10.000  -0.8383   0.01880   0.01378  -0.0425  0.8843  0.0060  -8.1940   0.0000   0.0000   0.0000   0.1899
  -9.900  -0.8342   0.01826   0.01315  -0.0414  0.8807  0.0060  -8.1147   0.0000   0.0000   0.0000   0.1910
  -9.800  -0.8297   0.01777   0.01258  -0.0405  0.8769  0.0060  -8.0312   0.0000   0.0000   0.0000   0.1920
  -9.700  -0.8248   0.01733   0.01205  -0.0395  0.8729  0.0060  -7.9442   0.0000   0.0000   0.0000   0.1930
  -9.600  -0.8196   0.01692   0.01156  -0.0386  0.8687  0.0060  -7.8544   0.0000   0.0000   0.0000   0.1939
  -9.500  -0.8139   0.01654   0.01110  -0.0378  0.8639  0.0061  -7.7618   0.0000   0.0000   0.0000   0.1947
  -9.400  -0.8077   0.01619   0.01068  -0.0371  0.8587  0.0061  -7.6661   0.0000   0.0000   0.0000   0.1953
  -9.300  -0.8011   0.01587   0.01029  -0.0364  0.8534  0.0061  -7.5673   0.0000   0.0000   0.0000   0.1959
  -9.200  -0.7965   0.01528   0.00963  -0.0355  0.8502  0.0063  -7.4636   0.0000   0.0000   0.0000   0.1969
  -9.100  -0.7889   0.01499   0.00933  -0.0350  0.8492  0.0065  -7.3260   0.0000   0.0000   0.0000   0.1971
  -9.000  -0.7800   0.01482   0.00916  -0.0348  0.8480  0.0067  -7.1796   0.0000   0.0000   0.0000   0.1971
  -8.900  -0.7707   0.01470   0.00905  -0.0346  0.8467  0.0068  -7.0304   0.0000   0.0000   0.0000   0.1969
  -8.800  -0.7611   0.01460   0.00897  -0.0344  0.8452  0.0069  -6.8803   0.0000   0.0000   0.0000   0.1966
  -8.700  -0.7514   0.01453   0.00891  -0.0343  0.8435  0.0071  -6.7307   0.0000   0.0000   0.0000   0.1963
  -8.600  -0.7416   0.01446   0.00885  -0.0342  0.8416  0.0072  -6.5829   0.0000   0.0000   0.0000   0.1960
  -8.500  -0.7318   0.01439   0.00879  -0.0341  0.8394  0.0073  -6.4377   0.0000   0.0000   0.0000   0.1956
  -8.400  -0.7220   0.01433   0.00873  -0.0339  0.8371  0.0075  -6.2952   0.0000   0.0000   0.0000   0.1953
  -8.300  -0.7122   0.01427   0.00867  -0.0338  0.8346  0.0076  -6.1555   0.0000   0.0000   0.0000   0.1949
  -8.200  -0.7024   0.01421   0.00861  -0.0336  0.8319  0.0078  -6.0186   0.0000   0.0000   0.0000   0.1946
  -8.100  -0.6926   0.01415   0.00855  -0.0335  0.8291  0.0080  -5.8840   0.0000   0.0000   0.0000   0.1942
  -8.000  -0.6827   0.01411   0.00849  -0.0334  0.8261  0.0081  -5.7509   0.0000   0.0000   0.0000   0.1938
  -7.900  -0.6728   0.01407   0.00845  -0.0332  0.8227  0.0083  -5.6186   0.0000   0.0000   0.0000   0.1933
  -7.800  -0.6627   0.01406   0.00842  -0.0332  0.8191  0.0084  -5.4861   0.0000   0.0000   0.0000   0.1928
  -7.700  -0.6524   0.01406   0.00841  -0.0331  0.8151  0.0085  -5.3524   0.0000   0.0000   0.0000   0.1922
  -7.600  -0.6419   0.01408   0.00843  -0.0331  0.8109  0.0086  -5.2169   0.0000   0.0000   0.0000   0.1915
  -7.500  -0.6311   0.01413   0.00848  -0.0331  0.8069  0.0086  -5.0789   0.0000   0.0000   0.0000   0.1906
  -7.400  -0.6202   0.01421   0.00856  -0.0332  0.8031  0.0087  -4.9381   0.0000   0.0000   0.0000   0.1897
  -7.300  -0.6150   0.01343   0.00769  -0.0323  0.8007  0.0093  -4.9231   0.0000   0.0000   0.0000   0.1907
  -7.200  -0.6059   0.01319   0.00745  -0.0321  0.8001  0.0096  -4.8286   0.0000   0.0000   0.0000   0.1903
  -7.100  -0.5955   0.01313   0.00742  -0.0321  0.7995  0.0100  -4.7020   0.0000   0.0000   0.0000   0.1895
  -7.000  -0.5784   0.01430   0.00882  -0.0334  0.7989  0.0111  -4.3063   0.0000   0.0000   0.0000   0.1858
  -6.900  -0.5681   0.01423   0.00875  -0.0334  0.7981  0.0113  -4.2053   0.0000   0.0000   0.0000   0.1849
  -6.800  -0.5579   0.01414   0.00867  -0.0333  0.7971  0.0115  -4.1079   0.0000   0.0000   0.0000   0.1839
  -6.700  -0.5477   0.01404   0.00857  -0.0333  0.7961  0.0116  -4.0137   0.0000   0.0000   0.0000   0.1830
  -6.600  -0.5375   0.01394   0.00845  -0.0332  0.7950  0.0118  -3.9225   0.0000   0.0000   0.0000   0.1820
  -6.500  -0.5273   0.01383   0.00833  -0.0332  0.7937  0.0119  -3.8339   0.0000   0.0000   0.0000   0.1810
  -6.400  -0.5172   0.01371   0.00821  -0.0331  0.7924  0.0121  -3.7476   0.0000   0.0000   0.0000   0.1799
  -6.300  -0.5070   0.01358   0.00808  -0.0330  0.7910  0.0122  -3.6631   0.0000   0.0000   0.0000   0.1788
  -6.200  -0.4968   0.01346   0.00794  -0.0330  0.7894  0.0124  -3.5804   0.0000   0.0000   0.0000   0.1777
  -6.100  -0.4866   0.01333   0.00780  -0.0329  0.7877  0.0125  -3.4993   0.0000   0.0000   0.0000   0.1765
  -6.000  -0.4765   0.01321   0.00766  -0.0328  0.7860  0.0127  -3.4196   0.0000   0.0000   0.0000   0.1752
  -5.900  -0.4663   0.01309   0.00753  -0.0328  0.7842  0.0128  -3.3409   0.0000   0.0000   0.0000   0.1739
  -5.800  -0.4561   0.01296   0.00739  -0.0327  0.7824  0.0129  -3.2634   0.0000   0.0000   0.0000   0.1726
  -5.700  -0.4458   0.01285   0.00725  -0.0326  0.7805  0.0130  -3.1866   0.0000   0.0000   0.0000   0.1711
  -5.600  -0.4356   0.01273   0.00712  -0.0326  0.7785  0.0131  -3.1108   0.0000   0.0000   0.0000   0.1696
  -5.500  -0.4253   0.01262   0.00699  -0.0325  0.7765  0.0132  -3.0362   0.0000   0.0000   0.0000   0.1680
  -5.400  -0.4151   0.01250   0.00685  -0.0324  0.7744  0.0133  -2.9641   0.0000   0.0000   0.0000   0.1664
  -5.300  -0.4052   0.01231   0.00664  -0.0323  0.7721  0.0133  -2.9038   0.0000   0.0000   0.0000   0.1648
  -5.200  -0.3961   0.01197   0.00623  -0.0320  0.7697  0.0133  -2.8734   0.0000   0.0000   0.0000   0.1638
  -5.100  -0.3855   0.01191   0.00616  -0.0320  0.7671  0.0134  -2.7943   0.0000   0.0000   0.0000   0.1616
  -5.000  -0.3748   0.01188   0.00612  -0.0320  0.7642  0.0135  -2.7119   0.0000   0.0000   0.0000   0.1592
  -4.900  -0.3638   0.01190   0.00613  -0.0321  0.7613  0.0136  -2.6238   0.0000   0.0000   0.0000   0.1564
  -4.800  -0.3523   0.01201   0.00625  -0.0322  0.7583  0.0137  -2.5236   0.0000   0.0000   0.0000   0.1530
  -4.700  -0.3413   0.01201   0.00625  -0.0323  0.7554  0.0139  -2.4366   0.0000   0.0000   0.0000   0.1499
  -4.600  -0.3340   0.01133   0.00549  -0.0317  0.7524  0.0143  -2.4358   0.0000   0.0000   0.0000   0.1496
  -4.500  -0.3264   0.01075   0.00483  -0.0312  0.7509  0.0150  -2.4245   0.0000   0.0000   0.0000   0.1491
  -4.400  -0.3164   0.01058   0.00464  -0.0312  0.7506  0.0186  -2.2943   0.0000   0.0000   0.0000   0.1459
  -4.300  -0.3065   0.01035   0.00438  -0.0310  0.7502  0.0186  -2.2580   0.0000   0.0000   0.0000   0.1433
  -4.200  -0.2965   0.01013   0.00413  -0.0309  0.7497  0.0186  -2.2203   0.0000   0.0000   0.0000   0.1404
  -4.100  -0.2863   0.00993   0.00390  -0.0308  0.7492  0.0186  -2.1811   0.0000   0.0000   0.0000   0.1372
  -4.000  -0.2760   0.00975   0.00370  -0.0306  0.7486  0.0187  -2.1406   0.0000   0.0000   0.0000   0.1335
  -3.900  -0.2656   0.00959   0.00350  -0.0306  0.7479  0.0188  -2.0990   0.0000   0.0000   0.0000   0.1294
  -3.800  -0.2550   0.00944   0.00333  -0.0305  0.7472  0.0189  -2.0564   0.0000   0.0000   0.0000   0.1249
  -3.700  -0.2444   0.00930   0.00317  -0.0305  0.7464  0.0191  -2.0130   0.0000   0.0000   0.0000   0.1198
  -3.600  -0.2337   0.00917   0.00302  -0.0304  0.7455  0.0193  -1.9691   0.0000   0.0000   0.0000   0.1142
  -3.500  -0.2229   0.00905   0.00288  -0.0304  0.7446  0.0197  -1.9248   0.0000   0.0000   0.0000   0.1079
  -3.400  -0.2120   0.00894   0.00275  -0.0304  0.7436  0.0202  -1.8803   0.0000   0.0000   0.0000   0.1008
  -3.300  -0.2011   0.00883   0.00263  -0.0304  0.7425  0.0208  -1.8357   0.0000   0.0000   0.0000   0.0929
  -3.200  -0.1902   0.00873   0.00252  -0.0304  0.7414  0.0218  -1.7911   0.0000   0.0000   0.0000   0.0840
  -3.100  -0.1792   0.00865   0.00242  -0.0305  0.7402  0.0231  -1.7460   0.0000   0.0000   0.0000   0.0740
  -3.000  -0.1682   0.00857   0.00234  -0.0305  0.7389  0.0246  -1.6968   0.0000   0.0000   0.0000   0.0624
  -2.900  -0.1571   0.00852   0.00229  -0.0306  0.7374  0.0256  -1.6399   0.0000   0.0000   0.0000   0.0489
  -2.800  -0.1459   0.00849   0.00226  -0.0307  0.7359  0.0261  -1.5785   0.0000   0.0000   0.0000   0.0331
  -2.700  -0.1348   0.00846   0.00224  -0.0308  0.7343  0.0264  -1.5162   0.0000   0.0000   0.0000   0.0147
  -2.600  -0.1238   0.00835   0.00207  -0.0308  0.7326  0.0299  -1.4801   0.0000   0.0000   0.0000  -0.0056
  -2.500  -0.1128   0.00828   0.00195  -0.0308  0.7309  0.0335  -1.4355   0.0000   0.0000   0.0000  -0.0304
  -2.400  -0.1017   0.00820   0.00188  -0.0308  0.7292  0.0413  -1.3884   0.0000   0.0000   0.0000  -0.0607
  -2.300  -0.0908   0.00812   0.00184  -0.0308  0.7275  0.0476  -1.3343   0.0000   0.0000   0.0000  -0.0982
  -2.200  -0.0801   0.00800   0.00178  -0.0309  0.7258  0.0643  -1.2795   0.0000   0.0000   0.0000  -0.1448
  -2.100  -0.0701   0.00775   0.00169  -0.0309  0.7240  0.1002  -1.2270   0.0000   0.0000   0.0000  -0.2007
  -2.000  -0.0601   0.00749   0.00161  -0.0309  0.7222  0.1555  -1.1748   0.0000   0.0000   0.0000  -0.2752
  -1.900  -0.0509   0.00709   0.00150  -0.0308  0.7202  0.2400  -1.1252   0.0000   0.0000   0.0000  -0.3689
  -1.800  -0.0410   0.00681   0.00142  -0.0309  0.7180  0.3022  -1.0737   0.0000   0.0000   0.0000  -0.5173
  -1.700  -0.0315   0.00647   0.00133  -0.0308  0.7157  0.3762  -1.0236   0.0000   0.0000   0.0000  -0.7468
  -1.600  -0.0221   0.00614   0.00127  -0.0308  0.7133  0.4568  -0.9738   0.0000   0.0000   0.0000  -1.1690
  -1.500  -0.0121   0.00592   0.00126  -0.0308  0.7109  0.5139  -0.9228   0.0000   0.0000   0.0000  -2.3326
  -1.400  -0.0013   0.00583   0.00127  -0.0308  0.7084  0.5427  -0.8702   0.0000   0.0000   0.0000  -22.9761
  -1.300   0.0100   0.00583   0.00127  -0.0309  0.7059  0.5530  -0.8170   0.0000   0.0000   0.0000   3.4001
  -1.200   0.0209   0.00577   0.00130  -0.0310  0.7035  0.5728  -0.7654   0.0000   0.0000   0.0000   1.7563
  -1.100   0.0320   0.00575   0.00132  -0.0311  0.7012  0.5882  -0.7139   0.0000   0.0000   0.0000   1.2342
  -1.000   0.0435   0.00573   0.00132  -0.0312  0.7010  0.5967  -0.6623   0.0000   0.0000   0.0000   0.9773
  -0.900   0.0548   0.00569   0.00131  -0.0313  0.7007  0.6090  -0.6118   0.0000   0.0000   0.0000   0.8286
  -0.800   0.0657   0.00561   0.00132  -0.0314  0.7004  0.6273  -0.5629   0.0000   0.0000   0.0000   0.7325
  -0.700   0.0768   0.00557   0.00133  -0.0314  0.7000  0.6400  -0.5140   0.0000   0.0000   0.0000   0.6627
  -0.600   0.0883   0.00556   0.00133  -0.0315  0.6996  0.6469  -0.4652   0.0000   0.0000   0.0000   0.6101
  -0.500   0.0997   0.00554   0.00134  -0.0316  0.6991  0.6551  -0.4536   0.0000   0.0000   0.0000   0.5697
  -0.400   0.1108   0.00549   0.00134  -0.0317  0.6986  0.6675  -0.4586   0.0000   0.0000   0.0000   0.5379
  -0.300   0.1219   0.00546   0.00136  -0.0317  0.6980  0.6760  -0.4636   0.0000   0.0000   0.0000   0.5117
  -0.200   0.1332   0.00543   0.00136  -0.0318  0.6973  0.6823  -0.4686   0.0000   0.0000   0.0000   0.4898
  -0.100   0.1446   0.00542   0.00136  -0.0319  0.6965  0.6872  -0.4737   0.0000   0.0000   0.0000   0.4714
   0.000   0.1561   0.00541   0.00137  -0.0321  0.6956  0.6909  -0.4789   0.0000   0.0000   0.0000   0.4557
   0.100   0.1676   0.00541   0.00137  -0.0322  0.6946  0.6937  -0.4840   0.0000   0.0000   0.0000   0.4422
   0.200   0.1792   0.00541   0.00137  -0.0323  0.6935  0.6958  -0.4892   0.0000   0.0000   0.0000   0.4304
   0.300   0.1908   0.00542   0.00137  -0.0325  0.6924  0.6977  -0.4949   0.0000   0.0000   0.0000   0.4200
   0.400   0.2023   0.00541   0.00137  -0.0326  0.6909  0.7012  -0.5007   0.0000   0.0000   0.0000   0.4108
   0.500   0.2133   0.00537   0.00137  -0.0326  0.6891  0.7108  -0.5064   0.0000   0.0000   0.0000   0.4024
   0.600   0.2242   0.00532   0.00137  -0.0326  0.6863  0.7197  -0.5121   0.0000   0.0000   0.0000   0.3947
   0.700   0.2350   0.00528   0.00136  -0.0325  0.6814  0.7260  -0.5178   0.0000   0.0000   0.0000   0.3876
   0.800   0.2458   0.00526   0.00134  -0.0325  0.6758  0.7322  -0.5236   0.0000   0.0000   0.0000   0.3811
   0.900   0.2565   0.00527   0.00132  -0.0324  0.6686  0.7371  -0.5293   0.0000   0.0000   0.0000   0.3752
   1.000   0.2674   0.00531   0.00132  -0.0324  0.6593  0.7407  -0.5349   0.0000   0.0000   0.0000   0.3699
   1.100   0.2786   0.00536   0.00133  -0.0325  0.6510  0.7432  -0.5405   0.0000   0.0000   0.0000   0.3652
   1.200   0.2901   0.00533   0.00132  -0.0326  0.6495  0.7451  -0.5466   0.0000   0.0000   0.0000   0.3609
   1.300   0.3017   0.00532   0.00131  -0.0327  0.6473  0.7466  -0.5526   0.0000   0.0000   0.0000   0.3569
   1.400   0.3132   0.00532   0.00131  -0.0329  0.6445  0.7479  -0.5586   0.0000   0.0000   0.0000   0.3533
   1.500   0.3247   0.00532   0.00131  -0.0330  0.6413  0.7489  -0.5645   0.0000   0.0000   0.0000   0.3499
   1.600   0.3358   0.00530   0.00130  -0.0331  0.6384  0.7542  -0.5980   0.0000   0.0000   0.0000   0.3466
   1.700   0.3469   0.00528   0.00129  -0.0331  0.6352  0.7591  -0.6518   0.0000   0.0000   0.0000   0.3435
   1.800   0.3579   0.00526   0.00129  -0.0332  0.6315  0.7632  -0.7065   0.0000   0.0000   0.0000   0.3406
   1.900   0.3689   0.00526   0.00128  -0.0332  0.6269  0.7669  -0.7619   0.0000   0.0000   0.0000   0.3379
   2.000   0.3798   0.00527   0.00126  -0.0332  0.6199  0.7703  -0.8180   0.0000   0.0000   0.0000   0.3352
   2.100   0.3906   0.00531   0.00124  -0.0332  0.6090  0.7735  -0.8744   0.0000   0.0000   0.0000   0.3328
   2.200   0.4016   0.00533   0.00123  -0.0333  0.5995  0.7766  -0.9324   0.0000   0.0000   0.0000   0.3305
   2.300   0.4129   0.00533   0.00122  -0.0334  0.5923  0.7794  -0.9920   0.0000   0.0000   0.0000   0.3284
   2.400   0.4237   0.00539   0.00121  -0.0334  0.5757  0.7820  -1.0511   0.0000   0.0000   0.0000   0.3263
   2.500   0.4339   0.00552   0.00120  -0.0334  0.5511  0.7845  -1.1092   0.0000   0.0000   0.0000   0.3243
   2.600   0.4451   0.00555   0.00121  -0.0335  0.5418  0.7867  -1.1707   0.0000   0.0000   0.0000   0.3225
   2.700   0.4558   0.00564   0.00122  -0.0335  0.5233  0.7888  -1.2315   0.0000   0.0000   0.0000   0.3207
   2.800   0.4658   0.00580   0.00125  -0.0335  0.4980  0.7906  -1.2912   0.0000   0.0000   0.0000   0.3190
   2.900   0.4757   0.00598   0.00130  -0.0334  0.4688  0.7922  -1.3512   0.0000   0.0000   0.0000   0.3173
   3.000   0.4843   0.00630   0.00140  -0.0332  0.4194  0.7937  -1.4076   0.0000   0.0000   0.0000   0.3155
   3.100   0.4921   0.00672   0.00156  -0.0329  0.3623  0.7950  -1.4615   0.0000   0.0000   0.0000   0.3137
   3.200   0.5004   0.00706   0.00169  -0.0326  0.3160  0.7960  -1.5179   0.0000   0.0000   0.0000   0.3120
   3.300   0.5094   0.00732   0.00179  -0.0324  0.2798  0.7969  -1.5764   0.0000   0.0000   0.0000   0.3104
   3.400   0.5177   0.00763   0.00192  -0.0322  0.2376  0.7977  -1.6330   0.0000   0.0000   0.0000   0.3088
   3.500   0.5252   0.00801   0.00208  -0.0318  0.1879  0.7983  -1.6872   0.0000   0.0000   0.0000   0.3071
   3.600   0.5330   0.00833   0.00222  -0.0314  0.1462  0.7989  -1.7428   0.0000   0.0000   0.0000   0.3055
   3.700   0.5408   0.00865   0.00236  -0.0311  0.1120  0.8007  -1.7982   0.0000   0.0000   0.0000   0.3039
   3.800   0.5486   0.00897   0.00251  -0.0307  0.0787  0.8047  -1.8534   0.0000   0.0000   0.0000   0.3024
   3.900   0.5564   0.00927   0.00268  -0.0303  0.0521  0.8085  -1.9083   0.0000   0.0000   0.0000   0.3008
   4.000   0.5661   0.00941   0.00277  -0.0302  0.0407  0.8120  -1.9680   0.0000   0.0000   0.0000   0.2996
   4.100   0.5754   0.00958   0.00288  -0.0300  0.0276  0.8153  -2.0214   0.0000   0.0000   0.0000   0.2983
   4.200   0.5851   0.00971   0.00299  -0.0299  0.0205  0.8186  -2.0696   0.0000   0.0000   0.0000   0.2971
   4.300   0.5944   0.00987   0.00311  -0.0296  0.0171  0.8218  -2.1085   0.0000   0.0000   0.0000   0.2958
   4.400   0.6040   0.01001   0.00325  -0.0294  0.0153  0.8250  -2.1453   0.0000   0.0000   0.0000   0.2945
   4.500   0.6137   0.01013   0.00339  -0.0292  0.0146  0.8281  -2.1880   0.0000   0.0000   0.0000   0.2934
   4.600   0.6234   0.01025   0.00354  -0.0290  0.0142  0.8314  -2.2342   0.0000   0.0000   0.0000   0.2922
   4.700   0.6329   0.01037   0.00369  -0.0288  0.0139  0.8348  -2.2824   0.0000   0.0000   0.0000   0.2911
   4.800   0.6422   0.01049   0.00385  -0.0285  0.0138  0.8384  -2.3317   0.0000   0.0000   0.0000   0.2899
   4.900   0.6513   0.01062   0.00401  -0.0282  0.0136  0.8426  -2.3818   0.0000   0.0000   0.0000   0.2887
   5.000   0.6601   0.01075   0.00419  -0.0278  0.0136  0.8482  -2.4320   0.0000   0.0000   0.0000   0.2875
   5.100   0.6681   0.01087   0.00438  -0.0273  0.0135  0.8556  -2.4808   0.0000   0.0000   0.0000   0.2861
   5.200   0.6660   0.01114   0.00491  -0.0241  0.0135  0.8549  -2.5044   0.0000   0.0000   0.0000   0.2812
   5.300   0.6718   0.01131   0.00515  -0.0229  0.0135  0.8583  -2.5486   0.0000   0.0000   0.0000   0.2791
   5.400   0.6777   0.01148   0.00538  -0.0219  0.0135  0.8613  -2.5934   0.0000   0.0000   0.0000   0.2771
   5.500   0.6834   0.01165   0.00560  -0.0208  0.0135  0.8640  -2.6380   0.0000   0.0000   0.0000   0.2752
   5.600   0.6890   0.01182   0.00581  -0.0197  0.0135  0.8666  -2.6826   0.0000   0.0000   0.0000   0.2732
   5.700   0.6942   0.01199   0.00602  -0.0185  0.0135  0.8691  -2.7263   0.0000   0.0000   0.0000   0.2712
   5.800   0.6989   0.01215   0.00623  -0.0172  0.0135  0.8715  -2.7690   0.0000   0.0000   0.0000   0.2691
   5.900   0.7031   0.01231   0.00643  -0.0159  0.0135  0.8740  -2.8103   0.0000   0.0000   0.0000   0.2669
   6.000   0.7068   0.01247   0.00662  -0.0144  0.0135  0.8765  -2.8504   0.0000   0.0000   0.0000   0.2647
   6.100   0.7103   0.01263   0.00682  -0.0129  0.0136  0.8789  -2.8900   0.0000   0.0000   0.0000   0.2624
   6.400   0.7360   0.01413   0.00850  -0.0136  0.0110  0.8906  -3.0642   0.0000   0.0000   0.0000   0.2624
   6.500   0.7459   0.01408   0.00844  -0.0135  0.0109  0.8923  -3.1695   0.0000   0.0000   0.0000   0.2619
   6.600   0.7519   0.01414   0.00850  -0.0126  0.0108  0.8940  -3.2457   0.0000   0.0000   0.0000   0.2605
   6.700   0.7551   0.01423   0.00860  -0.0111  0.0107  0.8955  -3.3051   0.0000   0.0000   0.0000   0.2584
   6.800   0.7571   0.01434   0.00874  -0.0094  0.0106  0.8968  -3.3580   0.0000   0.0000   0.0000   0.2560
   6.900   0.7596   0.01447   0.00890  -0.0078  0.0106  0.8978  -3.4148   0.0000   0.0000   0.0000   0.2537
   7.000   0.7618   0.01463   0.00909  -0.0062  0.0105  0.8986  -3.4661   0.0000   0.0000   0.0000   0.2514
   7.100   0.7637   0.01481   0.00930  -0.0045  0.0104  0.8992  -3.5142   0.0000   0.0000   0.0000   0.2491
   7.200   0.7651   0.01501   0.00953  -0.0028  0.0104  0.8998  -3.5600   0.0000   0.0000   0.0000   0.2467
   7.300   0.7690   0.01518   0.00971  -0.0017  0.0103  0.9009  -3.6142   0.0000   0.0000   0.0000   0.2451
   7.400   0.7732   0.01537   0.00991  -0.0006  0.0103  0.9020  -3.6694   0.0000   0.0000   0.0000   0.2436
   7.500   0.7777   0.01556   0.01012   0.0004  0.0102  0.9031  -3.7255   0.0000   0.0000   0.0000   0.2422
   7.600   0.7824   0.01576   0.01034   0.0013  0.0101  0.9042  -3.7825   0.0000   0.0000   0.0000   0.2409
   7.700   0.7873   0.01597   0.01056   0.0022  0.0101  0.9053  -3.8401   0.0000   0.0000   0.0000   0.2397
   7.800   0.7923   0.01618   0.01079   0.0031  0.0100  0.9063  -3.8984   0.0000   0.0000   0.0000   0.2385
   7.900   0.7974   0.01640   0.01102   0.0040  0.0100  0.9073  -3.9572   0.0000   0.0000   0.0000   0.2373
   8.000   0.8026   0.01663   0.01126   0.0048  0.0099  0.9084  -4.0167   0.0000   0.0000   0.0000   0.2362
   8.100   0.8077   0.01685   0.01151   0.0056  0.0099  0.9094  -4.0759   0.0000   0.0000   0.0000   0.2351
   8.200   0.8124   0.01709   0.01176   0.0065  0.0098  0.9107  -4.1339   0.0000   0.0000   0.0000   0.2339
   8.300   0.8169   0.01733   0.01202   0.0074  0.0098  0.9120  -4.1918   0.0000   0.0000   0.0000   0.2328
   8.400   0.8215   0.01757   0.01228   0.0083  0.0097  0.9133  -4.2503   0.0000   0.0000   0.0000   0.2316
   8.500   0.8263   0.01781   0.01255   0.0092  0.0096  0.9147  -4.3100   0.0000   0.0000   0.0000   0.2305
   8.600   0.8313   0.01806   0.01281   0.0100  0.0096  0.9161  -4.3711   0.0000   0.0000   0.0000   0.2295
   8.700   0.8364   0.01830   0.01308   0.0108  0.0095  0.9175  -4.4332   0.0000   0.0000   0.0000   0.2285
   8.800   0.8416   0.01855   0.01334   0.0116  0.0095  0.9189  -4.4964   0.0000   0.0000   0.0000   0.2275
   8.900   0.8468   0.01879   0.01361   0.0123  0.0094  0.9202  -4.5604   0.0000   0.0000   0.0000   0.2266
   9.000   0.8521   0.01904   0.01388   0.0131  0.0093  0.9214  -4.6252   0.0000   0.0000   0.0000   0.2257
   9.100   0.8574   0.01929   0.01415   0.0138  0.0093  0.9225  -4.6908   0.0000   0.0000   0.0000   0.2248
   9.200   0.8680   0.01841   0.01315   0.0136  0.0084  0.9237  -5.0034   0.0000   0.0000   0.0000   0.2251
   9.300   0.8747   0.01845   0.01318   0.0141  0.0082  0.9247  -5.1214   0.0000   0.0000   0.0000   0.2245
   9.400   0.8806   0.01856   0.01327   0.0147  0.0081  0.9256  -5.2246   0.0000   0.0000   0.0000   0.2238
   9.500   0.8854   0.01871   0.01343   0.0154  0.0080  0.9266  -5.3165   0.0000   0.0000   0.0000   0.2229
   9.600   0.8895   0.01889   0.01361   0.0163  0.0079  0.9275  -5.4009   0.0000   0.0000   0.0000   0.2219
   9.700   0.8934   0.01909   0.01382   0.0172  0.0078  0.9284  -5.4816   0.0000   0.0000   0.0000   0.2208
   9.800   0.8973   0.01931   0.01404   0.0181  0.0077  0.9293  -5.5603   0.0000   0.0000   0.0000   0.2198
   9.900   0.9013   0.01953   0.01428   0.0189  0.0076  0.9301  -5.6373   0.0000   0.0000   0.0000   0.2188
  10.000   0.9052   0.01977   0.01452   0.0198  0.0075  0.9309  -5.7126   0.0000   0.0000   0.0000   0.2178
  10.100   0.9090   0.02002   0.01478   0.0207  0.0074  0.9317  -5.7858   0.0000   0.0000   0.0000   0.2168
  10.200   0.9127   0.02028   0.01506   0.0216  0.0074  0.9324  -5.8567   0.0000   0.0000   0.0000   0.2158
  10.300   0.9163   0.02056   0.01535   0.0225  0.0073  0.9332  -5.9248   0.0000   0.0000   0.0000   0.2148
  10.400   0.9194   0.02085   0.01567   0.0234  0.0072  0.9340  -5.9891   0.0000   0.0000   0.0000   0.2137
  10.500   0.9223   0.02117   0.01601   0.0244  0.0071  0.9349  -6.0495   0.0000   0.0000   0.0000   0.2125
  10.600   0.9248   0.02152   0.01639   0.0254  0.0070  0.9358  -6.1057   0.0000   0.0000   0.0000   0.2113
  10.700   0.9266   0.02192   0.01682   0.0265  0.0069  0.9366  -6.1548   0.0000   0.0000   0.0000   0.2101
  10.800   0.9279   0.02237   0.01731   0.0276  0.0068  0.9372  -6.1975   0.0000   0.0000   0.0000   0.2088
  10.900   0.9292   0.02289   0.01788   0.0287  0.0067  0.9378  -6.2328   0.0000   0.0000   0.0000   0.2075
  11.000   0.9303   0.02354   0.01859   0.0298  0.0066  0.9382  -6.2535   0.0000   0.0000   0.0000   0.2063
  11.100   0.9308   0.02451   0.01965   0.0310  0.0064  0.9386  -6.2389   0.0000   0.0000   0.0000   0.2049
  11.200   0.9347   0.02470   0.01985   0.0317  0.0064  0.9391  -6.3313   0.0000   0.0000   0.0000   0.2041
  11.300   0.9387   0.02489   0.02004   0.0324  0.0064  0.9397  -6.4256   0.0000   0.0000   0.0000   0.2034
  11.400   0.9430   0.02507   0.02024   0.0330  0.0064  0.9402  -6.5220   0.0000   0.0000   0.0000   0.2027
  11.500   0.9472   0.02526   0.02044   0.0337  0.0064  0.9408  -6.6178   0.0000   0.0000   0.0000   0.2020
  11.600   0.9510   0.02545   0.02064   0.0345  0.0063  0.9417  -6.7123   0.0000   0.0000   0.0000   0.2011
  11.700   0.9547   0.02564   0.02084   0.0353  0.0063  0.9426  -6.8061   0.0000   0.0000   0.0000   0.2003
  11.800   0.9583   0.02584   0.02104   0.0361  0.0063  0.9436  -6.8998   0.0000   0.0000   0.0000   0.1995
  11.900   0.9619   0.02604   0.02126   0.0369  0.0063  0.9445  -6.9939   0.0000   0.0000   0.0000   0.1986
  12.000   0.9653   0.02626   0.02149   0.0377  0.0062  0.9453  -7.0871   0.0000   0.0000   0.0000   0.1978
  12.100   0.9679   0.02654   0.02177   0.0385  0.0062  0.9460  -7.1738   0.0000   0.0000   0.0000   0.1969
  12.200   0.9705   0.02683   0.02208   0.0392  0.0062  0.9466  -7.2611   0.0000   0.0000   0.0000   0.1961
  12.300   0.9739   0.02711   0.02237   0.0399  0.0061  0.9469  -7.3543   0.0000   0.0000   0.0000   0.1954
  12.400   0.9778   0.02738   0.02265   0.0404  0.0061  0.9472  -7.4518   0.0000   0.0000   0.0000   0.1948
  12.500   0.9821   0.02765   0.02293   0.0409  0.0061  0.9474  -7.5523   0.0000   0.0000   0.0000   0.1943
  12.600   0.9866   0.02792   0.02321   0.0414  0.0060  0.9476  -7.6552   0.0000   0.0000   0.0000   0.1938
  12.700   0.9914   0.02820   0.02349   0.0418  0.0060  0.9477  -7.7597   0.0000   0.0000   0.0000   0.1935
  12.800   0.9961   0.02848   0.02378   0.0422  0.0059  0.9477  -7.8648   0.0000   0.0000   0.0000   0.1931
  12.900   1.0008   0.02876   0.02408   0.0426  0.0058  0.9478  -7.9702   0.0000   0.0000   0.0000   0.1927
  13.000   1.0055   0.02906   0.02439   0.0430  0.0058  0.9479  -8.0757   0.0000   0.0000   0.0000   0.1924
  13.100   1.0101   0.02936   0.02470   0.0434  0.0057  0.9479  -8.1812   0.0000   0.0000   0.0000   0.1920
  13.300   1.0123   0.03063   0.02614   0.0448  0.0058  0.9480  -8.2158   0.0000   0.0000   0.0000   0.1904
  13.400   1.0141   0.03113   0.02667   0.0453  0.0058  0.9481  -8.2812   0.0000   0.0000   0.0000   0.1898
  13.500   1.0161   0.03160   0.02716   0.0458  0.0058  0.9481  -8.3589   0.0000   0.0000   0.0000   0.1892
  13.600   1.0191   0.03203   0.02760   0.0463  0.0057  0.9482  -8.4486   0.0000   0.0000   0.0000   0.1887
  13.700   1.0226   0.03242   0.02801   0.0466  0.0057  0.9482  -8.5470   0.0000   0.0000   0.0000   0.1883
  13.800   1.0266   0.03279   0.02839   0.0470  0.0056  0.9483  -8.6513   0.0000   0.0000   0.0000   0.1880
  13.900   1.0307   0.03315   0.02876   0.0473  0.0055  0.9483  -8.7599   0.0000   0.0000   0.0000   0.1877
  14.000   1.0350   0.03351   0.02912   0.0476  0.0055  0.9484  -8.8718   0.0000   0.0000   0.0000   0.1874
  14.100   1.0393   0.03386   0.02948   0.0479  0.0054  0.9484  -8.9864   0.0000   0.0000   0.0000   0.1871
  14.200   1.0437   0.03421   0.02984   0.0481  0.0053  0.9484  -9.1033   0.0000   0.0000   0.0000   0.1869
  14.300   1.0482   0.03457   0.03020   0.0484  0.0052  0.9485  -9.2222   0.0000   0.0000   0.0000   0.1866
  14.400   1.0526   0.03493   0.03057   0.0486  0.0052  0.9485  -9.3428   0.0000   0.0000   0.0000   0.1864
  14.500   1.0570   0.03530   0.03093   0.0488  0.0051  0.9485  -9.4646   0.0000   0.0000   0.0000   0.1862
  14.600   1.0607   0.03571   0.03135   0.0491  0.0050  0.9486  -9.5813   0.0000   0.0000   0.0000   0.1859
  14.700   1.0628   0.03625   0.03189   0.0494  0.0050  0.9486  -9.6826   0.0000   0.0000   0.0000   0.1855
  14.800   1.0654   0.03676   0.03240   0.0496  0.0049  0.9486  -9.7896   0.0000   0.0000   0.0000   0.1852
  14.900   1.0688   0.03721   0.03285   0.0498  0.0048  0.9486  -9.9073   0.0000   0.0000   0.0000   0.1850
  15.000   1.0729   0.03763   0.03327   0.0500  0.0048  0.9487  -10.0322   0.0000   0.0000   0.0000   0.1848
  15.100   1.0773   0.03803   0.03367   0.0501  0.0047  0.9487  -10.1617   0.0000   0.0000   0.0000   0.1846
  15.200   1.0818   0.03843   0.03406   0.0503  0.0047  0.9487  -10.2934   0.0000   0.0000   0.0000   0.1845
  15.300   1.0863   0.03885   0.03447   0.0504  0.0046  0.9487  -10.4251   0.0000   0.0000   0.0000   0.1844
  15.400   1.0905   0.03929   0.03490   0.0505  0.0046  0.9488  -10.5544   0.0000   0.0000   0.0000   0.1842
  15.500   1.0944   0.03976   0.03537   0.0506  0.0045  0.9488  -10.6804   0.0000   0.0000   0.0000   0.1840
  15.600   1.0979   0.04027   0.03589   0.0508  0.0044  0.9488  -10.8013   0.0000   0.0000   0.0000   0.1839
  15.700   1.1007   0.04085   0.03647   0.0509  0.0044  0.9488  -10.9142   0.0000   0.0000   0.0000   0.1836
  15.800   1.1025   0.04152   0.03715   0.0511  0.0043  0.9488  -11.0152   0.0000   0.0000   0.0000   0.1833
  15.900   1.1012   0.04248   0.03814   0.0513  0.0043  0.9488  -11.0793   0.0000   0.0000   0.0000   0.1829
  16.000   1.0989   0.04356   0.03926   0.0515  0.0042  0.9488  -11.1295   0.0000   0.0000   0.0000   0.1824
  16.100   1.0962   0.04470   0.04044   0.0517  0.0041  0.9489  -11.1724   0.0000   0.0000   0.0000   0.1819
  16.200   1.0929   0.04593   0.04171   0.0519  0.0040  0.9489  -11.2005   0.0000   0.0000   0.0000   0.1813
  16.300   1.0924   0.04690   0.04273   0.0520  0.0040  0.9489  -11.2500   0.0000   0.0000   0.0000   0.1810
  16.400   1.0918   0.04790   0.04377   0.0521  0.0040  0.9489  -11.2971   0.0000   0.0000   0.0000   0.1807
  16.500   1.0908   0.04893   0.04485   0.0521  0.0040  0.9489  -11.3409   0.0000   0.0000   0.0000   0.1804
  16.600   1.0893   0.05004   0.04601   0.0521  0.0040  0.9489  -11.3794   0.0000   0.0000   0.0000   0.1801
  16.700   1.0849   0.05147   0.04750   0.0520  0.0040  0.9489  -11.3905   0.0000   0.0000   0.0000   0.1798
  16.800   1.0819   0.05280   0.04888   0.0518  0.0040  0.9489  -11.4125   0.0000   0.0000   0.0000   0.1795
  16.900   1.0797   0.05408   0.05021   0.0517  0.0040  0.9489  -11.4416   0.0000   0.0000   0.0000   0.1793
  17.000   1.0776   0.05536   0.05155   0.0515  0.0040  0.9489  -11.4711   0.0000   0.0000   0.0000   0.1791
  17.100   1.0754   0.05670   0.05293   0.0513  0.0040  0.9489  -11.4979   0.0000   0.0000   0.0000   0.1790
  17.200   1.0728   0.05810   0.05439   0.0511  0.0040  0.9489  -11.5207   0.0000   0.0000   0.0000   0.1789
  17.300   1.0686   0.05975   0.05610   0.0507  0.0040  0.9489  -11.5252   0.0000   0.0000   0.0000   0.1789
  17.400   1.0630   0.06161   0.05801   0.0501  0.0040  0.9489  -11.5154   0.0000   0.0000   0.0000   0.1789
  17.500   1.0591   0.06329   0.05974   0.0496  0.0040  0.9489  -11.5202   0.0000   0.0000   0.0000   0.1789
  17.600   1.0555   0.06496   0.06148   0.0491  0.0040  0.9489  -11.5260   0.0000   0.0000   0.0000   0.1790
  17.700   1.0516   0.06670   0.06328   0.0485  0.0040  0.9489  -11.5279   0.0000   0.0000   0.0000   0.1792
  17.800   1.0464   0.06870   0.06533   0.0477  0.0040  0.9489  -11.5135   0.0000   0.0000   0.0000   0.1794
  17.900   1.0395   0.07099   0.06769   0.0467  0.0040  0.9489  -11.4789   0.0000   0.0000   0.0000   0.1798
  18.000   1.0344   0.07306   0.06981   0.0458  0.0040  0.9489  -11.4608   0.0000   0.0000   0.0000   0.1802
  18.100   1.0293   0.07515   0.07196   0.0449  0.0040  0.9489  -11.4413   0.0000   0.0000   0.0000   0.1806
  18.200   1.0233   0.07746   0.07434   0.0438  0.0040  0.9489  -11.4076   0.0000   0.0000   0.0000   0.1812
  18.300   1.0153   0.08023   0.07716   0.0424  0.0040  0.9489  -11.3467   0.0000   0.0000   0.0000   0.1821
  18.400   1.0090   0.08270   0.07969   0.0411  0.0040  0.9489  -11.3041   0.0000   0.0000   0.0000   0.1829
  18.500   1.0027   0.08521   0.08226   0.0397  0.0040  0.9488  -11.2566   0.0000   0.0000   0.0000   0.1837
  18.600   0.9934   0.08840   0.08552   0.0378  0.0040  0.9488  -11.1668   0.0000   0.0000   0.0000   0.1850
  18.700   0.9861   0.09127   0.08846   0.0362  0.0040  0.9488  -11.0980   0.0000   0.0000   0.0000   0.1862
  18.800   0.9788   0.09419   0.09144   0.0345  0.0040  0.9488  -11.0255   0.0000   0.0000   0.0000   0.1874
  18.900   0.9683   0.09795   0.09526   0.0322  0.0040  0.9487  -10.9010   0.0000   0.0000   0.0000   0.1892
  19.000   0.9600   0.10125   0.09862   0.0303  0.0040  0.9487  -10.8034   0.0000   0.0000   0.0000   0.1907
  19.100   0.9507   0.10488   0.10231   0.0281  0.0040  0.9487  -10.6831   0.0000   0.0000   0.0000   0.1925
  19.200   0.9391   0.10916   0.10666   0.0255  0.0040  0.9486  -10.5181   0.0000   0.0000   0.0000   0.1947
  19.300   0.9295   0.11294   0.11050   0.0233  0.0040  0.9486  -10.3807   0.0000   0.0000   0.0000   0.1967
  19.400   0.9150   0.11813   0.11576   0.0202  0.0040  0.9485  -10.1440   0.0000   0.0000   0.0000   0.1996
  19.500   0.9038   0.12241   0.12010   0.0177  0.0040  0.9485  -9.9608   0.0000   0.0000   0.0000   0.2019
  19.600   0.8858   0.12859   0.12636   0.0141  0.0040  0.9484  -9.6309   0.0000   0.0000   0.0000   0.2055
  19.700   0.8714   0.13382   0.13165   0.0112  0.0040  0.9484  -9.3593   0.0000   0.0000   0.0000   0.2086
  19.800   0.8576   0.13888   0.13677   0.0084  0.0040  0.9483  -9.0869   0.0000   0.0000   0.0000   0.2116


