xflr5 v6.61

 Calculated polar for: NACA65-012

 1 1 Reynolds number fixed          Mach number fixed         

 xtrf =   1.000 (top)        1.000 (bottom)
 Mach =   0.000     Re =     1.000 e 6     Ncrit =   9.000

  alpha     CL        CD       CDp       Cm    Top Xtr Bot Xtr   Cpmin    Chinge    XCp    
 ------- -------- --------- --------- -------- ------- ------- -------- --------- ---------
 -10.000  -1.0103   0.02108   0.01618  -0.0078  1.0000  0.0107  -7.5428   0.0000   0.0000   0.0000   0.2325
  -9.900  -1.0018   0.02079   0.01587  -0.0076  1.0000  0.0108  -7.4162   0.0000   0.0000   0.0000   0.2327
  -9.800  -0.9931   0.02052   0.01558  -0.0075  1.0000  0.0109  -7.2884   0.0000   0.0000   0.0000   0.2329
  -9.700  -0.9843   0.02026   0.01530  -0.0074  1.0000  0.0111  -7.1608   0.0000   0.0000   0.0000   0.2331
  -9.600  -0.9753   0.02000   0.01502  -0.0072  1.0000  0.0112  -7.0342   0.0000   0.0000   0.0000   0.2333
  -9.500  -0.9663   0.01974   0.01473  -0.0071  1.0000  0.0114  -6.9089   0.0000   0.0000   0.0000   0.2334
  -9.400  -0.9571   0.01950   0.01447  -0.0070  1.0000  0.0116  -6.7822   0.0000   0.0000   0.0000   0.2336
  -9.300  -0.9477   0.01927   0.01422  -0.0070  1.0000  0.0118  -6.6552   0.0000   0.0000   0.0000   0.2337
  -9.200  -0.9382   0.01905   0.01397  -0.0069  1.0000  0.0120  -6.5289   0.0000   0.0000   0.0000   0.2338
  -9.100  -0.9281   0.01882   0.01372  -0.0070  0.9944  0.0122  -6.3997   0.0000   0.0000   0.0000   0.2337
  -9.000  -0.9150   0.01857   0.01343  -0.0077  0.9838  0.0125  -6.2559   0.0000   0.0000   0.0000   0.2330
  -8.900  -0.9027   0.01832   0.01315  -0.0082  0.9762  0.0127  -6.1192   0.0000   0.0000   0.0000   0.2324
  -8.800  -0.8919   0.01809   0.01288  -0.0084  0.9687  0.0129  -5.9926   0.0000   0.0000   0.0000   0.2322
  -8.700  -0.8828   0.01788   0.01261  -0.0081  0.9610  0.0131  -5.8780   0.0000   0.0000   0.0000   0.2325
  -8.600  -0.8746   0.01769   0.01238  -0.0076  0.9539  0.0132  -5.7691   0.0000   0.0000   0.0000   0.2331
  -8.500  -0.8666   0.01752   0.01217  -0.0071  0.9475  0.0133  -5.6603   0.0000   0.0000   0.0000   0.2337
  -8.400  -0.8583   0.01737   0.01197  -0.0067  0.9418  0.0134  -5.5497   0.0000   0.0000   0.0000   0.2342
  -8.300  -0.8498   0.01723   0.01180  -0.0063  0.9367  0.0135  -5.4374   0.0000   0.0000   0.0000   0.2348
  -8.200  -0.8411   0.01712   0.01164  -0.0059  0.9318  0.0136  -5.3237   0.0000   0.0000   0.0000   0.2353
  -8.100  -0.8370   0.01597   0.01041  -0.0049  0.9266  0.0139  -5.2915   0.0000   0.0000   0.0000   0.2365
  -8.000  -0.8303   0.01548   0.00987  -0.0043  0.9221  0.0142  -5.2076   0.0000   0.0000   0.0000   0.2373
  -7.900  -0.8224   0.01515   0.00952  -0.0038  0.9175  0.0144  -5.1118   0.0000   0.0000   0.0000   0.2378
  -7.800  -0.8139   0.01491   0.00926  -0.0035  0.9134  0.0146  -5.0198   0.0000   0.0000   0.0000   0.2383
  -7.700  -0.8050   0.01471   0.00903  -0.0032  0.9093  0.0148  -4.9242   0.0000   0.0000   0.0000   0.2388
  -7.600  -0.7960   0.01452   0.00882  -0.0029  0.9055  0.0150  -4.8279   0.0000   0.0000   0.0000   0.2392
  -7.500  -0.7867   0.01434   0.00861  -0.0027  0.9015  0.0153  -4.7312   0.0000   0.0000   0.0000   0.2395
  -7.300  -0.7681   0.01399   0.00822  -0.0022  0.8943  0.0158  -4.5415   0.0000   0.0000   0.0000   0.2402
  -7.200  -0.7587   0.01382   0.00802  -0.0020  0.8908  0.0160  -4.4485   0.0000   0.0000   0.0000   0.2406
  -7.100  -0.7492   0.01365   0.00782  -0.0018  0.8875  0.0163  -4.3563   0.0000   0.0000   0.0000   0.2409
  -7.000  -0.7395   0.01347   0.00762  -0.0016  0.8839  0.0166  -4.2642   0.0000   0.0000   0.0000   0.2412
  -6.900  -0.7300   0.01332   0.00743  -0.0014  0.8807  0.0169  -4.1727   0.0000   0.0000   0.0000   0.2415
  -6.800  -0.7201   0.01316   0.00725  -0.0013  0.8774  0.0172  -4.0800   0.0000   0.0000   0.0000   0.2418
  -6.700  -0.7102   0.01303   0.00709  -0.0012  0.8739  0.0174  -3.9863   0.0000   0.0000   0.0000   0.2420
  -6.600  -0.7001   0.01292   0.00696  -0.0010  0.8708  0.0176  -3.8912   0.0000   0.0000   0.0000   0.2423
  -6.500  -0.6895   0.01286   0.00687  -0.0010  0.8677  0.0178  -3.7920   0.0000   0.0000   0.0000   0.2424
  -6.400  -0.6819   0.01239   0.00636  -0.0005  0.8640  0.0183  -3.7274   0.0000   0.0000   0.0000   0.2431
  -6.300  -0.6731   0.01211   0.00605  -0.0003  0.8609  0.0188  -3.6463   0.0000   0.0000   0.0000   0.2436
  -6.200  -0.6633   0.01194   0.00586  -0.0001  0.8579  0.0193  -3.5546   0.0000   0.0000   0.0000   0.2439
  -6.100  -0.6532   0.01180   0.00571  -0.0000  0.8546  0.0196  -3.4618   0.0000   0.0000   0.0000   0.2441
  -6.000  -0.6431   0.01166   0.00556   0.0001  0.8516  0.0200  -3.3712   0.0000   0.0000   0.0000   0.2444
  -5.900  -0.6330   0.01153   0.00540   0.0002  0.8490  0.0203  -3.2820   0.0000   0.0000   0.0000   0.2446
  -5.800  -0.6227   0.01139   0.00525   0.0002  0.8459  0.0207  -3.1930   0.0000   0.0000   0.0000   0.2448
  -5.700  -0.6124   0.01126   0.00510   0.0003  0.8429  0.0210  -3.1053   0.0000   0.0000   0.0000   0.2450
  -5.600  -0.6022   0.01114   0.00495   0.0004  0.8401  0.0214  -3.0186   0.0000   0.0000   0.0000   0.2453
  -5.500  -0.5918   0.01102   0.00481   0.0005  0.8375  0.0218  -2.9321   0.0000   0.0000   0.0000   0.2455
  -5.400  -0.5812   0.01091   0.00468   0.0005  0.8345  0.0222  -2.8451   0.0000   0.0000   0.0000   0.2456
  -5.300  -0.5707   0.01082   0.00457   0.0006  0.8315  0.0224  -2.7581   0.0000   0.0000   0.0000   0.2457
  -5.200  -0.5608   0.01063   0.00433   0.0007  0.8289  0.0230  -2.6800   0.0000   0.0000   0.0000   0.2461
  -5.100  -0.5509   0.01042   0.00411   0.0008  0.8262  0.0238  -2.6133   0.0000   0.0000   0.0000   0.2465
  -5.000  -0.5404   0.01028   0.00397   0.0009  0.8231  0.0245  -2.5425   0.0000   0.0000   0.0000   0.2466
  -4.900  -0.5299   0.01018   0.00385   0.0009  0.8203  0.0252  -2.4703   0.0000   0.0000   0.0000   0.2468
  -4.800  -0.5193   0.01009   0.00375   0.0009  0.8177  0.0260  -2.3982   0.0000   0.0000   0.0000   0.2469
  -4.700  -0.5085   0.01001   0.00365   0.0009  0.8152  0.0268  -2.3265   0.0000   0.0000   0.0000   0.2471
  -4.600  -0.4976   0.00993   0.00356   0.0009  0.8123  0.0274  -2.2549   0.0000   0.0000   0.0000   0.2471
  -4.500  -0.4871   0.00980   0.00342   0.0010  0.8096  0.0284  -2.1887   0.0000   0.0000   0.0000   0.2473
  -4.400  -0.4766   0.00966   0.00327   0.0010  0.8071  0.0298  -2.1231   0.0000   0.0000   0.0000   0.2475
  -4.200  -0.4551   0.00948   0.00307   0.0010  0.8021  0.0325  -1.9867   0.0000   0.0000   0.0000   0.2478
  -4.100  -0.4443   0.00937   0.00296   0.0010  0.7994  0.0346  -1.9211   0.0000   0.0000   0.0000   0.2479
  -4.000  -0.4337   0.00925   0.00284   0.0011  0.7968  0.0376  -1.8551   0.0000   0.0000   0.0000   0.2480
  -3.900  -0.4231   0.00914   0.00274   0.0011  0.7944  0.0421  -1.7905   0.0000   0.0000   0.0000   0.2482
  -3.800  -0.4126   0.00899   0.00263   0.0011  0.7921  0.0515  -1.7267   0.0000   0.0000   0.0000   0.2484
  -3.700  -0.4026   0.00876   0.00250   0.0012  0.7893  0.0754  -1.6646   0.0000   0.0000   0.0000   0.2487
  -3.600  -0.3932   0.00844   0.00235   0.0013  0.7867  0.1149  -1.6061   0.0000   0.0000   0.0000   0.2491
  -3.500  -0.3841   0.00808   0.00219   0.0014  0.7842  0.1649  -1.5560   0.0000   0.0000   0.0000   0.2495
  -3.400  -0.3754   0.00769   0.00203   0.0016  0.7819  0.2248  -1.5068   0.0000   0.0000   0.0000   0.2501
  -3.300  -0.3669   0.00723   0.00185   0.0017  0.7796  0.2965  -1.4585   0.0000   0.0000   0.0000   0.2506
  -3.200  -0.3586   0.00671   0.00166   0.0019  0.7770  0.3771  -1.4110   0.0000   0.0000   0.0000   0.2513
  -3.100  -0.3505   0.00621   0.00149   0.0021  0.7745  0.4616  -1.3635   0.0000   0.0000   0.0000   0.2521
  -3.000  -0.3409   0.00594   0.00142   0.0022  0.7722  0.5141  -1.3122   0.0000   0.0000   0.0000   0.2527
  -2.900  -0.3304   0.00582   0.00138   0.0023  0.7701  0.5421  -1.2588   0.0000   0.0000   0.0000   0.2531
  -2.800  -0.3195   0.00576   0.00134   0.0023  0.7679  0.5597  -1.2045   0.0000   0.0000   0.0000   0.2533
  -2.700  -0.3083   0.00570   0.00132   0.0022  0.7655  0.5729  -1.1504   0.0000   0.0000   0.0000   0.2534
  -2.600  -0.2971   0.00565   0.00129   0.0021  0.7631  0.5832  -1.0967   0.0000   0.0000   0.0000   0.2535
  -2.500  -0.2858   0.00563   0.00127   0.0021  0.7607  0.5920  -1.0434   0.0000   0.0000   0.0000   0.2536
  -2.400  -0.2746   0.00560   0.00125   0.0020  0.7586  0.5997  -0.9910   0.0000   0.0000   0.0000   0.2538
  -2.300  -0.2632   0.00560   0.00123   0.0020  0.7566  0.6068  -0.9388   0.0000   0.0000   0.0000   0.2539
  -2.200  -0.2520   0.00556   0.00122   0.0019  0.7545  0.6143  -0.8874   0.0000   0.0000   0.0000   0.2540
  -2.100  -0.2406   0.00553   0.00121   0.0018  0.7522  0.6230  -0.8365   0.0000   0.0000   0.0000   0.2541
  -2.000  -0.2293   0.00551   0.00120   0.0018  0.7500  0.6341  -0.7863   0.0000   0.0000   0.0000   0.2542
  -1.900  -0.2182   0.00548   0.00121   0.0018  0.7478  0.6452  -0.7382   0.0000   0.0000   0.0000   0.2547
  -1.800  -0.2071   0.00547   0.00121   0.0018  0.7457  0.6548  -0.6960   0.0000   0.0000   0.0000   0.2551
  -1.600  -0.1845   0.00547   0.00122   0.0017  0.7417  0.6696  -0.6124   0.0000   0.0000   0.0000   0.2558
  -1.500  -0.1729   0.00547   0.00122   0.0016  0.7395  0.6751  -0.5710   0.0000   0.0000   0.0000   0.2558
  -1.400  -0.1615   0.00546   0.00121   0.0015  0.7373  0.6789  -0.5304   0.0000   0.0000   0.0000   0.2560
  -1.300  -0.1501   0.00545   0.00121   0.0014  0.7353  0.6822  -0.4903   0.0000   0.0000   0.0000   0.2562
  -1.200  -0.1386   0.00546   0.00120   0.0013  0.7334  0.6854  -0.4507   0.0000   0.0000   0.0000   0.2564
  -1.100  -0.1271   0.00547   0.00119   0.0012  0.7315  0.6884  -0.4115   0.0000   0.0000   0.0000   0.2566
  -1.000  -0.1155   0.00548   0.00118   0.0011  0.7296  0.6909  -0.4003   0.0000   0.0000   0.0000   0.2566
  -0.900  -0.1040   0.00546   0.00118   0.0010  0.7275  0.6931  -0.3951   0.0000   0.0000   0.0000   0.2567
  -0.800  -0.0925   0.00544   0.00117   0.0009  0.7254  0.6951  -0.3899   0.0000   0.0000   0.0000   0.2567
  -0.700  -0.0809   0.00544   0.00117   0.0008  0.7234  0.6971  -0.3847   0.0000   0.0000   0.0000   0.2568
  -0.600  -0.0694   0.00544   0.00116   0.0007  0.7214  0.6990  -0.3796   0.0000   0.0000   0.0000   0.2569
  -0.500  -0.0578   0.00545   0.00115   0.0006  0.7195  0.7009  -0.3744   0.0000   0.0000   0.0000   0.2569
  -0.400  -0.0463   0.00547   0.00114   0.0005  0.7177  0.7028  -0.3693   0.0000   0.0000   0.0000   0.2570
  -0.300  -0.0346   0.00546   0.00114   0.0003  0.7159  0.7046  -0.3641   0.0000   0.0000   0.0000   0.2566
  -0.200  -0.0231   0.00544   0.00114   0.0002  0.7139  0.7063  -0.3590   0.0000   0.0000   0.0000   0.2565
  -0.100  -0.0116   0.00543   0.00114   0.0001  0.7119  0.7081  -0.3538   0.0000   0.0000   0.0000   0.2565
   0.000   0.0000   0.00543   0.00114   0.0000  0.7099  0.7099  -0.3489   0.0000   0.0000   0.0000  -4.2684
   0.100   0.0116   0.00543   0.00114  -0.0001  0.7081  0.7119  -0.3538   0.0000   0.0000   0.0000   0.2565
   0.200   0.0231   0.00544   0.00114  -0.0002  0.7063  0.7139  -0.3590   0.0000   0.0000   0.0000   0.2565
   0.300   0.0346   0.00546   0.00114  -0.0003  0.7046  0.7159  -0.3641   0.0000   0.0000   0.0000   0.2566
   0.400   0.0463   0.00547   0.00114  -0.0005  0.7028  0.7177  -0.3693   0.0000   0.0000   0.0000   0.2570
   0.500   0.0578   0.00545   0.00115  -0.0006  0.7009  0.7195  -0.3744   0.0000   0.0000   0.0000   0.2569
   0.600   0.0694   0.00544   0.00116  -0.0007  0.6990  0.7214  -0.3796   0.0000   0.0000   0.0000   0.2569
   0.700   0.0809   0.00544   0.00117  -0.0008  0.6971  0.7234  -0.3847   0.0000   0.0000   0.0000   0.2568
   0.800   0.0925   0.00544   0.00117  -0.0009  0.6951  0.7254  -0.3899   0.0000   0.0000   0.0000   0.2567
   0.900   0.1040   0.00546   0.00118  -0.0010  0.6931  0.7275  -0.3951   0.0000   0.0000   0.0000   0.2567
   1.000   0.1155   0.00548   0.00118  -0.0011  0.6909  0.7296  -0.4003   0.0000   0.0000   0.0000   0.2566
   1.100   0.1271   0.00547   0.00119  -0.0012  0.6884  0.7315  -0.4115   0.0000   0.0000   0.0000   0.2566
   1.200   0.1386   0.00546   0.00120  -0.0013  0.6854  0.7334  -0.4507   0.0000   0.0000   0.0000   0.2564
   1.300   0.1501   0.00545   0.00121  -0.0014  0.6822  0.7353  -0.4903   0.0000   0.0000   0.0000   0.2562
   1.400   0.1615   0.00546   0.00121  -0.0015  0.6789  0.7373  -0.5304   0.0000   0.0000   0.0000   0.2560
   1.500   0.1729   0.00547   0.00122  -0.0016  0.6751  0.7395  -0.5710   0.0000   0.0000   0.0000   0.2558
   1.600   0.1845   0.00547   0.00122  -0.0017  0.6696  0.7417  -0.6124   0.0000   0.0000   0.0000   0.2558
   1.800   0.2071   0.00547   0.00121  -0.0018  0.6548  0.7457  -0.6960   0.0000   0.0000   0.0000   0.2551
   1.900   0.2182   0.00548   0.00121  -0.0018  0.6452  0.7478  -0.7382   0.0000   0.0000   0.0000   0.2547
   2.000   0.2293   0.00551   0.00120  -0.0018  0.6341  0.7499  -0.7863   0.0000   0.0000   0.0000   0.2542
   2.100   0.2406   0.00553   0.00121  -0.0018  0.6230  0.7522  -0.8365   0.0000   0.0000   0.0000   0.2541
   2.200   0.2520   0.00556   0.00122  -0.0019  0.6143  0.7545  -0.8874   0.0000   0.0000   0.0000   0.2540
   2.300   0.2632   0.00560   0.00123  -0.0020  0.6068  0.7566  -0.9388   0.0000   0.0000   0.0000   0.2539
   2.400   0.2746   0.00560   0.00125  -0.0020  0.5997  0.7586  -0.9910   0.0000   0.0000   0.0000   0.2538
   2.500   0.2858   0.00563   0.00127  -0.0021  0.5920  0.7607  -1.0434   0.0000   0.0000   0.0000   0.2536
   2.600   0.2971   0.00565   0.00129  -0.0021  0.5832  0.7631  -1.0967   0.0000   0.0000   0.0000   0.2535
   2.700   0.3083   0.00570   0.00132  -0.0022  0.5729  0.7655  -1.1504   0.0000   0.0000   0.0000   0.2534
   2.800   0.3195   0.00576   0.00134  -0.0023  0.5597  0.7679  -1.2045   0.0000   0.0000   0.0000   0.2533
   2.900   0.3304   0.00582   0.00138  -0.0023  0.5421  0.7701  -1.2588   0.0000   0.0000   0.0000   0.2531
   3.000   0.3409   0.00594   0.00142  -0.0022  0.5141  0.7722  -1.3122   0.0000   0.0000   0.0000   0.2527
   3.100   0.3505   0.00621   0.00149  -0.0021  0.4616  0.7745  -1.3635   0.0000   0.0000   0.0000   0.2521
   3.200   0.3586   0.00671   0.00166  -0.0019  0.3771  0.7770  -1.4110   0.0000   0.0000   0.0000   0.2513
   3.300   0.3669   0.00723   0.00185  -0.0017  0.2965  0.7796  -1.4585   0.0000   0.0000   0.0000   0.2506
   3.400   0.3754   0.00769   0.00203  -0.0016  0.2248  0.7819  -1.5068   0.0000   0.0000   0.0000   0.2501
   3.500   0.3841   0.00808   0.00219  -0.0014  0.1649  0.7842  -1.5560   0.0000   0.0000   0.0000   0.2495
   3.600   0.3932   0.00844   0.00235  -0.0013  0.1149  0.7867  -1.6061   0.0000   0.0000   0.0000   0.2491
   3.700   0.4026   0.00876   0.00250  -0.0012  0.0754  0.7893  -1.6646   0.0000   0.0000   0.0000   0.2487
   3.800   0.4126   0.00899   0.00263  -0.0011  0.0515  0.7921  -1.7267   0.0000   0.0000   0.0000   0.2484
   3.900   0.4231   0.00914   0.00274  -0.0011  0.0421  0.7944  -1.7905   0.0000   0.0000   0.0000   0.2482
   4.000   0.4337   0.00925   0.00284  -0.0011  0.0376  0.7968  -1.8551   0.0000   0.0000   0.0000   0.2480
   4.100   0.4443   0.00937   0.00296  -0.0010  0.0346  0.7994  -1.9211   0.0000   0.0000   0.0000   0.2479
   4.200   0.4551   0.00948   0.00307  -0.0010  0.0325  0.8021  -1.9867   0.0000   0.0000   0.0000   0.2478
   4.400   0.4766   0.00966   0.00327  -0.0010  0.0298  0.8071  -2.1231   0.0000   0.0000   0.0000   0.2475
   4.500   0.4871   0.00980   0.00342  -0.0010  0.0284  0.8096  -2.1887   0.0000   0.0000   0.0000   0.2473
   4.600   0.4976   0.00993   0.00356  -0.0009  0.0274  0.8123  -2.2549   0.0000   0.0000   0.0000   0.2471
   4.700   0.5085   0.01001   0.00365  -0.0010  0.0268  0.8152  -2.3265   0.0000   0.0000   0.0000   0.2471
   4.800   0.5193   0.01009   0.00375  -0.0009  0.0260  0.8177  -2.3982   0.0000   0.0000   0.0000   0.2469
   4.900   0.5299   0.01018   0.00385  -0.0009  0.0252  0.8203  -2.4704   0.0000   0.0000   0.0000   0.2468
   5.000   0.5405   0.01028   0.00397  -0.0009  0.0245  0.8231  -2.5425   0.0000   0.0000   0.0000   0.2466
   5.100   0.5509   0.01042   0.00411  -0.0008  0.0238  0.8262  -2.6133   0.0000   0.0000   0.0000   0.2465
   5.200   0.5608   0.01063   0.00433  -0.0007  0.0230  0.8289  -2.6800   0.0000   0.0000   0.0000   0.2461
   5.300   0.5707   0.01082   0.00457  -0.0006  0.0224  0.8315  -2.7582   0.0000   0.0000   0.0000   0.2458
   5.400   0.5812   0.01091   0.00468  -0.0005  0.0222  0.8345  -2.8451   0.0000   0.0000   0.0000   0.2456
   5.500   0.5918   0.01102   0.00481  -0.0005  0.0218  0.8375  -2.9321   0.0000   0.0000   0.0000   0.2455
   5.600   0.6022   0.01114   0.00495  -0.0004  0.0214  0.8401  -3.0186   0.0000   0.0000   0.0000   0.2453
   5.700   0.6124   0.01126   0.00510  -0.0003  0.0210  0.8429  -3.1054   0.0000   0.0000   0.0000   0.2450
   5.800   0.6227   0.01139   0.00525  -0.0002  0.0207  0.8459  -3.1931   0.0000   0.0000   0.0000   0.2448
   5.900   0.6330   0.01153   0.00540  -0.0002  0.0203  0.8490  -3.2821   0.0000   0.0000   0.0000   0.2446
   6.000   0.6431   0.01166   0.00556  -0.0001  0.0200  0.8516  -3.3712   0.0000   0.0000   0.0000   0.2444
   6.100   0.6532   0.01180   0.00571   0.0000  0.0196  0.8546  -3.4619   0.0000   0.0000   0.0000   0.2441
   6.200   0.6633   0.01194   0.00586   0.0001  0.0193  0.8579  -3.5547   0.0000   0.0000   0.0000   0.2439
   6.300   0.6731   0.01211   0.00605   0.0003  0.0188  0.8609  -3.6464   0.0000   0.0000   0.0000   0.2436
   6.400   0.6819   0.01239   0.00636   0.0005  0.0183  0.8640  -3.7274   0.0000   0.0000   0.0000   0.2431
   6.500   0.6896   0.01286   0.00687   0.0010  0.0178  0.8677  -3.7921   0.0000   0.0000   0.0000   0.2424
   6.600   0.7001   0.01292   0.00696   0.0010  0.0176  0.8708  -3.8913   0.0000   0.0000   0.0000   0.2423
   6.700   0.7102   0.01303   0.00709   0.0011  0.0174  0.8739  -3.9864   0.0000   0.0000   0.0000   0.2420
   6.800   0.7202   0.01316   0.00725   0.0013  0.0172  0.8774  -4.0801   0.0000   0.0000   0.0000   0.2418
   6.900   0.7300   0.01332   0.00743   0.0014  0.0169  0.8807  -4.1727   0.0000   0.0000   0.0000   0.2415
   7.000   0.7396   0.01347   0.00762   0.0016  0.0166  0.8839  -4.2643   0.0000   0.0000   0.0000   0.2412
   7.100   0.7492   0.01365   0.00781   0.0018  0.0163  0.8875  -4.3564   0.0000   0.0000   0.0000   0.2409
   7.200   0.7587   0.01382   0.00802   0.0020  0.0160  0.8908  -4.4486   0.0000   0.0000   0.0000   0.2406
   7.300   0.7681   0.01399   0.00822   0.0022  0.0158  0.8942  -4.5416   0.0000   0.0000   0.0000   0.2402
   7.500   0.7868   0.01434   0.00861   0.0027  0.0153  0.9015  -4.7313   0.0000   0.0000   0.0000   0.2395
   7.600   0.7960   0.01452   0.00882   0.0029  0.0150  0.9055  -4.8280   0.0000   0.0000   0.0000   0.2392
   7.700   0.8050   0.01471   0.00903   0.0032  0.0148  0.9093  -4.9243   0.0000   0.0000   0.0000   0.2388
   7.800   0.8139   0.01491   0.00926   0.0035  0.0146  0.9134  -5.0200   0.0000   0.0000   0.0000   0.2383
   7.900   0.8224   0.01515   0.00952   0.0038  0.0144  0.9175  -5.1119   0.0000   0.0000   0.0000   0.2379
   8.000   0.8303   0.01548   0.00987   0.0043  0.0142  0.9221  -5.2078   0.0000   0.0000   0.0000   0.2373
   8.100   0.8370   0.01597   0.01041   0.0049  0.0139  0.9266  -5.2917   0.0000   0.0000   0.0000   0.2365
   8.200   0.8411   0.01712   0.01164   0.0059  0.0136  0.9318  -5.3240   0.0000   0.0000   0.0000   0.2353
   8.300   0.8498   0.01723   0.01180   0.0062  0.0135  0.9366  -5.4377   0.0000   0.0000   0.0000   0.2348
   8.400   0.8583   0.01737   0.01197   0.0067  0.0134  0.9418  -5.5499   0.0000   0.0000   0.0000   0.2343
   8.500   0.8666   0.01752   0.01217   0.0071  0.0133  0.9475  -5.6606   0.0000   0.0000   0.0000   0.2337
   8.600   0.8747   0.01769   0.01238   0.0076  0.0132  0.9539  -5.7694   0.0000   0.0000   0.0000   0.2331
   8.700   0.8828   0.01788   0.01261   0.0081  0.0131  0.9610  -5.8784   0.0000   0.0000   0.0000   0.2325
   8.800   0.8919   0.01809   0.01288   0.0084  0.0129  0.9687  -5.9930   0.0000   0.0000   0.0000   0.2322
   8.900   0.9028   0.01832   0.01315   0.0082  0.0127  0.9762  -6.1196   0.0000   0.0000   0.0000   0.2324
   9.000   0.9151   0.01857   0.01343   0.0077  0.0125  0.9838  -6.2564   0.0000   0.0000   0.0000   0.2330
   9.100   0.9281   0.01882   0.01372   0.0070  0.0122  0.9944  -6.4002   0.0000   0.0000   0.0000   0.2337
   9.200   0.9383   0.01905   0.01397   0.0069  0.0120  1.0000  -6.5293   0.0000   0.0000   0.0000   0.2338
   9.300   0.9478   0.01927   0.01422   0.0070  0.0118  1.0000  -6.6557   0.0000   0.0000   0.0000   0.2337
   9.400   0.9572   0.01950   0.01447   0.0070  0.0116  1.0000  -6.7826   0.0000   0.0000   0.0000   0.2336
   9.500   0.9664   0.01974   0.01473   0.0071  0.0114  1.0000  -6.9094   0.0000   0.0000   0.0000   0.2334
   9.600   0.9754   0.02000   0.01502   0.0072  0.0112  1.0000  -7.0348   0.0000   0.0000   0.0000   0.2333
   9.700   0.9844   0.02026   0.01530   0.0073  0.0111  1.0000  -7.1614   0.0000   0.0000   0.0000   0.2331
   9.800   0.9932   0.02052   0.01558   0.0075  0.0109  1.0000  -7.2890   0.0000   0.0000   0.0000   0.2329
   9.900   1.0019   0.02079   0.01587   0.0076  0.0108  1.0000  -7.4168   0.0000   0.0000   0.0000   0.2327
  10.000   1.0104   0.02108   0.01618   0.0078  0.0107  1.0000  -7.5434   0.0000   0.0000   0.0000   0.2325
  10.100   1.0186   0.02141   0.01654   0.0080  0.0105  1.0000  -7.6664   0.0000   0.0000   0.0000   0.2322
  10.200   1.0263   0.02183   0.01699   0.0083  0.0104  1.0000  -7.7822   0.0000   0.0000   0.0000   0.2319
  10.300   1.0332   0.02240   0.01760   0.0086  0.0103  1.0000  -7.8830   0.0000   0.0000   0.0000   0.2315
  10.400   1.0385   0.02332   0.01861   0.0091  0.0101  1.0000  -7.9495   0.0000   0.0000   0.0000   0.2309
  10.500   1.0384   0.02542   0.02092   0.0101  0.0099  1.0000  -7.9025   0.0000   0.0000   0.0000   0.2299
  10.600   1.0389   0.02722   0.02292   0.0110  0.0098  1.0000  -7.8767   0.0000   0.0000   0.0000   0.2289
  10.700   1.0455   0.02765   0.02340   0.0114  0.0097  1.0000  -7.9820   0.0000   0.0000   0.0000   0.2285
  10.800   1.0517   0.02812   0.02393   0.0118  0.0097  1.0000  -8.0821   0.0000   0.0000   0.0000   0.2281
  10.900   1.0574   0.02864   0.02452   0.0122  0.0097  1.0000  -8.1769   0.0000   0.0000   0.0000   0.2276
  11.000   1.0626   0.02921   0.02515   0.0127  0.0096  1.0000  -8.2659   0.0000   0.0000   0.0000   0.2271
  11.100   1.0672   0.02983   0.02584   0.0133  0.0096  1.0000  -8.3488   0.0000   0.0000   0.0000   0.2265
  11.200   1.0712   0.03049   0.02658   0.0138  0.0095  1.0000  -8.4248   0.0000   0.0000   0.0000   0.2259
  11.300   1.0739   0.03118   0.02735   0.0146  0.0095  1.0000  -8.4903   0.0000   0.0000   0.0000   0.2250
  11.400   1.0756   0.03191   0.02815   0.0155  0.0095  1.0000  -8.5469   0.0000   0.0000   0.0000   0.2241
  11.500   1.0765   0.03269   0.02902   0.0164  0.0094  1.0000  -8.5953   0.0000   0.0000   0.0000   0.2232
  11.600   1.0765   0.03353   0.02994   0.0173  0.0094  1.0000  -8.6355   0.0000   0.0000   0.0000   0.2222
  11.700   1.0758   0.03445   0.03094   0.0182  0.0093  1.0000  -8.6670   0.0000   0.0000   0.0000   0.2212
  11.800   1.0743   0.03544   0.03202   0.0191  0.0093  1.0000  -8.6897   0.0000   0.0000   0.0000   0.2202
  11.900   1.0720   0.03651   0.03318   0.0200  0.0093  1.0000  -8.7031   0.0000   0.0000   0.0000   0.2192
  12.000   1.0687   0.03768   0.03444   0.0208  0.0092  1.0000  -8.7066   0.0000   0.0000   0.0000   0.2182
  12.100   1.0646   0.03895   0.03581   0.0216  0.0092  1.0000  -8.6996   0.0000   0.0000   0.0000   0.2173
  12.200   1.0596   0.04033   0.03729   0.0223  0.0091  1.0000  -8.6820   0.0000   0.0000   0.0000   0.2164
  12.300   1.0536   0.04185   0.03891   0.0229  0.0091  1.0000  -8.6529   0.0000   0.0000   0.0000   0.2155
  12.400   1.0465   0.04351   0.04067   0.0234  0.0091  1.0000  -8.6113   0.0000   0.0000   0.0000   0.2147
  12.500   1.0383   0.04535   0.04261   0.0237  0.0091  1.0000  -8.5563   0.0000   0.0000   0.0000   0.2141
  12.600   1.0290   0.04736   0.04473   0.0238  0.0090  1.0000  -8.4874   0.0000   0.0000   0.0000   0.2135
  12.700   1.0185   0.04960   0.04707   0.0238  0.0090  1.0000  -8.4043   0.0000   0.0000   0.0000   0.2132
  12.800   1.0068   0.05205   0.04963   0.0235  0.0090  1.0000  -8.3077   0.0000   0.0000   0.0000   0.2130
  12.900   0.9939   0.05478   0.05247   0.0229  0.0090  1.0000  -8.1951   0.0000   0.0000   0.0000   0.2131
  13.000   0.9800   0.05777   0.05556   0.0220  0.0090  1.0000  -8.0700   0.0000   0.0000   0.0000   0.2135
  13.100   0.9654   0.06103   0.05892   0.0207  0.0090  1.0000  -7.9352   0.0000   0.0000   0.0000   0.2143
  13.200   0.9503   0.06458   0.06257   0.0190  0.0091  1.0000  -7.7927   0.0000   0.0000   0.0000   0.2155
  13.300   0.9349   0.06842   0.06649   0.0168  0.0091  1.0000  -7.6441   0.0000   0.0000   0.0000   0.2173
  13.400   0.9190   0.07267   0.07082   0.0142  0.0091  1.0000  -7.4844   0.0000   0.0000   0.0000   0.2196
  13.500   0.9022   0.07757   0.07580   0.0108  0.0092  1.0000  -7.3034   0.0000   0.0000   0.0000   0.2229
  13.600   0.8820   0.08392   0.08224   0.0061  0.0093  1.0000  -7.0577   0.0000   0.0000   0.0000   0.2277
  17.200   0.7596   0.20746   0.20583  -0.0547  0.0097  1.0000  -2.4872   0.0000   0.0000   0.0000   0.3049
  17.300   0.7622   0.20920   0.20758  -0.0557  0.0097  1.0000  -2.4605   0.0000   0.0000   0.0000   0.3058
  17.400   0.7649   0.21094   0.20931  -0.0567  0.0097  1.0000  -2.4312   0.0000   0.0000   0.0000   0.3067
  17.500   0.7676   0.21268   0.21106  -0.0577  0.0097  1.0000  -2.3988   0.0000   0.0000   0.0000   0.3076
  17.600   0.7700   0.21458   0.21295  -0.0588  0.0096  1.0000  -2.3461   0.0000   0.0000   0.0000   0.3088
  17.700   0.7721   0.21673   0.21510  -0.0602  0.0096  1.0000  -2.2602   0.0000   0.0000   0.0000   0.3103
  17.800   0.7746   0.21961   0.21797  -0.0621  0.0089  1.0000  -2.0892   0.0000   0.0000   0.0000   0.3124
  17.900   0.7777   0.22124   0.21960  -0.0630  0.0085  1.0000  -2.0795   0.0000   0.0000   0.0000   0.3132
  18.000   0.7808   0.22280   0.22117  -0.0639  0.0083  1.0000  -2.0811   0.0000   0.0000   0.0000   0.3139
  18.100   0.7839   0.22430   0.22267  -0.0648  0.0081  1.0000  -2.0867   0.0000   0.0000   0.0000   0.3146
  18.200   0.7870   0.22577   0.22413  -0.0657  0.0079  1.0000  -2.0950   0.0000   0.0000   0.0000   0.3152
  18.300   0.7902   0.22721   0.22558  -0.0666  0.0078  1.0000  -2.1052   0.0000   0.0000   0.0000   0.3159
  18.400   0.7934   0.22864   0.22700  -0.0675  0.0077  1.0000  -2.1173   0.0000   0.0000   0.0000   0.3165
  18.500   0.7966   0.23004   0.22840  -0.0683  0.0076  1.0000  -2.1309   0.0000   0.0000   0.0000   0.3171
  18.600   0.7998   0.23142   0.22979  -0.0692  0.0075  1.0000  -2.1459   0.0000   0.0000   0.0000   0.3177
  18.700   0.8031   0.23279   0.23115  -0.0701  0.0074  1.0000  -2.1625   0.0000   0.0000   0.0000   0.3183
  18.800   0.8063   0.23413   0.23250  -0.0710  0.0073  1.0000  -2.1805   0.0000   0.0000   0.0000   0.3188
  18.900   0.8096   0.23546   0.23383  -0.0718  0.0072  1.0000  -2.1997   0.0000   0.0000   0.0000   0.3194
  19.000   0.8128   0.23678   0.23515  -0.0727  0.0072  1.0000  -2.2204   0.0000   0.0000   0.0000   0.3199
  19.100   0.8161   0.23807   0.23644  -0.0735  0.0071  1.0000  -2.2428   0.0000   0.0000   0.0000   0.3204
  19.200   0.8194   0.23934   0.23771  -0.0744  0.0070  1.0000  -2.2680   0.0000   0.0000   0.0000   0.3209
  19.300   0.8228   0.24057   0.23894  -0.0752  0.0070  1.0000  -2.2962   0.0000   0.0000   0.0000   0.3214
  19.400   0.8261   0.24177   0.24015  -0.0760  0.0069  1.0000  -2.3273   0.0000   0.0000   0.0000   0.3218
  19.500   0.8294   0.24295   0.24132  -0.0768  0.0069  1.0000  -2.3614   0.0000   0.0000   0.0000   0.3222
  19.600   0.8328   0.24410   0.24247  -0.0776  0.0068  1.0000  -2.3987   0.0000   0.0000   0.0000   0.3226
  19.700   0.8362   0.24522   0.24360  -0.0783  0.0068  1.0000  -2.4396   0.0000   0.0000   0.0000   0.3229
  19.800   0.8396   0.24635   0.24474  -0.0790  0.0067  1.0000  -2.4849   0.0000   0.0000   0.0000   0.3231
  19.900   0.8408   0.24888   0.24725  -0.0796  0.0066  1.0000  -2.4350   0.0000   0.0000   0.0000   0.3236
  20.000   0.8439   0.25040   0.24878  -0.0806  0.0065  1.0000  -2.4271   0.0000   0.0000   0.0000   0.3242
  20.100   0.8471   0.25191   0.25028  -0.0816  0.0065  1.0000  -2.4198   0.0000   0.0000   0.0000   0.3249
  20.200   0.8503   0.25345   0.25182  -0.0825  0.0065  1.0000  -2.4129   0.0000   0.0000   0.0000   0.3255
  20.300   0.8534   0.25496   0.25333  -0.0835  0.0065  1.0000  -2.4059   0.0000   0.0000   0.0000   0.3261
  20.400   0.8566   0.25646   0.25484  -0.0845  0.0065  1.0000  -2.3988   0.0000   0.0000   0.0000   0.3267
  20.500   0.8598   0.25796   0.25633  -0.0854  0.0065  1.0000  -2.3914   0.0000   0.0000   0.0000   0.3273
  20.600   0.8630   0.25945   0.25783  -0.0864  0.0065  1.0000  -2.3836   0.0000   0.0000   0.0000   0.3279
  20.700   0.8662   0.26094   0.25932  -0.0874  0.0065  1.0000  -2.3751   0.0000   0.0000   0.0000   0.3285
  20.800   0.8695   0.26243   0.26081  -0.0884  0.0065  1.0000  -2.3661   0.0000   0.0000   0.0000   0.3291
  20.900   0.8727   0.26391   0.26229  -0.0893  0.0065  1.0000  -2.3564   0.0000   0.0000   0.0000   0.3297
  21.000   0.8759   0.26540   0.26378  -0.0903  0.0065  1.0000  -2.3452   0.0000   0.0000   0.0000   0.3303
  21.100   0.8791   0.26688   0.26526  -0.0913  0.0065  1.0000  -2.3328   0.0000   0.0000   0.0000   0.3309
  21.200   0.8824   0.26834   0.26673  -0.0923  0.0065  1.0000  -2.3187   0.0000   0.0000   0.0000   0.3315
  21.300   0.8855   0.26988   0.26826  -0.0934  0.0065  1.0000  -2.2944   0.0000   0.0000   0.0000   0.3322
  21.400   0.8887   0.27142   0.26980  -0.0945  0.0065  1.0000  -2.2676   0.0000   0.0000   0.0000   0.3328
  21.500   0.8919   0.27297   0.27135  -0.0956  0.0065  1.0000  -2.2379   0.0000   0.0000   0.0000   0.3335
  21.600   0.8951   0.27452   0.27291  -0.0967  0.0064  1.0000  -2.2052   0.0000   0.0000   0.0000   0.3342
  21.700   0.8984   0.27609   0.27448  -0.0978  0.0064  1.0000  -2.1685   0.0000   0.0000   0.0000   0.3349
  21.800   0.9018   0.27770   0.27608  -0.0989  0.0064  1.0000  -2.1256   0.0000   0.0000   0.0000   0.3356
  21.900   0.9054   0.27938   0.27776  -0.1001  0.0063  1.0000  -2.0695   0.0000   0.0000   0.0000   0.3363
  22.000   0.9095   0.28120   0.27958  -0.1012  0.0060  1.0000  -2.0070   0.0000   0.0000   0.0000   0.3370
  22.100   0.9130   0.28270   0.28108  -0.1022  0.0057  1.0000  -1.9974   0.0000   0.0000   0.0000   0.3374
  22.200   0.9164   0.28407   0.28245  -0.1032  0.0055  1.0000  -1.9999   0.0000   0.0000   0.0000   0.3379
  22.300   0.9198   0.28547   0.28385  -0.1041  0.0054  1.0000  -2.0062   0.0000   0.0000   0.0000   0.3384
  22.400   0.9231   0.28682   0.28521  -0.1051  0.0052  1.0000  -2.0147   0.0000   0.0000   0.0000   0.3388
  22.500   0.9265   0.28815   0.28654  -0.1061  0.0051  1.0000  -2.0246   0.0000   0.0000   0.0000   0.3392
  22.600   0.9298   0.28946   0.28785  -0.1070  0.0050  1.0000  -2.0357   0.0000   0.0000   0.0000   0.3397
  22.700   0.9331   0.29076   0.28915  -0.1080  0.0049  1.0000  -2.0480   0.0000   0.0000   0.0000   0.3401
  22.800   0.9364   0.29205   0.29043  -0.1089  0.0048  1.0000  -2.0612   0.0000   0.0000   0.0000   0.3405
  22.900   0.9397   0.29332   0.29171  -0.1099  0.0047  1.0000  -2.0753   0.0000   0.0000   0.0000   0.3409
  23.000   0.9430   0.29457   0.29296  -0.1109  0.0047  1.0000  -2.0904   0.0000   0.0000   0.0000   0.3413
  23.100   0.9463   0.29581   0.29420  -0.1118  0.0046  1.0000  -2.1072   0.0000   0.0000   0.0000   0.3417
  23.200   0.9496   0.29702   0.29542  -0.1128  0.0045  1.0000  -2.1258   0.0000   0.0000   0.0000   0.3421
  23.300   0.9528   0.29822   0.29662  -0.1138  0.0045  1.0000  -2.1465   0.0000   0.0000   0.0000   0.3425
  23.400   0.9561   0.29940   0.29780  -0.1147  0.0044  1.0000  -2.1689   0.0000   0.0000   0.0000   0.3429
  23.500   0.9593   0.30056   0.29896  -0.1157  0.0044  1.0000  -2.1930   0.0000   0.0000   0.0000   0.3433
  23.600   0.9625   0.30170   0.30011  -0.1166  0.0043  1.0000  -2.2190   0.0000   0.0000   0.0000   0.3436
  23.700   0.9657   0.30283   0.30123  -0.1176  0.0043  1.0000  -2.2466   0.0000   0.0000   0.0000   0.3440
  23.800   0.9689   0.30394   0.30235  -0.1185  0.0042  1.0000  -2.2759   0.0000   0.0000   0.0000   0.3443
  23.900   0.9721   0.30504   0.30345  -0.1194  0.0042  1.0000  -2.3067   0.0000   0.0000   0.0000   0.3447
  24.000   0.9752   0.30613   0.30454  -0.1203  0.0042  1.0000  -2.3392   0.0000   0.0000   0.0000   0.3450
  24.100   0.9783   0.30721   0.30562  -0.1213  0.0041  1.0000  -2.3732   0.0000   0.0000   0.0000   0.3453
  24.200   0.9814   0.30834   0.30675  -0.1221  0.0041  1.0000  -2.4088   0.0000   0.0000   0.0000   0.3455
  24.300   0.9844   0.30944   0.30786  -0.1230  0.0041  1.0000  -2.4463   0.0000   0.0000   0.0000   0.3458
  24.400   0.9865   0.31157   0.30998  -0.1236  0.0040  1.0000  -2.4231   0.0000   0.0000   0.0000   0.3460
  24.500   0.9897   0.31295   0.31136  -0.1247  0.0040  1.0000  -2.4191   0.0000   0.0000   0.0000   0.3464
  24.600   0.9929   0.31431   0.31272  -0.1257  0.0040  1.0000  -2.4150   0.0000   0.0000   0.0000   0.3468
  24.700   0.9961   0.31568   0.31410  -0.1267  0.0039  1.0000  -2.4106   0.0000   0.0000   0.0000   0.3472
  24.800   0.9992   0.31702   0.31544  -0.1277  0.0039  1.0000  -2.4058   0.0000   0.0000   0.0000   0.3476
  24.900   1.0024   0.31838   0.31679  -0.1288  0.0039  1.0000  -2.4005   0.0000   0.0000   0.0000   0.3481
  25.000   1.0056   0.31969   0.31811  -0.1298  0.0039  1.0000  -2.3946   0.0000   0.0000   0.0000   0.3485
  25.100   1.0088   0.32102   0.31944  -0.1308  0.0039  1.0000  -2.3878   0.0000   0.0000   0.0000   0.3489
  25.200   1.0119   0.32235   0.32078  -0.1319  0.0039  1.0000  -2.3791   0.0000   0.0000   0.0000   0.3493
  25.300   1.0151   0.32368   0.32211  -0.1329  0.0039  1.0000  -2.3693   0.0000   0.0000   0.0000   0.3497
  25.400   1.0183   0.32501   0.32344  -0.1340  0.0039  1.0000  -2.3582   0.0000   0.0000   0.0000   0.3501
  25.500   1.0214   0.32635   0.32478  -0.1351  0.0039  1.0000  -2.3445   0.0000   0.0000   0.0000   0.3506
  25.600   1.0246   0.32771   0.32613  -0.1361  0.0039  1.0000  -2.3247   0.0000   0.0000   0.0000   0.3510
  25.700   1.0278   0.32906   0.32749  -0.1372  0.0039  1.0000  -2.3030   0.0000   0.0000   0.0000   0.3515
  25.800   1.0309   0.33043   0.32886  -0.1383  0.0039  1.0000  -2.2794   0.0000   0.0000   0.0000   0.3519
  25.900   1.0341   0.33179   0.33022  -0.1394  0.0039  1.0000  -2.2543   0.0000   0.0000   0.0000   0.3523
  26.000   1.0373   0.33316   0.33159  -0.1405  0.0039  1.0000  -2.2279   0.0000   0.0000   0.0000   0.3528
  26.100   1.0405   0.33453   0.33296  -0.1416  0.0039  1.0000  -2.2008   0.0000   0.0000   0.0000   0.3532
  26.200   1.0437   0.33589   0.33432  -0.1427  0.0039  1.0000  -2.1734   0.0000   0.0000   0.0000   0.3536
  26.300   1.0470   0.33726   0.33569  -0.1438  0.0039  1.0000  -2.1465   0.0000   0.0000   0.0000   0.3540
  26.400   1.0502   0.33861   0.33705  -0.1449  0.0038  1.0000  -2.1202   0.0000   0.0000   0.0000   0.3544
  26.500   1.0535   0.33997   0.33841  -0.1460  0.0038  1.0000  -2.0942   0.0000   0.0000   0.0000   0.3548
  26.600   1.0568   0.34134   0.33977  -0.1470  0.0038  1.0000  -2.0683   0.0000   0.0000   0.0000   0.3552
  26.700   1.0602   0.34268   0.34112  -0.1481  0.0038  1.0000  -2.0422   0.0000   0.0000   0.0000   0.3555
  26.800   1.0636   0.34405   0.34249  -0.1492  0.0037  1.0000  -2.0157   0.0000   0.0000   0.0000   0.3559
  26.900   1.0669   0.34543   0.34387  -0.1502  0.0036  1.0000  -1.9899   0.0000   0.0000   0.0000   0.3562
  27.000   1.0703   0.34676   0.34520  -0.1512  0.0035  1.0000  -1.9855   0.0000   0.0000   0.0000   0.3565
  27.100   1.0735   0.34805   0.34649  -0.1522  0.0034  1.0000  -1.9864   0.0000   0.0000   0.0000   0.3568
  27.200   1.0766   0.34930   0.34775  -0.1533  0.0033  1.0000  -1.9912   0.0000   0.0000   0.0000   0.3571
  27.300   1.0797   0.35048   0.34893  -0.1543  0.0032  1.0000  -1.9983   0.0000   0.0000   0.0000   0.3574
  27.400   1.0827   0.35172   0.35017  -0.1553  0.0031  1.0000  -2.0067   0.0000   0.0000   0.0000   0.3577
  27.500   1.0857   0.35293   0.35138  -0.1564  0.0031  1.0000  -2.0160   0.0000   0.0000   0.0000   0.3580
  27.600   1.0887   0.35411   0.35256  -0.1574  0.0030  1.0000  -2.0262   0.0000   0.0000   0.0000   0.3583
  27.700   1.0916   0.35528   0.35373  -0.1584  0.0029  1.0000  -2.0375   0.0000   0.0000   0.0000   0.3586
  27.800   1.0946   0.35643   0.35488  -0.1595  0.0028  1.0000  -2.0499   0.0000   0.0000   0.0000   0.3589
  27.900   1.0975   0.35756   0.35602  -0.1605  0.0028  1.0000  -2.0632   0.0000   0.0000   0.0000   0.3592
  28.000   1.1004   0.35869   0.35715  -0.1616  0.0027  1.0000  -2.0775   0.0000   0.0000   0.0000   0.3595
  28.100   1.1033   0.35980   0.35826  -0.1626  0.0026  1.0000  -2.0928   0.0000   0.0000   0.0000   0.3598
  28.200   1.1061   0.36090   0.35936  -0.1637  0.0026  1.0000  -2.1089   0.0000   0.0000   0.0000   0.3601
  28.300   1.1090   0.36199   0.36045  -0.1647  0.0025  1.0000  -2.1258   0.0000   0.0000   0.0000   0.3604
  28.400   1.1118   0.36307   0.36153  -0.1658  0.0025  1.0000  -2.1432   0.0000   0.0000   0.0000   0.3607
  28.500   1.1146   0.36414   0.36261  -0.1668  0.0024  1.0000  -2.1611   0.0000   0.0000   0.0000   0.3610
  28.600   1.1174   0.36521   0.36368  -0.1679  0.0024  1.0000  -2.1791   0.0000   0.0000   0.0000   0.3613
  28.700   1.1201   0.36625   0.36473  -0.1689  0.0024  1.0000  -2.1971   0.0000   0.0000   0.0000   0.3616
  28.800   1.1229   0.36729   0.36577  -0.1700  0.0023  1.0000  -2.2158   0.0000   0.0000   0.0000   0.3619
  28.900   1.1256   0.36832   0.36680  -0.1710  0.0023  1.0000  -2.2352   0.0000   0.0000   0.0000   0.3622
  29.000   1.1283   0.36934   0.36782  -0.1721  0.0023  1.0000  -2.2553   0.0000   0.0000   0.0000   0.3624
  29.100   1.1310   0.37035   0.36883  -0.1731  0.0023  1.0000  -2.2763   0.0000   0.0000   0.0000   0.3627
  29.200   1.1336   0.37134   0.36983  -0.1742  0.0022  1.0000  -2.2980   0.0000   0.0000   0.0000   0.3630
  29.300   1.1362   0.37232   0.37081  -0.1752  0.0022  1.0000  -2.3206   0.0000   0.0000   0.0000   0.3633
  29.400   1.1388   0.37329   0.37178  -0.1763  0.0022  1.0000  -2.3441   0.0000   0.0000   0.0000   0.3635
  29.500   1.1414   0.37425   0.37274  -0.1773  0.0022  1.0000  -2.3685   0.0000   0.0000   0.0000   0.3638
  29.600   1.1439   0.37530   0.37379  -0.1784  0.0022  1.0000  -2.3937   0.0000   0.0000   0.0000   0.3641
  29.700   1.1464   0.37625   0.37475  -0.1794  0.0021  1.0000  -2.4200   0.0000   0.0000   0.0000   0.3643
  29.800   1.1488   0.37720   0.37570  -0.1804  0.0021  1.0000  -2.4472   0.0000   0.0000   0.0000   0.3646
  29.900   1.1512   0.37815   0.37666  -0.1814  0.0021  1.0000  -2.4755   0.0000   0.0000   0.0000   0.3648
  30.000   1.1535   0.37913   0.37764  -0.1824  0.0021  1.0000  -2.5051   0.0000   0.0000   0.0000   0.3650


