xflr5 v6.61

 Calculated polar for: NACA 0012-34

 1 1 Reynolds number fixed          Mach number fixed         

 xtrf =   1.000 (top)        1.000 (bottom)
 Mach =   0.000     Re =     0.719 e 6     Ncrit =   9.000

  alpha     CL        CD       CDp       Cm    Top Xtr Bot Xtr   Cpmin    Chinge    XCp    
 ------- -------- --------- --------- -------- ------- ------- -------- --------- ---------
 -10.000  -0.6108   0.06964   0.06678  -0.0422  1.0000  0.0121  -2.9156   0.0000   0.0000   0.0000   0.1712
  -9.900  -0.6180   0.06800   0.06511  -0.0424  1.0000  0.0121  -2.9415   0.0000   0.0000   0.0000   0.1719
  -9.800  -0.6255   0.06647   0.06353  -0.0424  1.0000  0.0121  -2.9657   0.0000   0.0000   0.0000   0.1730
  -9.700  -0.6319   0.06495   0.06196  -0.0421  1.0000  0.0121  -2.9873   0.0000   0.0000   0.0000   0.1744
  -9.600  -0.6385   0.06353   0.06050  -0.0416  1.0000  0.0121  -3.0071   0.0000   0.0000   0.0000   0.1761
  -9.500  -0.6458   0.06225   0.05917  -0.0408  1.0000  0.0121  -3.0253   0.0000   0.0000   0.0000   0.1783
  -9.400  -0.6534   0.06111   0.05799  -0.0396  1.0000  0.0121  -3.0420   0.0000   0.0000   0.0000   0.1810
  -9.300  -0.6610   0.06007   0.05691  -0.0382  1.0000  0.0121  -3.0570   0.0000   0.0000   0.0000   0.1841
  -9.200  -0.6688   0.05911   0.05591  -0.0365  0.9997  0.0121  -3.0710   0.0000   0.0000   0.0000   0.1875
  -9.100  -0.6738   0.05780   0.05454  -0.0353  0.9966  0.0121  -3.0837   0.0000   0.0000   0.0000   0.1897
  -9.000  -0.6782   0.05648   0.05314  -0.0342  0.9928  0.0121  -3.0949   0.0000   0.0000   0.0000   0.1919
  -8.900  -0.6810   0.05500   0.05159  -0.0333  0.9891  0.0122  -3.1042   0.0000   0.0000   0.0000   0.1935
  -8.800  -0.6827   0.05348   0.04998  -0.0325  0.9852  0.0122  -3.1116   0.0000   0.0000   0.0000   0.1949
  -6.500  -0.6058   0.02356   0.01755  -0.0138  0.8211  0.0267  -2.4379   0.0000   0.0000   0.0000   0.2219
  -6.400  -0.6011   0.02102   0.01494  -0.0132  0.8049  0.0311  -2.4096   0.0000   0.0000   0.0000   0.2227
  -6.300  -0.5935   0.02063   0.01457  -0.0131  0.8001  0.0339  -2.3028   0.0000   0.0000   0.0000   0.2228
  -6.200  -0.5853   0.02027   0.01424  -0.0129  0.7982  0.0373  -2.1987   0.0000   0.0000   0.0000   0.2228
  -5.700  -0.5525   0.01558   0.00677  -0.0041  0.1722  0.0184  -2.3677   0.0000   0.0000   0.0000   0.2378
  -5.600  -0.5494   0.01481   0.00559  -0.0018  0.0501  0.0155  -2.4056   0.0000   0.0000   0.0000   0.2420
  -5.500  -0.5411   0.01452   0.00524  -0.0012  0.0499  0.0144  -2.3245   0.0000   0.0000   0.0000   0.2432
  -5.400  -0.5328   0.01426   0.00492  -0.0007  0.0497  0.0138  -2.2373   0.0000   0.0000   0.0000   0.2443
  -5.300  -0.5249   0.01394   0.00454  -0.0000  0.0497  0.0134  -2.1538   0.0000   0.0000   0.0000   0.2456
  -5.200  -0.5176   0.01356   0.00404   0.0008  0.0496  0.0134  -2.0947   0.0000   0.0000   0.0000   0.2473
  -5.100  -0.5104   0.01310   0.00339   0.0019  0.0506  0.0161  -2.0678   0.0000   0.0000   0.0000   0.2496
  -4.900  -0.4923   0.01281   0.00322   0.0023  0.0547  0.0244  -1.8609   0.0000   0.0000   0.0000   0.2506
  -4.800  -0.4820   0.01284   0.00329   0.0020  0.0515  0.0249  -1.7335   0.0000   0.0000   0.0000   0.2503
  -4.700  -0.4725   0.01274   0.00315   0.0021  0.0497  0.0270  -1.6310   0.0000   0.0000   0.0000   0.2507
  -4.600  -0.4629   0.01263   0.00299   0.0023  0.0494  0.0301  -1.5530   0.0000   0.0000   0.0000   0.2512
  -4.500  -0.4534   0.01251   0.00287   0.0024  0.0489  0.0372  -1.5309   0.0000   0.0000   0.0000   0.2517
  -4.400  -0.4443   0.01238   0.00277   0.0026  0.0486  0.0433  -1.4975   0.0000   0.0000   0.0000   0.2522
  -4.300  -0.4349   0.01228   0.00268   0.0027  0.0483  0.0491  -1.4621   0.0000   0.0000   0.0000   0.2526
  -4.200  -0.4271   0.01204   0.00255   0.0031  0.0481  0.0741  -1.4298   0.0000   0.0000   0.0000   0.2537
  -4.100  -0.4202   0.01171   0.00239   0.0036  0.0479  0.1106  -1.3993   0.0000   0.0000   0.0000   0.2550
  -4.000  -0.4136   0.01137   0.00224   0.0041  0.0477  0.1450  -1.3694   0.0000   0.0000   0.0000   0.2565
  -3.900  -0.4087   0.01089   0.00205   0.0049  0.0475  0.1924  -1.3429   0.0000   0.0000   0.0000   0.2587
  -3.800  -0.4013   0.01065   0.00197   0.0053  0.0473  0.2408  -1.3116   0.0000   0.0000   0.0000   0.2600
  -3.700  -0.3955   0.01028   0.00182   0.0060  0.0471  0.2849  -1.2834   0.0000   0.0000   0.0000   0.2621
  -3.600  -0.3883   0.01005   0.00175   0.0065  0.0469  0.3309  -1.2528   0.0000   0.0000   0.0000   0.2637
  -3.500  -0.3836   0.00966   0.00163   0.0075  0.0468  0.3842  -1.2265   0.0000   0.0000   0.0000   0.2664
  -3.400  -0.3761   0.00949   0.00157   0.0079  0.0466  0.4221  -1.1955   0.0000   0.0000   0.0000   0.2681
  -3.300  -0.3719   0.00913   0.00149   0.0090  0.0465  0.4773  -1.1702   0.0000   0.0000   0.0000   0.2715
  -3.200  -0.3637   0.00900   0.00145   0.0094  0.0463  0.4992  -1.1384   0.0000   0.0000   0.0000   0.2731
  -3.100  -0.3552   0.00891   0.00142   0.0097  0.0462  0.5255  -1.1066   0.0000   0.0000   0.0000   0.2746
  -3.000  -0.3463   0.00884   0.00139   0.0099  0.0461  0.5396  -1.0744   0.0000   0.0000   0.0000   0.2760
  -2.900  -0.3373   0.00877   0.00137   0.0101  0.0460  0.5514  -1.0423   0.0000   0.0000   0.0000   0.2774
  -2.800  -0.3279   0.00872   0.00135   0.0102  0.0459  0.5608  -1.0097   0.0000   0.0000   0.0000   0.2787
  -2.700  -0.3182   0.00868   0.00133   0.0103  0.0458  0.5687  -0.9770   0.0000   0.0000   0.0000   0.2798
  -2.600  -0.3082   0.00866   0.00131   0.0103  0.0458  0.5748  -0.9441   0.0000   0.0000   0.0000   0.2808
  -2.500  -0.2980   0.00865   0.00129   0.0102  0.0457  0.5792  -0.9113   0.0000   0.0000   0.0000   0.2818
  -2.400  -0.2876   0.00864   0.00128   0.0101  0.0457  0.5824  -0.8786   0.0000   0.0000   0.0000   0.2828
  -2.300  -0.2773   0.00864   0.00127   0.0100  0.0456  0.5850  -0.8461   0.0000   0.0000   0.0000   0.2838
  -2.200  -0.2671   0.00863   0.00126   0.0099  0.0456  0.5898  -0.8142   0.0000   0.0000   0.0000   0.2850
  -2.100  -0.2569   0.00862   0.00125   0.0099  0.0456  0.5949  -0.7827   0.0000   0.0000   0.0000   0.2862
  -2.000  -0.2466   0.00861   0.00124   0.0098  0.0456  0.5992  -0.7513   0.0000   0.0000   0.0000   0.2876
  -1.900  -0.2367   0.00860   0.00124   0.0098  0.0456  0.6086  -0.7206   0.0000   0.0000   0.0000   0.2892
  -1.800  -0.2269   0.00858   0.00123   0.0098  0.0456  0.6191  -0.6906   0.0000   0.0000   0.0000   0.2912
  -1.700  -0.2169   0.00857   0.00123   0.0098  0.0456  0.6248  -0.6604   0.0000   0.0000   0.0000   0.2931
  -1.600  -0.2069   0.00856   0.00123   0.0098  0.0457  0.6307  -0.6306   0.0000   0.0000   0.0000   0.2953
  -1.500  -0.1968   0.00855   0.00123   0.0097  0.0457  0.6356  -0.6010   0.0000   0.0000   0.0000   0.2976
  -1.400  -0.1865   0.00855   0.00123   0.0096  0.0457  0.6378  -0.5712   0.0000   0.0000   0.0000   0.2998
  -1.300  -0.1756   0.00858   0.00122   0.0094  0.0458  0.6360  -0.5410   0.0000   0.0000   0.0000   0.3018
  -1.200  -0.1641   0.00863   0.00122   0.0091  0.0459  0.6286  -0.5104   0.0000   0.0000   0.0000   0.3034
  -1.100  -0.1522   0.00871   0.00122   0.0086  0.0460  0.6147  -0.4794   0.0000   0.0000   0.0000   0.3046
  -1.000  -0.1407   0.00876   0.00122   0.0082  0.0461  0.6019  -0.4493   0.0000   0.0000   0.0000   0.3067
  -0.900  -0.1298   0.00880   0.00122   0.0080  0.0462  0.5983  -0.4204   0.0000   0.0000   0.0000   0.3100
  -0.800  -0.1190   0.00883   0.00122   0.0078  0.0463  0.5959  -0.4078   0.0000   0.0000   0.0000   0.3139
  -0.700  -0.1081   0.00886   0.00123   0.0076  0.0464  0.5923  -0.3989   0.0000   0.0000   0.0000   0.3185
  -0.600  -0.0970   0.00892   0.00123   0.0073  0.0466  0.5857  -0.3902   0.0000   0.0000   0.0000   0.3237
  -0.500  -0.0852   0.00901   0.00125   0.0069  0.0467  0.5713  -0.3832   0.0000   0.0000   0.0000   0.3291
  -0.400  -0.0694   0.00933   0.00128   0.0056  0.0469  0.5183  -0.3744   0.0000   0.0000   0.0000   0.3295
  -0.300  -0.0566   0.00948   0.00130   0.0050  0.0471  0.4843  -0.3670   0.0000   0.0000   0.0000   0.3370
  -0.200  -0.0406   0.00988   0.00138   0.0038  0.0473  0.4157  -0.3584   0.0000   0.0000   0.0000   0.3422
  -0.100  -0.0102   0.01165   0.00178   0.0001  0.0478  0.0493  -0.3390   0.0000   0.0000   0.0000   0.2570
   0.000  -0.0000   0.01166   0.00174   0.0000  0.0480  0.0480  -0.3327   0.0000   0.0000   0.0000   0.4193
   0.100   0.0102   0.01165   0.00178  -0.0001  0.0493  0.0478  -0.3390   0.0000   0.0000   0.0000   0.2570
   0.200   0.0406   0.00988   0.00138  -0.0038  0.4157  0.0473  -0.3584   0.0000   0.0000   0.0000   0.3422
   0.300   0.0566   0.00948   0.00130  -0.0050  0.4843  0.0471  -0.3670   0.0000   0.0000   0.0000   0.3370
   0.400   0.0694   0.00933   0.00128  -0.0056  0.5183  0.0469  -0.3744   0.0000   0.0000   0.0000   0.3295
   0.500   0.0852   0.00901   0.00125  -0.0069  0.5713  0.0467  -0.3832   0.0000   0.0000   0.0000   0.3291
   0.600   0.0970   0.00892   0.00123  -0.0073  0.5856  0.0466  -0.3902   0.0000   0.0000   0.0000   0.3236
   0.700   0.1081   0.00886   0.00123  -0.0076  0.5923  0.0464  -0.3989   0.0000   0.0000   0.0000   0.3184
   0.800   0.1190   0.00883   0.00122  -0.0078  0.5959  0.0463  -0.4078   0.0000   0.0000   0.0000   0.3139
   0.900   0.1298   0.00880   0.00122  -0.0080  0.5983  0.0462  -0.4204   0.0000   0.0000   0.0000   0.3100
   1.000   0.1407   0.00876   0.00122  -0.0082  0.6019  0.0461  -0.4493   0.0000   0.0000   0.0000   0.3067
   1.100   0.1522   0.00871   0.00122  -0.0086  0.6147  0.0460  -0.4794   0.0000   0.0000   0.0000   0.3046
   1.200   0.1641   0.00863   0.00122  -0.0091  0.6286  0.0459  -0.5104   0.0000   0.0000   0.0000   0.3034
   1.300   0.1756   0.00858   0.00122  -0.0094  0.6360  0.0458  -0.5410   0.0000   0.0000   0.0000   0.3018
   1.400   0.1865   0.00855   0.00123  -0.0096  0.6378  0.0457  -0.5712   0.0000   0.0000   0.0000   0.2998
   1.500   0.1968   0.00854   0.00123  -0.0097  0.6356  0.0457  -0.6009   0.0000   0.0000   0.0000   0.2976
   1.600   0.2069   0.00856   0.00123  -0.0098  0.6307  0.0457  -0.6306   0.0000   0.0000   0.0000   0.2953
   1.700   0.2169   0.00857   0.00123  -0.0098  0.6248  0.0456  -0.6604   0.0000   0.0000   0.0000   0.2931
   1.800   0.2269   0.00858   0.00123  -0.0098  0.6191  0.0456  -0.6906   0.0000   0.0000   0.0000   0.2912
   1.900   0.2366   0.00860   0.00124  -0.0098  0.6086  0.0456  -0.7206   0.0000   0.0000   0.0000   0.2892
   2.000   0.2466   0.00861   0.00124  -0.0098  0.5992  0.0456  -0.7513   0.0000   0.0000   0.0000   0.2876
   2.100   0.2569   0.00862   0.00125  -0.0099  0.5949  0.0456  -0.7827   0.0000   0.0000   0.0000   0.2862
   2.200   0.2671   0.00863   0.00126  -0.0099  0.5898  0.0456  -0.8142   0.0000   0.0000   0.0000   0.2850
   2.300   0.2773   0.00864   0.00127  -0.0100  0.5850  0.0456  -0.8461   0.0000   0.0000   0.0000   0.2838
   2.400   0.2876   0.00864   0.00128  -0.0101  0.5824  0.0457  -0.8786   0.0000   0.0000   0.0000   0.2828
   2.500   0.2980   0.00865   0.00129  -0.0102  0.5792  0.0457  -0.9113   0.0000   0.0000   0.0000   0.2818
   2.600   0.3082   0.00866   0.00131  -0.0103  0.5748  0.0458  -0.9441   0.0000   0.0000   0.0000   0.2808
   2.700   0.3182   0.00868   0.00133  -0.0103  0.5687  0.0458  -0.9770   0.0000   0.0000   0.0000   0.2798
   2.800   0.3279   0.00872   0.00135  -0.0102  0.5608  0.0459  -1.0097   0.0000   0.0000   0.0000   0.2787
   2.900   0.3373   0.00877   0.00137  -0.0101  0.5514  0.0460  -1.0423   0.0000   0.0000   0.0000   0.2774
   3.000   0.3463   0.00884   0.00139  -0.0099  0.5396  0.0461  -1.0744   0.0000   0.0000   0.0000   0.2760
   3.100   0.3552   0.00891   0.00141  -0.0097  0.5255  0.0462  -1.1066   0.0000   0.0000   0.0000   0.2746
   3.200   0.3637   0.00900   0.00144  -0.0094  0.4992  0.0463  -1.1384   0.0000   0.0000   0.0000   0.2731
   3.300   0.3719   0.00913   0.00149  -0.0090  0.4773  0.0465  -1.1702   0.0000   0.0000   0.0000   0.2715
   3.400   0.3761   0.00949   0.00157  -0.0079  0.4221  0.0466  -1.1955   0.0000   0.0000   0.0000   0.2681
   3.500   0.3836   0.00966   0.00163  -0.0075  0.3842  0.0468  -1.2265   0.0000   0.0000   0.0000   0.2665
   3.600   0.3883   0.01005   0.00175  -0.0065  0.3308  0.0469  -1.2528   0.0000   0.0000   0.0000   0.2637
   3.700   0.3955   0.01028   0.00182  -0.0060  0.2849  0.0471  -1.2834   0.0000   0.0000   0.0000   0.2621
   3.800   0.4013   0.01065   0.00197  -0.0053  0.2407  0.0473  -1.3116   0.0000   0.0000   0.0000   0.2601
   3.900   0.4087   0.01089   0.00205  -0.0049  0.1924  0.0475  -1.3429   0.0000   0.0000   0.0000   0.2588
   4.000   0.4136   0.01137   0.00224  -0.0041  0.1450  0.0477  -1.3695   0.0000   0.0000   0.0000   0.2565
   4.100   0.4203   0.01171   0.00239  -0.0036  0.1105  0.0479  -1.3994   0.0000   0.0000   0.0000   0.2551
   4.200   0.4272   0.01204   0.00255  -0.0031  0.0741  0.0481  -1.4298   0.0000   0.0000   0.0000   0.2537
   4.300   0.4350   0.01228   0.00268  -0.0027  0.0491  0.0483  -1.4622   0.0000   0.0000   0.0000   0.2527
   4.400   0.4443   0.01238   0.00277  -0.0026  0.0433  0.0486  -1.4976   0.0000   0.0000   0.0000   0.2522
   4.500   0.4535   0.01251   0.00287  -0.0025  0.0372  0.0489  -1.5310   0.0000   0.0000   0.0000   0.2517
   4.600   0.4630   0.01263   0.00299  -0.0023  0.0301  0.0494  -1.5531   0.0000   0.0000   0.0000   0.2512
   4.700   0.4725   0.01274   0.00315  -0.0021  0.0270  0.0497  -1.6313   0.0000   0.0000   0.0000   0.2507
   4.800   0.4821   0.01284   0.00329  -0.0020  0.0249  0.0515  -1.7340   0.0000   0.0000   0.0000   0.2503
   4.900   0.4924   0.01281   0.00322  -0.0023  0.0244  0.0547  -1.8613   0.0000   0.0000   0.0000   0.2506
   5.100   0.5104   0.01311   0.00339  -0.0019  0.0160  0.0505  -2.0676   0.0000   0.0000   0.0000   0.2496
   5.200   0.5177   0.01356   0.00405  -0.0008  0.0134  0.0496  -2.0949   0.0000   0.0000   0.0000   0.2473
   5.300   0.5250   0.01394   0.00454  -0.0000  0.0134  0.0497  -2.1542   0.0000   0.0000   0.0000   0.2457
   5.400   0.5329   0.01426   0.00492   0.0007  0.0138  0.0497  -2.2377   0.0000   0.0000   0.0000   0.2443
   5.500   0.5413   0.01452   0.00524   0.0012  0.0144  0.0499  -2.3250   0.0000   0.0000   0.0000   0.2432
   5.600   0.5495   0.01481   0.00560   0.0018  0.0155  0.0501  -2.4061   0.0000   0.0000   0.0000   0.2421
   5.700   0.5525   0.01557   0.00677   0.0041  0.0184  0.1752  -2.3671   0.0000   0.0000   0.0000   0.2378
   6.700   0.6169   0.02532   0.01972   0.0159  0.0232  0.8517  -2.5289   0.0000   0.0000   0.0000   0.2187
   6.800   0.6293   0.02415   0.01844   0.0155  0.0205  0.8552  -2.7137   0.0000   0.0000   0.0000   0.2198
   8.700   0.6845   0.05202   0.04844   0.0315  0.0122  0.9812  -3.1174   0.0000   0.0000   0.0000   0.1966
   8.800   0.6837   0.05357   0.05008   0.0323  0.0122  0.9856  -3.1122   0.0000   0.0000   0.0000   0.1953
   8.900   0.6820   0.05510   0.05170   0.0331  0.0121  0.9895  -3.1047   0.0000   0.0000   0.0000   0.1939
   9.000   0.6793   0.05659   0.05326   0.0339  0.0121  0.9932  -3.0953   0.0000   0.0000   0.0000   0.1923
   9.100   0.6749   0.05793   0.05467   0.0351  0.0121  0.9969  -3.0840   0.0000   0.0000   0.0000   0.1902
   9.200   0.6699   0.05924   0.05604   0.0362  0.0121  1.0000  -3.0713   0.0000   0.0000   0.0000   0.1880
   9.300   0.6620   0.06017   0.05701   0.0379  0.0121  1.0000  -3.0573   0.0000   0.0000   0.0000   0.1845
   9.400   0.6546   0.06123   0.05811   0.0394  0.0121  1.0000  -3.0423   0.0000   0.0000   0.0000   0.1815
   9.500   0.6470   0.06239   0.05932   0.0405  0.0121  1.0000  -3.0255   0.0000   0.0000   0.0000   0.1789
   9.600   0.6399   0.06369   0.06067   0.0412  0.0121  1.0000  -3.0071   0.0000   0.0000   0.0000   0.1768
   9.700   0.6334   0.06513   0.06215   0.0417  0.0121  1.0000  -2.9871   0.0000   0.0000   0.0000   0.1751
   9.800   0.6271   0.06668   0.06374   0.0420  0.0121  1.0000  -2.9652   0.0000   0.0000   0.0000   0.1739
   9.900   0.6197   0.06824   0.06535   0.0419  0.0121  1.0000  -2.9408   0.0000   0.0000   0.0000   0.1729
  10.000   0.6127   0.06989   0.06704   0.0417  0.0121  1.0000  -2.9146   0.0000   0.0000   0.0000   0.1723
  10.100   0.6063   0.07171   0.06891   0.0412  0.0121  1.0000  -2.8863   0.0000   0.0000   0.0000   0.1721
  10.200   0.5992   0.07372   0.07095   0.0403  0.0121  1.0000  -2.8539   0.0000   0.0000   0.0000   0.1726
  10.300   0.5929   0.07589   0.07316   0.0391  0.0121  1.0000  -2.8190   0.0000   0.0000   0.0000   0.1737
  10.400   0.5869   0.07825   0.07557   0.0377  0.0121  1.0000  -2.7801   0.0000   0.0000   0.0000   0.1753
  10.500   0.5809   0.08087   0.07821   0.0358  0.0121  1.0000  -2.7358   0.0000   0.0000   0.0000   0.1776
  10.600   0.5758   0.08368   0.08106   0.0337  0.0121  1.0000  -2.6870   0.0000   0.0000   0.0000   0.1805
  10.700   0.5713   0.08680   0.08421   0.0313  0.0121  1.0000  -2.6307   0.0000   0.0000   0.0000   0.1840
  10.800   0.5680   0.09025   0.08770   0.0287  0.0121  1.0000  -2.5652   0.0000   0.0000   0.0000   0.1882
  10.900   0.5663   0.09422   0.09168   0.0259  0.0121  1.0000  -2.4856   0.0000   0.0000   0.0000   0.1929
  11.000   0.5648   0.09758   0.09505   0.0238  0.0121  1.0000  -2.4233   0.0000   0.0000   0.0000   0.1965
  11.100   0.5634   0.10050   0.09797   0.0222  0.0121  1.0000  -2.3738   0.0000   0.0000   0.0000   0.1991
  11.200   0.5620   0.10318   0.10065   0.0207  0.0121  1.0000  -2.3305   0.0000   0.0000   0.0000   0.2014
  11.300   0.5606   0.10568   0.10315   0.0195  0.0121  1.0000  -2.2915   0.0000   0.0000   0.0000   0.2034
  11.400   0.5591   0.10804   0.10551   0.0185  0.0121  1.0000  -2.2554   0.0000   0.0000   0.0000   0.2051
  11.500   0.5578   0.11034   0.10781   0.0174  0.0121  1.0000  -2.2216   0.0000   0.0000   0.0000   0.2068
  11.600   0.5567   0.11260   0.11006   0.0165  0.0121  1.0000  -2.1898   0.0000   0.0000   0.0000   0.2083
  11.700   0.5558   0.11482   0.11228   0.0155  0.0120  1.0000  -2.1596   0.0000   0.0000   0.0000   0.2099
  11.800   0.5550   0.11701   0.11447   0.0146  0.0120  1.0000  -2.1309   0.0000   0.0000   0.0000   0.2114
  11.900   0.5545   0.11917   0.11663   0.0137  0.0120  1.0000  -2.1036   0.0000   0.0000   0.0000   0.2128
  12.000   0.5541   0.12130   0.11876   0.0129  0.0120  1.0000  -2.0776   0.0000   0.0000   0.0000   0.2143
  12.100   0.5538   0.12341   0.12086   0.0120  0.0120  1.0000  -2.0527   0.0000   0.0000   0.0000   0.2157
  12.200   0.5537   0.12549   0.12294   0.0112  0.0120  1.0000  -2.0289   0.0000   0.0000   0.0000   0.2170
  12.300   0.5537   0.12754   0.12500   0.0104  0.0120  1.0000  -2.0061   0.0000   0.0000   0.0000   0.2184
  12.400   0.5538   0.12957   0.12703   0.0096  0.0120  1.0000  -1.9843   0.0000   0.0000   0.0000   0.2197
  12.500   0.5540   0.13158   0.12903   0.0088  0.0119  1.0000  -1.9638   0.0000   0.0000   0.0000   0.2210
  12.600   0.5544   0.13357   0.13102   0.0080  0.0119  1.0000  -1.9443   0.0000   0.0000   0.0000   0.2223
  12.700   0.5548   0.13553   0.13298   0.0073  0.0119  1.0000  -1.9256   0.0000   0.0000   0.0000   0.2235
  12.800   0.5554   0.13748   0.13492   0.0065  0.0119  1.0000  -1.9077   0.0000   0.0000   0.0000   0.2248
  12.900   0.5560   0.13940   0.13685   0.0058  0.0119  1.0000  -1.8905   0.0000   0.0000   0.0000   0.2260
  13.000   0.5568   0.14131   0.13875   0.0051  0.0119  1.0000  -1.8739   0.0000   0.0000   0.0000   0.2272
  13.100   0.5576   0.14320   0.14064   0.0044  0.0118  1.0000  -1.8580   0.0000   0.0000   0.0000   0.2284
  13.200   0.5585   0.14508   0.14251   0.0036  0.0118  1.0000  -1.8428   0.0000   0.0000   0.0000   0.2296
  13.300   0.5595   0.14693   0.14437   0.0029  0.0118  1.0000  -1.8281   0.0000   0.0000   0.0000   0.2308
  13.400   0.5606   0.14878   0.14621   0.0022  0.0118  1.0000  -1.8139   0.0000   0.0000   0.0000   0.2319
  13.500   0.5618   0.15060   0.14804   0.0015  0.0118  1.0000  -1.8003   0.0000   0.0000   0.0000   0.2330
  13.600   0.5630   0.15242   0.14985   0.0009  0.0117  1.0000  -1.7872   0.0000   0.0000   0.0000   0.2342
  13.700   0.5643   0.15422   0.15165   0.0002  0.0117  1.0000  -1.7746   0.0000   0.0000   0.0000   0.2353
  13.800   0.5657   0.15600   0.15343  -0.0005  0.0117  1.0000  -1.7624   0.0000   0.0000   0.0000   0.2364
  13.900   0.5671   0.15777   0.15520  -0.0012  0.0117  1.0000  -1.7507   0.0000   0.0000   0.0000   0.2374
  14.000   0.5686   0.15953   0.15696  -0.0019  0.0117  1.0000  -1.7391   0.0000   0.0000   0.0000   0.2385
  14.100   0.5701   0.16129   0.15872  -0.0026  0.0116  1.0000  -1.7269   0.0000   0.0000   0.0000   0.2396
  14.200   0.5717   0.16304   0.16046  -0.0032  0.0116  1.0000  -1.7152   0.0000   0.0000   0.0000   0.2407
  14.300   0.5733   0.16477   0.16220  -0.0039  0.0116  1.0000  -1.7039   0.0000   0.0000   0.0000   0.2418
  14.400   0.5750   0.16649   0.16392  -0.0046  0.0116  1.0000  -1.6931   0.0000   0.0000   0.0000   0.2428
  14.500   0.5767   0.16820   0.16562  -0.0053  0.0116  1.0000  -1.6826   0.0000   0.0000   0.0000   0.2439
  14.600   0.5784   0.16990   0.16732  -0.0060  0.0115  1.0000  -1.6719   0.0000   0.0000   0.0000   0.2449
  14.700   0.5801   0.17157   0.16899  -0.0067  0.0115  1.0000  -1.6610   0.0000   0.0000   0.0000   0.2460
  14.800   0.5818   0.17322   0.17064  -0.0074  0.0115  1.0000  -1.6504   0.0000   0.0000   0.0000   0.2470
  14.900   0.5836   0.17480   0.17221  -0.0081  0.0115  1.0000  -1.6403   0.0000   0.0000   0.0000   0.2480
  15.000   0.5854   0.17630   0.17371  -0.0088  0.0114  1.0000  -1.6307   0.0000   0.0000   0.0000   0.2491
  15.100   0.5874   0.17776   0.17517  -0.0094  0.0114  1.0000  -1.6216   0.0000   0.0000   0.0000   0.2500
  15.200   0.5893   0.17921   0.17662  -0.0101  0.0114  1.0000  -1.6128   0.0000   0.0000   0.0000   0.2510
  15.300   0.5914   0.18067   0.17808  -0.0108  0.0114  1.0000  -1.6043   0.0000   0.0000   0.0000   0.2520
  15.400   0.5934   0.18213   0.17954  -0.0115  0.0114  1.0000  -1.5961   0.0000   0.0000   0.0000   0.2530
  15.500   0.5955   0.18361   0.18102  -0.0122  0.0113  1.0000  -1.5882   0.0000   0.0000   0.0000   0.2539
  15.600   0.5977   0.18510   0.18251  -0.0129  0.0113  1.0000  -1.5806   0.0000   0.0000   0.0000   0.2549
  15.700   0.5999   0.18661   0.18402  -0.0135  0.0113  1.0000  -1.5733   0.0000   0.0000   0.0000   0.2558
  15.800   0.6021   0.18813   0.18553  -0.0142  0.0113  1.0000  -1.5662   0.0000   0.0000   0.0000   0.2568
  15.900   0.6043   0.18965   0.18706  -0.0149  0.0112  1.0000  -1.5593   0.0000   0.0000   0.0000   0.2577
  16.000   0.6066   0.19119   0.18860  -0.0156  0.0112  1.0000  -1.5526   0.0000   0.0000   0.0000   0.2586
  16.100   0.6089   0.19274   0.19015  -0.0163  0.0112  1.0000  -1.5462   0.0000   0.0000   0.0000   0.2595
  16.200   0.6112   0.19430   0.19171  -0.0169  0.0112  1.0000  -1.5400   0.0000   0.0000   0.0000   0.2604
  16.300   0.6135   0.19587   0.19327  -0.0176  0.0112  1.0000  -1.5340   0.0000   0.0000   0.0000   0.2612
  16.400   0.6158   0.19745   0.19485  -0.0183  0.0111  1.0000  -1.5282   0.0000   0.0000   0.0000   0.2621
  16.500   0.6182   0.19903   0.19644  -0.0190  0.0111  1.0000  -1.5226   0.0000   0.0000   0.0000   0.2630
  16.600   0.6206   0.20063   0.19803  -0.0196  0.0111  1.0000  -1.5172   0.0000   0.0000   0.0000   0.2638
  16.700   0.6230   0.20223   0.19963  -0.0203  0.0111  1.0000  -1.5119   0.0000   0.0000   0.0000   0.2647
  16.800   0.6254   0.20384   0.20124  -0.0210  0.0110  1.0000  -1.5068   0.0000   0.0000   0.0000   0.2655
  16.900   0.6279   0.20545   0.20285  -0.0217  0.0110  1.0000  -1.5019   0.0000   0.0000   0.0000   0.2663
  17.000   0.6303   0.20708   0.20447  -0.0223  0.0110  1.0000  -1.4972   0.0000   0.0000   0.0000   0.2671
  17.100   0.6327   0.20871   0.20610  -0.0230  0.0110  1.0000  -1.4925   0.0000   0.0000   0.0000   0.2679
  17.200   0.6352   0.21034   0.20774  -0.0237  0.0109  1.0000  -1.4881   0.0000   0.0000   0.0000   0.2687
  17.300   0.6377   0.21199   0.20938  -0.0243  0.0109  1.0000  -1.4837   0.0000   0.0000   0.0000   0.2695
  17.400   0.6401   0.21364   0.21103  -0.0250  0.0109  1.0000  -1.4795   0.0000   0.0000   0.0000   0.2703
  17.500   0.6426   0.21529   0.21269  -0.0257  0.0109  1.0000  -1.4754   0.0000   0.0000   0.0000   0.2710
  17.600   0.6451   0.21695   0.21435  -0.0263  0.0108  1.0000  -1.4715   0.0000   0.0000   0.0000   0.2718
  17.700   0.6476   0.21862   0.21602  -0.0270  0.0108  1.0000  -1.4676   0.0000   0.0000   0.0000   0.2725
  17.800   0.6501   0.22030   0.21770  -0.0277  0.0108  1.0000  -1.4639   0.0000   0.0000   0.0000   0.2733
  17.900   0.6525   0.22198   0.21938  -0.0283  0.0108  1.0000  -1.4603   0.0000   0.0000   0.0000   0.2740
  18.000   0.6550   0.22367   0.22107  -0.0290  0.0107  1.0000  -1.4568   0.0000   0.0000   0.0000   0.2748
  18.100   0.6575   0.22536   0.22276  -0.0297  0.0107  1.0000  -1.4534   0.0000   0.0000   0.0000   0.2755
  18.200   0.6600   0.22707   0.22446  -0.0303  0.0107  1.0000  -1.4500   0.0000   0.0000   0.0000   0.2762
  18.300   0.6625   0.22877   0.22617  -0.0310  0.0107  1.0000  -1.4468   0.0000   0.0000   0.0000   0.2769
  18.400   0.6650   0.23049   0.22788  -0.0316  0.0107  1.0000  -1.4437   0.0000   0.0000   0.0000   0.2776
  18.500   0.6674   0.23221   0.22960  -0.0323  0.0106  1.0000  -1.4406   0.0000   0.0000   0.0000   0.2783
  18.600   0.6699   0.23393   0.23133  -0.0330  0.0106  1.0000  -1.4376   0.0000   0.0000   0.0000   0.2789
  18.700   0.6724   0.23567   0.23306  -0.0336  0.0106  1.0000  -1.4347   0.0000   0.0000   0.0000   0.2796
  18.800   0.6748   0.23741   0.23480  -0.0343  0.0106  1.0000  -1.4319   0.0000   0.0000   0.0000   0.2803
  18.900   0.6773   0.23915   0.23655  -0.0349  0.0105  1.0000  -1.4291   0.0000   0.0000   0.0000   0.2809
  19.000   0.6797   0.24090   0.23830  -0.0356  0.0105  1.0000  -1.4265   0.0000   0.0000   0.0000   0.2816
  19.100   0.6821   0.24266   0.24006  -0.0363  0.0105  1.0000  -1.4238   0.0000   0.0000   0.0000   0.2822
  19.200   0.6846   0.24442   0.24182  -0.0369  0.0105  1.0000  -1.4213   0.0000   0.0000   0.0000   0.2829
  19.300   0.6870   0.24619   0.24359  -0.0376  0.0104  1.0000  -1.4187   0.0000   0.0000   0.0000   0.2835
  19.400   0.6894   0.24797   0.24537  -0.0382  0.0104  1.0000  -1.4163   0.0000   0.0000   0.0000   0.2841
  19.500   0.6918   0.24975   0.24715  -0.0389  0.0104  1.0000  -1.4139   0.0000   0.0000   0.0000   0.2848
  19.600   0.6942   0.25154   0.24894  -0.0395  0.0104  1.0000  -1.4115   0.0000   0.0000   0.0000   0.2854
  19.700   0.6965   0.25333   0.25073  -0.0402  0.0104  1.0000  -1.4092   0.0000   0.0000   0.0000   0.2860
  19.800   0.6989   0.25513   0.25253  -0.0408  0.0103  1.0000  -1.4069   0.0000   0.0000   0.0000   0.2866
  19.900   0.7012   0.25693   0.25434  -0.0414  0.0103  1.0000  -1.4047   0.0000   0.0000   0.0000   0.2872
  20.000   0.7035   0.25874   0.25615  -0.0421  0.0103  1.0000  -1.4025   0.0000   0.0000   0.0000   0.2878
  20.100   0.7059   0.26056   0.25796  -0.0427  0.0103  1.0000  -1.4004   0.0000   0.0000   0.0000   0.2883
  20.200   0.7081   0.26238   0.25979  -0.0434  0.0102  1.0000  -1.3983   0.0000   0.0000   0.0000   0.2889
  20.300   0.7104   0.26421   0.26161  -0.0440  0.0102  1.0000  -1.3962   0.0000   0.0000   0.0000   0.2895
  20.400   0.7127   0.26604   0.26345  -0.0447  0.0102  1.0000  -1.3941   0.0000   0.0000   0.0000   0.2901
  20.500   0.7149   0.26788   0.26529  -0.0453  0.0102  1.0000  -1.3921   0.0000   0.0000   0.0000   0.2906
  20.600   0.7172   0.26972   0.26713  -0.0459  0.0102  1.0000  -1.3900   0.0000   0.0000   0.0000   0.2912
  20.700   0.7194   0.27157   0.26898  -0.0466  0.0101  1.0000  -1.3880   0.0000   0.0000   0.0000   0.2917
  20.800   0.7216   0.27342   0.27083  -0.0472  0.0101  1.0000  -1.3861   0.0000   0.0000   0.0000   0.2923
  20.900   0.7237   0.27528   0.27269  -0.0478  0.0101  1.0000  -1.3841   0.0000   0.0000   0.0000   0.2928
  21.000   0.7259   0.27714   0.27456  -0.0484  0.0101  1.0000  -1.3821   0.0000   0.0000   0.0000   0.2933
  21.100   0.7280   0.27901   0.27643  -0.0491  0.0100  1.0000  -1.3802   0.0000   0.0000   0.0000   0.2939
  21.200   0.7301   0.28088   0.27830  -0.0497  0.0100  1.0000  -1.3783   0.0000   0.0000   0.0000   0.2944
  21.300   0.7322   0.28276   0.28018  -0.0503  0.0100  1.0000  -1.3763   0.0000   0.0000   0.0000   0.2949
  21.400   0.7342   0.28464   0.28206  -0.0509  0.0100  1.0000  -1.3744   0.0000   0.0000   0.0000   0.2954
  21.500   0.7362   0.28652   0.28394  -0.0515  0.0100  1.0000  -1.3725   0.0000   0.0000   0.0000   0.2959


