xflr5 v6.61

 Calculated polar for: NACA 0015

 1 1 Reynolds number fixed          Mach number fixed         

 xtrf =   1.000 (top)        1.000 (bottom)
 Mach =   0.000     Re =     0.688 e 6     Ncrit =   9.000

  alpha     CL        CD       CDp       Cm    Top Xtr Bot Xtr   Cpmin    Chinge    XCp    
 ------- -------- --------- --------- -------- ------- ------- -------- --------- ---------
 -10.000  -1.0048   0.02069   0.01495  -0.0126  1.0000  0.0252  -4.0007   0.0000   0.0000   0.0000   0.2245
  -9.900  -1.0023   0.02028   0.01450  -0.0112  1.0000  0.0253  -3.9769   0.0000   0.0000   0.0000   0.2260
  -9.800  -0.9999   0.01989   0.01407  -0.0098  1.0000  0.0254  -3.9527   0.0000   0.0000   0.0000   0.2275
  -9.700  -0.9974   0.01952   0.01367  -0.0084  1.0000  0.0255  -3.9279   0.0000   0.0000   0.0000   0.2290
  -9.600  -0.9949   0.01917   0.01328  -0.0070  1.0000  0.0256  -3.9026   0.0000   0.0000   0.0000   0.2305
  -9.500  -0.9923   0.01884   0.01291  -0.0056  1.0000  0.0258  -3.8769   0.0000   0.0000   0.0000   0.2321
  -9.400  -0.9897   0.01853   0.01256  -0.0041  1.0000  0.0259  -3.8509   0.0000   0.0000   0.0000   0.2337
  -9.300  -0.9870   0.01823   0.01223  -0.0027  1.0000  0.0260  -3.8246   0.0000   0.0000   0.0000   0.2353
  -9.200  -0.9844   0.01794   0.01191  -0.0012  1.0000  0.0261  -3.7979   0.0000   0.0000   0.0000   0.2369
  -9.100  -0.9815   0.01767   0.01160   0.0002  1.0000  0.0263  -3.7706   0.0000   0.0000   0.0000   0.2385
  -9.000  -0.9785   0.01740   0.01130   0.0016  1.0000  0.0264  -3.7427   0.0000   0.0000   0.0000   0.2400
  -8.900  -0.9752   0.01714   0.01101   0.0030  1.0000  0.0266  -3.7142   0.0000   0.0000   0.0000   0.2416
  -8.800  -0.9718   0.01690   0.01073   0.0043  1.0000  0.0267  -3.6852   0.0000   0.0000   0.0000   0.2431
  -8.700  -0.9682   0.01666   0.01047   0.0056  1.0000  0.0269  -3.6557   0.0000   0.0000   0.0000   0.2446
  -8.600  -0.9648   0.01644   0.01021   0.0070  1.0000  0.0271  -3.6262   0.0000   0.0000   0.0000   0.2461
  -8.500  -0.9616   0.01623   0.00998   0.0083  1.0000  0.0273  -3.5974   0.0000   0.0000   0.0000   0.2477
  -8.400  -0.9513   0.01595   0.00965   0.0083  0.9995  0.0276  -3.5528   0.0000   0.0000   0.0000   0.2479
  -8.300  -0.9405   0.01567   0.00933   0.0082  0.9989  0.0280  -3.5066   0.0000   0.0000   0.0000   0.2479
  -8.200  -0.9294   0.01541   0.00903   0.0080  0.9983  0.0284  -3.4596   0.0000   0.0000   0.0000   0.2480
  -8.100  -0.9182   0.01516   0.00874   0.0078  0.9975  0.0290  -3.4117   0.0000   0.0000   0.0000   0.2480
  -8.000  -0.9070   0.01492   0.00846   0.0076  0.9967  0.0298  -3.3618   0.0000   0.0000   0.0000   0.2480
  -7.900  -0.8959   0.01463   0.00792   0.0075  0.9957  0.0338  -3.2888   0.0000   0.0000   0.0000   0.2480
  -7.800  -0.8840   0.01446   0.00772   0.0072  0.9948  0.0338  -3.2406   0.0000   0.0000   0.0000   0.2479
  -7.700  -0.8718   0.01428   0.00752   0.0068  0.9937  0.0338  -3.1921   0.0000   0.0000   0.0000   0.2477
  -7.600  -0.8593   0.01411   0.00733   0.0064  0.9925  0.0338  -3.1434   0.0000   0.0000   0.0000   0.2475
  -7.500  -0.8466   0.01395   0.00714   0.0060  0.9912  0.0338  -3.0945   0.0000   0.0000   0.0000   0.2472
  -7.400  -0.8337   0.01378   0.00695   0.0055  0.9897  0.0339  -3.0456   0.0000   0.0000   0.0000   0.2468
  -7.300  -0.8206   0.01362   0.00676   0.0050  0.9881  0.0340  -2.9969   0.0000   0.0000   0.0000   0.2464
  -7.200  -0.8075   0.01346   0.00658   0.0045  0.9865  0.0341  -2.9487   0.0000   0.0000   0.0000   0.2460
  -7.100  -0.7943   0.01331   0.00640   0.0040  0.9848  0.0344  -2.9012   0.0000   0.0000   0.0000   0.2455
  -7.000  -0.7813   0.01316   0.00623   0.0035  0.9831  0.0347  -2.8550   0.0000   0.0000   0.0000   0.2451
  -6.900  -0.7685   0.01301   0.00605   0.0031  0.9814  0.0352  -2.8109   0.0000   0.0000   0.0000   0.2447
  -6.800  -0.7559   0.01285   0.00587   0.0027  0.9798  0.0363  -2.7705   0.0000   0.0000   0.0000   0.2444
  -6.700  -0.7448   0.01245   0.00556   0.0027  0.9778  0.0449  -2.7592   0.0000   0.0000   0.0000   0.2444
  -6.600  -0.7335   0.01211   0.00536   0.0024  0.9759  0.0591  -2.7204   0.0000   0.0000   0.0000   0.2442
  -6.500  -0.7223   0.01176   0.00513   0.0021  0.9740  0.0731  -2.6744   0.0000   0.0000   0.0000   0.2439
  -6.400  -0.7103   0.01150   0.00499   0.0017  0.9723  0.0843  -2.6260   0.0000   0.0000   0.0000   0.2434
  -6.300  -0.6983   0.01124   0.00484   0.0012  0.9706  0.0936  -2.5768   0.0000   0.0000   0.0000   0.2429
  -6.200  -0.6852   0.01109   0.00473   0.0006  0.9691  0.0987  -2.5249   0.0000   0.0000   0.0000   0.2422
  -6.100  -0.6716   0.01099   0.00465   0.0000  0.9678  0.1048  -2.4723   0.0000   0.0000   0.0000   0.2413
  -6.000  -0.6581   0.01086   0.00455  -0.0006  0.9664  0.1151  -2.4202   0.0000   0.0000   0.0000   0.2405
  -5.900  -0.6448   0.01069   0.00444  -0.0012  0.9650  0.1239  -2.3688   0.0000   0.0000   0.0000   0.2396
  -5.800  -0.6315   0.01051   0.00435  -0.0019  0.9636  0.1327  -2.3175   0.0000   0.0000   0.0000   0.2386
  -5.700  -0.6179   0.01037   0.00426  -0.0025  0.9622  0.1397  -2.2657   0.0000   0.0000   0.0000   0.2375
  -5.600  -0.6039   0.01026   0.00418  -0.0032  0.9607  0.1442  -2.2135   0.0000   0.0000   0.0000   0.2363
  -5.500  -0.5895   0.01017   0.00410  -0.0040  0.9591  0.1476  -2.1608   0.0000   0.0000   0.0000   0.2349
  -5.400  -0.5748   0.01008   0.00403  -0.0048  0.9572  0.1507  -2.1078   0.0000   0.0000   0.0000   0.2333
  -5.300  -0.5601   0.00998   0.00395  -0.0057  0.9549  0.1608  -2.0552   0.0000   0.0000   0.0000   0.2316
  -5.200  -0.5459   0.00984   0.00386  -0.0065  0.9517  0.1712  -2.0041   0.0000   0.0000   0.0000   0.2299
  -5.100  -0.5346   0.00970   0.00379  -0.0066  0.9491  0.1796  -1.9590   0.0000   0.0000   0.0000   0.2295
  -5.000  -0.5251   0.00957   0.00370  -0.0063  0.9470  0.1864  -1.9176   0.0000   0.0000   0.0000   0.2300
  -4.900  -0.5151   0.00946   0.00362  -0.0061  0.9445  0.1919  -1.8755   0.0000   0.0000   0.0000   0.2303
  -4.800  -0.5047   0.00937   0.00355  -0.0059  0.9417  0.1960  -1.8329   0.0000   0.0000   0.0000   0.2304
  -4.700  -0.4940   0.00930   0.00348  -0.0058  0.9390  0.1990  -1.7900   0.0000   0.0000   0.0000   0.2304
  -4.600  -0.4832   0.00921   0.00341  -0.0058  0.9360  0.2054  -1.7473   0.0000   0.0000   0.0000   0.2303
  -4.500  -0.4726   0.00909   0.00333  -0.0057  0.9329  0.2157  -1.7052   0.0000   0.0000   0.0000   0.2303
  -4.400  -0.4618   0.00894   0.00324  -0.0057  0.9295  0.2249  -1.6632   0.0000   0.0000   0.0000   0.2300
  -4.300  -0.4506   0.00881   0.00317  -0.0057  0.9261  0.2331  -1.6207   0.0000   0.0000   0.0000   0.2297
  -4.200  -0.4390   0.00869   0.00310  -0.0059  0.9226  0.2399  -1.5776   0.0000   0.0000   0.0000   0.2291
  -4.100  -0.4271   0.00860   0.00302  -0.0061  0.9190  0.2451  -1.5343   0.0000   0.0000   0.0000   0.2283
  -4.000  -0.4150   0.00852   0.00296  -0.0063  0.9152  0.2489  -1.4911   0.0000   0.0000   0.0000   0.2275
  -3.900  -0.4033   0.00843   0.00288  -0.0064  0.9108  0.2560  -1.4488   0.0000   0.0000   0.0000   0.2267
  -3.800  -0.3922   0.00828   0.00280  -0.0065  0.9055  0.2668  -1.4081   0.0000   0.0000   0.0000   0.2261
  -3.700  -0.3812   0.00814   0.00273  -0.0066  0.8999  0.2761  -1.3679   0.0000   0.0000   0.0000   0.2255
  -3.600  -0.3715   0.00803   0.00268  -0.0063  0.8986  0.2838  -1.3303   0.0000   0.0000   0.0000   0.2258
  -3.500  -0.3615   0.00796   0.00265  -0.0061  0.8970  0.2900  -1.2924   0.0000   0.0000   0.0000   0.2260
  -3.400  -0.3513   0.00790   0.00261  -0.0059  0.8949  0.2946  -1.2543   0.0000   0.0000   0.0000   0.2261
  -3.300  -0.3410   0.00785   0.00258  -0.0057  0.8922  0.2980  -1.2164   0.0000   0.0000   0.0000   0.2261
  -3.200  -0.3306   0.00781   0.00255  -0.0056  0.8887  0.3018  -1.1786   0.0000   0.0000   0.0000   0.2261
  -3.100  -0.3202   0.00776   0.00251  -0.0054  0.8841  0.3119  -1.1412   0.0000   0.0000   0.0000   0.2261
  -3.000  -0.3100   0.00769   0.00246  -0.0052  0.8783  0.3241  -1.1043   0.0000   0.0000   0.0000   0.2262
  -2.900  -0.2998   0.00761   0.00242  -0.0050  0.8714  0.3358  -1.0678   0.0000   0.0000   0.0000   0.2264
  -2.800  -0.2896   0.00752   0.00237  -0.0048  0.8636  0.3467  -1.0318   0.0000   0.0000   0.0000   0.2266
  -2.700  -0.2795   0.00743   0.00232  -0.0046  0.8555  0.3568  -0.9959   0.0000   0.0000   0.0000   0.2267
  -2.600  -0.2692   0.00734   0.00226  -0.0044  0.8472  0.3665  -0.9602   0.0000   0.0000   0.0000   0.2268
  -2.500  -0.2589   0.00728   0.00221  -0.0042  0.8381  0.3750  -0.9246   0.0000   0.0000   0.0000   0.2268
  -2.400  -0.2484   0.00723   0.00217  -0.0041  0.8275  0.3818  -0.8992   0.0000   0.0000   0.0000   0.2268
  -2.300  -0.2375   0.00720   0.00214  -0.0040  0.8159  0.3876  -0.8780   0.0000   0.0000   0.0000   0.2262
  -2.200  -0.2261   0.00718   0.00212  -0.0041  0.8048  0.3925  -0.8565   0.0000   0.0000   0.0000   0.2251
  -2.100  -0.2149   0.00715   0.00210  -0.0041  0.7993  0.3960  -0.8381   0.0000   0.0000   0.0000   0.2240
  -2.000  -0.2040   0.00712   0.00208  -0.0041  0.7975  0.3986  -0.8208   0.0000   0.0000   0.0000   0.2233
  -1.900  -0.1932   0.00710   0.00206  -0.0040  0.7949  0.4027  -0.8036   0.0000   0.0000   0.0000   0.2225
  -1.800  -0.1826   0.00705   0.00204  -0.0039  0.7911  0.4150  -0.7868   0.0000   0.0000   0.0000   0.2220
  -1.700  -0.1724   0.00700   0.00202  -0.0037  0.7861  0.4297  -0.7702   0.0000   0.0000   0.0000   0.2218
  -1.600  -0.1624   0.00692   0.00200  -0.0035  0.7798  0.4435  -0.7540   0.0000   0.0000   0.0000   0.2219
  -1.500  -0.1525   0.00684   0.00197  -0.0032  0.7724  0.4562  -0.7378   0.0000   0.0000   0.0000   0.2222
  -1.400  -0.1424   0.00678   0.00195  -0.0030  0.7646  0.4680  -0.7215   0.0000   0.0000   0.0000   0.2224
  -1.300  -0.1322   0.00674   0.00192  -0.0028  0.7558  0.4778  -0.7052   0.0000   0.0000   0.0000   0.2223
  -1.200  -0.1218   0.00674   0.00188  -0.0026  0.7449  0.4851  -0.6888   0.0000   0.0000   0.0000   0.2221
  -1.100  -0.1115   0.00675   0.00185  -0.0024  0.7303  0.4903  -0.6725   0.0000   0.0000   0.0000   0.2220
  -1.000  -0.1008   0.00678   0.00182  -0.0023  0.7119  0.4944  -0.6560   0.0000   0.0000   0.0000   0.2208
  -0.900  -0.0896   0.00679   0.00182  -0.0023  0.6993  0.4977  -0.6392   0.0000   0.0000   0.0000   0.2178
  -0.800  -0.0786   0.00677   0.00181  -0.0022  0.6957  0.5010  -0.6231   0.0000   0.0000   0.0000   0.2148
  -0.700  -0.0682   0.00674   0.00179  -0.0021  0.6891  0.5154  -0.6093   0.0000   0.0000   0.0000   0.2127
  -0.600  -0.0583   0.00672   0.00178  -0.0018  0.6785  0.5313  -0.5959   0.0000   0.0000   0.0000   0.2122
  -0.500  -0.0490   0.00670   0.00177  -0.0014  0.6634  0.5451  -0.5829   0.0000   0.0000   0.0000   0.2145
  -0.400  -0.0402   0.00671   0.00175  -0.0009  0.6457  0.5575  -0.5703   0.0000   0.0000   0.0000   0.2207
  -0.300  -0.0313   0.00674   0.00174  -0.0004  0.6252  0.5686  -0.5577   0.0000   0.0000   0.0000   0.2299
  -0.200  -0.0216   0.00675   0.00173  -0.0001  0.6042  0.5783  -0.5461   0.0000   0.0000   0.0000   0.2369
  -0.100  -0.0109   0.00674   0.00174  -0.0001  0.5975  0.5864  -0.5353   0.0000   0.0000   0.0000   0.2382
   0.000  -0.0000   0.00673   0.00174   0.0000  0.5926  0.5926  -0.5244   0.0000   0.0000   0.0000   0.4688
   0.100   0.0109   0.00674   0.00174   0.0001  0.5864  0.5975  -0.5353   0.0000   0.0000   0.0000   0.2382
   0.200   0.0216   0.00675   0.00173   0.0001  0.5783  0.6042  -0.5461   0.0000   0.0000   0.0000   0.2369
   0.300   0.0313   0.00674   0.00174   0.0004  0.5686  0.6252  -0.5577   0.0000   0.0000   0.0000   0.2299
   0.400   0.0402   0.00671   0.00175   0.0009  0.5575  0.6457  -0.5703   0.0000   0.0000   0.0000   0.2207
   0.500   0.0490   0.00670   0.00177   0.0014  0.5451  0.6634  -0.5829   0.0000   0.0000   0.0000   0.2145
   0.600   0.0583   0.00672   0.00178   0.0018  0.5313  0.6785  -0.5959   0.0000   0.0000   0.0000   0.2122
   0.700   0.0682   0.00674   0.00179   0.0021  0.5154  0.6891  -0.6093   0.0000   0.0000   0.0000   0.2128
   0.800   0.0786   0.00677   0.00181   0.0022  0.5010  0.6957  -0.6231   0.0000   0.0000   0.0000   0.2148
   0.900   0.0896   0.00679   0.00182   0.0023  0.4977  0.6993  -0.6392   0.0000   0.0000   0.0000   0.2178
   1.000   0.1008   0.00678   0.00182   0.0023  0.4944  0.7119  -0.6560   0.0000   0.0000   0.0000   0.2208
   1.100   0.1115   0.00675   0.00185   0.0024  0.4903  0.7303  -0.6725   0.0000   0.0000   0.0000   0.2220
   1.200   0.1218   0.00674   0.00188   0.0026  0.4851  0.7449  -0.6888   0.0000   0.0000   0.0000   0.2221
   1.300   0.1322   0.00674   0.00192   0.0028  0.4778  0.7558  -0.7052   0.0000   0.0000   0.0000   0.2223
   1.400   0.1424   0.00678   0.00195   0.0030  0.4680  0.7646  -0.7216   0.0000   0.0000   0.0000   0.2224
   1.500   0.1525   0.00684   0.00197   0.0032  0.4562  0.7724  -0.7378   0.0000   0.0000   0.0000   0.2223
   1.600   0.1624   0.00692   0.00200   0.0035  0.4435  0.7798  -0.7540   0.0000   0.0000   0.0000   0.2219
   1.700   0.1724   0.00700   0.00202   0.0037  0.4297  0.7861  -0.7702   0.0000   0.0000   0.0000   0.2218
   1.800   0.1826   0.00705   0.00204   0.0039  0.4150  0.7912  -0.7868   0.0000   0.0000   0.0000   0.2220
   1.900   0.1932   0.00710   0.00206   0.0040  0.4027  0.7949  -0.8036   0.0000   0.0000   0.0000   0.2225
   2.000   0.2040   0.00712   0.00208   0.0041  0.3986  0.7975  -0.8208   0.0000   0.0000   0.0000   0.2233
   2.100   0.2149   0.00715   0.00210   0.0041  0.3960  0.7993  -0.8381   0.0000   0.0000   0.0000   0.2240
   2.200   0.2262   0.00718   0.00212   0.0041  0.3925  0.8048  -0.8565   0.0000   0.0000   0.0000   0.2251
   2.300   0.2375   0.00720   0.00214   0.0040  0.3876  0.8159  -0.8780   0.0000   0.0000   0.0000   0.2263
   2.400   0.2484   0.00723   0.00217   0.0041  0.3818  0.8275  -0.8992   0.0000   0.0000   0.0000   0.2268
   2.500   0.2589   0.00728   0.00221   0.0042  0.3750  0.8381  -0.9246   0.0000   0.0000   0.0000   0.2269
   2.600   0.2692   0.00734   0.00226   0.0044  0.3664  0.8472  -0.9602   0.0000   0.0000   0.0000   0.2268
   2.700   0.2795   0.00743   0.00232   0.0046  0.3568  0.8555  -0.9959   0.0000   0.0000   0.0000   0.2267
   2.800   0.2897   0.00752   0.00237   0.0048  0.3467  0.8636  -1.0318   0.0000   0.0000   0.0000   0.2266
   2.900   0.2998   0.00761   0.00242   0.0050  0.3358  0.8714  -1.0679   0.0000   0.0000   0.0000   0.2264
   3.000   0.3100   0.00769   0.00246   0.0052  0.3241  0.8783  -1.1044   0.0000   0.0000   0.0000   0.2262
   3.100   0.3203   0.00775   0.00251   0.0054  0.3119  0.8841  -1.1413   0.0000   0.0000   0.0000   0.2262
   3.200   0.3306   0.00781   0.00255   0.0056  0.3018  0.8887  -1.1786   0.0000   0.0000   0.0000   0.2261
   3.300   0.3410   0.00785   0.00258   0.0057  0.2980  0.8922  -1.2164   0.0000   0.0000   0.0000   0.2261
   3.400   0.3514   0.00790   0.00261   0.0059  0.2946  0.8949  -1.2544   0.0000   0.0000   0.0000   0.2261
   3.500   0.3616   0.00796   0.00265   0.0061  0.2900  0.8970  -1.2924   0.0000   0.0000   0.0000   0.2260
   3.600   0.3716   0.00803   0.00268   0.0063  0.2838  0.8986  -1.3304   0.0000   0.0000   0.0000   0.2258
   3.700   0.3812   0.00814   0.00273   0.0066  0.2761  0.8999  -1.3679   0.0000   0.0000   0.0000   0.2255
   3.800   0.3922   0.00828   0.00280   0.0065  0.2668  0.9055  -1.4082   0.0000   0.0000   0.0000   0.2261
   3.900   0.4033   0.00843   0.00288   0.0064  0.2560  0.9108  -1.4488   0.0000   0.0000   0.0000   0.2267
   4.000   0.4151   0.00852   0.00296   0.0063  0.2489  0.9152  -1.4911   0.0000   0.0000   0.0000   0.2275
   4.100   0.4271   0.00860   0.00302   0.0061  0.2451  0.9190  -1.5344   0.0000   0.0000   0.0000   0.2283
   4.200   0.4391   0.00869   0.00309   0.0059  0.2399  0.9226  -1.5777   0.0000   0.0000   0.0000   0.2291
   4.300   0.4507   0.00881   0.00317   0.0057  0.2331  0.9261  -1.6207   0.0000   0.0000   0.0000   0.2297
   4.400   0.4618   0.00894   0.00324   0.0057  0.2249  0.9295  -1.6632   0.0000   0.0000   0.0000   0.2301
   4.500   0.4726   0.00909   0.00333   0.0057  0.2157  0.9329  -1.7053   0.0000   0.0000   0.0000   0.2303
   4.600   0.4833   0.00921   0.00341   0.0057  0.2054  0.9361  -1.7474   0.0000   0.0000   0.0000   0.2303
   4.700   0.4940   0.00930   0.00348   0.0058  0.1990  0.9390  -1.7901   0.0000   0.0000   0.0000   0.2304
   4.800   0.5047   0.00937   0.00355   0.0059  0.1960  0.9418  -1.8330   0.0000   0.0000   0.0000   0.2304
   4.900   0.5151   0.00946   0.00362   0.0060  0.1919  0.9445  -1.8756   0.0000   0.0000   0.0000   0.2303
   5.000   0.5251   0.00957   0.00370   0.0063  0.1864  0.9470  -1.9176   0.0000   0.0000   0.0000   0.2300
   5.100   0.5346   0.00970   0.00378   0.0066  0.1796  0.9491  -1.9591   0.0000   0.0000   0.0000   0.2295
   5.200   0.5459   0.00984   0.00386   0.0065  0.1712  0.9518  -2.0043   0.0000   0.0000   0.0000   0.2300
   5.300   0.5602   0.00998   0.00395   0.0057  0.1608  0.9549  -2.0554   0.0000   0.0000   0.0000   0.2316
   5.400   0.5749   0.01008   0.00403   0.0048  0.1506  0.9572  -2.1080   0.0000   0.0000   0.0000   0.2334
   5.500   0.5896   0.01017   0.00410   0.0040  0.1476  0.9591  -2.1610   0.0000   0.0000   0.0000   0.2349
   5.600   0.6040   0.01026   0.00417   0.0032  0.1442  0.9608  -2.2137   0.0000   0.0000   0.0000   0.2363
   5.700   0.6180   0.01037   0.00425   0.0025  0.1397  0.9623  -2.2659   0.0000   0.0000   0.0000   0.2375
   5.800   0.6316   0.01051   0.00434   0.0018  0.1327  0.9637  -2.3177   0.0000   0.0000   0.0000   0.2386
   5.900   0.6449   0.01069   0.00444   0.0012  0.1239  0.9651  -2.3690   0.0000   0.0000   0.0000   0.2396
   6.000   0.6582   0.01085   0.00454   0.0006  0.1150  0.9665  -2.4205   0.0000   0.0000   0.0000   0.2405
   6.100   0.6717   0.01099   0.00464  -0.0000  0.1048  0.9678  -2.4726   0.0000   0.0000   0.0000   0.2414
   6.200   0.6853   0.01109   0.00473  -0.0007  0.0986  0.9692  -2.5252   0.0000   0.0000   0.0000   0.2422
   6.300   0.6984   0.01123   0.00484  -0.0012  0.0936  0.9707  -2.5770   0.0000   0.0000   0.0000   0.2430
   6.400   0.7105   0.01150   0.00498  -0.0017  0.0842  0.9724  -2.6263   0.0000   0.0000   0.0000   0.2435
   6.500   0.7225   0.01176   0.00513  -0.0021  0.0730  0.9741  -2.6747   0.0000   0.0000   0.0000   0.2439
   6.600   0.7336   0.01211   0.00535  -0.0024  0.0590  0.9760  -2.7206   0.0000   0.0000   0.0000   0.2442
   6.700   0.7449   0.01245   0.00556  -0.0027  0.0448  0.9779  -2.7594   0.0000   0.0000   0.0000   0.2445
   6.800   0.7560   0.01285   0.00587  -0.0028  0.0363  0.9799  -2.7708   0.0000   0.0000   0.0000   0.2444
   6.900   0.7687   0.01300   0.00605  -0.0031  0.0352  0.9815  -2.8112   0.0000   0.0000   0.0000   0.2448
   7.000   0.7815   0.01315   0.00623  -0.0036  0.0347  0.9832  -2.8554   0.0000   0.0000   0.0000   0.2451
   7.100   0.7945   0.01330   0.00640  -0.0040  0.0344  0.9849  -2.9016   0.0000   0.0000   0.0000   0.2456
   7.200   0.8077   0.01346   0.00658  -0.0046  0.0341  0.9866  -2.9491   0.0000   0.0000   0.0000   0.2460
   7.300   0.8209   0.01361   0.00676  -0.0051  0.0340  0.9883  -2.9974   0.0000   0.0000   0.0000   0.2465
   7.400   0.8339   0.01378   0.00694  -0.0056  0.0339  0.9898  -3.0461   0.0000   0.0000   0.0000   0.2469
   7.500   0.8469   0.01394   0.00713  -0.0060  0.0338  0.9913  -3.0950   0.0000   0.0000   0.0000   0.2472
   7.600   0.8596   0.01411   0.00732  -0.0065  0.0338  0.9926  -3.1439   0.0000   0.0000   0.0000   0.2475
   7.700   0.8721   0.01428   0.00752  -0.0069  0.0338  0.9938  -3.1927   0.0000   0.0000   0.0000   0.2478
   7.800   0.8843   0.01445   0.00771  -0.0072  0.0338  0.9949  -3.2412   0.0000   0.0000   0.0000   0.2480
   7.900   0.8962   0.01463   0.00792  -0.0075  0.0338  0.9958  -3.2894   0.0000   0.0000   0.0000   0.2481
   8.000   0.9073   0.01491   0.00845  -0.0077  0.0298  0.9968  -3.3625   0.0000   0.0000   0.0000   0.2481
   8.100   0.9186   0.01515   0.00874  -0.0079  0.0290  0.9976  -3.4124   0.0000   0.0000   0.0000   0.2481
   8.200   0.9298   0.01540   0.00903  -0.0081  0.0284  0.9983  -3.4604   0.0000   0.0000   0.0000   0.2481
   8.300   0.9408   0.01567   0.00933  -0.0082  0.0280  0.9990  -3.5074   0.0000   0.0000   0.0000   0.2480
   8.400   0.9517   0.01594   0.00964  -0.0084  0.0276  0.9996  -3.5536   0.0000   0.0000   0.0000   0.2480
   8.500   0.9611   0.01622   0.00996  -0.0083  0.0273  1.0000  -3.5963   0.0000   0.0000   0.0000   0.2476
   8.600   0.9644   0.01642   0.01020  -0.0069  0.0271  1.0000  -3.6254   0.0000   0.0000   0.0000   0.2460
   8.700   0.9679   0.01665   0.01045  -0.0056  0.0269  1.0000  -3.6550   0.0000   0.0000   0.0000   0.2445
   8.800   0.9715   0.01688   0.01072  -0.0043  0.0267  1.0000  -3.6846   0.0000   0.0000   0.0000   0.2430
   8.900   0.9750   0.01713   0.01100  -0.0029  0.0266  1.0000  -3.7137   0.0000   0.0000   0.0000   0.2415
   9.000   0.9782   0.01739   0.01129  -0.0016  0.0264  1.0000  -3.7423   0.0000   0.0000   0.0000   0.2400
   9.100   0.9813   0.01765   0.01159  -0.0002  0.0263  1.0000  -3.7702   0.0000   0.0000   0.0000   0.2384
   9.200   0.9842   0.01793   0.01190   0.0013  0.0261  1.0000  -3.7975   0.0000   0.0000   0.0000   0.2368
   9.300   0.9869   0.01821   0.01222   0.0027  0.0260  1.0000  -3.8243   0.0000   0.0000   0.0000   0.2352
   9.400   0.9896   0.01851   0.01255   0.0041  0.0259  1.0000  -3.8508   0.0000   0.0000   0.0000   0.2337
   9.500   0.9923   0.01883   0.01290   0.0056  0.0258  1.0000  -3.8770   0.0000   0.0000   0.0000   0.2321
   9.600   0.9949   0.01916   0.01327   0.0070  0.0256  1.0000  -3.9028   0.0000   0.0000   0.0000   0.2305
   9.700   0.9976   0.01951   0.01366   0.0084  0.0255  1.0000  -3.9282   0.0000   0.0000   0.0000   0.2290
   9.800   1.0001   0.01988   0.01406   0.0098  0.0254  1.0000  -3.9532   0.0000   0.0000   0.0000   0.2275
   9.900   1.0026   0.02027   0.01449   0.0112  0.0253  1.0000  -3.9776   0.0000   0.0000   0.0000   0.2260
  10.000   1.0052   0.02069   0.01495   0.0125  0.0252  1.0000  -4.0017   0.0000   0.0000   0.0000   0.2246
  10.100   1.0080   0.02113   0.01544   0.0138  0.0251  1.0000  -4.0257   0.0000   0.0000   0.0000   0.2232
  10.200   1.0110   0.02162   0.01597   0.0150  0.0250  1.0000  -4.0493   0.0000   0.0000   0.0000   0.2219
  10.300   1.0171   0.02175   0.01609   0.0157  0.0250  1.0000  -4.0976   0.0000   0.0000   0.0000   0.2212
  10.400   1.0241   0.02178   0.01611   0.0163  0.0250  1.0000  -4.1530   0.0000   0.0000   0.0000   0.2205
  10.500   1.0309   0.02184   0.01616   0.0169  0.0249  1.0000  -4.2074   0.0000   0.0000   0.0000   0.2199
  10.600   1.0377   0.02191   0.01622   0.0175  0.0249  1.0000  -4.2616   0.0000   0.0000   0.0000   0.2193
  10.700   1.0446   0.02199   0.01630   0.0181  0.0249  1.0000  -4.3160   0.0000   0.0000   0.0000   0.2187
  10.800   1.0517   0.02208   0.01639   0.0186  0.0248  1.0000  -4.3708   0.0000   0.0000   0.0000   0.2181
  10.900   1.0589   0.02218   0.01648   0.0191  0.0248  1.0000  -4.4261   0.0000   0.0000   0.0000   0.2176
  11.000   1.0661   0.02228   0.01659   0.0196  0.0248  1.0000  -4.4817   0.0000   0.0000   0.0000   0.2172
  11.100   1.0734   0.02239   0.01670   0.0201  0.0247  1.0000  -4.5377   0.0000   0.0000   0.0000   0.2167
  11.200   1.0808   0.02251   0.01681   0.0205  0.0247  1.0000  -4.5940   0.0000   0.0000   0.0000   0.2163
  11.300   1.0881   0.02264   0.01693   0.0209  0.0247  1.0000  -4.6506   0.0000   0.0000   0.0000   0.2159
  11.800   1.0680   0.02887   0.02384   0.0293  0.0252  1.0000  -4.5011   0.0000   0.0000   0.0000   0.2068
  11.900   1.0750   0.02893   0.02389   0.0297  0.0254  1.0000  -4.5508   0.0000   0.0000   0.0000   0.2065
  12.000   1.0774   0.02948   0.02448   0.0304  0.0255  1.0000  -4.5769   0.0000   0.0000   0.0000   0.2057
  12.100   1.0792   0.03015   0.02519   0.0311  0.0255  1.0000  -4.5990   0.0000   0.0000   0.0000   0.2049
  12.200   1.0807   0.03089   0.02598   0.0318  0.0254  1.0000  -4.6187   0.0000   0.0000   0.0000   0.2041
  12.300   1.0818   0.03169   0.02684   0.0325  0.0254  1.0000  -4.6361   0.0000   0.0000   0.0000   0.2033
  12.400   1.0825   0.03255   0.02776   0.0332  0.0253  1.0000  -4.6511   0.0000   0.0000   0.0000   0.2026
  12.500   1.0827   0.03348   0.02875   0.0338  0.0253  1.0000  -4.6638   0.0000   0.0000   0.0000   0.2018
  12.600   1.0823   0.03446   0.02980   0.0345  0.0252  1.0000  -4.6739   0.0000   0.0000   0.0000   0.2010
  12.700   1.0812   0.03552   0.03093   0.0351  0.0252  1.0000  -4.6814   0.0000   0.0000   0.0000   0.2002
  12.800   1.0792   0.03664   0.03212   0.0357  0.0251  1.0000  -4.6858   0.0000   0.0000   0.0000   0.1994
  12.900   1.0751   0.03787   0.03343   0.0362  0.0251  1.0000  -4.6845   0.0000   0.0000   0.0000   0.1985
  13.000   1.0708   0.03911   0.03474   0.0367  0.0250  1.0000  -4.6822   0.0000   0.0000   0.0000   0.1977
  13.200   1.0939   0.03829   0.03380   0.0364  0.0249  1.0000  -4.8643   0.0000   0.0000   0.0000   0.1984
  13.300   1.1047   0.03800   0.03347   0.0362  0.0248  1.0000  -4.9502   0.0000   0.0000   0.0000   0.1986
  13.400   1.1142   0.03788   0.03332   0.0361  0.0248  1.0000  -5.0281   0.0000   0.0000   0.0000   0.1988
  13.500   1.1230   0.03783   0.03324   0.0361  0.0247  1.0000  -5.1026   0.0000   0.0000   0.0000   0.1990
  13.600   1.1316   0.03783   0.03322   0.0360  0.0247  1.0000  -5.1755   0.0000   0.0000   0.0000   0.1991
  13.700   1.1400   0.03786   0.03323   0.0359  0.0246  1.0000  -5.2474   0.0000   0.0000   0.0000   0.1992
  13.800   1.1482   0.03792   0.03327   0.0359  0.0246  1.0000  -5.3187   0.0000   0.0000   0.0000   0.1993
  13.900   1.1564   0.03801   0.03334   0.0358  0.0245  1.0000  -5.3896   0.0000   0.0000   0.0000   0.1994
  14.000   1.1644   0.03812   0.03343   0.0357  0.0245  1.0000  -5.4601   0.0000   0.0000   0.0000   0.1995
  14.100   1.1722   0.03825   0.03355   0.0356  0.0244  1.0000  -5.5302   0.0000   0.0000   0.0000   0.1995
  14.200   1.1800   0.03840   0.03369   0.0355  0.0244  1.0000  -5.5998   0.0000   0.0000   0.0000   0.1996
  14.300   1.1873   0.03861   0.03388   0.0354  0.0243  1.0000  -5.6677   0.0000   0.0000   0.0000   0.1997
  14.400   1.1921   0.03910   0.03437   0.0352  0.0242  1.0000  -5.7230   0.0000   0.0000   0.0000   0.1998
  14.500   1.1963   0.03966   0.03493   0.0350  0.0242  1.0000  -5.7756   0.0000   0.0000   0.0000   0.1998
  14.600   1.2022   0.04007   0.03533   0.0348  0.0241  1.0000  -5.8366   0.0000   0.0000   0.0000   0.1999
  14.700   1.2088   0.04040   0.03566   0.0347  0.0241  1.0000  -5.9013   0.0000   0.0000   0.0000   0.2000
  14.800   1.2157   0.04072   0.03596   0.0345  0.0240  1.0000  -5.9676   0.0000   0.0000   0.0000   0.2001
  14.900   1.2228   0.04103   0.03625   0.0343  0.0239  1.0000  -6.0345   0.0000   0.0000   0.0000   0.2002
  15.000   1.2298   0.04134   0.03656   0.0342  0.0238  1.0000  -6.1015   0.0000   0.0000   0.0000   0.2003
  15.100   1.2367   0.04167   0.03687   0.0340  0.0237  1.0000  -6.1682   0.0000   0.0000   0.0000   0.2003
  15.200   1.2435   0.04202   0.03721   0.0339  0.0236  1.0000  -6.2339   0.0000   0.0000   0.0000   0.2004
  15.300   1.2500   0.04239   0.03759   0.0337  0.0235  1.0000  -6.2984   0.0000   0.0000   0.0000   0.2005
  15.400   1.2563   0.04280   0.03799   0.0336  0.0234  1.0000  -6.3616   0.0000   0.0000   0.0000   0.2005
  15.500   1.2623   0.04325   0.03843   0.0334  0.0233  1.0000  -6.4233   0.0000   0.0000   0.0000   0.2005
  15.600   1.2679   0.04374   0.03893   0.0332  0.0232  1.0000  -6.4830   0.0000   0.0000   0.0000   0.2006
  15.700   1.2731   0.04429   0.03948   0.0331  0.0231  1.0000  -6.5403   0.0000   0.0000   0.0000   0.2006
  15.800   1.2775   0.04494   0.04013   0.0328  0.0230  1.0000  -6.5934   0.0000   0.0000   0.0000   0.2006
  15.900   1.2745   0.04659   0.04182   0.0321  0.0229  1.0000  -6.6063   0.0000   0.0000   0.0000   0.2009
  16.000   1.2765   0.04758   0.04283   0.0317  0.0228  1.0000  -6.6460   0.0000   0.0000   0.0000   0.2010
  16.100   1.2801   0.04837   0.04363   0.0314  0.0227  1.0000  -6.6937   0.0000   0.0000   0.0000   0.2010
  16.200   1.2839   0.04910   0.04436   0.0312  0.0226  1.0000  -6.7434   0.0000   0.0000   0.0000   0.2011
  16.300   1.2879   0.04982   0.04509   0.0309  0.0224  1.0000  -6.7936   0.0000   0.0000   0.0000   0.2011
  16.400   1.2917   0.05054   0.04582   0.0307  0.0223  1.0000  -6.8431   0.0000   0.0000   0.0000   0.2011
  16.500   1.2954   0.05129   0.04658   0.0305  0.0221  1.0000  -6.8914   0.0000   0.0000   0.0000   0.2011
  16.600   1.2988   0.05208   0.04738   0.0303  0.0220  1.0000  -6.9383   0.0000   0.0000   0.0000   0.2011
  16.700   1.3017   0.05293   0.04823   0.0300  0.0218  1.0000  -6.9827   0.0000   0.0000   0.0000   0.2011
  16.800   1.3041   0.05385   0.04916   0.0297  0.0217  1.0000  -7.0239   0.0000   0.0000   0.0000   0.2012
  16.900   1.3058   0.05488   0.05022   0.0293  0.0215  1.0000  -7.0610   0.0000   0.0000   0.0000   0.2012
  17.000   1.3058   0.05615   0.05151   0.0289  0.0214  1.0000  -7.0886   0.0000   0.0000   0.0000   0.2013
  17.100   1.2901   0.05981   0.05527   0.0270  0.0215  1.0000  -7.0249   0.0000   0.0000   0.0000   0.2021
  17.200   1.2904   0.06103   0.05651   0.0265  0.0213  1.0000  -7.0534   0.0000   0.0000   0.0000   0.2022
  17.300   1.2918   0.06212   0.05761   0.0261  0.0212  1.0000  -7.0882   0.0000   0.0000   0.0000   0.2023
  17.400   1.2935   0.06315   0.05866   0.0258  0.0210  1.0000  -7.1245   0.0000   0.0000   0.0000   0.2024
  17.500   1.2952   0.06417   0.05969   0.0254  0.0209  1.0000  -7.1611   0.0000   0.0000   0.0000   0.2024
  17.600   1.2967   0.06521   0.06074   0.0251  0.0207  1.0000  -7.1969   0.0000   0.0000   0.0000   0.2025
  17.700   1.2980   0.06627   0.06182   0.0247  0.0205  1.0000  -7.2313   0.0000   0.0000   0.0000   0.2025
  17.800   1.2989   0.06740   0.06296   0.0243  0.0204  1.0000  -7.2630   0.0000   0.0000   0.0000   0.2026
  17.900   1.2989   0.06862   0.06420   0.0239  0.0202  1.0000  -7.2898   0.0000   0.0000   0.0000   0.2027
  18.000   1.2978   0.07001   0.06562   0.0233  0.0201  1.0000  -7.3096   0.0000   0.0000   0.0000   0.2028
  18.100   1.2935   0.07188   0.06752   0.0226  0.0200  1.0000  -7.3098   0.0000   0.0000   0.0000   0.2031
  18.200   1.3176   0.07038   0.06578   0.0224  0.0174  1.0000  -7.5717   0.0000   0.0000   0.0000   0.2033
  18.300   1.2571   0.08008   0.07592   0.0185  0.0201  1.0000  -7.1343   0.0000   0.0000   0.0000   0.2050
  18.400   1.2575   0.08135   0.07720   0.0180  0.0199  1.0000  -7.1614   0.0000   0.0000   0.0000   0.2052
  18.500   1.2583   0.08255   0.07842   0.0175  0.0198  1.0000  -7.1909   0.0000   0.0000   0.0000   0.2053
  18.600   1.2593   0.08373   0.07960   0.0170  0.0196  1.0000  -7.2219   0.0000   0.0000   0.0000   0.2055
  18.700   1.2767   0.08296   0.07859   0.0167  0.0170  1.0000  -7.4486   0.0000   0.0000   0.0000   0.2057
  18.800   1.2756   0.08443   0.08004   0.0161  0.0166  1.0000  -7.4737   0.0000   0.0000   0.0000   0.2059
  18.900   1.2741   0.08597   0.08157   0.0154  0.0163  1.0000  -7.4939   0.0000   0.0000   0.0000   0.2061
  19.000   1.2721   0.08758   0.08318   0.0148  0.0160  1.0000  -7.5094   0.0000   0.0000   0.0000   0.2063
  19.100   1.2695   0.08930   0.08491   0.0141  0.0157  1.0000  -7.5195   0.0000   0.0000   0.0000   0.2066
  19.200   1.2661   0.09117   0.08679   0.0133  0.0154  1.0000  -7.5228   0.0000   0.0000   0.0000   0.2069
  19.300   1.2621   0.09325   0.08890   0.0123  0.0152  1.0000  -7.5196   0.0000   0.0000   0.0000   0.2074
  19.400   1.2495   0.09701   0.09274   0.0104  0.0152  1.0000  -7.4522   0.0000   0.0000   0.0000   0.2085
  19.500   1.2424   0.09969   0.09546   0.0091  0.0151  1.0000  -7.4241   0.0000   0.0000   0.0000   0.2093
  19.600   1.2368   0.10204   0.09785   0.0080  0.0149  1.0000  -7.4072   0.0000   0.0000   0.0000   0.2099
  19.700   1.2310   0.10442   0.10025   0.0068  0.0147  1.0000  -7.3881   0.0000   0.0000   0.0000   0.2105
  19.800   1.2241   0.10699   0.10287   0.0056  0.0146  1.0000  -7.3595   0.0000   0.0000   0.0000   0.2112
  19.900   1.2084   0.11127   0.10724   0.0033  0.0148  1.0000  -7.2620   0.0000   0.0000   0.0000   0.2128
  20.000   1.2008   0.11407   0.11008   0.0019  0.0147  1.0000  -7.2246   0.0000   0.0000   0.0000   0.2137
  20.100   1.1954   0.11643   0.11247   0.0007  0.0145  1.0000  -7.2034   0.0000   0.0000   0.0000   0.2144
  20.200   1.1902   0.11873   0.11479  -0.0005  0.0143  1.0000  -7.1835   0.0000   0.0000   0.0000   0.2151
  20.300   1.1845   0.12111   0.11720  -0.0017  0.0141  1.0000  -7.1585   0.0000   0.0000   0.0000   0.2159
  20.400   1.1774   0.12374   0.11988  -0.0031  0.0139  1.0000  -7.1213   0.0000   0.0000   0.0000   0.2168
  20.500   1.1520   0.12984   0.12613  -0.0065  0.0147  1.0000  -6.9301   0.0000   0.0000   0.0000   0.2196
  20.600   1.1431   0.13288   0.12922  -0.0082  0.0147  1.0000  -6.8727   0.0000   0.0000   0.0000   0.2209
  20.700   1.1377   0.13528   0.13164  -0.0095  0.0144  1.0000  -6.8442   0.0000   0.0000   0.0000   0.2219
  20.800   1.1331   0.13751   0.13389  -0.0108  0.0141  1.0000  -6.8218   0.0000   0.0000   0.0000   0.2228
  20.900   1.1287   0.13970   0.13610  -0.0120  0.0138  1.0000  -6.7997   0.0000   0.0000   0.0000   0.2236
  21.000   1.1241   0.14193   0.13835  -0.0133  0.0135  1.0000  -6.7744   0.0000   0.0000   0.0000   0.2246
  21.100   1.1185   0.14432   0.14078  -0.0147  0.0133  1.0000  -6.7399   0.0000   0.0000   0.0000   0.2256
  21.200   1.1109   0.14714   0.14365  -0.0164  0.0132  1.0000  -6.6839   0.0000   0.0000   0.0000   0.2270
  21.300   1.0518   0.15940   0.15642  -0.0239  0.0171  1.0000  -6.1116   0.0000   0.0000   0.0000   0.2350
  21.400   1.0531   0.16060   0.15760  -0.0247  0.0168  1.0000  -6.1468   0.0000   0.0000   0.0000   0.2355
  21.500   1.0548   0.16172   0.15870  -0.0255  0.0165  1.0000  -6.1868   0.0000   0.0000   0.0000   0.2359
  21.600   1.0562   0.16290   0.15986  -0.0263  0.0162  1.0000  -6.2236   0.0000   0.0000   0.0000   0.2364
  21.700   1.0573   0.16418   0.16110  -0.0271  0.0159  1.0000  -6.2562   0.0000   0.0000   0.0000   0.2369
  21.800   1.0566   0.16588   0.16273  -0.0283  0.0142  1.0000  -6.2690   0.0000   0.0000   0.0000   0.2377
  21.900   1.0525   0.16817   0.16501  -0.0297  0.0133  1.0000  -6.2423   0.0000   0.0000   0.0000   0.2390
  22.000   1.0481   0.17054   0.16741  -0.0312  0.0128  1.0000  -6.2108   0.0000   0.0000   0.0000   0.2402
  22.100   1.0436   0.17301   0.16989  -0.0327  0.0125  1.0000  -6.1764   0.0000   0.0000   0.0000   0.2416
  22.200   1.0400   0.17535   0.17226  -0.0341  0.0125  1.0000  -6.1520   0.0000   0.0000   0.0000   0.2428
  22.300   1.0350   0.17806   0.17501  -0.0356  0.0124  1.0000  -6.1112   0.0000   0.0000   0.0000   0.2443
  22.500   1.0179   0.18551   0.18253  -0.0397  0.0126  1.0000  -5.9455   0.0000   0.0000   0.0000   0.2487
  22.600   1.0124   0.18856   0.18558  -0.0414  0.0125  1.0000  -5.8906   0.0000   0.0000   0.0000   0.2503
  22.700   1.0078   0.19143   0.18849  -0.0429  0.0124  1.0000  -5.8448   0.0000   0.0000   0.0000   0.2519
  22.800   1.0014   0.19482   0.19192  -0.0447  0.0124  1.0000  -5.7748   0.0000   0.0000   0.0000   0.2538
  23.100   0.9483   0.21541   0.21270  -0.0544  0.0122  1.0000  -5.0805   0.0000   0.0000   0.0000   0.2669


