xflr5 v6.61

 Calculated polar for: NACA M19 AIRFOIL

 1 1 Reynolds number fixed          Mach number fixed         

 xtrf =   1.000 (top)        1.000 (bottom)
 Mach =   0.000     Re =     0.625 e 6     Ncrit =   9.000

  alpha     CL        CD       CDp       Cm    Top Xtr Bot Xtr   Cpmin    Chinge    XCp    
 ------- -------- --------- --------- -------- ------- ------- -------- --------- ---------
  -9.300  -0.3814   0.12857   0.12316   0.0198  0.0359  0.0113  -1.1538   0.0000   0.0000   0.0000   0.3005
  -9.200  -0.3787   0.12727   0.12185   0.0193  0.0359  0.0114  -1.1572   0.0000   0.0000   0.0000   0.2995
  -9.100  -0.3759   0.12596   0.12055   0.0187  0.0358  0.0114  -1.1606   0.0000   0.0000   0.0000   0.2985
  -9.000  -0.3733   0.12467   0.11925   0.0182  0.0358  0.0114  -1.1643   0.0000   0.0000   0.0000   0.2974
  -8.900  -0.3706   0.12339   0.11797   0.0177  0.0357  0.0114  -1.1681   0.0000   0.0000   0.0000   0.2964
  -8.800  -0.3681   0.12213   0.11671   0.0172  0.0357  0.0115  -1.1721   0.0000   0.0000   0.0000   0.2954
  -8.700  -0.3656   0.12088   0.11546   0.0167  0.0356  0.0115  -1.1764   0.0000   0.0000   0.0000   0.2943
  -8.600  -0.3630   0.11963   0.11421   0.0162  0.0356  0.0115  -1.1808   0.0000   0.0000   0.0000   0.2933
  -8.500  -0.3603   0.11837   0.11295   0.0156  0.0355  0.0116  -1.1852   0.0000   0.0000   0.0000   0.2921
  -8.400  -0.3574   0.11709   0.11166   0.0150  0.0355  0.0116  -1.1897   0.0000   0.0000   0.0000   0.2907
  -8.300  -0.3545   0.11581   0.11038   0.0144  0.0354  0.0116  -1.1945   0.0000   0.0000   0.0000   0.2893
  -8.200  -0.3517   0.11453   0.10911   0.0137  0.0354  0.0116  -1.1994   0.0000   0.0000   0.0000   0.2878
  -8.100  -0.3488   0.11327   0.10784   0.0131  0.0353  0.0117  -1.2046   0.0000   0.0000   0.0000   0.2863
  -8.000  -0.3460   0.11201   0.10659   0.0124  0.0353  0.0117  -1.2100   0.0000   0.0000   0.0000   0.2848
  -7.900  -0.3432   0.11077   0.10534   0.0118  0.0352  0.0117  -1.2157   0.0000   0.0000   0.0000   0.2832
  -7.800  -0.3405   0.10954   0.10412   0.0111  0.0352  0.0118  -1.2217   0.0000   0.0000   0.0000   0.2815
  -7.700  -0.3378   0.10832   0.10290   0.0105  0.0351  0.0118  -1.2280   0.0000   0.0000   0.0000   0.2799
  -7.600  -0.3352   0.10710   0.10168   0.0098  0.0351  0.0118  -1.2345   0.0000   0.0000   0.0000   0.2780
  -7.500  -0.3322   0.10585   0.10044   0.0090  0.0350  0.0119  -1.2413   0.0000   0.0000   0.0000   0.2759
  -7.400  -0.3289   0.10457   0.09915   0.0080  0.0350  0.0119  -1.2483   0.0000   0.0000   0.0000   0.2733
  -7.300  -0.3256   0.10330   0.09789   0.0070  0.0349  0.0119  -1.2558   0.0000   0.0000   0.0000   0.2705
  -7.200  -0.3230   0.10212   0.09671   0.0061  0.0349  0.0119  -1.2642   0.0000   0.0000   0.0000   0.2678
  -7.100  -0.3203   0.10098   0.09557   0.0050  0.0349  0.0120  -1.2733   0.0000   0.0000   0.0000   0.2649
  -7.000  -0.3155   0.09963   0.09421   0.0036  0.0348  0.0120  -1.2826   0.0000   0.0000   0.0000   0.2605
  -6.900  -0.3106   0.09828   0.09286   0.0022  0.0348  0.0120  -1.2922   0.0000   0.0000   0.0000   0.2561
  -6.800  -0.3051   0.09690   0.09147   0.0006  0.0347  0.0121  -1.3024   0.0000   0.0000   0.0000   0.2510
  -6.700  -0.2991   0.09547   0.09004  -0.0010  0.0346  0.0121  -1.3109   0.0000   0.0000   0.0000   0.2457
  -6.600  -0.2930   0.09404   0.08860  -0.0026  0.0346  0.0121  -1.3194   0.0000   0.0000   0.0000   0.2404
  -6.500  -0.2868   0.09261   0.08716  -0.0041  0.0345  0.0122  -1.3282   0.0000   0.0000   0.0000   0.2350
  -6.400  -0.2801   0.09115   0.08569  -0.0057  0.0345  0.0122  -1.3376   0.0000   0.0000   0.0000   0.2289
  -6.300  -0.2728   0.08967   0.08420  -0.0074  0.0344  0.0123  -1.3477   0.0000   0.0000   0.0000   0.2220
  -6.200  -0.2648   0.08816   0.08267  -0.0092  0.0344  0.0123  -1.3586   0.0000   0.0000   0.0000   0.2142
  -6.100  -0.2568   0.08664   0.08114  -0.0109  0.0343  0.0123  -1.3691   0.0000   0.0000   0.0000   0.2063
  -6.000  -0.2489   0.08513   0.07961  -0.0126  0.0343  0.0124  -1.3802   0.0000   0.0000   0.0000   0.1983
  -5.400  -0.2049   0.06956   0.06391  -0.0235  0.0339  0.0135  -1.7397   0.0000   0.0000   0.0000   0.1333
  -5.300  -0.2028   0.06845   0.06282  -0.0225  0.0339  0.0139  -1.6131   0.0000   0.0000   0.0000   0.1369
  -5.200  -0.1987   0.06760   0.06198  -0.0222  0.0338  0.0144  -1.4955   0.0000   0.0000   0.0000   0.1366
  -5.100  -0.1929   0.06684   0.06123  -0.0223  0.0338  0.0150  -1.3884   0.0000   0.0000   0.0000   0.1327
  -5.000  -0.1856   0.06609   0.06048  -0.0228  0.0339  0.0160  -1.2950   0.0000   0.0000   0.0000   0.1254
  -4.900  -0.1769   0.06530   0.05968  -0.0236  0.0339  0.0174  -1.2173   0.0000   0.0000   0.0000   0.1146
  -4.800  -0.1661   0.06455   0.05891  -0.0248  0.0340  0.0197  -1.1536   0.0000   0.0000   0.0000   0.0992
  -4.700  -0.1454   0.06574   0.06006  -0.0264  0.0341  0.0233  -1.0782   0.0000   0.0000   0.0000   0.0659
  -4.600  -0.1316   0.06524   0.05952  -0.0278  0.0341  0.0238  -1.0486   0.0000   0.0000   0.0000   0.0357
  -4.500  -0.1196   0.06417   0.05842  -0.0291  0.0341  0.0241  -1.0307   0.0000   0.0000   0.0000   0.0035
  -4.400  -0.1079   0.06292   0.05714  -0.0303  0.0341  0.0242  -1.0164   0.0000   0.0000   0.0000  -0.0345
  -4.300  -0.0965   0.06158   0.05577  -0.0314  0.0341  0.0243  -1.0028   0.0000   0.0000   0.0000  -0.0798
  -4.200  -0.0856   0.05992   0.05407  -0.0326  0.0341  0.0243  -0.9984   0.0000   0.0000   0.0000  -0.1349
  -4.100  -0.0747   0.05815   0.05226  -0.0337  0.0341  0.0242  -0.9978   0.0000   0.0000   0.0000  -0.2063
  -4.000  -0.0637   0.05634   0.05041  -0.0348  0.0340  0.0242  -0.9986   0.0000   0.0000   0.0000  -0.3026
  -3.900  -0.0528   0.05448   0.04851  -0.0358  0.0340  0.0241  -1.0018   0.0000   0.0000   0.0000  -0.4374
  -3.800  -0.0419   0.05250   0.04648  -0.0369  0.0339  0.0239  -1.0101   0.0000   0.0000   0.0000  -0.6426
  -3.700  -0.0313   0.05009   0.04402  -0.0380  0.0338  0.0235  -1.0336   0.0000   0.0000   0.0000  -0.9787
  -3.600  -0.0240   0.04574   0.03959  -0.0394  0.0335  0.0211  -1.1246   0.0000   0.0000   0.0000  -1.4168
  -3.500  -0.0104   0.04234   0.03608  -0.0408  0.0332  0.0183  -1.2322   0.0000   0.0000   0.0000  -3.7432
  -3.400   0.0046   0.03988   0.03351  -0.0417  0.0331  0.0179  -1.3206   0.0000   0.0000   0.0000   9.4208
  -3.300   0.0226   0.04185   0.03547  -0.0415  0.0334  0.0238  -1.2050   0.0000   0.0000   0.0000   2.1101
  -3.200   0.0381   0.04329   0.03688  -0.0416  0.0337  0.0248  -1.0819   0.0000   0.0000   0.0000   1.3574
  -3.100   0.0493   0.04267   0.03621  -0.0421  0.0338  0.0249  -1.0097   0.0000   0.0000   0.0000   1.1157
  -3.000   0.0600   0.04198   0.03547  -0.0426  0.0340  0.0249  -0.9355   0.0000   0.0000   0.0000   0.9691
  -2.900   0.0705   0.04127   0.03472  -0.0430  0.0343  0.0250  -0.9234   0.0000   0.0000   0.0000   0.8683
  -2.800   0.0809   0.04056   0.03397  -0.0434  0.0346  0.0250  -0.9116   0.0000   0.0000   0.0000   0.7940
  -2.700   0.0912   0.03986   0.03321  -0.0438  0.0350  0.0250  -0.8995   0.0000   0.0000   0.0000   0.7366
  -2.300   0.1323   0.03787   0.03066  -0.0454  0.0441  0.0250  -0.8510   0.0000   0.0000   0.0000   0.5973
  -2.200   0.1430   0.03695   0.02984  -0.0457  0.0449  0.0250  -0.8379   0.0000   0.0000   0.0000   0.5733
  -2.100   0.1533   0.03613   0.02906  -0.0460  0.0457  0.0250  -0.8250   0.0000   0.0000   0.0000   0.5534
  -2.000   0.1637   0.03537   0.02833  -0.0463  0.0465  0.0250  -0.8121   0.0000   0.0000   0.0000   0.5361
  -1.900   0.1740   0.03466   0.02766  -0.0466  0.0473  0.0250  -0.7994   0.0000   0.0000   0.0000   0.5208
  -1.800   0.1843   0.03400   0.02703  -0.0469  0.0480  0.0250  -0.7867   0.0000   0.0000   0.0000   0.5073
  -1.700   0.1947   0.03337   0.02642  -0.0472  0.0487  0.0250  -0.7740   0.0000   0.0000   0.0000   0.4951
  -1.600   0.2051   0.03277   0.02582  -0.0475  0.0493  0.0250  -0.7612   0.0000   0.0000   0.0000   0.4841
  -1.500   0.2154   0.03219   0.02523  -0.0478  0.0500  0.0250  -0.7484   0.0000   0.0000   0.0000   0.4741
  -1.400   0.2258   0.03154   0.02456  -0.0481  0.0744  0.0250  -0.7354   0.0000   0.0000   0.0000   0.4648
  -1.300   0.2363   0.03095   0.02394  -0.0484  0.0788  0.0249  -0.7225   0.0000   0.0000   0.0000   0.4564
  -1.200   0.2467   0.03039   0.02334  -0.0486  0.0925  0.0249  -0.7096   0.0000   0.0000   0.0000   0.4487
  -1.100   0.2574   0.02969   0.02267  -0.0488  0.1116  0.0249  -0.7043   0.0000   0.0000   0.0000   0.4412
  -1.000   0.2681   0.02898   0.02198  -0.0491  0.1433  0.0249  -0.7106   0.0000   0.0000   0.0000   0.4343
  -0.900   0.2786   0.02845   0.02141  -0.0493  0.1438  0.0249  -0.7182   0.0000   0.0000   0.0000   0.4281
  -0.800   0.2892   0.02792   0.02084  -0.0495  0.1441  0.0249  -0.7257   0.0000   0.0000   0.0000   0.4223
  -0.700   0.2997   0.02741   0.02029  -0.0497  0.1443  0.0249  -0.7334   0.0000   0.0000   0.0000   0.4169
  -0.600   0.3103   0.02690   0.01975  -0.0500  0.1445  0.0249  -0.7410   0.0000   0.0000   0.0000   0.4118
  -0.500   0.3208   0.02641   0.01921  -0.0502  0.1448  0.0249  -0.7486   0.0000   0.0000   0.0000   0.4071
  -0.400   0.3314   0.02593   0.01869  -0.0504  0.1452  0.0249  -0.7563   0.0000   0.0000   0.0000   0.4026
  -0.300   0.3420   0.02545   0.01817  -0.0506  0.1461  0.0249  -0.7639   0.0000   0.0000   0.0000   0.3983
  -0.200   0.3527   0.02499   0.01767  -0.0507  0.1469  0.0249  -0.7716   0.0000   0.0000   0.0000   0.3943
  -0.100   0.3633   0.02453   0.01717  -0.0509  0.1477  0.0249  -0.7793   0.0000   0.0000   0.0000   0.3905
   0.100   0.3846   0.02364   0.01621  -0.0513  0.1492  0.0249  -0.7947   0.0000   0.0000   0.0000   0.3835
   0.200   0.3953   0.02322   0.01574  -0.0514  0.1501  0.0249  -0.8024   0.0000   0.0000   0.0000   0.3802
   0.300   0.4060   0.02280   0.01528  -0.0516  0.1521  0.0249  -0.8102   0.0000   0.0000   0.0000   0.3771
   0.400   0.4167   0.02239   0.01483  -0.0517  0.1548  0.0248  -0.8179   0.0000   0.0000   0.0000   0.3741
   0.500   0.4274   0.02199   0.01439  -0.0519  0.1589  0.0248  -0.8256   0.0000   0.0000   0.0000   0.3712
   0.600   0.4381   0.02159   0.01396  -0.0520  0.1625  0.0248  -0.8342   0.0000   0.0000   0.0000   0.3685
   0.700   0.4489   0.02119   0.01353  -0.0522  0.1665  0.0248  -0.8456   0.0000   0.0000   0.0000   0.3659
   0.800   0.4597   0.02079   0.01311  -0.0523  0.1708  0.0248  -0.8573   0.0000   0.0000   0.0000   0.3634
   0.900   0.4706   0.02037   0.01269  -0.0524  0.1756  0.0248  -0.8695   0.0000   0.0000   0.0000   0.3609
   1.000   0.4816   0.01994   0.01227  -0.0526  0.1810  0.0248  -0.8820   0.0000   0.0000   0.0000   0.3585
   1.100   0.4925   0.01952   0.01186  -0.0527  0.1867  0.0248  -0.8944   0.0000   0.0000   0.0000   0.3563
   1.200   0.5035   0.01912   0.01147  -0.0528  0.1924  0.0248  -0.9064   0.0000   0.0000   0.0000   0.3541
   1.300   0.5144   0.01874   0.01108  -0.0529  0.1981  0.0248  -0.9180   0.0000   0.0000   0.0000   0.3520
   1.400   0.5262   0.01809   0.01057  -0.0530  0.2403  0.0248  -0.9291   0.0000   0.0000   0.0000   0.3497
   1.500   0.5392   0.01714   0.01009  -0.0530  0.3184  0.0249  -0.9404   0.0000   0.0000   0.0000   0.3473
   1.600   0.5510   0.01658   0.00968  -0.0531  0.3524  0.0249  -0.9521   0.0000   0.0000   0.0000   0.3453
   1.700   0.5626   0.01609   0.00931  -0.0533  0.3743  0.0249  -0.9636   0.0000   0.0000   0.0000   0.3435
   1.800   0.5738   0.01573   0.00899  -0.0534  0.3836  0.0249  -0.9749   0.0000   0.0000   0.0000   0.3418
   1.900   0.5848   0.01543   0.00869  -0.0535  0.3882  0.0249  -0.9862   0.0000   0.0000   0.0000   0.3402
   2.000   0.5958   0.01514   0.00839  -0.0537  0.3911  0.0249  -0.9975   0.0000   0.0000   0.0000   0.3386
   2.100   0.6068   0.01487   0.00811  -0.0538  0.3933  0.0249  -1.0088   0.0000   0.0000   0.0000   0.3371
   2.200   0.6177   0.01461   0.00784  -0.0539  0.3948  0.0250  -1.0201   0.0000   0.0000   0.0000   0.3356
   2.300   0.6286   0.01437   0.00758  -0.0541  0.3960  0.0250  -1.0315   0.0000   0.0000   0.0000   0.3342
   2.400   0.6395   0.01414   0.00733  -0.0542  0.3970  0.0250  -1.0428   0.0000   0.0000   0.0000   0.3329
   2.500   0.6504   0.01391   0.00708  -0.0543  0.3981  0.0250  -1.0542   0.0000   0.0000   0.0000   0.3316
   2.600   0.6613   0.01370   0.00686  -0.0544  0.3990  0.0250  -1.0654   0.0000   0.0000   0.0000   0.3303
   2.700   0.6722   0.01350   0.00664  -0.0546  0.3996  0.0250  -1.0767   0.0000   0.0000   0.0000   0.3291
   2.800   0.6832   0.01330   0.00643  -0.0547  0.4027  0.0250  -1.0880   0.0000   0.0000   0.0000   0.3279
   2.900   0.6941   0.01311   0.00623  -0.0548  0.4060  0.0250  -1.0994   0.0000   0.0000   0.0000   0.3267
   3.000   0.7049   0.01294   0.00604  -0.0550  0.4056  0.0250  -1.1107   0.0000   0.0000   0.0000   0.3256
   3.100   0.7156   0.01282   0.00588  -0.0551  0.4005  0.0250  -1.1217   0.0000   0.0000   0.0000   0.3245
   3.200   0.7264   0.01267   0.00571  -0.0552  0.3997  0.0251  -1.1333   0.0000   0.0000   0.0000   0.3234
   3.300   0.7372   0.01251   0.00554  -0.0553  0.3995  0.0251  -1.1449   0.0000   0.0000   0.0000   0.3224
   3.400   0.7480   0.01237   0.00537  -0.0555  0.3994  0.0251  -1.1566   0.0000   0.0000   0.0000   0.3214
   3.500   0.7588   0.01223   0.00522  -0.0556  0.3992  0.0251  -1.1683   0.0000   0.0000   0.0000   0.3204
   7.600   1.1299   0.02244   0.01425  -0.0499  0.0196  0.0734  -2.5856   0.0000   0.0000   0.0000   0.2861
   7.700   1.1346   0.02311   0.01487  -0.0495  0.0180  0.0729  -2.6848   0.0000   0.0000   0.0000   0.2854
   7.800   1.1385   0.02385   0.01557  -0.0490  0.0167  0.0724  -2.7802   0.0000   0.0000   0.0000   0.2847
   7.900   1.1415   0.02475   0.01642  -0.0484  0.0154  0.0721  -2.8639   0.0000   0.0000   0.0000   0.2839
   8.300   1.1667   0.03265   0.02447  -0.0446  0.0124  0.0712  -2.8994   0.0000   0.0000   0.0000   0.2792
   8.400   1.1749   0.03370   0.02560  -0.0441  0.0124  0.0719  -2.9588   0.0000   0.0000   0.0000   0.2783
   8.500   1.1827   0.03479   0.02677  -0.0436  0.0123  0.0736  -3.0164   0.0000   0.0000   0.0000   0.2775
   8.600   1.1902   0.03580   0.02803  -0.0431  0.0123  0.2394  -3.0716   0.0000   0.0000   0.0000   0.2768
   8.900   1.2118   0.03821   0.03194  -0.0420  0.0122  1.0000  -3.2307   0.0000   0.0000   0.0000   0.2747
   9.000   1.2174   0.03944   0.03324  -0.0413  0.0122  1.0000  -3.2777   0.0000   0.0000   0.0000   0.2738
   9.100   1.2225   0.04068   0.03456  -0.0407  0.0121  1.0000  -3.3224   0.0000   0.0000   0.0000   0.2730
   9.200   1.2272   0.04195   0.03591  -0.0400  0.0121  1.0000  -3.3648   0.0000   0.0000   0.0000   0.2722
   9.300   1.2313   0.04324   0.03727  -0.0393  0.0121  1.0000  -3.4049   0.0000   0.0000   0.0000   0.2713
   9.400   1.2349   0.04454   0.03865  -0.0385  0.0120  1.0000  -3.4427   0.0000   0.0000   0.0000   0.2705
   9.500   1.2380   0.04585   0.04004  -0.0378  0.0120  1.0000  -3.4780   0.0000   0.0000   0.0000   0.2696
   9.600   1.2404   0.04717   0.04144  -0.0370  0.0120  1.0000  -3.5108   0.0000   0.0000   0.0000   0.2688
   9.700   1.2423   0.04849   0.04285  -0.0362  0.0120  1.0000  -3.5412   0.0000   0.0000   0.0000   0.2680
   9.800   1.2436   0.04982   0.04426  -0.0353  0.0119  1.0000  -3.5691   0.0000   0.0000   0.0000   0.2671
   9.900   1.2444   0.05116   0.04567  -0.0345  0.0119  1.0000  -3.5959   0.0000   0.0000   0.0000   0.2663
  10.000   1.2447   0.05249   0.04708  -0.0337  0.0119  1.0000  -3.6210   0.0000   0.0000   0.0000   0.2654
  10.100   1.2444   0.05383   0.04849  -0.0328  0.0119  1.0000  -3.6436   0.0000   0.0000   0.0000   0.2646
  10.200   1.2434   0.05515   0.04989  -0.0319  0.0119  1.0000  -3.6633   0.0000   0.0000   0.0000   0.2638
  10.300   1.2412   0.05641   0.05122  -0.0309  0.0119  1.0000  -3.6789   0.0000   0.0000   0.0000   0.2629
  10.400   1.2377   0.05761   0.05248  -0.0298  0.0118  1.0000  -3.6899   0.0000   0.0000   0.0000   0.2619
  10.500   1.2330   0.05874   0.05368  -0.0287  0.0118  1.0000  -3.6969   0.0000   0.0000   0.0000   0.2609
  10.600   1.2278   0.05993   0.05493  -0.0277  0.0118  1.0000  -3.7012   0.0000   0.0000   0.0000   0.2601
  10.700   1.2228   0.06118   0.05625  -0.0270  0.0118  1.0000  -3.7050   0.0000   0.0000   0.0000   0.2594
  10.800   1.2180   0.06251   0.05763  -0.0263  0.0118  1.0000  -3.7088   0.0000   0.0000   0.0000   0.2587
  10.900   1.2127   0.06387   0.05906  -0.0258  0.0118  1.0000  -3.7102   0.0000   0.0000   0.0000   0.2582
  11.000   1.2061   0.06523   0.06048  -0.0253  0.0118  1.0000  -3.7067   0.0000   0.0000   0.0000   0.2578
  11.100   1.2001   0.06665   0.06196  -0.0250  0.0118  1.0000  -3.7043   0.0000   0.0000   0.0000   0.2574
  11.200   1.1945   0.06814   0.06351  -0.0247  0.0118  1.0000  -3.7025   0.0000   0.0000   0.0000   0.2571
  11.300   1.1890   0.06970   0.06513  -0.0245  0.0118  1.0000  -3.7002   0.0000   0.0000   0.0000   0.2569
  11.400   1.1832   0.07131   0.06680  -0.0244  0.0118  1.0000  -3.6964   0.0000   0.0000   0.0000   0.2567
  11.500   1.1759   0.07301   0.06857  -0.0246  0.0118  1.0000  -3.6858   0.0000   0.0000   0.0000   0.2568
  11.600   1.1691   0.07477   0.07038  -0.0248  0.0118  1.0000  -3.6762   0.0000   0.0000   0.0000   0.2570
  11.700   1.1629   0.07654   0.07221  -0.0250  0.0118  1.0000  -3.6682   0.0000   0.0000   0.0000   0.2571
  11.800   1.1568   0.07835   0.07407  -0.0252  0.0117  1.0000  -3.6600   0.0000   0.0000   0.0000   0.2572
  11.900   1.1507   0.08018   0.07596  -0.0255  0.0117  1.0000  -3.6508   0.0000   0.0000   0.0000   0.2574
  12.000   1.1440   0.08198   0.07782  -0.0258  0.0117  1.0000  -3.6393   0.0000   0.0000   0.0000   0.2576
  12.100   1.1354   0.08391   0.07981  -0.0263  0.0117  1.0000  -3.6194   0.0000   0.0000   0.0000   0.2581
  12.200   1.1271   0.08595   0.08189  -0.0270  0.0117  1.0000  -3.5994   0.0000   0.0000   0.0000   0.2587
  12.300   1.1201   0.08799   0.08399  -0.0277  0.0117  1.0000  -3.5836   0.0000   0.0000   0.0000   0.2593
  12.400   1.1137   0.09007   0.08612  -0.0283  0.0117  1.0000  -3.5690   0.0000   0.0000   0.0000   0.2598
  12.500   1.1075   0.09218   0.08829  -0.0290  0.0117  1.0000  -3.5539   0.0000   0.0000   0.0000   0.2604
  12.600   1.1013   0.09435   0.09051  -0.0297  0.0117  1.0000  -3.5376   0.0000   0.0000   0.0000   0.2611
  12.700   1.0948   0.09657   0.09278  -0.0306  0.0117  1.0000  -3.5194   0.0000   0.0000   0.0000   0.2619
  12.800   1.0873   0.09895   0.09521  -0.0317  0.0117  1.0000  -3.4953   0.0000   0.0000   0.0000   0.2629
  12.900   1.0780   0.10157   0.09788  -0.0332  0.0117  1.0000  -3.4620   0.0000   0.0000   0.0000   0.2644
  13.000   1.0710   0.10404   0.10040  -0.0344  0.0117  1.0000  -3.4371   0.0000   0.0000   0.0000   0.2656
  13.100   1.0650   0.10645   0.10286  -0.0356  0.0117  1.0000  -3.4151   0.0000   0.0000   0.0000   0.2667
  13.200   1.0594   0.10890   0.10536  -0.0367  0.0117  1.0000  -3.3933   0.0000   0.0000   0.0000   0.2678
  13.300   1.0538   0.11138   0.10788  -0.0379  0.0117  1.0000  -3.3706   0.0000   0.0000   0.0000   0.2690
  13.400   1.0483   0.11393   0.11048  -0.0392  0.0117  1.0000  -3.3461   0.0000   0.0000   0.0000   0.2703
  13.500   1.0426   0.11656   0.11316  -0.0406  0.0117  1.0000  -3.3190   0.0000   0.0000   0.0000   0.2717
  13.600   1.0353   0.11954   0.11619  -0.0425  0.0117  1.0000  -3.2812   0.0000   0.0000   0.0000   0.2736
  13.700   1.0273   0.12276   0.11945  -0.0446  0.0118  1.0000  -3.2368   0.0000   0.0000   0.0000   0.2759
  13.800   1.0220   0.12565   0.12238  -0.0463  0.0118  1.0000  -3.2045   0.0000   0.0000   0.0000   0.2777
  13.900   1.0176   0.12841   0.12519  -0.0478  0.0118  1.0000  -3.1752   0.0000   0.0000   0.0000   0.2792
  14.000   1.0135   0.13115   0.12796  -0.0493  0.0118  1.0000  -3.1458   0.0000   0.0000   0.0000   0.2807
  14.100   1.0096   0.13390   0.13075  -0.0508  0.0118  1.0000  -3.1151   0.0000   0.0000   0.0000   0.2823
  14.200   1.0057   0.13670   0.13359  -0.0523  0.0118  1.0000  -3.0819   0.0000   0.0000   0.0000   0.2839
  14.300   1.0019   0.13956   0.13648  -0.0539  0.0118  1.0000  -3.0459   0.0000   0.0000   0.0000   0.2856
  14.400   0.9981   0.14244   0.13941  -0.0556  0.0118  1.0000  -3.0062   0.0000   0.0000   0.0000   0.2874
  14.500   0.9921   0.14605   0.14305  -0.0581  0.0118  1.0000  -2.9442   0.0000   0.0000   0.0000   0.2902
  14.600   0.9883   0.14918   0.14621  -0.0601  0.0118  1.0000  -2.8952   0.0000   0.0000   0.0000   0.2923
  14.700   0.9856   0.15208   0.14914  -0.0617  0.0118  1.0000  -2.8523   0.0000   0.0000   0.0000   0.2941
  14.800   0.9834   0.15494   0.15202  -0.0632  0.0118  1.0000  -2.8102   0.0000   0.0000   0.0000   0.2957
  14.900   0.9816   0.15782   0.15493  -0.0647  0.0118  1.0000  -2.7670   0.0000   0.0000   0.0000   0.2973
  15.000   0.9800   0.16079   0.15791  -0.0662  0.0117  1.0000  -2.7216   0.0000   0.0000   0.0000   0.2988
  15.100   0.9785   0.16401   0.16116  -0.0678  0.0117  1.0000  -2.6693   0.0000   0.0000   0.0000   0.3005
  15.200   0.9773   0.16755   0.16472  -0.0695  0.0117  1.0000  -2.6066   0.0000   0.0000   0.0000   0.3023
  15.300   0.9769   0.17091   0.16809  -0.0710  0.0117  1.0000  -2.5495   0.0000   0.0000   0.0000   0.3038
  15.400   0.9767   0.17396   0.17115  -0.0723  0.0117  1.0000  -2.5030   0.0000   0.0000   0.0000   0.3051
  15.500   0.9767   0.17684   0.17403  -0.0735  0.0117  1.0000  -2.4628   0.0000   0.0000   0.0000   0.3063
  15.700   0.9767   0.18344   0.17927  -0.0759  0.0117  0.1927  -2.3890   0.0000   0.0000   0.0000   0.3086
  15.800   0.9768   0.18608   0.18183  -0.0770  0.0117  0.0918  -2.3582   0.0000   0.0000   0.0000   0.3096
  15.900   0.9772   0.18867   0.18441  -0.0780  0.0117  0.0613  -2.3296   0.0000   0.0000   0.0000   0.3105
  16.000   0.9777   0.19122   0.18696  -0.0790  0.0117  0.0518  -2.3026   0.0000   0.0000   0.0000   0.3114
  16.100   0.9782   0.19374   0.18946  -0.0800  0.0116  0.0500  -2.2772   0.0000   0.0000   0.0000   0.3123
  16.200   0.9789   0.19624   0.19195  -0.0810  0.0116  0.0498  -2.2531   0.0000   0.0000   0.0000   0.3131
  16.300   0.9796   0.19871   0.19440  -0.0820  0.0116  0.0496  -2.2302   0.0000   0.0000   0.0000   0.3140
  16.400   0.9803   0.20117   0.19684  -0.0829  0.0116  0.0494  -2.2083   0.0000   0.0000   0.0000   0.3147
  16.500   0.9811   0.20360   0.19926  -0.0838  0.0116  0.0493  -2.1874   0.0000   0.0000   0.0000   0.3155
  16.600   0.9820   0.20602   0.20166  -0.0847  0.0116  0.0491  -2.1674   0.0000   0.0000   0.0000   0.3162
  16.700   0.9829   0.20843   0.20404  -0.0856  0.0115  0.0490  -2.1482   0.0000   0.0000   0.0000   0.3169
  16.800   0.9838   0.21084   0.20643  -0.0865  0.0115  0.0488  -2.1288   0.0000   0.0000   0.0000   0.3177
  16.900   0.9847   0.21325   0.20882  -0.0874  0.0115  0.0487  -2.1099   0.0000   0.0000   0.0000   0.3184
  17.000   0.9856   0.21564   0.21119  -0.0883  0.0115  0.0485  -2.0916   0.0000   0.0000   0.0000   0.3190
  24.400   0.8828   0.33401   0.33159  -0.1046  0.0100  1.0000  -1.1592   0.0000   0.0000   0.0000   0.3385
  24.500   0.8800   0.33429   0.33188  -0.1044  0.0100  1.0000  -1.1490   0.0000   0.0000   0.0000   0.3386
  24.600   0.8773   0.33460   0.33219  -0.1043  0.0100  1.0000  -1.1390   0.0000   0.0000   0.0000   0.3387
  24.700   0.8748   0.33492   0.33252  -0.1042  0.0100  1.0000  -1.1295   0.0000   0.0000   0.0000   0.3388
  24.800   0.8724   0.33526   0.33287  -0.1041  0.0100  1.0000  -1.1202   0.0000   0.0000   0.0000   0.3389
  24.900   0.8701   0.33562   0.33324  -0.1040  0.0099  1.0000  -1.1112   0.0000   0.0000   0.0000   0.3390
  25.000   0.8679   0.33600   0.33362  -0.1040  0.0099  1.0000  -1.1024   0.0000   0.0000   0.0000   0.3391
  25.100   0.8658   0.33639   0.33401  -0.1040  0.0099  1.0000  -1.0939   0.0000   0.0000   0.0000   0.3392
  25.200   0.8638   0.33679   0.33442  -0.1039  0.0099  1.0000  -1.0856   0.0000   0.0000   0.0000   0.3393
  25.300   0.8619   0.33720   0.33484  -0.1039  0.0099  1.0000  -1.0776   0.0000   0.0000   0.0000   0.3394
  25.400   0.8600   0.33762   0.33527  -0.1039  0.0098  1.0000  -1.0698   0.0000   0.0000   0.0000   0.3395
  25.500   0.8582   0.33806   0.33571  -0.1039  0.0098  1.0000  -1.0621   0.0000   0.0000   0.0000   0.3397
  25.600   0.8565   0.33850   0.33616  -0.1040  0.0098  1.0000  -1.0547   0.0000   0.0000   0.0000   0.3398
  25.700   0.8549   0.33895   0.33662  -0.1040  0.0098  1.0000  -1.0474   0.0000   0.0000   0.0000   0.3399
  25.800   0.8533   0.33942   0.33709  -0.1040  0.0097  1.0000  -1.0403   0.0000   0.0000   0.0000   0.3401
  25.900   0.8518   0.33988   0.33756  -0.1041  0.0097  1.0000  -1.0334   0.0000   0.0000   0.0000   0.3402
  26.000   0.8503   0.34036   0.33805  -0.1041  0.0097  1.0000  -1.0266   0.0000   0.0000   0.0000   0.3403
  26.100   0.8489   0.34084   0.33854  -0.1042  0.0097  1.0000  -1.0200   0.0000   0.0000   0.0000   0.3405
  26.200   0.8475   0.34133   0.33903  -0.1043  0.0097  1.0000  -1.0135   0.0000   0.0000   0.0000   0.3406
  26.300   0.8461   0.34183   0.33953  -0.1044  0.0096  1.0000  -1.0071   0.0000   0.0000   0.0000   0.3407
  26.400   0.8449   0.34233   0.34004  -0.1045  0.0096  1.0000  -1.0009   0.0000   0.0000   0.0000   0.3409
  26.500   0.8436   0.34284   0.34055  -0.1046  0.0096  1.0000  -0.9948   0.0000   0.0000   0.0000   0.3410
  26.600   0.8424   0.34335   0.34107  -0.1047  0.0096  1.0000  -0.9889   0.0000   0.0000   0.0000   0.3411
  26.700   0.8412   0.34387   0.34160  -0.1048  0.0096  1.0000  -0.9831   0.0000   0.0000   0.0000   0.3413
  26.800   0.8401   0.34439   0.34212  -0.1049  0.0095  1.0000  -0.9773   0.0000   0.0000   0.0000   0.3414
  26.900   0.8390   0.34492   0.34266  -0.1050  0.0095  1.0000  -0.9717   0.0000   0.0000   0.0000   0.3416
  27.000   0.8379   0.34545   0.34320  -0.1051  0.0095  1.0000  -0.9662   0.0000   0.0000   0.0000   0.3417
  27.100   0.8369   0.34599   0.34374  -0.1053  0.0095  1.0000  -0.9608   0.0000   0.0000   0.0000   0.3419
  27.200   0.8359   0.34653   0.34428  -0.1054  0.0094  1.0000  -0.9555   0.0000   0.0000   0.0000   0.3420
  27.300   0.8349   0.34707   0.34483  -0.1055  0.0094  1.0000  -0.9503   0.0000   0.0000   0.0000   0.3422
  27.400   0.8340   0.34762   0.34539  -0.1057  0.0094  1.0000  -0.9452   0.0000   0.0000   0.0000   0.3423
  27.500   0.8330   0.34817   0.34594  -0.1059  0.0094  1.0000  -0.9402   0.0000   0.0000   0.0000   0.3425
  27.600   0.8321   0.34872   0.34650  -0.1060  0.0094  1.0000  -0.9353   0.0000   0.0000   0.0000   0.3426
  27.700   0.8313   0.34928   0.34707  -0.1062  0.0093  1.0000  -0.9305   0.0000   0.0000   0.0000   0.3428
  27.800   0.8304   0.34984   0.34764  -0.1063  0.0093  1.0000  -0.9257   0.0000   0.0000   0.0000   0.3429
  27.900   0.8296   0.35041   0.34821  -0.1065  0.0093  1.0000  -0.9211   0.0000   0.0000   0.0000   0.3431
  28.000   0.8288   0.35098   0.34878  -0.1067  0.0093  1.0000  -0.9165   0.0000   0.0000   0.0000   0.3432
  28.100   0.8280   0.35155   0.34936  -0.1069  0.0093  1.0000  -0.9120   0.0000   0.0000   0.0000   0.3434
  28.200   0.8272   0.35212   0.34993  -0.1070  0.0092  1.0000  -0.9075   0.0000   0.0000   0.0000   0.3435
  28.300   0.8265   0.35270   0.35052  -0.1072  0.0092  1.0000  -0.9032   0.0000   0.0000   0.0000   0.3437
  28.400   0.8257   0.35327   0.35110  -0.1074  0.0092  1.0000  -0.8989   0.0000   0.0000   0.0000   0.3438
  28.500   0.8250   0.35386   0.35169  -0.1076  0.0092  1.0000  -0.8947   0.0000   0.0000   0.0000   0.3440
  28.600   0.8243   0.35444   0.35228  -0.1078  0.0092  1.0000  -0.8905   0.0000   0.0000   0.0000   0.3441
  28.700   0.8236   0.35503   0.35287  -0.1080  0.0091  1.0000  -0.8864   0.0000   0.0000   0.0000   0.3443
  28.800   0.8230   0.35561   0.35346  -0.1082  0.0091  1.0000  -0.8824   0.0000   0.0000   0.0000   0.3445
  28.900   0.8223   0.35620   0.35406  -0.1084  0.0091  1.0000  -0.8785   0.0000   0.0000   0.0000   0.3446
  29.000   0.8217   0.35680   0.35466  -0.1086  0.0091  1.0000  -0.8746   0.0000   0.0000   0.0000   0.3448
  29.100   0.8203   0.35755   0.35547  -0.1088  0.0097  1.0000  -0.8437   0.0000   0.0000   0.0000   0.3451
  29.200   0.8190   0.35823   0.35613  -0.1090  0.0101  1.0000  -0.8408   0.0000   0.0000   0.0000   0.3454
  29.300   0.8181   0.35887   0.35675  -0.1092  0.0103  1.0000  -0.8377   0.0000   0.0000   0.0000   0.3456
  29.400   0.8173   0.35949   0.35737  -0.1094  0.0103  1.0000  -0.8344   0.0000   0.0000   0.0000   0.3457
  29.500   0.8167   0.36011   0.35799  -0.1096  0.0103  1.0000  -0.8308   0.0000   0.0000   0.0000   0.3459
  29.600   0.8161   0.36072   0.35861  -0.1099  0.0103  1.0000  -0.8271   0.0000   0.0000   0.0000   0.3461
  29.700   0.8156   0.36134   0.35923  -0.1101  0.0102  1.0000  -0.8234   0.0000   0.0000   0.0000   0.3462
  29.800   0.8151   0.36195   0.35984  -0.1103  0.0102  1.0000  -0.8197   0.0000   0.0000   0.0000   0.3464
  29.900   0.8147   0.36257   0.36046  -0.1106  0.0101  1.0000  -0.8160   0.0000   0.0000   0.0000   0.3466
  30.000   0.8142   0.36318   0.36108  -0.1108  0.0101  1.0000  -0.8124   0.0000   0.0000   0.0000   0.3467


