xflr5 v6.61

 Calculated polar for: NACA 65(1)-212

 1 1 Reynolds number fixed          Mach number fixed         

 xtrf =   1.000 (top)        1.000 (bottom)
 Mach =   0.000     Re =     0.400 e 6     Ncrit =   9.000

  alpha     CL        CD       CDp       Cm    Top Xtr Bot Xtr   Cpmin    Chinge    XCp    
 ------- -------- --------- --------- -------- ------- ------- -------- --------- ---------
 -10.000  -0.5294   0.05802   0.05500  -0.0640  1.0000  0.0129  -3.4400   0.0000   0.0000   0.0000   0.1194
  -9.900  -0.5412   0.05648   0.05343  -0.0637  1.0000  0.0128  -3.4979   0.0000   0.0000   0.0000   0.1230
  -9.800  -0.5525   0.05520   0.05211  -0.0630  1.0000  0.0128  -3.5457   0.0000   0.0000   0.0000   0.1269
  -9.700  -0.5637   0.05412   0.05101  -0.0619  1.0000  0.0127  -3.5871   0.0000   0.0000   0.0000   0.1313
  -9.600  -0.5748   0.05329   0.05016  -0.0605  1.0000  0.0127  -3.6195   0.0000   0.0000   0.0000   0.1361
  -9.500  -0.5857   0.05270   0.04955  -0.0587  1.0000  0.0126  -3.6437   0.0000   0.0000   0.0000   0.1414
  -9.400  -0.5963   0.05236   0.04920  -0.0565  1.0000  0.0127  -3.6577   0.0000   0.0000   0.0000   0.1469
  -9.300  -0.6083   0.05126   0.04806  -0.0552  0.9994  0.0126  -3.7074   0.0000   0.0000   0.0000   0.1512
  -9.200  -0.6213   0.04897   0.04565  -0.0549  0.9975  0.0123  -3.8102   0.0000   0.0000   0.0000   0.1537
  -9.100  -0.6333   0.04687   0.04343  -0.0541  0.9943  0.0120  -3.9071   0.0000   0.0000   0.0000   0.1567
  -9.000  -0.6447   0.04400   0.04039  -0.0535  0.9901  0.0115  -4.0424   0.0000   0.0000   0.0000   0.1594
  -8.900  -0.6575   0.04036   0.03648  -0.0526  0.9851  0.0110  -4.2479   0.0000   0.0000   0.0000   0.1624
  -8.800  -0.6764   0.03464   0.03027  -0.0506  0.9789  0.0102  -4.6508   0.0000   0.0000   0.0000   0.1674
  -8.700  -0.6772   0.03185   0.02720  -0.0500  0.9753  0.0101  -4.7580   0.0000   0.0000   0.0000   0.1684
  -8.600  -0.6710   0.03036   0.02555  -0.0501  0.9728  0.0102  -4.7338   0.0000   0.0000   0.0000   0.1677
  -8.500  -0.6625   0.02927   0.02434  -0.0503  0.9706  0.0104  -4.6697   0.0000   0.0000   0.0000   0.1664
  -8.400  -0.6528   0.02835   0.02333  -0.0507  0.9687  0.0106  -4.5862   0.0000   0.0000   0.0000   0.1648
  -8.300  -0.6423   0.02756   0.02245  -0.0512  0.9669  0.0108  -4.4907   0.0000   0.0000   0.0000   0.1629
  -8.200  -0.6311   0.02686   0.02167  -0.0517  0.9652  0.0112  -4.3855   0.0000   0.0000   0.0000   0.1607
  -8.100  -0.6193   0.02628   0.02103  -0.0523  0.9635  0.0116  -4.2698   0.0000   0.0000   0.0000   0.1583
  -8.000  -0.6068   0.02588   0.02058  -0.0529  0.9617  0.0121  -4.1396   0.0000   0.0000   0.0000   0.1556
  -7.700  -0.5761   0.02329   0.01769  -0.0544  0.9537  0.0156  -3.7716   0.0000   0.0000   0.0000   0.1485
  -7.600  -0.5650   0.02313   0.01753  -0.0549  0.9500  0.0161  -3.6617   0.0000   0.0000   0.0000   0.1459
  -7.500  -0.5573   0.02298   0.01740  -0.0545  0.9483  0.0165  -3.5687   0.0000   0.0000   0.0000   0.1453
  -7.400  -0.5492   0.02285   0.01726  -0.0542  0.9461  0.0169  -3.4779   0.0000   0.0000   0.0000   0.1445
  -7.300  -0.5409   0.02269   0.01709  -0.0539  0.9436  0.0173  -3.3911   0.0000   0.0000   0.0000   0.1436
  -7.200  -0.5323   0.02250   0.01688  -0.0537  0.9409  0.0176  -3.3094   0.0000   0.0000   0.0000   0.1425
  -7.100  -0.5235   0.02227   0.01662  -0.0534  0.9380  0.0180  -3.2334   0.0000   0.0000   0.0000   0.1413
  -7.000  -0.5144   0.02200   0.01634  -0.0532  0.9349  0.0184  -3.1614   0.0000   0.0000   0.0000   0.1400
  -6.900  -0.5054   0.02170   0.01601  -0.0530  0.9318  0.0188  -3.0947   0.0000   0.0000   0.0000   0.1386
  -6.800  -0.4964   0.02137   0.01564  -0.0527  0.9286  0.0191  -3.0330   0.0000   0.0000   0.0000   0.1373
  -6.700  -0.4875   0.02103   0.01526  -0.0525  0.9254  0.0194  -2.9752   0.0000   0.0000   0.0000   0.1360
  -6.600  -0.4782   0.02066   0.01485  -0.0522  0.9222  0.0198  -2.9199   0.0000   0.0000   0.0000   0.1345
  -6.500  -0.4690   0.02029   0.01443  -0.0520  0.9191  0.0200  -2.8671   0.0000   0.0000   0.0000   0.1329
  -6.400  -0.4597   0.01991   0.01401  -0.0517  0.9159  0.0203  -2.8165   0.0000   0.0000   0.0000   0.1313
  -6.300  -0.4503   0.01954   0.01359  -0.0514  0.9125  0.0206  -2.7676   0.0000   0.0000   0.0000   0.1295
  -6.200  -0.4408   0.01918   0.01318  -0.0512  0.9088  0.0208  -2.7199   0.0000   0.0000   0.0000   0.1276
  -6.100  -0.4311   0.01882   0.01278  -0.0511  0.9046  0.0210  -2.6734   0.0000   0.0000   0.0000   0.1254
  -6.000  -0.4213   0.01848   0.01240  -0.0510  0.9001  0.0212  -2.6288   0.0000   0.0000   0.0000   0.1229
  -5.900  -0.4123   0.01797   0.01181  -0.0506  0.8987  0.0210  -2.6066   0.0000   0.0000   0.0000   0.1212
  -5.800  -0.4032   0.01763   0.01145  -0.0503  0.8969  0.0213  -2.5603   0.0000   0.0000   0.0000   0.1192
  -5.700  -0.3940   0.01731   0.01110  -0.0500  0.8949  0.0215  -2.5139   0.0000   0.0000   0.0000   0.1171
  -5.600  -0.3848   0.01700   0.01076  -0.0497  0.8926  0.0218  -2.4672   0.0000   0.0000   0.0000   0.1149
  -5.500  -0.3756   0.01670   0.01044  -0.0494  0.8901  0.0221  -2.4199   0.0000   0.0000   0.0000   0.1126
  -5.400  -0.3663   0.01642   0.01013  -0.0491  0.8874  0.0224  -2.3712   0.0000   0.0000   0.0000   0.1101
  -5.300  -0.3568   0.01629   0.00999  -0.0488  0.8847  0.0231  -2.3066   0.0000   0.0000   0.0000   0.1072
  -5.200  -0.3465   0.01693   0.01066  -0.0489  0.8818  0.0248  -2.1682   0.0000   0.0000   0.0000   0.1030
  -5.100  -0.3379   0.01647   0.01001  -0.0485  0.8790  0.0282  -2.0790   0.0000   0.0000   0.0000   0.1005
  -5.000  -0.3284   0.01616   0.00967  -0.0482  0.8762  0.0280  -2.0440   0.0000   0.0000   0.0000   0.0973
  -4.900  -0.3189   0.01584   0.00932  -0.0479  0.8734  0.0278  -2.0102   0.0000   0.0000   0.0000   0.0940
  -4.800  -0.3096   0.01551   0.00896  -0.0475  0.8706  0.0277  -1.9778   0.0000   0.0000   0.0000   0.0907
  -4.700  -0.3004   0.01518   0.00859  -0.0471  0.8678  0.0276  -1.9472   0.0000   0.0000   0.0000   0.0873
  -4.600  -0.2913   0.01484   0.00822  -0.0467  0.8647  0.0276  -1.9184   0.0000   0.0000   0.0000   0.0838
  -4.500  -0.2824   0.01449   0.00783  -0.0463  0.8614  0.0275  -1.8916   0.0000   0.0000   0.0000   0.0803
  -4.400  -0.2737   0.01415   0.00745  -0.0459  0.8577  0.0276  -1.8669   0.0000   0.0000   0.0000   0.0765
  -4.300  -0.2649   0.01382   0.00708  -0.0455  0.8532  0.0277  -1.8443   0.0000   0.0000   0.0000   0.0724
  -4.200  -0.2563   0.01347   0.00670  -0.0451  0.8499  0.0279  -1.8239   0.0000   0.0000   0.0000   0.0680
  -4.100  -0.2480   0.01309   0.00628  -0.0447  0.8486  0.0282  -1.8062   0.0000   0.0000   0.0000   0.0640
  -4.000  -0.2397   0.01271   0.00585  -0.0442  0.8470  0.0286  -1.7911   0.0000   0.0000   0.0000   0.0597
  -3.900  -0.2314   0.01234   0.00543  -0.0437  0.8452  0.0294  -1.7789   0.0000   0.0000   0.0000   0.0550
  -3.800  -0.2228   0.01200   0.00503  -0.0433  0.8432  0.0306  -1.7697   0.0000   0.0000   0.0000   0.0495
  -3.700  -0.2139   0.01168   0.00464  -0.0429  0.8410  0.0326  -1.7644   0.0000   0.0000   0.0000   0.0432
  -3.600  -0.2046   0.01140   0.00431  -0.0426  0.8387  0.0361  -1.7599   0.0000   0.0000   0.0000   0.0355
  -3.500  -0.1948   0.01118   0.00408  -0.0424  0.8364  0.0407  -1.7410   0.0000   0.0000   0.0000   0.0262
  -3.400  -0.1848   0.01101   0.00390  -0.0422  0.8341  0.0451  -1.7074   0.0000   0.0000   0.0000   0.0151
  -3.300  -0.1745   0.01088   0.00374  -0.0421  0.8318  0.0490  -1.6659   0.0000   0.0000   0.0000   0.0021
  -3.200  -0.1644   0.01071   0.00358  -0.0420  0.8294  0.0625  -1.6288   0.0000   0.0000   0.0000  -0.0119
  -3.100  -0.1568   0.01016   0.00336  -0.0417  0.8269  0.1293  -1.5912   0.0000   0.0000   0.0000  -0.0228
  -3.000  -0.1505   0.00937   0.00308  -0.0415  0.8243  0.2618  -1.5528   0.0000   0.0000   0.0000  -0.0327
  -2.900  -0.1448   0.00846   0.00280  -0.0413  0.8217  0.4222  -1.5133   0.0000   0.0000   0.0000  -0.0418
  -2.800  -0.1374   0.00797   0.00279  -0.0409  0.8192  0.5431  -1.4661   0.0000   0.0000   0.0000  -0.0542
  -2.700  -0.1278   0.00784   0.00283  -0.0406  0.8167  0.5874  -1.4122   0.0000   0.0000   0.0000  -0.0744
  -2.600  -0.1173   0.00781   0.00284  -0.0404  0.8141  0.6095  -1.3560   0.0000   0.0000   0.0000  -0.1017
  -2.500  -0.1072   0.00779   0.00291  -0.0402  0.8111  0.6309  -1.3006   0.0000   0.0000   0.0000  -0.1320
  -2.400  -0.0964   0.00785   0.00295  -0.0401  0.8077  0.6451  -1.2436   0.0000   0.0000   0.0000  -0.1738
  -2.300  -0.0854   0.00791   0.00300  -0.0401  0.8035  0.6547  -1.1870   0.0000   0.0000   0.0000  -0.2278
  -2.200  -0.0751   0.00794   0.00310  -0.0399  0.8002  0.6680  -1.1322   0.0000   0.0000   0.0000  -0.2903
  -2.100  -0.0646   0.00796   0.00317  -0.0396  0.7991  0.6799  -1.0772   0.0000   0.0000   0.0000  -0.3732
  -2.000  -0.0539   0.00801   0.00323  -0.0395  0.7978  0.6896  -1.0220   0.0000   0.0000   0.0000  -0.4939
  -1.900  -0.0429   0.00807   0.00329  -0.0394  0.7964  0.6960  -0.9671   0.0000   0.0000   0.0000  -0.6802
  -1.800  -0.0319   0.00815   0.00334  -0.0393  0.7948  0.6995  -0.9125   0.0000   0.0000   0.0000  -0.9999
  -1.700  -0.0211   0.00807   0.00329  -0.0393  0.7931  0.7075  -0.8599   0.0000   0.0000   0.0000  -1.6357
  -1.600  -0.0103   0.00805   0.00329  -0.0392  0.7914  0.7128  -0.8077   0.0000   0.0000   0.0000  -3.6099
  -1.500   0.0005   0.00805   0.00331  -0.0391  0.7896  0.7173  -0.7561   0.0000   0.0000   0.0000  77.5517
  -1.400   0.0112   0.00808   0.00336  -0.0390  0.7877  0.7222  -0.7052   0.0000   0.0000   0.0000   3.7713
  -1.300   0.0219   0.00812   0.00341  -0.0388  0.7857  0.7271  -0.6549   0.0000   0.0000   0.0000   2.0415
  -1.200   0.0326   0.00817   0.00347  -0.0387  0.7838  0.7320  -0.6052   0.0000   0.0000   0.0000   1.4464
  -1.100   0.0434   0.00821   0.00352  -0.0385  0.7818  0.7365  -0.5561   0.0000   0.0000   0.0000   1.1451
  -1.000   0.0543   0.00826   0.00356  -0.0385  0.7798  0.7403  -0.5076   0.0000   0.0000   0.0000   0.9632
  -0.900   0.0653   0.00829   0.00358  -0.0384  0.7778  0.7432  -0.4596   0.0000   0.0000   0.0000   0.8418
  -0.800   0.0765   0.00831   0.00359  -0.0385  0.7758  0.7452  -0.4121   0.0000   0.0000   0.0000   0.7553
  -0.700   0.0878   0.00831   0.00358  -0.0385  0.7739  0.7465  -0.4157   0.0000   0.0000   0.0000   0.6909
  -0.600   0.0991   0.00832   0.00356  -0.0387  0.7718  0.7475  -0.4205   0.0000   0.0000   0.0000   0.6412
  -0.500   0.1104   0.00833   0.00355  -0.0387  0.7698  0.7485  -0.4254   0.0000   0.0000   0.0000   0.6017
  -0.400   0.1217   0.00835   0.00355  -0.0388  0.7677  0.7494  -0.4302   0.0000   0.0000   0.0000   0.5695
  -0.300   0.1329   0.00828   0.00347  -0.0390  0.7655  0.7530  -0.4355   0.0000   0.0000   0.0000   0.5433
  -0.200   0.1440   0.00824   0.00343  -0.0390  0.7631  0.7568  -0.4408   0.0000   0.0000   0.0000   0.5210
  -0.100   0.1551   0.00824   0.00342  -0.0391  0.7605  0.7600  -0.4461   0.0000   0.0000   0.0000   0.5018
   0.000   0.1661   0.00826   0.00345  -0.0391  0.7576  0.7628  -0.4514   0.0000   0.0000   0.0000   0.4852
   0.100   0.1771   0.00832   0.00351  -0.0392  0.7543  0.7653  -0.4565   0.0000   0.0000   0.0000   0.4707
   0.200   0.1881   0.00841   0.00362  -0.0393  0.7505  0.7675  -0.4615   0.0000   0.0000   0.0000   0.4582
   0.300   0.1992   0.00840   0.00362  -0.0393  0.7497  0.7696  -0.4669   0.0000   0.0000   0.0000   0.4466
   0.400   0.2103   0.00839   0.00363  -0.0394  0.7487  0.7717  -0.4723   0.0000   0.0000   0.0000   0.4362
   0.500   0.2214   0.00838   0.00363  -0.0394  0.7475  0.7738  -0.4778   0.0000   0.0000   0.0000   0.4269
   0.600   0.2325   0.00837   0.00363  -0.0395  0.7462  0.7758  -0.4832   0.0000   0.0000   0.0000   0.4185
   0.700   0.2436   0.00837   0.00364  -0.0395  0.7448  0.7778  -0.4886   0.0000   0.0000   0.0000   0.4109
   0.800   0.2548   0.00838   0.00365  -0.0396  0.7433  0.7799  -0.4939   0.0000   0.0000   0.0000   0.4039
   0.900   0.2659   0.00839   0.00367  -0.0397  0.7419  0.7820  -0.4993   0.0000   0.0000   0.0000   0.3976
   1.000   0.2771   0.00840   0.00369  -0.0398  0.7404  0.7841  -0.5047   0.0000   0.0000   0.0000   0.3918
   1.100   0.2883   0.00841   0.00371  -0.0398  0.7388  0.7861  -0.5100   0.0000   0.0000   0.0000   0.3865
   1.200   0.2995   0.00842   0.00373  -0.0399  0.7371  0.7881  -0.5154   0.0000   0.0000   0.0000   0.3815
   1.300   0.3108   0.00844   0.00375  -0.0400  0.7355  0.7900  -0.5652   0.0000   0.0000   0.0000   0.3769
   1.400   0.3220   0.00846   0.00377  -0.0401  0.7338  0.7918  -0.6180   0.0000   0.0000   0.0000   0.3727
   1.500   0.3333   0.00847   0.00379  -0.0402  0.7319  0.7935  -0.6718   0.0000   0.0000   0.0000   0.3687
   1.600   0.3445   0.00846   0.00378  -0.0403  0.7293  0.7951  -0.7264   0.0000   0.0000   0.0000   0.3648
   1.700   0.3556   0.00844   0.00376  -0.0403  0.7262  0.7965  -0.7818   0.0000   0.0000   0.0000   0.3610
   1.800   0.3666   0.00841   0.00371  -0.0402  0.7224  0.7978  -0.8380   0.0000   0.0000   0.0000   0.3574
   1.900   0.3776   0.00839   0.00365  -0.0401  0.7176  0.7989  -0.8949   0.0000   0.0000   0.0000   0.3538
   2.000   0.3885   0.00836   0.00358  -0.0400  0.7116  0.8012  -0.9523   0.0000   0.0000   0.0000   0.3505
   2.100   0.3992   0.00838   0.00357  -0.0400  0.7035  0.8055  -1.0098   0.0000   0.0000   0.0000   0.3476
   2.200   0.4098   0.00835   0.00356  -0.0398  0.6990  0.8094  -1.0677   0.0000   0.0000   0.0000   0.3447
   2.300   0.4201   0.00826   0.00350  -0.0396  0.6959  0.8127  -1.1261   0.0000   0.0000   0.0000   0.3417
   2.400   0.4305   0.00820   0.00347  -0.0394  0.6918  0.8158  -1.1851   0.0000   0.0000   0.0000   0.3388
   2.500   0.4408   0.00815   0.00344  -0.0392  0.6866  0.8186  -1.2448   0.0000   0.0000   0.0000   0.3361
   2.600   0.4510   0.00810   0.00338  -0.0389  0.6795  0.8212  -1.3051   0.0000   0.0000   0.0000   0.3333
   2.700   0.4610   0.00806   0.00330  -0.0385  0.6694  0.8238  -1.3658   0.0000   0.0000   0.0000   0.3306
   2.800   0.4706   0.00808   0.00324  -0.0381  0.6561  0.8262  -1.4259   0.0000   0.0000   0.0000   0.3279
   2.900   0.4808   0.00808   0.00322  -0.0379  0.6462  0.8287  -1.4878   0.0000   0.0000   0.0000   0.3256
   3.000   0.4911   0.00805   0.00321  -0.0376  0.6359  0.8312  -1.5504   0.0000   0.0000   0.0000   0.3235
   3.100   0.5011   0.00806   0.00318  -0.0374  0.6231  0.8336  -1.6131   0.0000   0.0000   0.0000   0.3214
   3.200   0.5108   0.00811   0.00316  -0.0371  0.6102  0.8361  -1.6752   0.0000   0.0000   0.0000   0.3193
   3.300   0.5208   0.00817   0.00319  -0.0369  0.5989  0.8385  -1.7381   0.0000   0.0000   0.0000   0.3174
   3.400   0.5313   0.00819   0.00322  -0.0368  0.5893  0.8407  -1.8032   0.0000   0.0000   0.0000   0.3158
   3.500   0.5410   0.00826   0.00323  -0.0365  0.5688  0.8429  -1.8660   0.0000   0.0000   0.0000   0.3140
   3.600   0.5495   0.00839   0.00324  -0.0360  0.5432  0.8449  -1.9257   0.0000   0.0000   0.0000   0.3120
   3.700   0.5561   0.00866   0.00327  -0.0353  0.4911  0.8468  -1.9794   0.0000   0.0000   0.0000   0.3097
   3.800   0.5588   0.00922   0.00342  -0.0339  0.4054  0.8485  -2.0206   0.0000   0.0000   0.0000   0.3069
   3.900   0.5610   0.00985   0.00367  -0.0326  0.3204  0.8515  -2.0589   0.0000   0.0000   0.0000   0.3043
   4.000   0.5625   0.01048   0.00393  -0.0313  0.2402  0.8572  -2.0940   0.0000   0.0000   0.0000   0.3016
   4.100   0.5640   0.01107   0.00419  -0.0298  0.1666  0.8620  -2.1281   0.0000   0.0000   0.0000   0.2988
   4.200   0.5651   0.01166   0.00447  -0.0283  0.0973  0.8663  -2.1592   0.0000   0.0000   0.0000   0.2958
   4.300   0.5675   0.01213   0.00473  -0.0268  0.0596  0.8703  -2.1911   0.0000   0.0000   0.0000   0.2930
   4.400   0.5736   0.01236   0.00492  -0.0259  0.0445  0.8739  -2.2252   0.0000   0.0000   0.0000   0.2908
   4.500   0.5797   0.01260   0.00513  -0.0249  0.0376  0.8775  -2.2504   0.0000   0.0000   0.0000   0.2886
   4.600   0.5829   0.01305   0.00569  -0.0232  0.0279  0.8815  -2.1937   0.0000   0.0000   0.0000   0.2853
   4.700   0.5852   0.01352   0.00630  -0.0214  0.0254  0.8855  -2.1626   0.0000   0.0000   0.0000   0.2820
   4.800   0.5870   0.01399   0.00688  -0.0196  0.0243  0.8895  -2.1484   0.0000   0.0000   0.0000   0.2788
   4.900   0.5903   0.01436   0.00730  -0.0182  0.0239  0.8931  -2.1584   0.0000   0.0000   0.0000   0.2761
   5.000   0.5965   0.01456   0.00753  -0.0173  0.0238  0.8961  -2.1952   0.0000   0.0000   0.0000   0.2742
   5.100   0.6024   0.01478   0.00777  -0.0164  0.0236  0.8985  -2.2303   0.0000   0.0000   0.0000   0.2723
   5.200   0.6081   0.01499   0.00801  -0.0154  0.0235  0.9031  -2.2635   0.0000   0.0000   0.0000   0.2704
   5.300   0.6121   0.01517   0.00823  -0.0141  0.0234  0.9099  -2.2926   0.0000   0.0000   0.0000   0.2680
   5.400   0.6149   0.01537   0.00847  -0.0125  0.0234  0.9161  -2.3184   0.0000   0.0000   0.0000   0.2652
   5.500   0.6176   0.01558   0.00872  -0.0109  0.0233  0.9221  -2.3432   0.0000   0.0000   0.0000   0.2623
   5.600   0.6206   0.01581   0.00900  -0.0093  0.0232  0.9282  -2.3679   0.0000   0.0000   0.0000   0.2597
   5.700   0.6238   0.01607   0.00929  -0.0078  0.0232  0.9341  -2.3925   0.0000   0.0000   0.0000   0.2571
   5.800   0.6275   0.01636   0.00961  -0.0064  0.0231  0.9398  -2.4170   0.0000   0.0000   0.0000   0.2547
   5.900   0.6315   0.01667   0.00995  -0.0051  0.0231  0.9448  -2.4415   0.0000   0.0000   0.0000   0.2525
   6.000   0.6361   0.01700   0.01032  -0.0039  0.0231  0.9488  -2.4661   0.0000   0.0000   0.0000   0.2504
   6.100   0.6464   0.01750   0.01085  -0.0039  0.0231  0.9536  -2.4993   0.0000   0.0000   0.0000   0.2503
   6.200   0.6597   0.01811   0.01150  -0.0045  0.0231  0.9586  -2.5355   0.0000   0.0000   0.0000   0.2510
   6.300   0.6757   0.01923   0.01291  -0.0053  0.0229  0.9612  -2.5702   0.0000   0.0000   0.0000   0.2520
   6.400   0.6857   0.01856   0.01222  -0.0056  0.0216  0.9705  -2.7133   0.0000   0.0000   0.0000   0.2522
   6.500   0.6974   0.01840   0.01205  -0.0061  0.0203  0.9773  -2.8289   0.0000   0.0000   0.0000   0.2527
   6.600   0.7093   0.01845   0.01210  -0.0066  0.0194  0.9835  -2.9268   0.0000   0.0000   0.0000   0.2532
   6.700   0.7214   0.01865   0.01231  -0.0072  0.0187  0.9896  -3.0114   0.0000   0.0000   0.0000   0.2537
   6.800   0.7342   0.01902   0.01272  -0.0077  0.0184  0.9953  -3.0781   0.0000   0.0000   0.0000   0.2542
   6.900   0.7459   0.01943   0.01316  -0.0081  0.0182  1.0000  -3.1348   0.0000   0.0000   0.0000   0.2544
   7.000   0.7547   0.01981   0.01356  -0.0079  0.0180  1.0000  -3.1841   0.0000   0.0000   0.0000   0.2539
   7.100   0.7642   0.02022   0.01399  -0.0078  0.0179  1.0000  -3.2350   0.0000   0.0000   0.0000   0.2536
   7.200   0.7739   0.02064   0.01444  -0.0078  0.0177  1.0000  -3.2867   0.0000   0.0000   0.0000   0.2534
   7.300   0.7838   0.02108   0.01491  -0.0078  0.0176  1.0000  -3.3391   0.0000   0.0000   0.0000   0.2531
   7.400   0.7938   0.02154   0.01540  -0.0078  0.0174  1.0000  -3.3920   0.0000   0.0000   0.0000   0.2529
   7.500   0.8037   0.02201   0.01590  -0.0078  0.0173  1.0000  -3.4454   0.0000   0.0000   0.0000   0.2527
   7.600   0.8136   0.02249   0.01641  -0.0078  0.0171  1.0000  -3.4990   0.0000   0.0000   0.0000   0.2525
   7.700   0.8232   0.02298   0.01694  -0.0077  0.0170  1.0000  -3.5530   0.0000   0.0000   0.0000   0.2522
   7.800   0.8327   0.02347   0.01746  -0.0077  0.0168  1.0000  -3.6072   0.0000   0.0000   0.0000   0.2520
   7.900   0.8419   0.02396   0.01799  -0.0076  0.0167  1.0000  -3.6617   0.0000   0.0000   0.0000   0.2516
   8.000   0.8508   0.02446   0.01853  -0.0074  0.0165  1.0000  -3.7164   0.0000   0.0000   0.0000   0.2513
   8.100   0.8594   0.02495   0.01906  -0.0072  0.0164  1.0000  -3.7714   0.0000   0.0000   0.0000   0.2508
   8.200   0.8676   0.02544   0.01959  -0.0070  0.0162  1.0000  -3.8268   0.0000   0.0000   0.0000   0.2504
   8.300   0.8756   0.02592   0.02011  -0.0067  0.0161  1.0000  -3.8829   0.0000   0.0000   0.0000   0.2499
   8.400   0.8831   0.02640   0.02062  -0.0063  0.0159  1.0000  -3.9396   0.0000   0.0000   0.0000   0.2493
   8.500   0.8904   0.02686   0.02112  -0.0060  0.0157  1.0000  -3.9973   0.0000   0.0000   0.0000   0.2487
   8.600   0.8887   0.02591   0.02010  -0.0042  0.0146  1.0000  -4.1765   0.0000   0.0000   0.0000   0.2466
   8.700   0.8882   0.02575   0.01990  -0.0025  0.0141  1.0000  -4.2750   0.0000   0.0000   0.0000   0.2446
   8.800   0.8907   0.02591   0.02005  -0.0014  0.0137  1.0000  -4.3571   0.0000   0.0000   0.0000   0.2432
   8.900   0.8950   0.02629   0.02043  -0.0006  0.0134  1.0000  -4.4300   0.0000   0.0000   0.0000   0.2421
   9.000   0.9006   0.02693   0.02110  -0.0000  0.0130  1.0000  -4.4915   0.0000   0.0000   0.0000   0.2414
   9.100   0.9077   0.02799   0.02223   0.0002  0.0126  1.0000  -4.5334   0.0000   0.0000   0.0000   0.2411
   9.200   0.9161   0.03028   0.02470  -0.0002  0.0121  1.0000  -4.5151   0.0000   0.0000   0.0000   0.2415
   9.300   0.9134   0.03471   0.02949   0.0006  0.0116  1.0000  -4.3334   0.0000   0.0000   0.0000   0.2405
   9.400   0.9144   0.03447   0.02924   0.0021  0.0115  1.0000  -4.4136   0.0000   0.0000   0.0000   0.2387
   9.500   0.9157   0.03425   0.02903   0.0036  0.0114  1.0000  -4.4950   0.0000   0.0000   0.0000   0.2370
   9.600   0.9176   0.03416   0.02894   0.0049  0.0113  1.0000  -4.5737   0.0000   0.0000   0.0000   0.2354
   9.700   0.9198   0.03415   0.02896   0.0061  0.0112  1.0000  -4.6507   0.0000   0.0000   0.0000   0.2340
   9.800   0.9222   0.03423   0.02906   0.0073  0.0111  1.0000  -4.7253   0.0000   0.0000   0.0000   0.2327
   9.900   0.9241   0.03438   0.02923   0.0084  0.0110  1.0000  -4.7948   0.0000   0.0000   0.0000   0.2313
  10.000   0.9259   0.03458   0.02946   0.0096  0.0109  1.0000  -4.8618   0.0000   0.0000   0.0000   0.2300
  10.100   0.9278   0.03483   0.02973   0.0107  0.0107  1.0000  -4.9276   0.0000   0.0000   0.0000   0.2287
  10.200   0.9297   0.03511   0.03005   0.0117  0.0106  1.0000  -4.9928   0.0000   0.0000   0.0000   0.2274
  10.300   0.9316   0.03543   0.03040   0.0127  0.0104  1.0000  -5.0569   0.0000   0.0000   0.0000   0.2262
  10.400   0.9333   0.03579   0.03080   0.0137  0.0103  1.0000  -5.1196   0.0000   0.0000   0.0000   0.2251
  10.500   0.9344   0.03619   0.03123   0.0148  0.0102  1.0000  -5.1784   0.0000   0.0000   0.0000   0.2238
  10.600   0.9352   0.03661   0.03169   0.0158  0.0100  1.0000  -5.2349   0.0000   0.0000   0.0000   0.2226
  10.700   0.9358   0.03705   0.03217   0.0169  0.0099  1.0000  -5.2907   0.0000   0.0000   0.0000   0.2214
  10.800   0.9364   0.03751   0.03267   0.0179  0.0097  1.0000  -5.3466   0.0000   0.0000   0.0000   0.2202
  10.900   0.9370   0.03799   0.03319   0.0188  0.0096  1.0000  -5.4023   0.0000   0.0000   0.0000   0.2190
  11.000   0.9373   0.03850   0.03374   0.0198  0.0094  1.0000  -5.4574   0.0000   0.0000   0.0000   0.2179
  11.100   0.9370   0.03904   0.03432   0.0208  0.0093  1.0000  -5.5085   0.0000   0.0000   0.0000   0.2167
  11.200   0.9362   0.03960   0.03492   0.0217  0.0092  1.0000  -5.5572   0.0000   0.0000   0.0000   0.2154
  11.300   0.9355   0.04018   0.03554   0.0227  0.0091  1.0000  -5.6062   0.0000   0.0000   0.0000   0.2143
  11.400   0.9348   0.04077   0.03618   0.0236  0.0090  1.0000  -5.6559   0.0000   0.0000   0.0000   0.2131
  11.500   0.9340   0.04138   0.03683   0.0245  0.0089  1.0000  -5.7059   0.0000   0.0000   0.0000   0.2120
  11.600   0.9329   0.04202   0.03751   0.0253  0.0088  1.0000  -5.7537   0.0000   0.0000   0.0000   0.2109
  11.700   0.9311   0.04269   0.03822   0.0262  0.0087  1.0000  -5.7963   0.0000   0.0000   0.0000   0.2098
  11.800   0.9292   0.04337   0.03895   0.0270  0.0086  1.0000  -5.8386   0.0000   0.0000   0.0000   0.2087
  11.900   0.9275   0.04406   0.03968   0.0277  0.0085  1.0000  -5.8825   0.0000   0.0000   0.0000   0.2077
  12.000   0.9258   0.04477   0.04043   0.0284  0.0084  1.0000  -5.9269   0.0000   0.0000   0.0000   0.2067
  12.100   0.9236   0.04555   0.04125   0.0291  0.0084  1.0000  -5.9651   0.0000   0.0000   0.0000   0.2057
  12.200   0.9204   0.04639   0.04214   0.0298  0.0083  1.0000  -5.9953   0.0000   0.0000   0.0000   0.2047
  12.300   0.9172   0.04725   0.04305   0.0304  0.0083  1.0000  -6.0249   0.0000   0.0000   0.0000   0.2037
  12.400   0.9142   0.04815   0.04399   0.0310  0.0082  1.0000  -6.0556   0.0000   0.0000   0.0000   0.2028
  12.500   0.9112   0.04907   0.04496   0.0315  0.0081  1.0000  -6.0858   0.0000   0.0000   0.0000   0.2020
  12.600   0.9074   0.05007   0.04601   0.0320  0.0081  1.0000  -6.1088   0.0000   0.0000   0.0000   0.2011
  12.700   0.9028   0.05115   0.04714   0.0324  0.0081  1.0000  -6.1232   0.0000   0.0000   0.0000   0.2003
  12.800   0.8984   0.05226   0.04830   0.0328  0.0080  1.0000  -6.1389   0.0000   0.0000   0.0000   0.1995
  12.900   0.8942   0.05341   0.04949   0.0331  0.0080  1.0000  -6.1544   0.0000   0.0000   0.0000   0.1989
  13.000   0.8895   0.05463   0.05077   0.0333  0.0079  1.0000  -6.1641   0.0000   0.0000   0.0000   0.1982
  13.100   0.8832   0.05600   0.05220   0.0334  0.0079  1.0000  -6.1576   0.0000   0.0000   0.0000   0.1976
  13.200   0.8772   0.05742   0.05366   0.0335  0.0079  1.0000  -6.1515   0.0000   0.0000   0.0000   0.1971
  13.300   0.8713   0.05889   0.05520   0.0335  0.0079  1.0000  -6.1446   0.0000   0.0000   0.0000   0.1967
  13.400   0.8643   0.06054   0.05691   0.0333  0.0079  1.0000  -6.1240   0.0000   0.0000   0.0000   0.1963
  13.500   0.8558   0.06241   0.05884   0.0330  0.0079  1.0000  -6.0866   0.0000   0.0000   0.0000   0.1961
  13.600   0.8479   0.06434   0.06083   0.0327  0.0078  1.0000  -6.0502   0.0000   0.0000   0.0000   0.1960
  13.700   0.8389   0.06649   0.06304   0.0321  0.0078  1.0000  -5.9991   0.0000   0.0000   0.0000   0.1961
  13.800   0.8274   0.06904   0.06567   0.0313  0.0079  1.0000  -5.9175   0.0000   0.0000   0.0000   0.1963
  13.900   0.8164   0.07173   0.06844   0.0303  0.0079  1.0000  -5.8329   0.0000   0.0000   0.0000   0.1968
  14.000   0.8014   0.07515   0.07194   0.0288  0.0079  1.0000  -5.6978   0.0000   0.0000   0.0000   0.1978
  14.100   0.7854   0.07904   0.07592   0.0269  0.0080  1.0000  -5.5378   0.0000   0.0000   0.0000   0.1993
  14.200   0.7643   0.08423   0.08122   0.0240  0.0081  1.0000  -5.2986   0.0000   0.0000   0.0000   0.2020
  14.300   0.6705   0.11210   0.10936   0.0088  0.0092  1.0000  -3.6777   0.0000   0.0000   0.0000   0.2212
  14.400   0.6594   0.11751   0.11476   0.0063  0.0094  1.0000  -3.4456   0.0000   0.0000   0.0000   0.2249
  14.500   0.6521   0.12169   0.11893   0.0044  0.0094  1.0000  -3.2865   0.0000   0.0000   0.0000   0.2277
  14.600   0.6465   0.12536   0.12260   0.0027  0.0095  1.0000  -3.1567   0.0000   0.0000   0.0000   0.2302
  14.700   0.6419   0.12874   0.12596   0.0012  0.0096  1.0000  -3.0440   0.0000   0.0000   0.0000   0.2325
  14.800   0.6381   0.13191   0.12912  -0.0002  0.0097  1.0000  -2.9427   0.0000   0.0000   0.0000   0.2347
  14.900   0.6348   0.13493   0.13213  -0.0016  0.0098  1.0000  -2.8495   0.0000   0.0000   0.0000   0.2368
  15.000   0.6319   0.13783   0.13503  -0.0028  0.0099  1.0000  -2.7622   0.0000   0.0000   0.0000   0.2388
  15.100   0.6293   0.14067   0.13786  -0.0041  0.0101  1.0000  -2.6784   0.0000   0.0000   0.0000   0.2407
  15.200   0.6268   0.14349   0.14068  -0.0053  0.0103  1.0000  -2.5938   0.0000   0.0000   0.0000   0.2426
  15.300   0.6233   0.14654   0.14372  -0.0065  0.0107  1.0000  -2.4925   0.0000   0.0000   0.0000   0.2446
  15.400   0.6123   0.15531   0.15248  -0.0090  0.0176  1.0000  -1.8870   0.0000   0.0000   0.0000   0.2494
  15.500   0.6131   0.15720   0.15437  -0.0099  0.0176  1.0000  -1.8669   0.0000   0.0000   0.0000   0.2507
  15.600   0.6141   0.15904   0.15621  -0.0107  0.0175  1.0000  -1.8498   0.0000   0.0000   0.0000   0.2520
  15.700   0.6152   0.16083   0.15800  -0.0115  0.0174  1.0000  -1.8348   0.0000   0.0000   0.0000   0.2532
  15.800   0.6164   0.16260   0.15976  -0.0124  0.0172  1.0000  -1.8215   0.0000   0.0000   0.0000   0.2544
  15.900   0.6176   0.16433   0.16149  -0.0132  0.0171  1.0000  -1.8095   0.0000   0.0000   0.0000   0.2555
  16.000   0.6189   0.16603   0.16319  -0.0140  0.0169  1.0000  -1.7989   0.0000   0.0000   0.0000   0.2567
  16.100   0.6203   0.16772   0.16487  -0.0147  0.0168  1.0000  -1.7895   0.0000   0.0000   0.0000   0.2578
  16.200   0.6218   0.16938   0.16653  -0.0155  0.0166  1.0000  -1.7812   0.0000   0.0000   0.0000   0.2588
  16.300   0.6234   0.17103   0.16818  -0.0163  0.0164  1.0000  -1.7739   0.0000   0.0000   0.0000   0.2599
  16.400   0.6250   0.17266   0.16980  -0.0170  0.0163  1.0000  -1.7675   0.0000   0.0000   0.0000   0.2609
  16.500   0.6266   0.17428   0.17142  -0.0178  0.0161  1.0000  -1.7620   0.0000   0.0000   0.0000   0.2619
  16.600   0.6284   0.17587   0.17301  -0.0185  0.0159  1.0000  -1.7572   0.0000   0.0000   0.0000   0.2629
  16.700   0.6301   0.17751   0.17467  -0.0192  0.0156  1.0000  -1.7611   0.0000   0.0000   0.0000   0.2638
  16.800   0.6319   0.17910   0.17625  -0.0199  0.0155  1.0000  -1.7594   0.0000   0.0000   0.0000   0.2648
  16.900   0.6338   0.18066   0.17781  -0.0206  0.0153  1.0000  -1.7578   0.0000   0.0000   0.0000   0.2657
  17.000   0.6357   0.18221   0.17935  -0.0213  0.0152  1.0000  -1.7564   0.0000   0.0000   0.0000   0.2666
  17.100   0.6377   0.18374   0.18088  -0.0220  0.0150  1.0000  -1.7556   0.0000   0.0000   0.0000   0.2674
  17.200   0.6397   0.18526   0.18240  -0.0227  0.0149  1.0000  -1.7554   0.0000   0.0000   0.0000   0.2683
  17.300   0.6417   0.18677   0.18391  -0.0234  0.0148  1.0000  -1.7556   0.0000   0.0000   0.0000   0.2691
  17.400   0.6438   0.18826   0.18540  -0.0241  0.0146  1.0000  -1.7564   0.0000   0.0000   0.0000   0.2699
  17.500   0.6460   0.18975   0.18688  -0.0247  0.0145  1.0000  -1.7578   0.0000   0.0000   0.0000   0.2707
  17.600   0.6482   0.19122   0.18835  -0.0254  0.0144  1.0000  -1.7598   0.0000   0.0000   0.0000   0.2714
  17.700   0.6504   0.19268   0.18981  -0.0261  0.0143  1.0000  -1.7624   0.0000   0.0000   0.0000   0.2722
  17.800   0.6526   0.19413   0.19125  -0.0267  0.0142  1.0000  -1.7658   0.0000   0.0000   0.0000   0.2729
  17.900   0.6549   0.19556   0.19269  -0.0274  0.0141  1.0000  -1.7699   0.0000   0.0000   0.0000   0.2736
  18.000   0.6572   0.19699   0.19411  -0.0280  0.0140  1.0000  -1.7748   0.0000   0.0000   0.0000   0.2743
  18.100   0.6596   0.19841   0.19553  -0.0286  0.0139  1.0000  -1.7805   0.0000   0.0000   0.0000   0.2750
  18.200   0.6620   0.19981   0.19693  -0.0293  0.0138  1.0000  -1.7871   0.0000   0.0000   0.0000   0.2756
  18.300   0.6645   0.20121   0.19833  -0.0299  0.0137  1.0000  -1.7945   0.0000   0.0000   0.0000   0.2763
  18.400   0.6670   0.20260   0.19971  -0.0305  0.0136  1.0000  -1.8029   0.0000   0.0000   0.0000   0.2769
  18.500   0.6695   0.20398   0.20110  -0.0311  0.0135  1.0000  -1.8122   0.0000   0.0000   0.0000   0.2775
  18.600   0.6722   0.20536   0.20247  -0.0317  0.0134  1.0000  -1.8224   0.0000   0.0000   0.0000   0.2780
  18.700   0.6748   0.20673   0.20384  -0.0323  0.0133  1.0000  -1.8337   0.0000   0.0000   0.0000   0.2786
  18.800   0.6775   0.20811   0.20522  -0.0329  0.0132  1.0000  -1.8460   0.0000   0.0000   0.0000   0.2791
  18.900   0.6803   0.20948   0.20659  -0.0334  0.0131  1.0000  -1.8593   0.0000   0.0000   0.0000   0.2796
  19.000   0.6832   0.21086   0.20797  -0.0340  0.0130  1.0000  -1.8737   0.0000   0.0000   0.0000   0.2801
  19.100   0.6861   0.21226   0.20936  -0.0345  0.0129  1.0000  -1.8891   0.0000   0.0000   0.0000   0.2805
  19.200   0.6891   0.21367   0.21077  -0.0351  0.0128  1.0000  -1.9055   0.0000   0.0000   0.0000   0.2809
  19.300   0.6922   0.21510   0.21221  -0.0356  0.0127  1.0000  -1.9221   0.0000   0.0000   0.0000   0.2813
  19.400   0.6952   0.21657   0.21368  -0.0362  0.0126  1.0000  -1.9371   0.0000   0.0000   0.0000   0.2818
  19.500   0.6982   0.21808   0.21519  -0.0367  0.0125  1.0000  -1.9516   0.0000   0.0000   0.0000   0.2822
  19.600   0.7005   0.21967   0.21677  -0.0373  0.0124  1.0000  -1.9546   0.0000   0.0000   0.0000   0.2827
  19.700   0.7028   0.22134   0.21844  -0.0380  0.0123  1.0000  -1.9539   0.0000   0.0000   0.0000   0.2833
  19.800   0.7049   0.22313   0.22024  -0.0386  0.0122  1.0000  -1.9475   0.0000   0.0000   0.0000   0.2840
  19.900   0.7068   0.22520   0.22230  -0.0393  0.0121  1.0000  -1.9298   0.0000   0.0000   0.0000   0.2847
  20.000   0.7075   0.22837   0.22547  -0.0401  0.0119  1.0000  -1.8660   0.0000   0.0000   0.0000   0.2857
  20.200   0.7074   0.23466   0.23173  -0.0420  0.0115  1.0000  -1.6873   0.0000   0.0000   0.0000   0.2882
  20.300   0.7092   0.23580   0.23287  -0.0426  0.0115  1.0000  -1.6798   0.0000   0.0000   0.0000   0.2888
  20.400   0.7109   0.23687   0.23393  -0.0432  0.0115  1.0000  -1.6727   0.0000   0.0000   0.0000   0.2894
  20.500   0.7127   0.23789   0.23495  -0.0439  0.0115  1.0000  -1.6665   0.0000   0.0000   0.0000   0.2900
  20.600   0.7145   0.23884   0.23590  -0.0445  0.0115  1.0000  -1.6612   0.0000   0.0000   0.0000   0.2906
  20.700   0.7163   0.23974   0.23680  -0.0451  0.0114  1.0000  -1.6569   0.0000   0.0000   0.0000   0.2911
  20.800   0.7180   0.24055   0.23761  -0.0457  0.0114  1.0000  -1.6535   0.0000   0.0000   0.0000   0.2917
  20.900   0.7198   0.24128   0.23833  -0.0464  0.0113  1.0000  -1.6516   0.0000   0.0000   0.0000   0.2922
  21.000   0.7216   0.24190   0.23895  -0.0470  0.0112  1.0000  -1.6508   0.0000   0.0000   0.0000   0.2928
  21.100   0.7234   0.24243   0.23947  -0.0476  0.0111  1.0000  -1.6499   0.0000   0.0000   0.0000   0.2933
  21.200   0.7248   0.24286   0.23991  -0.0483  0.0109  1.0000  -1.6421   0.0000   0.0000   0.0000   0.2939
  21.300   0.7262   0.24337   0.24041  -0.0490  0.0106  1.0000  -1.6254   0.0000   0.0000   0.0000   0.2946
  21.400   0.7280   0.24412   0.24116  -0.0496  0.0103  1.0000  -1.6071   0.0000   0.0000   0.0000   0.2952
  21.500   0.7301   0.24511   0.24214  -0.0503  0.0099  1.0000  -1.5912   0.0000   0.0000   0.0000   0.2957
  21.600   0.7324   0.24622   0.24325  -0.0509  0.0096  1.0000  -1.5809   0.0000   0.0000   0.0000   0.2962
  21.700   0.7347   0.24736   0.24439  -0.0515  0.0093  1.0000  -1.5755   0.0000   0.0000   0.0000   0.2967
  21.800   0.7371   0.24851   0.24554  -0.0521  0.0091  1.0000  -1.5740   0.0000   0.0000   0.0000   0.2971
  21.900   0.7394   0.24965   0.24669  -0.0526  0.0088  1.0000  -1.5753   0.0000   0.0000   0.0000   0.2975
  22.000   0.7417   0.25079   0.24782  -0.0532  0.0086  1.0000  -1.5791   0.0000   0.0000   0.0000   0.2979
  22.100   0.7441   0.25191   0.24894  -0.0538  0.0084  1.0000  -1.5850   0.0000   0.0000   0.0000   0.2983
  22.200   0.7465   0.25302   0.25005  -0.0544  0.0082  1.0000  -1.5928   0.0000   0.0000   0.0000   0.2987
  22.300   0.7488   0.25412   0.25115  -0.0550  0.0081  1.0000  -1.6025   0.0000   0.0000   0.0000   0.2991
  22.400   0.7512   0.25521   0.25224  -0.0556  0.0079  1.0000  -1.6141   0.0000   0.0000   0.0000   0.2994
  22.500   0.7536   0.25629   0.25332  -0.0562  0.0078  1.0000  -1.6275   0.0000   0.0000   0.0000   0.2998
  22.600   0.7560   0.25736   0.25439  -0.0567  0.0077  1.0000  -1.6428   0.0000   0.0000   0.0000   0.3001
  22.700   0.7584   0.25843   0.25546  -0.0573  0.0076  1.0000  -1.6602   0.0000   0.0000   0.0000   0.3005
  22.800   0.7609   0.25949   0.25652  -0.0579  0.0075  1.0000  -1.6796   0.0000   0.0000   0.0000   0.3008
  22.900   0.7634   0.26055   0.25758  -0.0585  0.0074  1.0000  -1.7012   0.0000   0.0000   0.0000   0.3011
  23.000   0.7659   0.26161   0.25864  -0.0590  0.0073  1.0000  -1.7251   0.0000   0.0000   0.0000   0.3014
  23.100   0.7685   0.26268   0.25971  -0.0596  0.0072  1.0000  -1.7518   0.0000   0.0000   0.0000   0.3016
  23.200   0.7712   0.26379   0.26082  -0.0601  0.0071  1.0000  -1.7815   0.0000   0.0000   0.0000   0.3018
  23.300   0.7741   0.26494   0.26197  -0.0606  0.0070  1.0000  -1.8147   0.0000   0.0000   0.0000   0.3020
  23.400   0.7772   0.26621   0.26324  -0.0611  0.0070  1.0000  -1.8529   0.0000   0.0000   0.0000   0.3021
  23.500   0.7809   0.26780   0.26483  -0.0616  0.0069  1.0000  -1.9008   0.0000   0.0000   0.0000   0.3021
  23.600   0.7835   0.27185   0.26887  -0.0621  0.0066  1.0000  -1.8374   0.0000   0.0000   0.0000   0.3024
  23.700   0.7852   0.27292   0.26994  -0.0627  0.0066  1.0000  -1.8247   0.0000   0.0000   0.0000   0.3029
  23.800   0.7868   0.27398   0.27100  -0.0633  0.0066  1.0000  -1.8126   0.0000   0.0000   0.0000   0.3034
  23.900   0.7885   0.27503   0.27205  -0.0640  0.0066  1.0000  -1.8010   0.0000   0.0000   0.0000   0.3038
  24.000   0.7901   0.27604   0.27306  -0.0646  0.0066  1.0000  -1.7868   0.0000   0.0000   0.0000   0.3043
  24.100   0.7918   0.27712   0.27420  -0.0652  0.0066  1.0000  -1.7769   0.0000   0.0000   0.0000   0.3047
  24.200   0.7932   0.27810   0.27518  -0.0659  0.0066  1.0000  -1.7578   0.0000   0.0000   0.0000   0.3053
  24.300   0.7944   0.27903   0.27611  -0.0666  0.0065  1.0000  -1.7335   0.0000   0.0000   0.0000   0.3058
  24.400   0.7956   0.27994   0.27702  -0.0673  0.0065  1.0000  -1.7065   0.0000   0.0000   0.0000   0.3064
  24.500   0.7969   0.28084   0.27792  -0.0680  0.0064  1.0000  -1.6729   0.0000   0.0000   0.0000   0.3070
  24.600   0.7985   0.28183   0.27892  -0.0687  0.0062  1.0000  -1.6186   0.0000   0.0000   0.0000   0.3076
  24.700   0.8008   0.28309   0.28018  -0.0692  0.0058  1.0000  -1.5898   0.0000   0.0000   0.0000   0.3079
  24.800   0.8031   0.28431   0.28140  -0.0698  0.0056  1.0000  -1.5849   0.0000   0.0000   0.0000   0.3083
  24.900   0.8053   0.28550   0.28259  -0.0704  0.0054  1.0000  -1.5867   0.0000   0.0000   0.0000   0.3086
  25.000   0.8075   0.28666   0.28375  -0.0710  0.0052  1.0000  -1.5922   0.0000   0.0000   0.0000   0.3089
  25.100   0.8096   0.28780   0.28489  -0.0716  0.0051  1.0000  -1.6005   0.0000   0.0000   0.0000   0.3092
  25.200   0.8118   0.28892   0.28601  -0.0722  0.0049  1.0000  -1.6112   0.0000   0.0000   0.0000   0.3095
  25.300   0.8139   0.29002   0.28711  -0.0728  0.0048  1.0000  -1.6242   0.0000   0.0000   0.0000   0.3098
  25.400   0.8161   0.29111   0.28820  -0.0734  0.0048  1.0000  -1.6394   0.0000   0.0000   0.0000   0.3101
  25.500   0.8182   0.29218   0.28927  -0.0740  0.0047  1.0000  -1.6566   0.0000   0.0000   0.0000   0.3104
  25.600   0.8204   0.29324   0.29034  -0.0746  0.0046  1.0000  -1.6759   0.0000   0.0000   0.0000   0.3107
  25.700   0.8225   0.29429   0.29139  -0.0753  0.0045  1.0000  -1.6974   0.0000   0.0000   0.0000   0.3110
  25.800   0.8246   0.29534   0.29244  -0.0759  0.0045  1.0000  -1.7210   0.0000   0.0000   0.0000   0.3112
  25.900   0.8268   0.29639   0.29349  -0.0765  0.0044  1.0000  -1.7470   0.0000   0.0000   0.0000   0.3115
  26.000   0.8290   0.29745   0.29455  -0.0771  0.0044  1.0000  -1.7757   0.0000   0.0000   0.0000   0.3117
  26.100   0.8312   0.29855   0.29565  -0.0776  0.0044  1.0000  -1.8079   0.0000   0.0000   0.0000   0.3119
  26.200   0.8336   0.29972   0.29682  -0.0782  0.0043  1.0000  -1.8450   0.0000   0.0000   0.0000   0.3121
  26.300   0.8364   0.30110   0.29821  -0.0787  0.0043  1.0000  -1.8922   0.0000   0.0000   0.0000   0.3121
  26.400   0.8396   0.30301   0.30010  -0.0792  0.0043  1.0000  -1.9307   0.0000   0.0000   0.0000   0.3121
  26.500   0.8412   0.30422   0.30131  -0.0798  0.0043  1.0000  -1.9116   0.0000   0.0000   0.0000   0.3125
  26.600   0.8428   0.30543   0.30252  -0.0804  0.0042  1.0000  -1.8936   0.0000   0.0000   0.0000   0.3129
  26.700   0.8444   0.30664   0.30374  -0.0811  0.0042  1.0000  -1.8767   0.0000   0.0000   0.0000   0.3132
  26.800   0.8460   0.30786   0.30495  -0.0817  0.0042  1.0000  -1.8607   0.0000   0.0000   0.0000   0.3136
  26.900   0.8477   0.30907   0.30617  -0.0823  0.0042  1.0000  -1.8455   0.0000   0.0000   0.0000   0.3139
  27.000   0.8493   0.31029   0.30738  -0.0829  0.0042  1.0000  -1.8311   0.0000   0.0000   0.0000   0.3143
  27.100   0.8510   0.31150   0.30860  -0.0835  0.0042  1.0000  -1.8175   0.0000   0.0000   0.0000   0.3146
  27.200   0.8527   0.31272   0.30982  -0.0841  0.0042  1.0000  -1.8045   0.0000   0.0000   0.0000   0.3149
  27.300   0.8544   0.31394   0.31104  -0.0847  0.0042  1.0000  -1.7922   0.0000   0.0000   0.0000   0.3153
  27.400   0.8561   0.31516   0.31226  -0.0854  0.0042  1.0000  -1.7805   0.0000   0.0000   0.0000   0.3156
  27.500   0.8579   0.31638   0.31348  -0.0860  0.0042  1.0000  -1.7693   0.0000   0.0000   0.0000   0.3159
  27.600   0.8596   0.31760   0.31470  -0.0866  0.0042  1.0000  -1.7587   0.0000   0.0000   0.0000   0.3162
  27.700   0.8613   0.31882   0.31592  -0.0872  0.0042  1.0000  -1.7485   0.0000   0.0000   0.0000   0.3165
  27.800   0.8630   0.32003   0.31714  -0.0878  0.0042  1.0000  -1.7388   0.0000   0.0000   0.0000   0.3168
  27.900   0.8648   0.32125   0.31836  -0.0884  0.0042  1.0000  -1.7296   0.0000   0.0000   0.0000   0.3171
  28.000   0.8665   0.32247   0.31958  -0.0890  0.0042  1.0000  -1.7207   0.0000   0.0000   0.0000   0.3173
  28.100   0.8682   0.32369   0.32080  -0.0896  0.0042  1.0000  -1.7123   0.0000   0.0000   0.0000   0.3176
  28.200   0.8700   0.32490   0.32202  -0.0902  0.0042  1.0000  -1.7042   0.0000   0.0000   0.0000   0.3179
  28.300   0.8717   0.32612   0.32324  -0.0908  0.0042  1.0000  -1.6965   0.0000   0.0000   0.0000   0.3182
  28.400   0.8734   0.32733   0.32445  -0.0914  0.0042  1.0000  -1.6892   0.0000   0.0000   0.0000   0.3184
  28.500   0.8751   0.32854   0.32567  -0.0920  0.0042  1.0000  -1.6821   0.0000   0.0000   0.0000   0.3187
  28.600   0.8769   0.32976   0.32688  -0.0926  0.0042  1.0000  -1.6754   0.0000   0.0000   0.0000   0.3190
  28.700   0.8786   0.33097   0.32810  -0.0932  0.0042  1.0000  -1.6690   0.0000   0.0000   0.0000   0.3192
  28.800   0.8803   0.33218   0.32931  -0.0938  0.0041  1.0000  -1.6628   0.0000   0.0000   0.0000   0.3195
  28.900   0.8820   0.33338   0.33052  -0.0944  0.0041  1.0000  -1.6569   0.0000   0.0000   0.0000   0.3197
  29.000   0.8837   0.33459   0.33173  -0.0950  0.0041  1.0000  -1.6513   0.0000   0.0000   0.0000   0.3200
  29.100   0.8854   0.33580   0.33294  -0.0956  0.0041  1.0000  -1.6459   0.0000   0.0000   0.0000   0.3202
  29.200   0.8870   0.33700   0.33414  -0.0962  0.0041  1.0000  -1.6407   0.0000   0.0000   0.0000   0.3205
  29.300   0.8887   0.33820   0.33535  -0.0968  0.0041  1.0000  -1.6358   0.0000   0.0000   0.0000   0.3207
  29.400   0.8904   0.33941   0.33655  -0.0974  0.0041  1.0000  -1.6311   0.0000   0.0000   0.0000   0.3210
  29.500   0.8920   0.34061   0.33776  -0.0980  0.0041  1.0000  -1.6265   0.0000   0.0000   0.0000   0.3212
  29.600   0.8937   0.34180   0.33896  -0.0986  0.0041  1.0000  -1.6222   0.0000   0.0000   0.0000   0.3215
  29.700   0.8953   0.34300   0.34016  -0.0992  0.0041  1.0000  -1.6182   0.0000   0.0000   0.0000   0.3217
  29.800   0.8969   0.34419   0.34135  -0.0998  0.0041  1.0000  -1.6142   0.0000   0.0000   0.0000   0.3219
  29.900   0.8985   0.34539   0.34255  -0.1004  0.0041  1.0000  -1.6105   0.0000   0.0000   0.0000   0.3221
  30.000   0.9001   0.34658   0.34374  -0.1010  0.0041  1.0000  -1.6069   0.0000   0.0000   0.0000   0.3224


