xflr5 v6.61

 Calculated polar for: NACA 4408

 1 1 Reynolds number fixed          Mach number fixed         

 xtrf =   1.000 (top)        1.000 (bottom)
 Mach =   0.000     Re =     0.450 e 6     Ncrit =   9.000

  alpha     CL        CD       CDp       Cm    Top Xtr Bot Xtr   Cpmin    Chinge    XCp    
 ------- -------- --------- --------- -------- ------- ------- -------- --------- ---------
 -10.000  -0.3707   0.11387   0.11130  -0.0287  1.0001  0.0162  -1.7046   0.0000   0.0000   0.0000   0.1660
  -9.000  -0.3741   0.09545   0.09301  -0.0346  1.0001  0.0172  -2.2687   0.0000   0.0000   0.0000   0.1515
  -8.900  -0.3739   0.09433   0.09190  -0.0344  1.0001  0.0177  -2.2260   0.0000   0.0000   0.0000   0.1521
  -8.800  -0.3689   0.09401   0.09159  -0.0335  1.0001  0.0183  -2.1005   0.0000   0.0000   0.0000   0.1532
  -8.700  -0.3650   0.09354   0.09112  -0.0330  1.0001  0.0188  -2.0105   0.0000   0.0000   0.0000   0.1537
  -8.600  -0.3626   0.09291   0.09049  -0.0328  1.0001  0.0193  -1.9520   0.0000   0.0000   0.0000   0.1539
  -8.500  -0.3611   0.09217   0.08977  -0.0326  1.0001  0.0198  -1.9117   0.0000   0.0000   0.0000   0.1541
  -8.400  -0.3604   0.09137   0.08899  -0.0325  1.0001  0.0203  -1.8838   0.0000   0.0000   0.0000   0.1545
  -8.300  -0.3603   0.09054   0.08817  -0.0323  1.0001  0.0207  -1.8640   0.0000   0.0000   0.0000   0.1551
  -8.200  -0.3609   0.08972   0.08737  -0.0320  1.0001  0.0212  -1.8506   0.0000   0.0000   0.0000   0.1562
  -8.100  -0.3623   0.08892   0.08659  -0.0316  1.0001  0.0216  -1.8424   0.0000   0.0000   0.0000   0.1578
  -8.000  -0.3646   0.08818   0.08586  -0.0310  1.0001  0.0219  -1.8387   0.0000   0.0000   0.0000   0.1601
  -7.900  -0.3681   0.08750   0.08520  -0.0302  1.0001  0.0223  -1.8392   0.0000   0.0000   0.0000   0.1632
  -7.800  -0.3727   0.08691   0.08464  -0.0291  1.0001  0.0225  -1.8434   0.0000   0.0000   0.0000   0.1673
  -7.700  -0.3785   0.08642   0.08418  -0.0278  1.0001  0.0227  -1.8511   0.0000   0.0000   0.0000   0.1722
  -7.600  -0.3856   0.08603   0.08381  -0.0262  1.0001  0.0228  -1.8618   0.0000   0.0000   0.0000   0.1778
  -7.500  -0.3936   0.08572   0.08352  -0.0244  1.0001  0.0229  -1.8748   0.0000   0.0000   0.0000   0.1839
  -7.400  -0.4015   0.08537   0.08321  -0.0228  1.0001  0.0230  -1.8881   0.0000   0.0000   0.0000   0.1895
  -7.300  -0.3968   0.08384   0.08168  -0.0247  0.9992  0.0237  -1.8817   0.0000   0.0000   0.0000   0.1839
  -7.200  -0.3843   0.08155   0.07938  -0.0293  0.9976  0.0250  -1.8798   0.0000   0.0000   0.0000   0.1701
  -7.100  -0.3656   0.07945   0.07727  -0.0362  0.9955  0.0268  -1.9044   0.0000   0.0000   0.0000   0.1470
  -7.000  -0.3509   0.07770   0.07550  -0.0405  0.9944  0.0272  -1.8796   0.0000   0.0000   0.0000   0.1306
  -6.900  -0.3378   0.07574   0.07353  -0.0445  0.9927  0.0274  -1.8610   0.0000   0.0000   0.0000   0.1141
  -6.800  -0.3245   0.07360   0.07138  -0.0486  0.9909  0.0275  -1.8457   0.0000   0.0000   0.0000   0.0960
  -6.700  -0.3106   0.07128   0.06903  -0.0529  0.9893  0.0276  -1.8323   0.0000   0.0000   0.0000   0.0752
  -6.600  -0.2962   0.06881   0.06654  -0.0574  0.9880  0.0277  -1.8203   0.0000   0.0000   0.0000   0.0518
  -6.500  -0.2813   0.06623   0.06393  -0.0618  0.9869  0.0277  -1.8091   0.0000   0.0000   0.0000   0.0255
  -6.400  -0.2684   0.06378   0.06145  -0.0656  0.9850  0.0277  -1.8042   0.0000   0.0000   0.0000   0.0009
  -6.300  -0.2559   0.06133   0.05896  -0.0691  0.9827  0.0277  -1.8248   0.0000   0.0000   0.0000  -0.0249
  -6.200  -0.2422   0.05875   0.05634  -0.0728  0.9809  0.0278  -1.8474   0.0000   0.0000   0.0000  -0.0557
  -6.100  -0.2278   0.05608   0.05362  -0.0765  0.9795  0.0278  -1.8725   0.0000   0.0000   0.0000  -0.0914
  -6.000  -0.2200   0.04600   0.04339  -0.0865  0.9774  0.0291  -2.1831   0.0000   0.0000   0.0000  -0.1489
  -5.900  -0.2063   0.04369   0.04101  -0.0894  0.9766  0.0296  -2.1708   0.0000   0.0000   0.0000  -0.1898
  -5.800  -0.1922   0.04193   0.03920  -0.0918  0.9760  0.0300  -2.1390   0.0000   0.0000   0.0000  -0.2344
  -5.700  -0.1836   0.04073   0.03796  -0.0926  0.9728  0.0303  -2.1089   0.0000   0.0000   0.0000  -0.2609
  -5.600  -0.1717   0.03934   0.03653  -0.0941  0.9709  0.0307  -2.0763   0.0000   0.0000   0.0000  -0.3050
  -5.500  -0.1587   0.03787   0.03499  -0.0958  0.9695  0.0311  -2.0470   0.0000   0.0000   0.0000  -0.3610
  -5.400  -0.1451   0.03630   0.03335  -0.0976  0.9684  0.0316  -2.0232   0.0000   0.0000   0.0000  -0.4305
  -5.300  -0.1311   0.03464   0.03161  -0.0995  0.9673  0.0320  -2.0065   0.0000   0.0000   0.0000  -0.5174
  -5.200  -0.1170   0.03287   0.02973  -0.1013  0.9663  0.0325  -1.9993   0.0000   0.0000   0.0000  -0.6257
  -5.100  -0.0984   0.02759   0.02401  -0.1037  0.9651  0.0267  -2.3097   0.0000   0.0000   0.0000  -0.8173
  -5.000  -0.0861   0.02068   0.01638  -0.1066  0.9638  0.0222  -2.6650   0.0000   0.0000   0.0000  -1.0037
  -4.900  -0.0724   0.01687   0.01195  -0.1075  0.9630  0.0201  -2.9074   0.0000   0.0000   0.0000  -1.2546
  -4.800  -0.0611   0.01547   0.01029  -0.1075  0.9610  0.0196  -2.9530   0.0000   0.0000   0.0000  -1.5341
  -4.700  -0.0509   0.01461   0.00927  -0.1073  0.9582  0.0194  -2.9520   0.0000   0.0000   0.0000  -1.8839
  -4.600  -0.0391   0.01390   0.00842  -0.1074  0.9561  0.0194  -2.9312   0.0000   0.0000   0.0000  -2.5298
  -4.500  -0.0268   0.01329   0.00771  -0.1076  0.9544  0.0197  -2.8998   0.0000   0.0000   0.0000  -3.8183
  -4.400  -0.0141   0.01279   0.00708  -0.1079  0.9527  0.0206  -2.8818   0.0000   0.0000   0.0000  -7.4870
  -4.300  -0.0012   0.01234   0.00656  -0.1082  0.9513  0.0216  -2.8427   0.0000   0.0000   0.0000  -91.8519
  -4.200   0.0120   0.01199   0.00616  -0.1085  0.9499  0.0236  -2.8082   0.0000   0.0000   0.0000   9.4210
  -4.100   0.0254   0.01196   0.00612  -0.1089  0.9485  0.0266  -2.7482   0.0000   0.0000   0.0000   4.5874
  -4.000   0.0388   0.01219   0.00636  -0.1092  0.9472  0.0277  -2.6404   0.0000   0.0000   0.0000   3.0953
  -3.900   0.0498   0.01114   0.00518  -0.1093  0.9453  0.0309  -2.6301   0.0000   0.0000   0.0000   2.4670
  -3.800   0.0593   0.01094   0.00498  -0.1089  0.9419  0.0324  -2.5551   0.0000   0.0000   0.0000   2.1063
  -3.700   0.0701   0.01080   0.00482  -0.1088  0.9389  0.0337  -2.4702   0.0000   0.0000   0.0000   1.8168
  -3.600   0.0816   0.01064   0.00465  -0.1088  0.9364  0.0349  -2.3850   0.0000   0.0000   0.0000   1.5968
  -3.500   0.0933   0.01050   0.00450  -0.1089  0.9340  0.0364  -2.2977   0.0000   0.0000   0.0000   1.4278
  -3.400   0.1052   0.01041   0.00440  -0.1090  0.9318  0.0383  -2.2061   0.0000   0.0000   0.0000   1.2955
  -3.300   0.1172   0.01032   0.00429  -0.1091  0.9298  0.0401  -2.1178   0.0000   0.0000   0.0000   1.1890
  -3.200   0.1294   0.01021   0.00415  -0.1092  0.9278  0.0413  -2.0331   0.0000   0.0000   0.0000   1.1009
  -3.100   0.1397   0.00982   0.00372  -0.1090  0.9247  0.0442  -1.9794   0.0000   0.0000   0.0000   1.0363
  -3.000   0.1499   0.00954   0.00344  -0.1087  0.9209  0.0491  -1.9155   0.0000   0.0000   0.0000   0.9812
  -2.900   0.1606   0.00942   0.00333  -0.1086  0.9173  0.0522  -1.8359   0.0000   0.0000   0.0000   0.9311
  -2.800   0.1716   0.00931   0.00320  -0.1085  0.9139  0.0552  -1.7559   0.0000   0.0000   0.0000   0.8865
  -2.700   0.1829   0.00922   0.00309  -0.1084  0.9108  0.0578  -1.6744   0.0000   0.0000   0.0000   0.8465
  -2.600   0.1945   0.00901   0.00285  -0.1084  0.9080  0.0636  -1.6012   0.0000   0.0000   0.0000   0.8108
  -2.500   0.2059   0.00885   0.00274  -0.1084  0.9050  0.0711  -1.5225   0.0000   0.0000   0.0000   0.7796
  -2.400   0.2161   0.00879   0.00267  -0.1081  0.9009  0.0765  -1.4463   0.0000   0.0000   0.0000   0.7532
  -2.300   0.2267   0.00865   0.00255  -0.1080  0.8968  0.0855  -1.3726   0.0000   0.0000   0.0000   0.7289
  -2.200   0.2375   0.00854   0.00249  -0.1079  0.8929  0.0952  -1.2958   0.0000   0.0000   0.0000   0.7065
  -2.100   0.2486   0.00846   0.00240  -0.1078  0.8893  0.1040  -1.2188   0.0000   0.0000   0.0000   0.6857
  -2.000   0.2597   0.00834   0.00234  -0.1077  0.8860  0.1182  -1.1416   0.0000   0.0000   0.0000   0.6667
  -1.900   0.2711   0.00826   0.00227  -0.1077  0.8827  0.1326  -1.0638   0.0000   0.0000   0.0000   0.6491
  -1.800   0.2819   0.00817   0.00220  -0.1077  0.8791  0.1489  -1.0281   0.0000   0.0000   0.0000   0.6334
  -1.700   0.2925   0.00808   0.00216  -0.1076  0.8748  0.1644  -0.9792   0.0000   0.0000   0.0000   0.6190
  -1.600   0.3033   0.00801   0.00212  -0.1075  0.8705  0.1780  -0.9300   0.0000   0.0000   0.0000   0.6055
  -1.500   0.3142   0.00792   0.00208  -0.1074  0.8662  0.1955  -0.8811   0.0000   0.0000   0.0000   0.5928
  -1.400   0.3252   0.00787   0.00203  -0.1073  0.8621  0.2101  -0.8322   0.0000   0.0000   0.0000   0.5808
  -1.300   0.3363   0.00778   0.00199  -0.1073  0.8581  0.2315  -0.7839   0.0000   0.0000   0.0000   0.5697
  -1.200   0.3473   0.00771   0.00196  -0.1072  0.8541  0.2525  -0.7360   0.0000   0.0000   0.0000   0.5593
  -1.100   0.3580   0.00763   0.00195  -0.1071  0.8496  0.2751  -0.6896   0.0000   0.0000   0.0000   0.5497
  -1.000   0.3687   0.00753   0.00193  -0.1071  0.8445  0.3028  -0.6438   0.0000   0.0000   0.0000   0.5407
  -0.900   0.3794   0.00743   0.00190  -0.1070  0.8392  0.3321  -0.5984   0.0000   0.0000   0.0000   0.5322
  -0.800   0.3902   0.00732   0.00186  -0.1069  0.8340  0.3664  -0.5669   0.0000   0.0000   0.0000   0.5240
  -0.700   0.4008   0.00717   0.00183  -0.1068  0.8290  0.4188  -0.5740   0.0000   0.0000   0.0000   0.5165
  -0.600   0.4106   0.00682   0.00186  -0.1067  0.8241  0.5470  -0.5807   0.0000   0.0000   0.0000   0.5097
  -0.500   0.4188   0.00640   0.00190  -0.1061  0.8189  0.6995  -0.5867   0.0000   0.0000   0.0000   0.5031
  -0.400   0.4226   0.00595   0.00193  -0.1041  0.8133  0.8602  -0.5909   0.0000   0.0000   0.0000   0.4960
  -0.300   0.4418   0.00578   0.00185  -0.1056  0.8084  0.9999  -0.6025   0.0000   0.0000   0.0000   0.4885
  -0.200   0.4527   0.00580   0.00181  -0.1054  0.8029  0.9999  -0.6105   0.0000   0.0000   0.0000   0.4824
  -0.100   0.4636   0.00584   0.00178  -0.1053  0.7975  0.9999  -0.6186   0.0000   0.0000   0.0000   0.4766
   0.000   0.4746   0.00587   0.00178  -0.1052  0.7925  0.9999  -0.6266   0.0000   0.0000   0.0000   0.4711
   0.100   0.4855   0.00588   0.00177  -0.1052  0.7871  0.9999  -0.6346   0.0000   0.0000   0.0000   0.4658
   0.200   0.4963   0.00591   0.00176  -0.1050  0.7811  0.9999  -0.6426   0.0000   0.0000   0.0000   0.4608
   0.300   0.5071   0.00594   0.00174  -0.1049  0.7748  0.9999  -0.6506   0.0000   0.0000   0.0000   0.4559
   0.400   0.5179   0.00598   0.00173  -0.1048  0.7683  0.9999  -0.6586   0.0000   0.0000   0.0000   0.4513
   0.500   0.5286   0.00603   0.00172  -0.1046  0.7619  0.9999  -0.6666   0.0000   0.0000   0.0000   0.4468
   0.600   0.5395   0.00606   0.00172  -0.1046  0.7561  0.9999  -0.6747   0.0000   0.0000   0.0000   0.4426
   0.700   0.5503   0.00609   0.00173  -0.1045  0.7493  0.9999  -0.6827   0.0000   0.0000   0.0000   0.4385
   0.800   0.5611   0.00613   0.00172  -0.1043  0.7421  0.9999  -0.6907   0.0000   0.0000   0.0000   0.4346
   0.900   0.5717   0.00618   0.00172  -0.1042  0.7351  0.9999  -0.6994   0.0000   0.0000   0.0000   0.4307
   1.000   0.5823   0.00625   0.00175  -0.1040  0.7282  0.9999  -0.7082   0.0000   0.0000   0.0000   0.4271
   1.100   0.5933   0.00627   0.00176  -0.1040  0.7228  0.9999  -0.7172   0.0000   0.0000   0.0000   0.4236
   1.200   0.6042   0.00631   0.00177  -0.1039  0.7165  0.9999  -0.7262   0.0000   0.0000   0.0000   0.4202
   1.300   0.6149   0.00635   0.00178  -0.1038  0.7096  0.9999  -0.7351   0.0000   0.0000   0.0000   0.4170
   1.400   0.6255   0.00641   0.00179  -0.1036  0.7024  0.9999  -0.7440   0.0000   0.0000   0.0000   0.4138
   1.500   0.6360   0.00649   0.00180  -0.1034  0.6948  0.9999  -0.7528   0.0000   0.0000   0.0000   0.4107
   1.600   0.6468   0.00653   0.00183  -0.1034  0.6887  0.9999  -0.7618   0.0000   0.0000   0.0000   0.4078
   1.700   0.6577   0.00657   0.00185  -0.1033  0.6820  0.9999  -0.7712   0.0000   0.0000   0.0000   0.4049
   1.800   0.6683   0.00662   0.00187  -0.1032  0.6746  0.9999  -0.7812   0.0000   0.0000   0.0000   0.4022
   1.900   0.6789   0.00669   0.00189  -0.1030  0.6671  0.9999  -0.7911   0.0000   0.0000   0.0000   0.3995
   2.000   0.6892   0.00678   0.00191  -0.1028  0.6595  0.9999  -0.8008   0.0000   0.0000   0.0000   0.3968
   2.100   0.7000   0.00684   0.00195  -0.1028  0.6534  0.9999  -0.8108   0.0000   0.0000   0.0000   0.3943
   2.200   0.7109   0.00688   0.00198  -0.1027  0.6479  0.9999  -0.8209   0.0000   0.0000   0.0000   0.3919
   2.300   0.7217   0.00693   0.00202  -0.1026  0.6414  0.9999  -0.8315   0.0000   0.0000   0.0000   0.3896
   2.400   0.7323   0.00699   0.00205  -0.1025  0.6344  0.9999  -0.8426   0.0000   0.0000   0.0000   0.3873
   2.500   0.7427   0.00708   0.00208  -0.1023  0.6272  0.9999  -0.8536   0.0000   0.0000   0.0000   0.3850
   2.600   0.7530   0.00718   0.00213  -0.1022  0.6191  0.9999  -0.8645   0.0000   0.0000   0.0000   0.3828
   2.700   0.7639   0.00722   0.00217  -0.1021  0.6143  0.9999  -0.8764   0.0000   0.0000   0.0000   0.3807
   2.800   0.7748   0.00727   0.00222  -0.1021  0.6090  0.9999  -0.9064   0.0000   0.0000   0.0000   0.3787
   2.900   0.7855   0.00733   0.00226  -0.1020  0.6033  0.9999  -0.9407   0.0000   0.0000   0.0000   0.3767
   3.000   0.7961   0.00740   0.00231  -0.1019  0.5971  0.9999  -0.9845   0.0000   0.0000   0.0000   0.3747
   3.100   0.8065   0.00748   0.00236  -0.1017  0.5906  0.9999  -1.0378   0.0000   0.0000   0.0000   0.3728
   3.200   0.8168   0.00759   0.00242  -0.1015  0.5834  0.9999  -1.0913   0.0000   0.0000   0.0000   0.3709
   3.300   0.8274   0.00766   0.00248  -0.1015  0.5777  0.9999  -1.1466   0.0000   0.0000   0.0000   0.3691
   3.400   0.8383   0.00770   0.00253  -0.1014  0.5736  0.9999  -1.2032   0.0000   0.0000   0.0000   0.3674
   3.500   0.8491   0.00776   0.00259  -0.1013  0.5686  0.9999  -1.2603   0.0000   0.0000   0.0000   0.3657
   3.600   0.8598   0.00782   0.00273  -0.1012  0.5627  0.9999  -1.3038   0.0000   0.0000   0.0000   0.3640
   3.700   0.8702   0.00791   0.00279  -0.1011  0.5560  0.9999  -1.3534   0.0000   0.0000   0.0000   0.3623
   3.800   0.8800   0.00803   0.00286  -0.1008  0.5465  0.9999  -1.4069   0.0000   0.0000   0.0000   0.3606
   3.900   0.8902   0.00812   0.00292  -0.1006  0.5369  0.9999  -1.4632   0.0000   0.0000   0.0000   0.3590
   4.000   0.9006   0.00817   0.00296  -0.1005  0.5274  0.9999  -1.5214   0.0000   0.0000   0.0000   0.3574
   4.100   0.9104   0.00828   0.00301  -0.1002  0.5160  0.9999  -1.5792   0.0000   0.0000   0.0000   0.3558
   4.200   0.9198   0.00843   0.00308  -0.0999  0.5036  0.9999  -1.6362   0.0000   0.0000   0.0000   0.3542
   4.300   0.9303   0.00850   0.00315  -0.0998  0.4956  0.9999  -1.7154   0.0000   0.0000   0.0000   0.3528
   4.400   0.9406   0.00857   0.00321  -0.0996  0.4861  0.9999  -1.8035   0.0000   0.0000   0.0000   0.3514
   4.500   0.9505   0.00869   0.00327  -0.0994  0.4752  0.9999  -1.8907   0.0000   0.0000   0.0000   0.3499
   4.600   0.9599   0.00884   0.00336  -0.0991  0.4638  0.9999  -1.9773   0.0000   0.0000   0.0000   0.3485
   4.700   0.9704   0.00891   0.00344  -0.0990  0.4563  0.9999  -2.0697   0.0000   0.0000   0.0000   0.3471
   4.800   0.9808   0.00899   0.00351  -0.0989  0.4476  0.9999  -2.1629   0.0000   0.0000   0.0000   0.3458
   4.900   0.9908   0.00910   0.00359  -0.0987  0.4380  0.9999  -2.2556   0.0000   0.0000   0.0000   0.3445
   5.000   1.0003   0.00926   0.00369  -0.0984  0.4270  0.9999  -2.3471   0.0000   0.0000   0.0000   0.3432
   5.100   1.0105   0.00936   0.00378  -0.0982  0.4181  0.9999  -2.4427   0.0000   0.0000   0.0000   0.3419
   5.200   1.0207   0.00945   0.00387  -0.0981  0.4068  0.9999  -2.5400   0.0000   0.0000   0.0000   0.3407
   5.300   1.0299   0.00963   0.00396  -0.0978  0.3902  0.9999  -2.6336   0.0000   0.0000   0.0000   0.3394
   5.400   1.0393   0.00979   0.00408  -0.0975  0.3742  0.9999  -2.7290   0.0000   0.0000   0.0000   0.3382
   5.500   1.0478   0.01004   0.00420  -0.0971  0.3502  0.9999  -2.8215   0.0000   0.0000   0.0000   0.3369
   5.600   1.0563   0.01030   0.00435  -0.0967  0.3243  0.9999  -2.9144   0.0000   0.0000   0.0000   0.3357
   5.700   1.0638   0.01067   0.00454  -0.0962  0.2911  0.9999  -3.0030   0.0000   0.0000   0.0000   0.3344
   5.800   1.0704   0.01114   0.00479  -0.0955  0.2508  0.9999  -3.0877   0.0000   0.0000   0.0000   0.3331
   5.900   1.0760   0.01174   0.00512  -0.0948  0.2049  0.9999  -3.1672   0.0000   0.0000   0.0000   0.3319
   6.000   1.0816   0.01235   0.00547  -0.0941  0.1587  0.9999  -3.2468   0.0000   0.0000   0.0000   0.3306
   6.100   1.0867   0.01304   0.00587  -0.0932  0.1144  0.9999  -3.3228   0.0000   0.0000   0.0000   0.3294
   6.200   1.0928   0.01360   0.00624  -0.0925  0.0818  0.9999  -3.4030   0.0000   0.0000   0.0000   0.3282
   6.300   1.0994   0.01410   0.00659  -0.0919  0.0606  0.9999  -3.4843   0.0000   0.0000   0.0000   0.3269
   6.400   1.1073   0.01445   0.00694  -0.0914  0.0483  0.9999  -3.5562   0.0000   0.0000   0.0000   0.3258
   6.500   1.1154   0.01477   0.00721  -0.0910  0.0413  0.9999  -3.6425   0.0000   0.0000   0.0000   0.3247
   6.600   1.1229   0.01519   0.00760  -0.0903  0.0337  0.9999  -3.7137   0.0000   0.0000   0.0000   0.3235
   6.700   1.1319   0.01539   0.00783  -0.0900  0.0311  0.9999  -3.8071   0.0000   0.0000   0.0000   0.3224
   6.800   1.1403   0.01567   0.00810  -0.0896  0.0281  0.9999  -3.8949   0.0000   0.0000   0.0000   0.3213
   6.900   1.1479   0.01604   0.00846  -0.0890  0.0251  0.9999  -3.9721   0.0000   0.0000   0.0000   0.3202
   7.000   1.1529   0.01671   0.00922  -0.0879  0.0219  0.9999  -4.0059   0.0000   0.0000   0.0000   0.3188
   7.100   1.1611   0.01699   0.00952  -0.0874  0.0210  0.9999  -4.0902   0.0000   0.0000   0.0000   0.3177
   7.200   1.1706   0.01711   0.00966  -0.0872  0.0203  0.9999  -4.1912   0.0000   0.0000   0.0000   0.3168
   7.300   1.1796   0.01730   0.00986  -0.0869  0.0188  0.9999  -4.2772   0.0000   0.0000   0.0000   0.3158
   7.400   1.1878   0.01758   0.01014  -0.0864  0.0168  0.9999  -4.3428   0.0000   0.0000   0.0000   0.3148
   7.500   1.1950   0.01794   0.01052  -0.0858  0.0152  0.9999  -4.3996   0.0000   0.0000   0.0000   0.3137
   7.600   1.2007   0.01847   0.01108  -0.0848  0.0141  0.9999  -4.4346   0.0000   0.0000   0.0000   0.3124
   7.700   1.2050   0.01912   0.01180  -0.0837  0.0134  0.9999  -4.4543   0.0000   0.0000   0.0000   0.3111
   7.800   1.2087   0.01983   0.01258  -0.0824  0.0129  0.9999  -4.4724   0.0000   0.0000   0.0000   0.3097
   7.900   1.2123   0.02055   0.01337  -0.0811  0.0126  0.9999  -4.4941   0.0000   0.0000   0.0000   0.3083
   8.000   1.2159   0.02127   0.01417  -0.0799  0.0124  0.9999  -4.5199   0.0000   0.0000   0.0000   0.3070
   8.100   1.2198   0.02200   0.01495  -0.0787  0.0123  0.9999  -4.5496   0.0000   0.0000   0.0000   0.3057
   8.200   1.2240   0.02272   0.01574  -0.0776  0.0122  0.9999  -4.5834   0.0000   0.0000   0.0000   0.3044
   8.300   1.2287   0.02343   0.01650  -0.0766  0.0122  0.9999  -4.6215   0.0000   0.0000   0.0000   0.3032
   8.400   1.2339   0.02414   0.01726  -0.0756  0.0122  0.9999  -4.6639   0.0000   0.0000   0.0000   0.3021
   8.500   1.2395   0.02483   0.01801  -0.0748  0.0122  0.9999  -4.7104   0.0000   0.0000   0.0000   0.3010
   8.600   1.2455   0.02551   0.01873  -0.0740  0.0122  0.9999  -4.7608   0.0000   0.0000   0.0000   0.2999
   8.700   1.2519   0.02617   0.01945  -0.0732  0.0122  0.9999  -4.8146   0.0000   0.0000   0.0000   0.2989
   8.800   1.2586   0.02682   0.02015  -0.0726  0.0123  0.9999  -4.8712   0.0000   0.0000   0.0000   0.2979
   8.900   1.2654   0.02747   0.02084  -0.0719  0.0123  0.9999  -4.9299   0.0000   0.0000   0.0000   0.2970
   9.000   1.2724   0.02811   0.02153  -0.0713  0.0124  0.9999  -4.9899   0.0000   0.0000   0.0000   0.2960
   9.100   1.2794   0.02875   0.02223  -0.0707  0.0125  0.9999  -5.0504   0.0000   0.0000   0.0000   0.2951
   9.200   1.2865   0.02940   0.02294  -0.0701  0.0127  0.9999  -5.1101   0.0000   0.0000   0.0000   0.2942
   9.300   1.2936   0.03008   0.02369  -0.0694  0.0128  0.9999  -5.1673   0.0000   0.0000   0.0000   0.2933
   9.400   1.3007   0.03082   0.02450  -0.0688  0.0130  0.9999  -5.2190   0.0000   0.0000   0.0000   0.2924
   9.500   1.3082   0.03173   0.02558  -0.0682  0.0134  0.9999  -5.2605   0.0000   0.0000   0.0000   0.2915
   9.600   1.3166   0.03351   0.02757  -0.0675  0.0141  0.9999  -5.2182   0.0000   0.0000   0.0000   0.2905
   9.700   1.3245   0.03606   0.03035  -0.0668  0.0149  0.9999  -5.1285   0.0000   0.0000   0.0000   0.2895
   9.800   1.3287   0.03798   0.03246  -0.0657  0.0154  0.9999  -5.0892   0.0000   0.0000   0.0000   0.2885
   9.900   1.3327   0.03897   0.03354  -0.0648  0.0153  0.9999  -5.1309   0.0000   0.0000   0.0000   0.2875
  10.000   1.3375   0.03908   0.03364  -0.0642  0.0147  0.9999  -5.2531   0.0000   0.0000   0.0000   0.2867
  10.100   1.3407   0.03920   0.03377  -0.0633  0.0142  0.9999  -5.3678   0.0000   0.0000   0.0000   0.2858
  10.200   1.3433   0.03929   0.03386  -0.0625  0.0137  0.9999  -5.4887   0.0000   0.0000   0.0000   0.2849
  10.300   1.3459   0.03972   0.03430  -0.0616  0.0133  0.9999  -5.5885   0.0000   0.0000   0.0000   0.2841
  10.400   1.3473   0.04048   0.03510  -0.0605  0.0130  0.9999  -5.6554   0.0000   0.0000   0.0000   0.2831
  10.500   1.3478   0.04151   0.03619  -0.0593  0.0128  0.9999  -5.6997   0.0000   0.0000   0.0000   0.2820
  10.600   1.3474   0.04270   0.03747  -0.0580  0.0126  0.9999  -5.7269   0.0000   0.0000   0.0000   0.2810
  10.700   1.3460   0.04399   0.03885  -0.0567  0.0125  0.9999  -5.7420   0.0000   0.0000   0.0000   0.2799
  10.800   1.3437   0.04532   0.04028  -0.0552  0.0124  0.9999  -5.7493   0.0000   0.0000   0.0000   0.2787
  10.900   1.3407   0.04664   0.04170  -0.0537  0.0123  0.9999  -5.7522   0.0000   0.0000   0.0000   0.2776
  11.000   1.3372   0.04795   0.04311  -0.0522  0.0122  0.9999  -5.7534   0.0000   0.0000   0.0000   0.2765
  11.100   1.3334   0.04924   0.04449  -0.0508  0.0122  0.9999  -5.7548   0.0000   0.0000   0.0000   0.2754
  11.200   1.3294   0.05047   0.04582  -0.0494  0.0122  0.9999  -5.7577   0.0000   0.0000   0.0000   0.2743
  11.300   1.3255   0.05166   0.04708  -0.0481  0.0121  0.9999  -5.7636   0.0000   0.0000   0.0000   0.2733
  11.400   1.3219   0.05278   0.04829  -0.0469  0.0122  0.9999  -5.7743   0.0000   0.0000   0.0000   0.2724
  11.500   1.3188   0.05385   0.04944  -0.0458  0.0122  0.9999  -5.7896   0.0000   0.0000   0.0000   0.2715
  11.600   1.3154   0.05496   0.05062  -0.0448  0.0122  0.9999  -5.8033   0.0000   0.0000   0.0000   0.2706
  11.700   1.3118   0.05612   0.05186  -0.0439  0.0122  0.9999  -5.8149   0.0000   0.0000   0.0000   0.2699
  11.800   1.3076   0.05731   0.05312  -0.0430  0.0123  0.9999  -5.8235   0.0000   0.0000   0.0000   0.2691
  11.900   1.3032   0.05853   0.05441  -0.0421  0.0123  0.9999  -5.8298   0.0000   0.0000   0.0000   0.2685
  12.000   1.2984   0.05982   0.05578  -0.0414  0.0123  0.9999  -5.8357   0.0000   0.0000   0.0000   0.2678
  12.100   1.2936   0.06117   0.05721  -0.0408  0.0124  0.9999  -5.8508   0.0000   0.0000   0.0000   0.2673
  12.200   1.2885   0.06260   0.05871  -0.0402  0.0124  0.9999  -5.8623   0.0000   0.0000   0.0000   0.2669
  12.300   1.2832   0.06410   0.06029  -0.0398  0.0125  0.9999  -5.8709   0.0000   0.0000   0.0000   0.2665
  12.400   1.2776   0.06568   0.06194  -0.0395  0.0125  0.9999  -5.8750   0.0000   0.0000   0.0000   0.2663
  12.500   1.2718   0.06734   0.06368  -0.0394  0.0126  0.9999  -5.8752   0.0000   0.0000   0.0000   0.2661
  12.600   1.2656   0.06909   0.06551  -0.0393  0.0126  0.9999  -5.8697   0.0000   0.0000   0.0000   0.2661
  12.700   1.2593   0.07095   0.06745  -0.0394  0.0127  0.9999  -5.8578   0.0000   0.0000   0.0000   0.2661
  12.800   1.2521   0.07301   0.06961  -0.0395  0.0129  0.9999  -5.8294   0.0000   0.0000   0.0000   0.2663
  14.700   1.0200   0.15941   0.15723  -0.0840  0.0223  0.9999  -3.1137   0.0000   0.0000   0.0000   0.3159
  14.800   1.0137   0.16345   0.16125  -0.0861  0.0221  0.9999  -3.0037   0.0000   0.0000   0.0000   0.3184
  14.900   0.9892   0.17409   0.17183  -0.0911  0.0214  0.9999  -2.5680   0.0000   0.0000   0.0000   0.3259
  15.000   0.9891   0.17658   0.17431  -0.0923  0.0214  0.9999  -2.5323   0.0000   0.0000   0.0000   0.3270
  15.100   0.9892   0.17901   0.17674  -0.0934  0.0214  0.9999  -2.4990   0.0000   0.0000   0.0000   0.3281
  15.200   0.9894   0.18139   0.17912  -0.0946  0.0214  0.9999  -2.4680   0.0000   0.0000   0.0000   0.3291
  15.300   0.9897   0.18374   0.18147  -0.0957  0.0213  0.9999  -2.4389   0.0000   0.0000   0.0000   0.3301
  15.400   0.9902   0.18606   0.18378  -0.0968  0.0213  0.9999  -2.4168   0.0000   0.0000   0.0000   0.3311
  15.500   0.9908   0.18835   0.18607  -0.0979  0.0213  0.9999  -2.4044   0.0000   0.0000   0.0000   0.3320
  15.600   0.9915   0.19061   0.18833  -0.0989  0.0213  0.9999  -2.3935   0.0000   0.0000   0.0000   0.3329
  15.700   0.9923   0.19284   0.19056  -0.1000  0.0213  0.9999  -2.3839   0.0000   0.0000   0.0000   0.3338
  15.800   0.9932   0.19505   0.19277  -0.1010  0.0213  0.9999  -2.3757   0.0000   0.0000   0.0000   0.3346
  15.900   0.9941   0.19724   0.19495  -0.1020  0.0213  0.9999  -2.3686   0.0000   0.0000   0.0000   0.3354
  16.000   0.9952   0.19940   0.19711  -0.1030  0.0212  0.9999  -2.3628   0.0000   0.0000   0.0000   0.3362
  16.100   0.9963   0.20153   0.19925  -0.1040  0.0212  0.9999  -2.3582   0.0000   0.0000   0.0000   0.3370
  16.200   0.9975   0.20364   0.20136  -0.1050  0.0212  0.9999  -2.3547   0.0000   0.0000   0.0000   0.3377
  16.300   0.9988   0.20573   0.20344  -0.1060  0.0212  0.9999  -2.3525   0.0000   0.0000   0.0000   0.3384
  16.400   1.0002   0.20779   0.20550  -0.1069  0.0211  0.9999  -2.3513   0.0000   0.0000   0.0000   0.3391
  16.500   1.0016   0.20984   0.20755  -0.1079  0.0211  0.9999  -2.3510   0.0000   0.0000   0.0000   0.3398
  16.600   1.0031   0.21188   0.20959  -0.1088  0.0210  0.9999  -2.3513   0.0000   0.0000   0.0000   0.3404
  16.700   1.0046   0.21389   0.21160  -0.1097  0.0210  0.9999  -2.3526   0.0000   0.0000   0.0000   0.3410
  16.800   1.0063   0.21586   0.21357  -0.1106  0.0209  0.9999  -2.3553   0.0000   0.0000   0.0000   0.3416
  16.900   1.0082   0.21776   0.21547  -0.1116  0.0208  0.9999  -2.3602   0.0000   0.0000   0.0000   0.3422
  17.000   1.0108   0.21949   0.21720  -0.1126  0.0206  0.9999  -2.3702   0.0000   0.0000   0.0000   0.3428
  17.100   1.0148   0.22113   0.21884  -0.1140  0.0197  0.9999  -2.3700   0.0000   0.0000   0.0000   0.3436
  17.200   1.0164   0.22340   0.22112  -0.1155  0.0188  0.9999  -2.3437   0.0000   0.0000   0.0000   0.3448
  17.300   1.0177   0.22556   0.22327  -0.1166  0.0181  0.9999  -2.3324   0.0000   0.0000   0.0000   0.3456
  17.400   1.0191   0.22759   0.22530  -0.1176  0.0175  0.9999  -2.3313   0.0000   0.0000   0.0000   0.3463
  17.500   1.0206   0.22953   0.22725  -0.1184  0.0169  0.9999  -2.3371   0.0000   0.0000   0.0000   0.3468
  17.600   1.0221   0.23139   0.22911  -0.1193  0.0163  0.9999  -2.3489   0.0000   0.0000   0.0000   0.3473
  17.700   1.0238   0.23316   0.23087  -0.1200  0.0157  0.9999  -2.3668   0.0000   0.0000   0.0000   0.3477
  17.800   1.0255   0.23482   0.23253  -0.1207  0.0152  0.9999  -2.3920   0.0000   0.0000   0.0000   0.3480
  17.900   1.0274   0.23634   0.23406  -0.1213  0.0147  0.9999  -2.4260   0.0000   0.0000   0.0000   0.3482
  18.000   1.0322   0.23554   0.23332  -0.1209  0.0134  0.9999  -2.5972   0.0000   0.0000   0.0000   0.3469
  18.100   1.0362   0.23538   0.23316  -0.1206  0.0128  0.9999  -2.7446   0.0000   0.0000   0.0000   0.3458
  18.200   1.0385   0.23591   0.23370  -0.1206  0.0124  0.9999  -2.8512   0.0000   0.0000   0.0000   0.3454
  18.300   1.0264   0.24370   0.24144  -0.1224  0.0114  0.9999  -2.5308   0.0000   0.0000   0.0000   0.3486
  18.400   1.0275   0.24621   0.24395  -0.1234  0.0114  0.9999  -2.4827   0.0000   0.0000   0.0000   0.3493
  18.500   1.0286   0.24873   0.24647  -0.1243  0.0113  0.9999  -2.4319   0.0000   0.0000   0.0000   0.3500
  18.600   1.0297   0.25124   0.24898  -0.1252  0.0113  0.9999  -2.3830   0.0000   0.0000   0.0000   0.3506
  18.700   1.0307   0.25372   0.25146  -0.1260  0.0113  0.9999  -2.3391   0.0000   0.0000   0.0000   0.3511
  18.800   1.0318   0.25617   0.25390  -0.1268  0.0113  0.9999  -2.3006   0.0000   0.0000   0.0000   0.3516
  18.900   1.0329   0.25858   0.25631  -0.1276  0.0113  0.9999  -2.2666   0.0000   0.0000   0.0000   0.3521
  19.000   1.0341   0.26096   0.25869  -0.1283  0.0112  0.9999  -2.2364   0.0000   0.0000   0.0000   0.3525
  19.100   1.0352   0.26332   0.26105  -0.1291  0.0112  0.9999  -2.2094   0.0000   0.0000   0.0000   0.3530
  19.200   1.0364   0.26565   0.26338  -0.1298  0.0112  0.9999  -2.1849   0.0000   0.0000   0.0000   0.3534
  19.300   1.0375   0.26797   0.26570  -0.1305  0.0112  0.9999  -2.1625   0.0000   0.0000   0.0000   0.3538
  19.400   1.0387   0.27027   0.26800  -0.1312  0.0112  0.9999  -2.1419   0.0000   0.0000   0.0000   0.3542
  19.500   1.0398   0.27255   0.27029  -0.1319  0.0112  0.9999  -2.1227   0.0000   0.0000   0.0000   0.3546
  19.600   1.0410   0.27483   0.27256  -0.1326  0.0112  0.9999  -2.1048   0.0000   0.0000   0.0000   0.3549
  19.700   1.0421   0.27709   0.27482  -0.1333  0.0112  0.9999  -2.0880   0.0000   0.0000   0.0000   0.3553
  19.800   1.0433   0.27934   0.27707  -0.1340  0.0112  0.9999  -2.0722   0.0000   0.0000   0.0000   0.3557
  19.900   1.0444   0.28158   0.27931  -0.1347  0.0111  0.9999  -2.0572   0.0000   0.0000   0.0000   0.3560
  20.000   1.0455   0.28381   0.28154  -0.1353  0.0111  0.9999  -2.0430   0.0000   0.0000   0.0000   0.3564
  20.100   1.0466   0.28602   0.28376  -0.1360  0.0111  0.9999  -2.0295   0.0000   0.0000   0.0000   0.3567
  20.200   1.0477   0.28823   0.28596  -0.1367  0.0111  0.9999  -2.0167   0.0000   0.0000   0.0000   0.3571
  20.300   1.0488   0.29042   0.28816  -0.1373  0.0111  0.9999  -2.0045   0.0000   0.0000   0.0000   0.3574
  20.400   1.0499   0.29260   0.29034  -0.1380  0.0110  0.9999  -1.9927   0.0000   0.0000   0.0000   0.3578
  20.500   1.0509   0.29476   0.29250  -0.1387  0.0110  0.9999  -1.9815   0.0000   0.0000   0.0000   0.3581
  20.600   1.0520   0.29690   0.29464  -0.1393  0.0110  0.9999  -1.9710   0.0000   0.0000   0.0000   0.3585
  20.700   1.0531   0.29902   0.29676  -0.1400  0.0109  0.9999  -1.9604   0.0000   0.0000   0.0000   0.3588
  20.800   1.0541   0.30111   0.29885  -0.1407  0.0109  0.9999  -1.9502   0.0000   0.0000   0.0000   0.3592
  20.900   1.0551   0.30326   0.30100  -0.1415  0.0108  0.9999  -1.9325   0.0000   0.0000   0.0000   0.3597
  21.000   1.0562   0.30539   0.30314  -0.1424  0.0106  0.9999  -1.9120   0.0000   0.0000   0.0000   0.3603
  21.100   1.0577   0.30754   0.30529  -0.1434  0.0103  0.9999  -1.8862   0.0000   0.0000   0.0000   0.3609
  21.200   1.0593   0.30979   0.30753  -0.1444  0.0099  0.9999  -1.8591   0.0000   0.0000   0.0000   0.3614
  21.300   1.0604   0.31203   0.30978  -0.1450  0.0094  0.9999  -1.8408   0.0000   0.0000   0.0000   0.3618
  21.400   1.0612   0.31424   0.31199  -0.1457  0.0091  0.9999  -1.8286   0.0000   0.0000   0.0000   0.3621
  21.500   1.0618   0.31642   0.31417  -0.1462  0.0088  0.9999  -1.8195   0.0000   0.0000   0.0000   0.3623
  21.600   1.0624   0.31857   0.31633  -0.1467  0.0086  0.9999  -1.8123   0.0000   0.0000   0.0000   0.3626
  21.700   1.0628   0.32071   0.31847  -0.1472  0.0083  0.9999  -1.8064   0.0000   0.0000   0.0000   0.3629
  21.800   1.0632   0.32283   0.32059  -0.1477  0.0081  0.9999  -1.8013   0.0000   0.0000   0.0000   0.3631
  21.900   1.0634   0.32493   0.32270  -0.1482  0.0079  0.9999  -1.7970   0.0000   0.0000   0.0000   0.3634
  22.000   1.0636   0.32702   0.32479  -0.1487  0.0077  0.9999  -1.7932   0.0000   0.0000   0.0000   0.3636
  22.100   1.0637   0.32909   0.32686  -0.1491  0.0076  0.9999  -1.7899   0.0000   0.0000   0.0000   0.3638
  22.200   1.0637   0.33115   0.32892  -0.1495  0.0074  0.9999  -1.7870   0.0000   0.0000   0.0000   0.3640
  22.300   1.0636   0.33318   0.33096  -0.1499  0.0073  0.9999  -1.7844   0.0000   0.0000   0.0000   0.3642
  22.400   1.0633   0.33520   0.33298  -0.1503  0.0071  0.9999  -1.7821   0.0000   0.0000   0.0000   0.3645
  22.500   1.0630   0.33720   0.33498  -0.1506  0.0070  0.9999  -1.7807   0.0000   0.0000   0.0000   0.3647
  22.600   1.0625   0.33917   0.33696  -0.1509  0.0069  0.9999  -1.7793   0.0000   0.0000   0.0000   0.3649
  22.700   1.0619   0.34111   0.33890  -0.1512  0.0068  0.9999  -1.7781   0.0000   0.0000   0.0000   0.3650
  22.800   1.0610   0.34302   0.34082  -0.1515  0.0067  0.9999  -1.7769   0.0000   0.0000   0.0000   0.3652
  22.900   1.0601   0.34490   0.34270  -0.1517  0.0066  0.9999  -1.7757   0.0000   0.0000   0.0000   0.3654
  23.000   1.0588   0.34674   0.34455  -0.1519  0.0065  0.9999  -1.7745   0.0000   0.0000   0.0000   0.3656
  23.100   1.0574   0.34853   0.34634  -0.1520  0.0064  0.9999  -1.7730   0.0000   0.0000   0.0000   0.3658
  23.200   1.0556   0.35026   0.34808  -0.1521  0.0063  0.9999  -1.7712   0.0000   0.0000   0.0000   0.3659
  23.300   1.0535   0.35192   0.34974  -0.1521  0.0062  0.9999  -1.7688   0.0000   0.0000   0.0000   0.3661
  23.400   1.0509   0.35349   0.35132  -0.1521  0.0061  0.9999  -1.7656   0.0000   0.0000   0.0000   0.3662
  23.500   1.0478   0.35494   0.35278  -0.1519  0.0061  0.9999  -1.7612   0.0000   0.0000   0.0000   0.3663
  23.600   1.0437   0.35622   0.35406  -0.1516  0.0060  0.9999  -1.7547   0.0000   0.0000   0.0000   0.3665
  24.100   0.9242   0.33427   0.33221  -0.1325  0.0061  0.9999  -1.4442   0.0000   0.0000   0.0000   0.3658
  24.200   0.9200   0.33416   0.33212  -0.1321  0.0060  0.9999  -1.4367   0.0000   0.0000   0.0000   0.3659
  24.300   0.9162   0.33411   0.33207  -0.1317  0.0060  0.9999  -1.4304   0.0000   0.0000   0.0000   0.3660
  24.400   0.9126   0.33411   0.33207  -0.1314  0.0059  0.9999  -1.4252   0.0000   0.0000   0.0000   0.3661
  24.500   0.9092   0.33412   0.33209  -0.1312  0.0058  0.9999  -1.4209   0.0000   0.0000   0.0000   0.3663
  24.600   0.9061   0.33416   0.33214  -0.1309  0.0058  0.9999  -1.4176   0.0000   0.0000   0.0000   0.3664
  24.700   0.9031   0.33423   0.33221  -0.1307  0.0057  0.9999  -1.4152   0.0000   0.0000   0.0000   0.3665
  24.800   0.9003   0.33431   0.33231  -0.1305  0.0057  0.9999  -1.4137   0.0000   0.0000   0.0000   0.3666
  24.900   0.8977   0.33442   0.33242  -0.1304  0.0056  0.9999  -1.4131   0.0000   0.0000   0.0000   0.3667
  25.000   0.8951   0.33454   0.33255  -0.1302  0.0055  0.9999  -1.4133   0.0000   0.0000   0.0000   0.3669
  25.100   0.8927   0.33467   0.33268  -0.1301  0.0055  0.9999  -1.4142   0.0000   0.0000   0.0000   0.3670
  25.200   0.8904   0.33481   0.33283  -0.1300  0.0054  0.9999  -1.4160   0.0000   0.0000   0.0000   0.3671
  25.300   0.8882   0.33496   0.33298  -0.1299  0.0054  0.9999  -1.4185   0.0000   0.0000   0.0000   0.3672
  25.400   0.8861   0.33511   0.33314  -0.1298  0.0053  0.9999  -1.4218   0.0000   0.0000   0.0000   0.3673
  25.500   0.8841   0.33527   0.33331  -0.1297  0.0053  0.9999  -1.4258   0.0000   0.0000   0.0000   0.3674
  25.600   0.8822   0.33543   0.33347  -0.1296  0.0052  0.9999  -1.4305   0.0000   0.0000   0.0000   0.3675
  25.700   0.8803   0.33559   0.33364  -0.1296  0.0052  0.9999  -1.4359   0.0000   0.0000   0.0000   0.3675
  25.800   0.8784   0.33576   0.33385  -0.1295  0.0051  0.9999  -1.4401   0.0000   0.0000   0.0000   0.3676
  25.900   0.8766   0.33594   0.33404  -0.1294  0.0051  0.9999  -1.4451   0.0000   0.0000   0.0000   0.3677
  26.000   0.8748   0.33610   0.33420  -0.1293  0.0050  0.9999  -1.4515   0.0000   0.0000   0.0000   0.3677
  26.100   0.8731   0.33626   0.33437  -0.1292  0.0050  0.9999  -1.4584   0.0000   0.0000   0.0000   0.3677
  26.200   0.8713   0.33641   0.33453  -0.1291  0.0049  0.9999  -1.4652   0.0000   0.0000   0.0000   0.3677
  26.300   0.8695   0.33656   0.33468  -0.1290  0.0049  0.9999  -1.4713   0.0000   0.0000   0.0000   0.3677
  26.400   0.8673   0.33677   0.33490  -0.1288  0.0048  0.9999  -1.4661   0.0000   0.0000   0.0000   0.3678
  26.500   0.8637   0.33706   0.33519  -0.1284  0.0047  0.9999  -1.4340   0.0000   0.0000   0.0000   0.3679


